AV-unprocessed.smi:2093|AV-procd|sdf|8549|dock9
  -GOLD-   2272011273D 1   1.00000     0.00000
 Structure written by MMmdl.
 30 31  0  0  0  0  0  0  0  0  2 V2000
  153.0015  143.7232  158.5168 C   0  0  0  0  0  0  0  0  0  0  0  0
  151.7308  143.2824  159.2582 C   0  0  1  0  0  0  0  0  0  0  0  0
  151.0567  142.2574  158.4611 N   0  0  0  0  0  0  0  0  0  0  0  0
  151.5784  141.0973  158.0355 C   0  0  0  0  0  0  0  0  0  0  0  0
  152.7445  140.8049  158.3101 O   0  0  0  0  0  0  0  0  0  0  0  0
  150.7163  140.3500  157.3089 N   0  5  0  0  0  0  0  0  0  0  0  0
  151.1748  139.5719  156.3150 C   0  0  0  0  0  0  0  0  0  0  0  0
  152.4770  139.4210  156.0465 N   0  0  0  0  0  0  0  0  0  0  0  0
  152.7268  138.5635  154.9735 C   0  0  0  0  0  0  0  0  0  0  0  0
  151.5889  138.0407  154.4188 C   0  0  0  0  0  0  0  0  0  0  0  0
  150.1607  138.6143  155.2318 S   0  0  0  0  0  0  0  0  0  0  0  0
  152.0508  142.7480  160.6701 C   0  0  2  0  0  0  0  0  0  0  0  0
  152.5623  143.7920  161.6618 C   0  0  0  0  0  0  0  0  0  0  0  0
  153.2328  142.9327  162.7131 C   0  0  0  0  0  0  0  0  0  0  0  0
  153.7162  141.7163  161.9196 C   0  0  0  0  0  0  0  0  0  0  0  0
  153.1275  141.8209  160.6261 O   0  0  0  0  0  0  0  0  0  0  0  0
  153.5189  144.5163  159.0572 H   0  0  0  0  0  0  0  0  0  0  0  0
  152.7632  144.1063  157.5240 H   0  0  0  0  0  0  0  0  0  0  0  0
  153.6987  142.8935  158.3952 H   0  0  0  0  0  0  0  0  0  0  0  0
  151.0883  144.1593  159.3536 H   0  0  0  0  0  0  0  0  0  0  0  0
  150.0984  142.4452  158.2058 H   0  0  0  0  0  0  0  0  0  0  0  0
  153.7477  138.3810  154.6728 H   0  0  0  0  0  0  0  0  0  0  0  0
  151.5032  137.3573  153.5878 H   0  0  0  0  0  0  0  0  0  0  0  0
  151.1781  142.2441  161.0903 H   0  0  0  0  0  0  0  0  0  0  0  0
  153.3001  144.4390  161.1853 H   0  0  0  0  0  0  0  0  0  0  0  0
  151.7699  144.4203  162.0698 H   0  0  0  0  0  0  0  0  0  0  0  0
  154.0426  143.4534  163.2252 H   0  0  0  0  0  0  0  0  0  0  0  0
  152.5025  142.6231  163.4617 H   0  0  0  0  0  0  0  0  0  0  0  0
  154.8021  141.7034  161.8223 H   0  0  0  0  0  0  0  0  0  0  0  0
  153.4084  140.7878  162.4012 H   0  0  0  0  0  0  0  0  0  0  0  0
  1  2  1  0  0  0  0
  1 17  1  0  0  0  0
  1 18  1  0  0  0  0
  1 19  1  0  0  0  0
  2  3  1  0  0  0  0
  2 12  1  0  0  0  0
  2 20  1  0  0  0  0
  3  4  1  0  0  0  0
  3 21  1  0  0  0  0
  4  5  2  0  0  0  0
  4  6  1  0  0  0  0
  6  7  1  0  0  0  0
  7 11  1  0  0  0  0
  7  8  2  0  0  0  0
  8  9  1  0  0  0  0
  9 10  2  0  0  0  0
  9 22  1  0  0  0  0
 10 11  1  0  0  0  0
 10 23  1  0  0  0  0
 12 16  1  0  0  0  0
 12 13  1  0  0  0  0
 12 24  1  0  0  0  0
 13 14  1  0  0  0  0
 13 25  1  0  0  0  0
 13 26  1  0  0  0  0
 14 15  1  0  0  0  0
 14 27  1  0  0  0  0
 14 28  1  0  0  0  0
 15 16  1  0  0  0  0
 15 29  1  0  0  0  0
 15 30  1  0  0  0  0
M  CHG  1   6  -1
M  END
> <s_m_source_file>
AV-unprocessed.smi

> <i_m_source_file_index>
2093

> <i_lp_mmshare_version>
43012

> <i_f3d_flags>
0

> <s_epik_input>
TzFbQ0gyXVtDSDJdW0NIMl1bQ0BIXTFbQ0BIXShbQ0gzXSlbTkhdQyg9TylbTkhdYzJuW2NIXVtjSF1zMg==

> <s_epik_cmdline>
J2VwaWtfcHl0aG9uJywgJy1waCcsICc3LjAnLCAnLXRuJywgJzgnLCAnLW1hJywgJzIwMCcsICctbWV0YWxfYmluZGluZycsICctaW1hZScsICc8aW5maWxlLm1hZT4nLCAnLW9tYWUnLCAnPG91dGZpbGUubWFlPic=

> <r_lp_tautomer_probability>
0.999

> <r_epik_Ionization_Penalty>
8.26346

> <r_epik_Ionization_Penalty_Charging>
6.6559

> <r_epik_Ionization_Penalty_Neutral>
1.60756

> <r_epik_State_Penalty>
6.65607

> <r_epik_Charging_Adjusted_Penalty>
13.312

> <i_epik_Tot_Q>
-1

> <i_epik_Tot_abs_Q>
1

> <r_epik_Metal_State_Penalty>
2.5789

> <b_epik_Metal_Only>
1

> <s_lp_Force_Field>
OPLS_2005

> <r_lp_Energy>
13.6903

> <b_lp_Chiralities_Consistent>
1

> <s_lp_Variant>
AV-unprocessed.smi:2093-6

> <Gold.Version>
5.8.1

> <Gold.Id.Protein>
6NUR|6NUR_protein|mol2

> <Gold.PLP.Fitness>
41.6508

> <Gold.PLP.PLP>
-36.4002

> <Gold.PLP.part.hbond>
-1.7788

> <Gold.PLP.part.metal>
0.0000

> <Gold.PLP.part.buried>
-4.3375

> <Gold.PLP.part.nonpolar>
-29.6166

> <Gold.PLP.part.repulsive>
0.0590

> <Gold.PLP.ligand.clash>
0.0000

> <Gold.PLP.ligand.torsion>
0.3637

> <Gold.PLP.Chemscore.Hbond>
1.0000

> <Gold.PLP.Chemscore.CHOScore>
0.9855

> <Gold.PLP.Chemscore.Metal>
0.0000

> <Gold.Chemscore.Hbonds>
donor molecule, donor type, donor heavy atom, donor atom, acceptor molecule, acceptor atom, score
      P1  H  7997  8009       L1     8  1.00
      L1  C    10    23       P1  7949  1.00

> <Gold.PLP.Chemscore.Internal.Correction>
0.0216

> <Gold.Rescore>
     Score         DG    S(hbond)    S(metal)    S(lipo)     H(rot)  DE(clash)    DE(int)     intcor
     10.02     -15.03       0.55        0.00      93.99       1.28       0.11       4.90       ----

> <Gold.Chemscore.Fitness>
10.0240

> <Gold.Chemscore.DG>
-15.0345

> <Gold.Chemscore.ZeroCoef>
-5.4800

> <Gold.Chemscore.Hbond>
0.5474

> <Gold.Chemscore.Metal>
0.0000

> <Gold.Chemscore.Lipo>
93.9937

> <Gold.Chemscore.Internal_Hbond>
0.0000

> <Gold.Chemscore.DEClash>
0.1093

> <Gold.Chemscore.DEInternal>
4.9012

> <Gold.Chemscore.Rot>
1.2778

> <Gold.Chemscore.Internal.Correction>
   9.000000E+99

> <Gold.Chemscore.Hbonds>
donor molecule, donor type, donor heavy atom, donor atom, acceptor molecule, acceptor atom, score
      P1  H  7997  8009       L1     8  0.28

> <Gold.Chemscore.Hbond.Weighted>
-1.8283

> <Gold.Chemscore.Metal.Weighted>
-0.0000

> <Gold.Chemscore.Lipo.Weighted>
-10.9973

> <Gold.Chemscore.Internal_Hbond.Weighted>
0.0000

> <Gold.Chemscore.DEClash.Weighted>
0.1093

> <Gold.Chemscore.DEInternal.Weighted>
4.9012

> <Gold.Chemscore.Rot.Weighted>
3.2711

> <Gold.Chemscore.Internal.Correction.Weighted>
   9.000000E+99

> <Gold.Protein.RotatedTorsions>
[ 6907 6896 6895 6894 ] final  144.38 input  -60.11 | X-H torsion
[ 7974 7965 7964 7962 ] final   44.12 input  175.53 | X-H torsion
[ 8008 7997 7996 7995 ] final -170.48 input   59.86 | X-H torsion
[ 10167 10162 10161 10158 ] final  -26.61 input  -65.29 | X-H torsion
[ 10718 10713 10712 10709 ] final -130.45 input   66.30 | X-H torsion
[ 10763 10752 10751 10750 ] final  151.86 input  -60.55 | X-H torsion
[ 11005 11000 10999 10996 ] final   97.94 input  -57.11 | X-H torsion

> <Gold.Protein.ActiveResidues>
 VAL166  LYS551  ARG553  GLY616  TRP617  ASP618  TYR619  PRO620  LYS621  CYS622 
 ASP623  PHE694  ASN695  SER759  ASP760  ASP761  ALA762  ILE779  LEU786  VAL792 
 PHE793  MET794  SER795  GLU796  ALA797  LYS798  CYS799  TRP800  GLU811  SER814 

> <Gold.Protein.RotatedAtoms>
  152.1944  133.4796  159.5024 H   0  0  0  0  0  0  0  0  0  0  0  0  # atno 6907 bound_to 6896
  150.6957  134.1671  159.4207 H   0  0  0  0  0  0  0  0  0  0  0  0  # atno 6908 bound_to 6896
  151.9587  135.0134  160.0597 H   0  0  0  0  0  0  0  0  0  0  0  0  # atno 6909 bound_to 6896
  146.0596  139.5110  142.9667 H   0  0  0  0  0  0  0  0  0  0  0  0  # atno 7974 bound_to 7965
  155.9190  140.1070  157.1222 H   0  0  0  0  0  0  0  0  0  0  0  0  # atno 8008 bound_to 7997
  154.4051  140.1259  156.4719 H   0  0  0  0  0  0  0  0  0  0  0  0  # atno 8009 bound_to 7997
  155.7219  140.3469  155.5022 H   0  0  0  0  0  0  0  0  0  0  0  0  # atno 8010 bound_to 7997
  140.7282  143.4164  151.1022 H   0  0  0  0  0  0  0  0  0  0  0  0  # atno 10167 bound_to 10162
  156.2145  130.6940  151.0687 H   0  0  0  0  0  0  0  0  0  0  0  0  # atno 10718 bound_to 10713
  154.1106  135.2839  155.3231 H   0  0  0  0  0  0  0  0  0  0  0  0  # atno 10763 bound_to 10752
  154.6492  135.5375  153.7885 H   0  0  0  0  0  0  0  0  0  0  0  0  # atno 10764 bound_to 10752
  153.0347  135.6506  154.1264 H   0  0  0  0  0  0  0  0  0  0  0  0  # atno 10765 bound_to 10752
  139.8774  134.9025  156.4382 H   0  0  0  0  0  0  0  0  0  0  0  0  # atno 11005 bound_to 11000
  145.6583  141.0246  143.1722 LP  0  0  0  0  0  0  0  0  0  0  0  0  # atno 17320 bound_to 7965
  144.7167  139.8171  143.7396 LP  0  0  0  0  0  0  0  0  0  0  0  0  # atno 17321 bound_to 7965
  139.7804  143.8364  152.3136 LP  0  0  0  0  0  0  0  0  0  0  0  0  # atno 17342 bound_to 10162
  139.8313  144.7252  150.9447 LP  0  0  0  0  0  0  0  0  0  0  0  0  # atno 17343 bound_to 10162
  157.7056  131.0758  150.6677 LP  0  0  0  0  0  0  0  0  0  0  0  0  # atno 17370 bound_to 10713
  156.6738  130.4547  149.5649 LP  0  0  0  0  0  0  0  0  0  0  0  0  # atno 17371 bound_to 10713
  140.9018  133.7774  155.9689 LP  0  0  0  0  0  0  0  0  0  0  0  0  # atno 17394 bound_to 11000
  140.8642  134.2804  157.5220 LP  0  0  0  0  0  0  0  0  0  0  0  0  # atno 17395 bound_to 11000

$$$$
