AV-unprocessed.smi:3247|AV-procd|sdf|12412|dock7
  -GOLD-   2272018293D 1   1.00000     0.00000
 Structure written by MMmdl.
 35 36  0  0  0  0  0  0  0  0  1 V2000
  150.4224  140.4594  154.5563 O   0  0  0  0  0  0  0  0  0  0  0  0
  151.1584  140.6645  155.5213 C   0  0  0  0  0  0  0  0  0  0  0  0
  150.6584  141.4899  156.7045 C   0  0  0  0  0  0  0  0  0  0  0  0
  151.7772  142.0513  157.3757 O   0  0  0  0  0  0  0  0  0  0  0  0
  151.4304  143.0212  158.3532 C   0  0  0  0  0  0  0  0  0  0  0  0
  151.2514  144.3920  157.7036 C   0  0  0  0  0  0  0  0  0  0  0  0
  151.4134  145.3886  158.8552 C   0  0  0  0  0  0  0  0  0  0  0  0
  152.2913  144.6885  159.9050 C   0  0  0  0  0  0  0  0  0  0  0  0
  152.5348  143.2655  159.3864 C   0  0  0  0  0  0  0  0  0  0  0  0
  152.4175  140.2077  155.6025 N   0  0  0  0  0  0  0  0  0  0  0  0
  153.0896  139.4077  154.5851 C   0  0  0  0  0  0  0  0  0  0  0  0
  152.1722  138.3067  154.0269 C   0  0  0  0  0  0  0  0  0  0  0  0
  152.4156  136.9811  154.6823 C   0  0  0  0  0  0  0  0  0  0  0  0
  151.5141  135.9526  154.8184 C   0  0  0  0  0  0  0  0  0  0  0  0
  152.2022  134.5842  155.6520 S   0  0  0  0  0  0  0  0  0  0  0  0
  153.7055  135.4811  155.7832 C   0  0  0  0  0  0  0  0  0  0  0  0
  153.6671  136.6988  155.2414 N   0  0  0  0  0  0  0  0  0  0  0  0
  149.9958  142.2753  156.3377 H   0  0  0  0  0  0  0  0  0  0  0  0
  150.0818  140.8526  157.3764 H   0  0  0  0  0  0  0  0  0  0  0  0
  150.5013  142.7451  158.8555 H   0  0  0  0  0  0  0  0  0  0  0  0
  152.0410  144.5566  156.9688 H   0  0  0  0  0  0  0  0  0  0  0  0
  150.2950  144.4927  157.1900 H   0  0  0  0  0  0  0  0  0  0  0  0
  151.8489  146.3289  158.5156 H   0  0  0  0  0  0  0  0  0  0  0  0
  150.4386  145.6178  159.2874 H   0  0  0  0  0  0  0  0  0  0  0  0
  153.2341  145.2144  160.0591 H   0  0  0  0  0  0  0  0  0  0  0  0
  151.7727  144.6616  160.8643 H   0  0  0  0  0  0  0  0  0  0  0  0
  152.5339  142.5255  160.1871 H   0  0  0  0  0  0  0  0  0  0  0  0
  153.5091  143.2216  158.8975 H   0  0  0  0  0  0  0  0  0  0  0  0
  152.9450  140.4243  156.4360 H   0  0  0  0  0  0  0  0  0  0  0  0
  153.3969  140.0783  153.7821 H   0  0  0  0  0  0  0  0  0  0  0  0
  154.0033  138.9732  154.9943 H   0  0  0  0  0  0  0  0  0  0  0  0
  151.1289  138.5954  154.1593 H   0  0  0  0  0  0  0  0  0  0  0  0
  152.3219  138.2198  152.9498 H   0  0  0  0  0  0  0  0  0  0  0  0
  150.4887  135.9185  154.4809 H   0  0  0  0  0  0  0  0  0  0  0  0
  154.6062  135.1157  156.2543 H   0  0  0  0  0  0  0  0  0  0  0  0
  1  2  2  0  0  0  0
  2  3  1  0  0  0  0
  2 10  1  0  0  0  0
  3  4  1  0  0  0  0
  3 18  1  0  0  0  0
  3 19  1  0  0  0  0
  4  5  1  0  0  0  0
  5  9  1  0  0  0  0
  5  6  1  0  0  0  0
  5 20  1  0  0  0  0
  6  7  1  0  0  0  0
  6 21  1  0  0  0  0
  6 22  1  0  0  0  0
  7  8  1  0  0  0  0
  7 23  1  0  0  0  0
  7 24  1  0  0  0  0
  8  9  1  0  0  0  0
  8 25  1  0  0  0  0
  8 26  1  0  0  0  0
  9 27  1  0  0  0  0
  9 28  1  0  0  0  0
 10 11  1  0  0  0  0
 10 29  1  0  0  0  0
 11 12  1  0  0  0  0
 11 30  1  0  0  0  0
 11 31  1  0  0  0  0
 12 13  1  0  0  0  0
 12 32  1  0  0  0  0
 12 33  1  0  0  0  0
 13 17  1  0  0  0  0
 13 14  2  0  0  0  0
 14 15  1  0  0  0  0
 14 34  1  0  0  0  0
 15 16  1  0  0  0  0
 16 17  2  0  0  0  0
 16 35  1  0  0  0  0
M  END
> <s_m_source_file>
AV-unprocessed.smi

> <i_m_source_file_index>
3247

> <i_lp_mmshare_version>
43012

> <i_f3d_flags>
0

> <s_epik_input>
W0NIMl0xW0NIMl1bQ0gyXVtDSDJdW0NIXTFPW0NIMl1DKD1PKVtOSF1bQ0gyXVtDSDJdYzJbY0hdc1tjSF1uMg==

> <s_epik_cmdline>
J2VwaWtfcHl0aG9uJywgJy1waCcsICc3LjAnLCAnLXRuJywgJzgnLCAnLW1hJywgJzIwMCcsICctbWV0YWxfYmluZGluZycsICctaW1hZScsICc8aW5maWxlLm1hZT4nLCAnLW9tYWUnLCAnPG91dGZpbGUubWFlPic=

> <r_lp_tautomer_probability>
1

> <r_epik_Ionization_Penalty>
0.00018119

> <r_epik_Ionization_Penalty_Charging>
0

> <r_epik_Ionization_Penalty_Neutral>
0.00018119

> <r_epik_State_Penalty>
-0

> <r_epik_Charging_Adjusted_Penalty>
0

> <i_epik_Tot_Q>
0

> <i_epik_Tot_abs_Q>
0

> <r_epik_Metal_State_Penalty>
-0

> <b_epik_Metal_Only>
0

> <s_lp_Force_Field>
OPLS_2005

> <r_lp_Energy>
17.1434

> <b_lp_Chiralities_Consistent>
1

> <s_lp_Variant>
AV-unprocessed.smi:3247-1

> <Gold.Version>
5.8.1

> <Gold.Id.Protein>
6NUR|6NUR_protein|mol2

> <Gold.PLP.Fitness>
44.4912

> <Gold.PLP.PLP>
-38.6272

> <Gold.PLP.part.hbond>
-1.8808

> <Gold.PLP.part.metal>
0.0000

> <Gold.PLP.part.buried>
-2.5614

> <Gold.PLP.part.nonpolar>
-33.8590

> <Gold.PLP.part.repulsive>
0.3182

> <Gold.PLP.ligand.clash>
0.0000

> <Gold.PLP.ligand.torsion>
1.3274

> <Gold.PLP.Chemscore.Hbond>
1.9920

> <Gold.PLP.Chemscore.CHOScore>
0.8346

> <Gold.PLP.Chemscore.Metal>
0.0000

> <Gold.Chemscore.Hbonds>
donor molecule, donor type, donor heavy atom, donor atom, acceptor molecule, acceptor atom, score
      P1  H  7989  7998       L1     1  0.60

> <Gold.PLP.Chemscore.Internal.Correction>
0.0391

> <Gold.Rescore>
     Score         DG    S(hbond)    S(metal)    S(lipo)     H(rot)  DE(clash)    DE(int)     intcor
     15.80     -18.42       1.78        0.00      98.83       1.78       0.11       2.50       ----

> <Gold.Chemscore.Fitness>
15.8043

> <Gold.Chemscore.DG>
-18.4233

> <Gold.Chemscore.ZeroCoef>
-5.4800

> <Gold.Chemscore.Hbond>
1.7792

> <Gold.Chemscore.Metal>
0.0000

> <Gold.Chemscore.Lipo>
98.8345

> <Gold.Chemscore.Internal_Hbond>
0.0000

> <Gold.Chemscore.DEClash>
0.1144

> <Gold.Chemscore.DEInternal>
2.5046

> <Gold.Chemscore.Rot>
1.7824

> <Gold.Chemscore.Internal.Correction>
   9.000000E+99

> <Gold.Chemscore.Hbonds>
donor molecule, donor type, donor heavy atom, donor atom, acceptor molecule, acceptor atom, score
      P1  H  7989  7998       L1     1  0.04

> <Gold.Chemscore.Hbond.Weighted>
-5.9425

> <Gold.Chemscore.Metal.Weighted>
-0.0000

> <Gold.Chemscore.Lipo.Weighted>
-11.5636

> <Gold.Chemscore.Internal_Hbond.Weighted>
0.0000

> <Gold.Chemscore.DEClash.Weighted>
0.1144

> <Gold.Chemscore.DEInternal.Weighted>
2.5046

> <Gold.Chemscore.Rot.Weighted>
4.5629

> <Gold.Chemscore.Internal.Correction.Weighted>
   9.000000E+99

> <Gold.Protein.RotatedTorsions>
[ 6907 6896 6895 6894 ] final  -66.46 input  -60.11 | X-H torsion
[ 7974 7965 7964 7962 ] final  172.19 input  175.53 | X-H torsion
[ 8008 7997 7996 7995 ] final   60.06 input   59.86 | X-H torsion
[ 10167 10162 10161 10158 ] final  -57.59 input  -65.29 | X-H torsion
[ 10718 10713 10712 10709 ] final  154.84 input   66.30 | X-H torsion
[ 10763 10752 10751 10750 ] final   90.77 input  -60.55 | X-H torsion
[ 11005 11000 10999 10996 ] final   83.96 input  -57.11 | X-H torsion

> <Gold.Protein.ActiveResidues>
 VAL166  LYS551  ARG553  GLY616  TRP617  ASP618  TYR619  PRO620  LYS621  CYS622 
 ASP623  PHE694  ASN695  SER759  ASP760  ASP761  ALA762  ILE779  LEU786  VAL792 
 PHE793  MET794  SER795  GLU796  ALA797  LYS798  CYS799  TRP800  GLU811  SER814 

> <Gold.Protein.RotatedAtoms>
  150.7464  134.6018  159.6040 H   0  0  0  0  0  0  0  0  0  0  0  0  # atno 6907 bound_to 6896
  152.3377  134.7172  160.0281 H   0  0  0  0  0  0  0  0  0  0  0  0  # atno 6908 bound_to 6896
  151.7635  133.3299  159.3461 H   0  0  0  0  0  0  0  0  0  0  0  0  # atno 6909 bound_to 6896
  144.7274  139.9462  143.6430 H   0  0  0  0  0  0  0  0  0  0  0  0  # atno 7974 bound_to 7965
  155.5763  140.3491  155.4528 H   0  0  0  0  0  0  0  0  0  0  0  0  # atno 8008 bound_to 7997
  156.0407  140.1295  157.0184 H   0  0  0  0  0  0  0  0  0  0  0  0  # atno 8009 bound_to 7997
  154.4390  140.1024  156.6218 H   0  0  0  0  0  0  0  0  0  0  0  0  # atno 8010 bound_to 7997
  140.6249  143.2434  151.5388 H   0  0  0  0  0  0  0  0  0  0  0  0  # atno 10167 bound_to 10162
  157.2263  131.0729  151.1881 H   0  0  0  0  0  0  0  0  0  0  0  0  # atno 10718 bound_to 10713
  153.2011  135.4422  155.0267 H   0  0  0  0  0  0  0  0  0  0  0  0  # atno 10763 bound_to 10752
  154.8147  135.3310  154.7211 H   0  0  0  0  0  0  0  0  0  0  0  0  # atno 10764 bound_to 10752
  153.7656  135.6988  153.4972 H   0  0  0  0  0  0  0  0  0  0  0  0  # atno 10765 bound_to 10752
  139.9015  134.8182  156.2380 H   0  0  0  0  0  0  0  0  0  0  0  0  # atno 11005 bound_to 11000
  146.0747  139.3735  143.0501 LP  0  0  0  0  0  0  0  0  0  0  0  0  # atno 17320 bound_to 7965
  145.7921  140.9809  143.1043 LP  0  0  0  0  0  0  0  0  0  0  0  0  # atno 17321 bound_to 7965
  139.5471  144.2493  152.1462 LP  0  0  0  0  0  0  0  0  0  0  0  0  # atno 17342 bound_to 10162
  140.1722  144.4925  150.6573 LP  0  0  0  0  0  0  0  0  0  0  0  0  # atno 17343 bound_to 10162
  157.3524  130.7089  149.6449 LP  0  0  0  0  0  0  0  0  0  0  0  0  # atno 17370 bound_to 10713
  155.9678  130.4248  150.4627 LP  0  0  0  0  0  0  0  0  0  0  0  0  # atno 17371 bound_to 10713
  141.0303  133.6992  156.1418 LP  0  0  0  0  0  0  0  0  0  0  0  0  # atno 17394 bound_to 11000
  140.7106  134.4466  157.5582 LP  0  0  0  0  0  0  0  0  0  0  0  0  # atno 17395 bound_to 11000

$$$$
