AV-unprocessed.smi:2784|AV-procd|sdf|10729|dock3
  -GOLD-   2272015163D 1   1.00000     0.00000
 Structure written by MMmdl.
 31 32  0  0  0  0  0  0  0  0  1 V2000
  148.3563  145.0494  161.0925 C   0  0  0  0  0  0  0  0  0  0  0  0
  149.0700  143.9849  160.4840 O   0  0  0  0  0  0  0  0  0  0  0  0
  149.9135  144.3967  159.4168 C   0  0  1  0  0  0  0  0  0  0  0  0
  151.1120  145.2167  159.9143 C   0  0  0  0  0  0  0  0  0  0  0  0
  152.2273  144.9011  158.9246 C   0  0  0  0  0  0  0  0  0  0  0  0
  152.0334  143.4177  158.6168 C   0  0  0  0  0  0  0  0  0  0  0  0
  150.5156  143.1633  158.7087 C   0  0  2  0  0  0  0  0  0  0  0  0
  149.9273  142.9925  157.3821 N   0  0  0  0  0  0  0  0  0  0  0  0
  149.5360  141.8220  156.8583 C   0  0  0  0  0  0  0  0  0  0  0  0
  149.6473  140.7445  157.4436 O   0  0  0  0  0  0  0  0  0  0  0  0
  149.0188  141.9858  155.6292 N   0  0  0  0  0  0  0  0  0  0  0  0
  148.4845  140.9865  154.7775 C   0  0  0  0  0  0  0  0  0  0  0  0
  148.9953  139.7743  154.5562 N   0  0  0  0  0  0  0  0  0  0  0  0
  148.1151  139.1815  153.6626 C   0  0  0  0  0  0  0  0  0  0  0  0
  147.1130  140.0773  153.3915 C   0  0  0  0  0  0  0  0  0  0  0  0
  147.3350  141.2311  154.0946 O   0  0  0  0  0  0  0  0  0  0  0  0
  147.7239  144.6547  161.8875 H   0  0  0  0  0  0  0  0  0  0  0  0
  147.7120  145.5543  160.3721 H   0  0  0  0  0  0  0  0  0  0  0  0
  149.0287  145.7840  161.5365 H   0  0  0  0  0  0  0  0  0  0  0  0
  149.3461  144.9925  158.6982 H   0  0  0  0  0  0  0  0  0  0  0  0
  150.8957  146.2835  159.9768 H   0  0  0  0  0  0  0  0  0  0  0  0
  151.4080  144.8782  160.9082 H   0  0  0  0  0  0  0  0  0  0  0  0
  152.0915  145.4879  158.0154 H   0  0  0  0  0  0  0  0  0  0  0  0
  153.2181  145.1216  159.3223 H   0  0  0  0  0  0  0  0  0  0  0  0
  152.4678  143.1376  157.6564 H   0  0  0  0  0  0  0  0  0  0  0  0
  152.5403  142.8256  159.3797 H   0  0  0  0  0  0  0  0  0  0  0  0
  150.3367  142.2656  159.3042 H   0  0  0  0  0  0  0  0  0  0  0  0
  149.7996  143.8288  156.8316 H   0  0  0  0  0  0  0  0  0  0  0  0
  148.9964  142.9273  155.2662 H   0  0  0  0  0  0  0  0  0  0  0  0
  148.2686  138.1784  153.2932 H   0  0  0  0  0  0  0  0  0  0  0  0
  146.2321  140.0506  152.7672 H   0  0  0  0  0  0  0  0  0  0  0  0
  1  2  1  0  0  0  0
  1 17  1  0  0  0  0
  1 18  1  0  0  0  0
  1 19  1  0  0  0  0
  2  3  1  0  0  0  0
  3  7  1  0  0  0  0
  3  4  1  0  0  0  0
  3 20  1  0  0  0  0
  4  5  1  0  0  0  0
  4 21  1  0  0  0  0
  4 22  1  0  0  0  0
  5  6  1  0  0  0  0
  5 23  1  0  0  0  0
  5 24  1  0  0  0  0
  6  7  1  0  0  0  0
  6 25  1  0  0  0  0
  6 26  1  0  0  0  0
  7  8  1  0  0  0  0
  7 27  1  0  0  0  0
  8  9  1  0  0  0  0
  8 28  1  0  0  0  0
  9 10  2  0  0  0  0
  9 11  1  0  0  0  0
 11 12  1  0  0  0  0
 11 29  1  0  0  0  0
 12 16  1  0  0  0  0
 12 13  2  0  0  0  0
 13 14  1  0  0  0  0
 14 15  2  0  0  0  0
 14 30  1  0  0  0  0
 15 16  1  0  0  0  0
 15 31  1  0  0  0  0
M  END
> <s_m_source_file>
AV-unprocessed.smi

> <i_m_source_file_index>
2784

> <i_lp_mmshare_version>
43012

> <i_f3d_flags>
0

> <s_epik_input>
W0NIM11PW0NAQEhdMVtDSDJdW0NIMl1bQ0gyXVtDQEhdMVtOSF1DKD1PKVtOSF1jMm5bY0hdW2NIXW8y

> <s_epik_cmdline>
J2VwaWtfcHl0aG9uJywgJy1waCcsICc3LjAnLCAnLXRuJywgJzgnLCAnLW1hJywgJzIwMCcsICctbWV0YWxfYmluZGluZycsICctaW1hZScsICc8aW5maWxlLm1hZT4nLCAnLW9tYWUnLCAnPG91dGZpbGUubWFlPic=

> <r_lp_tautomer_probability>
0.785861

> <r_epik_Ionization_Penalty>
4.58897e-05

> <r_epik_Ionization_Penalty_Charging>
0

> <r_epik_Ionization_Penalty_Neutral>
4.58897e-05

> <r_epik_State_Penalty>
0.0380021

> <r_epik_Charging_Adjusted_Penalty>
0.0380021

> <i_epik_Tot_Q>
0

> <i_epik_Tot_abs_Q>
0

> <r_epik_Metal_State_Penalty>
0.0585611

> <b_epik_Metal_Only>
0

> <s_lp_Force_Field>
OPLS_2005

> <r_lp_Energy>
18.2903

> <b_lp_Chiralities_Consistent>
1

> <s_lp_Variant>
AV-unprocessed.smi:2784-4

> <Gold.Version>
5.8.1

> <Gold.Id.Protein>
6NUR|6NUR_protein|mol2

> <Gold.PLP.Fitness>
43.0422

> <Gold.PLP.PLP>
-30.6935

> <Gold.PLP.part.hbond>
-3.0000

> <Gold.PLP.part.metal>
0.0000

> <Gold.PLP.part.buried>
-5.4804

> <Gold.PLP.part.nonpolar>
-24.4230

> <Gold.PLP.part.repulsive>
0.5865

> <Gold.PLP.ligand.clash>
0.0000

> <Gold.PLP.ligand.torsion>
0.5848

> <Gold.PLP.Chemscore.Hbond>
2.5520

> <Gold.PLP.Chemscore.CHOScore>
1.9525

> <Gold.PLP.Chemscore.Metal>
0.0000

> <Gold.Chemscore.Hbonds>
donor molecule, donor type, donor heavy atom, donor atom, acceptor molecule, acceptor atom, score
      L1  H     8    28       P1  8028  1.00
      L1  H    11    29       P1  8028  0.94
      P1  H  6933  6944       L1     2  0.59
      L1  C    14    30       P1  7948  1.00
      L1  C    15    31       P1 10175  0.84

> <Gold.PLP.Chemscore.Internal.Correction>
0.0047

> <Gold.Rescore>
     Score         DG    S(hbond)    S(metal)    S(lipo)     H(rot)  DE(clash)    DE(int)     intcor
     17.82     -18.42       2.55        0.00      66.70       1.32       0.03       0.57       ----

> <Gold.Chemscore.Fitness>
17.8224

> <Gold.Chemscore.DG>
-18.4210

> <Gold.Chemscore.ZeroCoef>
-5.4800

> <Gold.Chemscore.Hbond>
2.5524

> <Gold.Chemscore.Metal>
0.0000

> <Gold.Chemscore.Lipo>
66.7013

> <Gold.Chemscore.Internal_Hbond>
0.0000

> <Gold.Chemscore.DEClash>
0.0270

> <Gold.Chemscore.DEInternal>
0.5716

> <Gold.Chemscore.Rot>
1.3235

> <Gold.Chemscore.Internal.Correction>
   9.000000E+99

> <Gold.Chemscore.Hbonds>
donor molecule, donor type, donor heavy atom, donor atom, acceptor molecule, acceptor atom, score
      L1  H     8    28       P1  8028  0.93
      L1  H    11    29       P1  8028  0.91
      P1  H  6933  6944       L1     2  0.33

> <Gold.Chemscore.Hbond.Weighted>
-8.5252

> <Gold.Chemscore.Metal.Weighted>
-0.0000

> <Gold.Chemscore.Lipo.Weighted>
-7.8040

> <Gold.Chemscore.Internal_Hbond.Weighted>
0.0000

> <Gold.Chemscore.DEClash.Weighted>
0.0270

> <Gold.Chemscore.DEInternal.Weighted>
0.5716

> <Gold.Chemscore.Rot.Weighted>
3.3882

> <Gold.Chemscore.Internal.Correction.Weighted>
   9.000000E+99

> <Gold.Protein.RotatedTorsions>
[ 6907 6896 6895 6894 ] final  178.32 input  -60.11 | X-H torsion
[ 7974 7965 7964 7962 ] final  -35.64 input  175.53 | X-H torsion
[ 8008 7997 7996 7995 ] final -153.95 input   59.86 | X-H torsion
[ 10167 10162 10161 10158 ] final -144.61 input  -65.29 | X-H torsion
[ 10718 10713 10712 10709 ] final  -78.12 input   66.30 | X-H torsion
[ 10763 10752 10751 10750 ] final  -91.99 input  -60.55 | X-H torsion
[ 11005 11000 10999 10996 ] final   74.85 input  -57.11 | X-H torsion

> <Gold.Protein.ActiveResidues>
 VAL166  LYS551  ARG553  GLY616  TRP617  ASP618  TYR619  PRO620  LYS621  CYS622 
 ASP623  PHE694  ASN695  SER759  ASP760  ASP761  ALA762  ILE779  LEU786  VAL792 
 PHE793  MET794  SER795  GLU796  ALA797  LYS798  CYS799  TRP800  GLU811  SER814 

> <Gold.Protein.RotatedAtoms>
  151.6897  133.3311  159.3239 H   0  0  0  0  0  0  0  0  0  0  0  0  # atno 6907 bound_to 6896
  150.7784  134.6709  159.6400 H   0  0  0  0  0  0  0  0  0  0  0  0  # atno 6908 bound_to 6896
  152.3834  134.6558  160.0186 H   0  0  0  0  0  0  0  0  0  0  0  0  # atno 6909 bound_to 6896
  146.0729  140.6183  142.8944 H   0  0  0  0  0  0  0  0  0  0  0  0  # atno 7974 bound_to 7965
  155.6787  140.0742  157.2493 H   0  0  0  0  0  0  0  0  0  0  0  0  # atno 8008 bound_to 7997
  154.4109  140.1686  156.2011 H   0  0  0  0  0  0  0  0  0  0  0  0  # atno 8009 bound_to 7997
  155.9553  140.3374  155.6446 H   0  0  0  0  0  0  0  0  0  0  0  0  # atno 8010 bound_to 7997
  139.7882  143.8003  152.2647 H   0  0  0  0  0  0  0  0  0  0  0  0  # atno 10167 bound_to 10162
  156.0126  130.4509  150.3448 H   0  0  0  0  0  0  0  0  0  0  0  0  # atno 10718 bound_to 10713
  154.6816  135.5247  153.8271 H   0  0  0  0  0  0  0  0  0  0  0  0  # atno 10763 bound_to 10752
  153.0569  135.6554  154.0566 H   0  0  0  0  0  0  0  0  0  0  0  0  # atno 10764 bound_to 10752
  154.0453  135.2974  155.3328 H   0  0  0  0  0  0  0  0  0  0  0  0  # atno 10765 bound_to 10752
  139.9371  134.7467  156.1198 H   0  0  0  0  0  0  0  0  0  0  0  0  # atno 11005 bound_to 11000
  144.7243  140.4475  143.6985 LP  0  0  0  0  0  0  0  0  0  0  0  0  # atno 17320 bound_to 7965
  145.6358  139.1543  143.2943 LP  0  0  0  0  0  0  0  0  0  0  0  0  # atno 17321 bound_to 7965
  139.8086  144.7345  150.9727 LP  0  0  0  0  0  0  0  0  0  0  0  0  # atno 17342 bound_to 10162
  140.7820  143.4273  151.0749 LP  0  0  0  0  0  0  0  0  0  0  0  0  # atno 17343 bound_to 10162
  157.1542  131.0328  151.2871 LP  0  0  0  0  0  0  0  0  0  0  0  0  # atno 17370 bound_to 10713
  157.4366  130.7520  149.7034 LP  0  0  0  0  0  0  0  0  0  0  0  0  # atno 17371 bound_to 10713
  141.0990  133.6684  156.2711 LP  0  0  0  0  0  0  0  0  0  0  0  0  # atno 17394 bound_to 11000
  140.6046  134.5520  157.5523 LP  0  0  0  0  0  0  0  0  0  0  0  0  # atno 17395 bound_to 11000

$$$$
