#       Name:                AV-unprocessed.smi:1622
#       Creating user name   scv26
#       Creation time:       Fri Mar 27 07:15:59 2020


#       File generated by GOLD software.
#

@<TRIPOS>MOLECULE
AV-unprocessed.smi:1622
    45    46     1
SMALL
NO_CHARGES


@<TRIPOS>ATOM
      1 ****        -1.2464   1.1945  -1.7052 C.3            1 S1                 0.0000
      2 ****        -1.6622   0.3994  -0.4568 C.3            1 S1                 0.0000
      3 ****        -1.1343  -1.0601  -0.4077 C.3            1 S1                 0.0000
      4 ****         0.4102  -1.1385  -0.2794 C.3            1 S1                 0.0000
      5 ****         0.9177  -0.3907   0.8691 N.am           1 S1                 0.0000
      6 ****         1.6769   0.7133   0.8054 C.2            1 S1                 0.0000
      7 ****         2.0430   1.2255  -0.2523 O.2            1 S1                 0.0000
      8 ****         1.9741   1.1731   2.0337 N.am           1 S1                 0.0000
      9 ****         2.7189   2.3317   2.3803 C.2            1 S1                 0.0000
     10 ****         3.2322   3.1826   1.4811 N.2            1 S1                 0.0000
     11 ****         3.9071   4.2322   2.0880 N.2            1 S1                 0.0000
     12 ****         3.8858   4.1446   3.4234 C.2            1 S1                 0.0000
     13 ****         4.5379   5.1518   4.3076 C.3            1 S1                 0.0000
     14 ****         3.0205   2.7501   4.0581 S.3            1 S1                 0.0000
     15 ****        -1.6291  -1.8592  -1.5688 N.4            1 S1                 1.0000
     16 ****        -1.2030  -3.2746  -1.5984 C.3            1 S1                 0.0000
     17 ****        -2.1423  -3.9703  -2.5837 C.3            1 S1                 0.0000
     18 ****        -3.4097  -3.1127  -2.6078 C.3            1 S1                 0.0000
     19 ****        -3.0997  -1.8937  -1.7332 C.3            1 S1                 0.0000
     20 ****        -1.6469   2.2075  -1.6641 H              1 S1                 0.0000
     21 ****        -1.6196   0.7326  -2.6191 H              1 S1                 0.0000
     22 ****        -0.1641   1.2773  -1.7916 H              1 S1                 0.0000
     23 ****        -1.3321   0.9418   0.4289 H              1 S1                 0.0000
     24 ****        -2.7498   0.4044  -0.3843 H              1 S1                 0.0000
     25 ****        -1.5515  -1.5171   0.4913 H              1 S1                 0.0000
     26 ****         0.7273  -2.1695  -0.1252 H              1 S1                 0.0000
     27 ****         0.8843  -0.8166  -1.2078 H              1 S1                 0.0000
     28 ****         0.6700  -0.7411   1.7832 H              1 S1                 0.0000
     29 ****         1.6193   0.6389   2.8131 H              1 S1                 0.0000
     30 ****         5.3268   5.6789   3.7700 H              1 S1                 0.0000
     31 ****         4.9775   4.6605   5.1758 H              1 S1                 0.0000
     32 ****         3.8010   5.8780   4.6504 H              1 S1                 0.0000
     33 ****        -0.1594  -3.3843  -1.8951 H              1 S1                 0.0000
     34 ****        -1.3236  -3.7119  -0.6058 H              1 S1                 0.0000
     35 ****        -1.6930  -3.9887  -3.5776 H              1 S1                 0.0000
     36 ****        -2.3435  -5.0023  -2.2946 H              1 S1                 0.0000
     37 ****        -3.6354  -2.8066  -3.6301 H              1 S1                 0.0000
     38 ****        -4.2755  -3.6575  -2.2300 H              1 S1                 0.0000
     39 ****        -3.5728  -2.0185  -0.7577 H              1 S1                 0.0000
     40 ****        -3.4801  -0.9731  -2.1766 H              1 S1                 0.0000
     41 ****        -1.2578  -1.4337  -2.4064 H              1 S1                 0.0000
     42 ****         1.7744   0.8174  -1.1248 LP             1 S1                 0.0000
     43 ****         2.6091   2.0498  -0.2391 LP             1 S1                 0.0000
     44 ****         3.1399   3.0742   0.4913 LP             1 S1                 0.0000
     45 ****         4.3579   4.9698   1.5851 LP             1 S1                 0.0000
@<TRIPOS>BOND
    1    1    2 1     
    2    1   20 1     
    3    1   21 1     
    4    1   22 1     
    5    2    3 1     
    6    2   23 1     
    7    2   24 1     
    8    3    4 1     
    9    3   15 1     
   10    3   25 1     
   11    4    5 1     
   12    4   26 1     
   13    4   27 1     
   14    5    6 am    
   15    5   28 1     
   16    6    7 2     
   17    6    8 am    
   18    8    9 1     
   19    8   29 1     
   20    9   14 1     
   21    9   10 2     
   22   10   11 1     
   23   11   12 2     
   24   12   13 1     
   25   12   14 1     
   26   13   30 1     
   27   13   31 1     
   28   13   32 1     
   29   15   19 1     
   30   15   16 1     
   31   15   41 1     
   32   16   17 1     
   33   16   33 1     
   34   16   34 1     
   35   17   18 1     
   36   17   35 1     
   37   17   36 1     
   38   18   19 1     
   39   18   37 1     
   40   18   38 1     
   41   19   39 1     
   42   19   40 1     
   43    7   42 1     
   44    7   43 1     
   45   10   44 1     
   46   11   45 1     
@<TRIPOS>SUBSTRUCTURE
      1 S1             1
@<TRIPOS>SET
LONE_PAIRS      STATIC     ATOMS    <user>   **** ""
4 42 43 44 45
DONOR_HYDROGENS      STATIC     ATOMS    <user>   **** ""
3 28 29 41
ATOM$BLUE        STATIC     ATOMS    COLORGROUP SYSTEM
4 42 43 44 45
ATOM$RED        STATIC     ATOMS    COLORGROUP SYSTEM
3 28 29 41
