AV-unprocessed.smi:2801|AV-procd|sdf|10802|dock9
  -GOLD-   2272015233D 1   1.00000     0.00000
 Structure written by MMmdl.
 31 31  0  0  0  0  0  0  0  0  2 V2000
  152.0205  137.8846  154.5212 C   0  0  0  0  0  0  0  0  0  0  0  0
  151.0140  138.8137  155.2031 C   0  0  0  0  0  0  0  0  0  0  0  0
  151.4486  140.1576  155.0325 O   0  0  0  0  0  0  0  0  0  0  0  0
  150.8947  141.1002  155.9484 C   0  0  1  0  0  0  0  0  0  0  0  0
  149.3630  140.9372  155.9258 C   0  0  0  0  0  0  0  0  0  0  0  0
  148.7422  141.3391  154.5820 C   0  0  0  0  0  0  0  0  0  0  0  0
  151.4590  140.8620  157.3590 C   0  0  0  0  0  0  0  0  0  0  0  0
  151.4348  139.7283  157.8380 O   0  0  0  0  0  0  0  0  0  0  0  0
  151.9788  141.9453  157.9648 N   0  0  0  0  0  0  0  0  0  0  0  0
  152.5732  142.0737  159.2523 C   0  0  0  0  0  0  0  0  0  0  0  0
  152.3764  143.1852  160.1076 C   0  0  0  0  0  0  0  0  0  0  0  0
  153.0354  143.2060  161.3525 C   0  0  0  0  0  0  0  0  0  0  0  0
  153.8563  142.2242  161.7790 N   0  0  0  0  0  0  0  0  0  0  0  0
  154.0524  141.1711  160.9584 C   0  0  0  0  0  0  0  0  0  0  0  0
  153.4429  141.0474  159.6925 C   0  0  0  0  0  0  0  0  0  0  0  0
  153.7006  139.9470  158.9217 O   0  5  0  0  0  0  0  0  0  0  0  0
  151.7221  136.8416  154.6282 H   0  0  0  0  0  0  0  0  0  0  0  0
  153.0135  137.9957  154.9570 H   0  0  0  0  0  0  0  0  0  0  0  0
  152.0951  138.1039  153.4559 H   0  0  0  0  0  0  0  0  0  0  0  0
  150.0252  138.6602  154.7696 H   0  0  0  0  0  0  0  0  0  0  0  0
  150.9497  138.5730  156.2652 H   0  0  0  0  0  0  0  0  0  0  0  0
  151.1403  142.1134  155.6232 H   0  0  0  0  0  0  0  0  0  0  0  0
  149.0935  139.9044  156.1523 H   0  0  0  0  0  0  0  0  0  0  0  0
  148.9164  141.5492  156.7109 H   0  0  0  0  0  0  0  0  0  0  0  0
  147.6586  141.2230  154.6051 H   0  0  0  0  0  0  0  0  0  0  0  0
  149.1246  140.7214  153.7690 H   0  0  0  0  0  0  0  0  0  0  0  0
  148.9602  142.3805  154.3435 H   0  0  0  0  0  0  0  0  0  0  0  0
  151.9955  142.7918  157.4140 H   0  0  0  0  0  0  0  0  0  0  0  0
  151.7519  144.0212  159.8378 H   0  0  0  0  0  0  0  0  0  0  0  0
  152.9034  144.0416  162.0236 H   0  0  0  0  0  0  0  0  0  0  0  0
  154.7196  140.4043  161.3242 H   0  0  0  0  0  0  0  0  0  0  0  0
  1  2  1  0  0  0  0
  1 17  1  0  0  0  0
  1 18  1  0  0  0  0
  1 19  1  0  0  0  0
  2  3  1  0  0  0  0
  2 20  1  0  0  0  0
  2 21  1  0  0  0  0
  3  4  1  0  0  0  0
  4  5  1  0  0  0  0
  4  7  1  0  0  0  0
  4 22  1  0  0  0  0
  5  6  1  0  0  0  0
  5 23  1  0  0  0  0
  5 24  1  0  0  0  0
  6 25  1  0  0  0  0
  6 26  1  0  0  0  0
  6 27  1  0  0  0  0
  7  8  2  0  0  0  0
  7  9  1  0  0  0  0
  9 28  1  0  0  0  0
  9 10  1  0  0  0  0
 10 11  2  0  0  0  0
 10 15  1  0  0  0  0
 11 12  1  0  0  0  0
 11 29  1  0  0  0  0
 12 13  2  0  0  0  0
 12 30  1  0  0  0  0
 13 14  1  0  0  0  0
 14 15  2  0  0  0  0
 14 31  1  0  0  0  0
 15 16  1  0  0  0  0
M  CHG  1  16  -1
M  END
> <s_m_source_file>
AV-unprocessed.smi

> <i_m_source_file_index>
2801

> <i_lp_mmshare_version>
43012

> <i_f3d_flags>
0

> <s_epik_input>
W0NIM11bQ0gyXU9bQ0BIXShbQ0gyXVtDSDNdKUMoPU8pW05IXWMxW2NIXVtjSF1uW2NIXWMxW09IXQ==

> <s_epik_cmdline>
J2VwaWtfcHl0aG9uJywgJy1waCcsICc3LjAnLCAnLXRuJywgJzgnLCAnLW1hJywgJzIwMCcsICctbWV0YWxfYmluZGluZycsICctaW1hZScsICc8aW5maWxlLm1hZT4nLCAnLW9tYWUnLCAnPG91dGZpbGUubWFlPic=

> <r_lp_tautomer_probability>
0.56342

> <r_epik_Ionization_Penalty>
4.38321

> <r_epik_Ionization_Penalty_Charging>
2.0641

> <r_epik_Ionization_Penalty_Neutral>
2.31912

> <r_epik_State_Penalty>
2.63873

> <r_epik_Charging_Adjusted_Penalty>
4.70283

> <i_epik_Tot_Q>
-1

> <i_epik_Tot_abs_Q>
1

> <r_epik_Metal_State_Penalty>
0.606608

> <b_epik_Metal_Only>
1

> <s_lp_Force_Field>
OPLS_2005

> <r_lp_Energy>
9.76409

> <b_lp_Chiralities_Consistent>
1

> <s_lp_Variant>
AV-unprocessed.smi:2801-6

> <Gold.Version>
5.8.1

> <Gold.Id.Protein>
6NUR|6NUR_protein|mol2

> <Gold.PLP.Fitness>
43.6175

> <Gold.PLP.PLP>
-35.8303

> <Gold.PLP.part.hbond>
-2.2764

> <Gold.PLP.part.metal>
0.0000

> <Gold.PLP.part.buried>
-3.7474

> <Gold.PLP.part.nonpolar>
-28.5496

> <Gold.PLP.part.repulsive>
0.1402

> <Gold.PLP.ligand.clash>
0.0000

> <Gold.PLP.ligand.torsion>
0.6118

> <Gold.PLP.Chemscore.Hbond>
2.9920

> <Gold.PLP.Chemscore.CHOScore>
0.0000

> <Gold.PLP.Chemscore.Metal>
0.0000

> <Gold.Chemscore.Hbonds>
donor molecule, donor type, donor heavy atom, donor atom, acceptor molecule, acceptor atom, score
      P1  H  7989  7998       L1     3  1.00
      P1  H  7997  8010       L1    16  1.98

> <Gold.PLP.Chemscore.Internal.Correction>
0.0348

> <Gold.Rescore>
     Score         DG    S(hbond)    S(metal)    S(lipo)     H(rot)  DE(clash)    DE(int)     intcor
     12.15     -17.93       1.83        0.00      87.85       1.55       0.09       5.69       ----

> <Gold.Chemscore.Fitness>
12.1495

> <Gold.Chemscore.DG>
-17.9255

> <Gold.Chemscore.ZeroCoef>
-5.4800

> <Gold.Chemscore.Hbond>
1.8338

> <Gold.Chemscore.Metal>
0.0000

> <Gold.Chemscore.Lipo>
87.8549

> <Gold.Chemscore.Internal_Hbond>
0.0000

> <Gold.Chemscore.DEClash>
0.0851

> <Gold.Chemscore.DEInternal>
5.6909

> <Gold.Chemscore.Rot>
1.5462

> <Gold.Chemscore.Internal.Correction>
   9.000000E+99

> <Gold.Chemscore.Hbonds>
donor molecule, donor type, donor heavy atom, donor atom, acceptor molecule, acceptor atom, score
      P1  H  7989  7998       L1     3  0.72
      P1  H  7997  8010       L1    16  0.89

> <Gold.Chemscore.Hbond.Weighted>
-6.1248

> <Gold.Chemscore.Metal.Weighted>
-0.0000

> <Gold.Chemscore.Lipo.Weighted>
-10.2790

> <Gold.Chemscore.Internal_Hbond.Weighted>
0.0000

> <Gold.Chemscore.DEClash.Weighted>
0.0851

> <Gold.Chemscore.DEInternal.Weighted>
5.6909

> <Gold.Chemscore.Rot.Weighted>
3.9583

> <Gold.Chemscore.Internal.Correction.Weighted>
   9.000000E+99

> <Gold.Protein.RotatedTorsions>
[ 6907 6896 6895 6894 ] final   41.31 input  -60.11 | X-H torsion
[ 7974 7965 7964 7962 ] final -101.80 input  175.53 | X-H torsion
[ 8008 7997 7996 7995 ] final   18.74 input   59.86 | X-H torsion
[ 10167 10162 10161 10158 ] final  -28.54 input  -65.29 | X-H torsion
[ 10718 10713 10712 10709 ] final   44.65 input   66.30 | X-H torsion
[ 10763 10752 10751 10750 ] final  -25.89 input  -60.55 | X-H torsion
[ 11005 11000 10999 10996 ] final  -63.62 input  -57.11 | X-H torsion

> <Gold.Protein.ActiveResidues>
 VAL166  LYS551  ARG553  GLY616  TRP617  ASP618  TYR619  PRO620  LYS621  CYS622 
 ASP623  PHE694  ASN695  SER759  ASP760  ASP761  ALA762  ILE779  LEU786  VAL792 
 PHE793  MET794  SER795  GLU796  ALA797  LYS798  CYS799  TRP800  GLU811  SER814 

> <Gold.Protein.RotatedAtoms>
  152.1936  134.8650  160.0514 H   0  0  0  0  0  0  0  0  0  0  0  0  # atno 6907 bound_to 6896
  151.9530  133.3667  159.4015 H   0  0  0  0  0  0  0  0  0  0  0  0  # atno 6908 bound_to 6896
  150.6940  134.4244  159.5263 H   0  0  0  0  0  0  0  0  0  0  0  0  # atno 6909 bound_to 6896
  145.2769  140.9315  143.2954 H   0  0  0  0  0  0  0  0  0  0  0  0  # atno 7974 bound_to 7965
  154.9105  140.3013  155.5269 H   0  0  0  0  0  0  0  0  0  0  0  0  # atno 8008 bound_to 7997
  156.3015  140.2390  156.4079 H   0  0  0  0  0  0  0  0  0  0  0  0  # atno 8009 bound_to 7997
  154.8431  140.0413  157.1543 H   0  0  0  0  0  0  0  0  0  0  0  0  # atno 8010 bound_to 7997
  140.7269  143.4002  151.1278 H   0  0  0  0  0  0  0  0  0  0  0  0  # atno 10167 bound_to 10162
  157.4291  130.8014  149.7586 H   0  0  0  0  0  0  0  0  0  0  0  0  # atno 10718 bound_to 10713
  153.7071  135.6953  153.5047 H   0  0  0  0  0  0  0  0  0  0  0  0  # atno 10763 bound_to 10752
  153.2299  135.4341  155.0583 H   0  0  0  0  0  0  0  0  0  0  0  0  # atno 10764 bound_to 10752
  154.8326  135.3481  154.6609 H   0  0  0  0  0  0  0  0  0  0  0  0  # atno 10765 bound_to 10752
  141.1399  133.6654  156.5709 H   0  0  0  0  0  0  0  0  0  0  0  0  # atno 11005 bound_to 11000
  144.9286  139.4325  143.6506 LP  0  0  0  0  0  0  0  0  0  0  0  0  # atno 17320 bound_to 7965
  146.3229  139.8185  142.8931 LP  0  0  0  0  0  0  0  0  0  0  0  0  # atno 17321 bound_to 7965
  139.7620  143.8621  152.3102 LP  0  0  0  0  0  0  0  0  0  0  0  0  # atno 17342 bound_to 10162
  139.8510  144.7164  150.9214 LP  0  0  0  0  0  0  0  0  0  0  0  0  # atno 17343 bound_to 10162
  155.9907  130.3943  150.3017 LP  0  0  0  0  0  0  0  0  0  0  0  0  # atno 17370 bound_to 10713
  157.1173  131.0237  151.3024 LP  0  0  0  0  0  0  0  0  0  0  0  0  # atno 17371 bound_to 10713
  140.3914  134.7437  157.4724 LP  0  0  0  0  0  0  0  0  0  0  0  0  # atno 17394 bound_to 11000
  140.0563  134.6058  155.8801 LP  0  0  0  0  0  0  0  0  0  0  0  0  # atno 17395 bound_to 11000

$$$$
