AV-unprocessed.smi:255|AV-procd|sdf|1953|dock10
  -GOLD-   2262021 93D 1   1.00000     0.00000
 Structure written by MMmdl.
 44 47  0  0  0  0  0  0  0  0  1 V2000
  155.4088  138.2342  159.5834 O   0  0  0  0  0  0  0  0  0  0  0  0
  154.0445  138.4508  159.2910 C   0  0  0  0  0  0  0  0  0  0  0  0
  153.7492  139.9586  159.1797 C   0  0  2  0  0  0  0  0  0  0  0  0
  154.0466  140.7261  160.4680 C   0  0  0  0  0  0  0  0  0  0  0  0
  153.2553  142.0106  160.2509 C   0  0  2  0  0  0  0  0  0  0  0  0
  152.9604  142.6291  161.3939 F   0  0  0  0  0  0  0  0  0  0  0  0
  152.0081  141.5446  159.4936 C   0  0  0  0  0  0  0  0  0  0  0  0
  152.3390  140.2415  158.9210 N   0  0  0  0  0  0  0  0  0  0  0  0
  151.9401  140.0503  157.6444 C   0  0  0  0  0  0  0  0  0  0  0  0
  152.7637  139.4350  156.7552 N   0  0  0  0  0  0  0  0  0  0  0  0
  152.3548  139.2337  155.4987 C   0  0  0  0  0  0  0  0  0  0  0  0
  151.1885  139.5616  154.9372 N   0  0  0  0  0  0  0  0  0  0  0  0
  150.3627  140.1794  155.8305 C   0  0  0  0  0  0  0  0  0  0  0  0
  150.6577  140.4566  157.1941 C   0  0  0  0  0  0  0  0  0  0  0  0
  149.5772  141.0826  157.8007 N   0  0  0  0  0  0  0  0  0  0  0  0
  148.6920  141.1765  156.8457 C   0  0  0  0  0  0  0  0  0  0  0  0
  149.0840  140.6688  155.6264 N   0  0  0  0  0  0  0  0  0  0  0  0
  148.3000  140.6448  154.4003 C   0  0  0  0  0  0  0  0  0  0  0  0
  147.6100  139.2854  154.1300 C   0  0  2  0  0  0  0  0  0  0  0  0
  147.1444  139.2674  152.7925 O   0  0  0  0  0  0  0  0  0  0  0  0
  146.4293  139.0337  155.0704 C   0  0  0  0  0  0  0  0  0  0  0  0
  146.9470  137.9525  156.0111 C   0  0  0  0  0  0  0  0  0  0  0  0
  147.7607  137.1677  155.1580 O   0  0  0  0  0  0  0  0  0  0  0  0
  148.5254  138.0667  154.3680 C   0  0  0  0  0  0  0  0  0  0  0  0
  154.3649  140.3926  158.3892 H   0  0  0  0  0  0  0  0  0  0  0  0
  153.8296  142.7055  159.6368 H   0  0  0  0  0  0  0  0  0  0  0  0
  155.8492  139.0701  159.5980 H   0  0  0  0  0  0  0  0  0  0  0  0
  153.7571  137.9151  158.3855 H   0  0  0  0  0  0  0  0  0  0  0  0
  153.4723  138.0196  160.1128 H   0  0  0  0  0  0  0  0  0  0  0  0
  153.6573  140.1851  161.3323 H   0  0  0  0  0  0  0  0  0  0  0  0
  155.1112  140.9024  160.6251 H   0  0  0  0  0  0  0  0  0  0  0  0
  151.1778  141.3997  160.1855 H   0  0  0  0  0  0  0  0  0  0  0  0
  151.6919  142.2819  158.7542 H   0  0  0  0  0  0  0  0  0  0  0  0
  153.0626  138.7383  154.8507 H   0  0  0  0  0  0  0  0  0  0  0  0
  147.7227  141.6266  157.0039 H   0  0  0  0  0  0  0  0  0  0  0  0
  147.5527  141.4374  154.4562 H   0  0  0  0  0  0  0  0  0  0  0  0
  148.9582  140.9064  153.5706 H   0  0  0  0  0  0  0  0  0  0  0  0
  147.8934  139.2643  152.2161 H   0  0  0  0  0  0  0  0  0  0  0  0
  146.0979  139.9258  155.6033 H   0  0  0  0  0  0  0  0  0  0  0  0
  145.5696  138.6418  154.5239 H   0  0  0  0  0  0  0  0  0  0  0  0
  147.5539  138.3829  156.8096 H   0  0  0  0  0  0  0  0  0  0  0  0
  146.1471  137.3642  156.4608 H   0  0  0  0  0  0  0  0  0  0  0  0
  148.8725  137.5933  153.4488 H   0  0  0  0  0  0  0  0  0  0  0  0
  149.4060  138.3412  154.9486 H   0  0  0  0  0  0  0  0  0  0  0  0
  1  2  1  0  0  0  0
  1 27  1  0  0  0  0
  2  3  1  0  0  0  0
  2 28  1  0  0  0  0
  2 29  1  0  0  0  0
  3 25  1  0  0  0  0
  3  8  1  0  0  0  0
  3  4  1  0  0  0  0
  4  5  1  0  0  0  0
  4 30  1  0  0  0  0
  4 31  1  0  0  0  0
  5 26  1  0  0  0  0
  5  6  1  0  0  0  0
  5  7  1  0  0  0  0
  7  8  1  0  0  0  0
  7 32  1  0  0  0  0
  7 33  1  0  0  0  0
  8  9  1  0  0  0  0
  9 14  1  0  0  0  0
  9 10  2  0  0  0  0
 10 11  1  0  0  0  0
 11 12  2  0  0  0  0
 11 34  1  0  0  0  0
 12 13  1  0  0  0  0
 13 17  1  0  0  0  0
 13 14  2  0  0  0  0
 14 15  1  0  0  0  0
 15 16  2  0  0  0  0
 16 17  1  0  0  0  0
 16 35  1  0  0  0  0
 17 18  1  0  0  0  0
 18 19  1  0  0  0  0
 18 36  1  0  0  0  0
 18 37  1  0  0  0  0
 19 24  1  0  0  0  0
 19 20  1  0  0  0  0
 19 21  1  0  0  0  0
 20 38  1  0  0  0  0
 21 22  1  0  0  0  0
 21 39  1  0  0  0  0
 21 40  1  0  0  0  0
 22 23  1  0  0  0  0
 22 41  1  0  0  0  0
 22 42  1  0  0  0  0
 23 24  1  0  0  0  0
 24 43  1  0  0  0  0
 24 44  1  0  0  0  0
M  END
> <s_m_source_file>
AV-unprocessed.smi

> <i_m_source_file_index>
255

> <i_lp_mmshare_version>
43012

> <i_f3d_flags>
0

> <s_epik_input>
W09IXVtDSDJdW0NAQEhdMVtDSDJdW0NASF0oRilbQ0gyXU4xYyhuW2NIXW4yKWMoYzIzKW5bY0hdbjNbQ0gyXVtDQEBdNChbT0hdKVtDSDJdW0NIMl1PW0NIMl00

> <s_epik_cmdline>
J2VwaWtfcHl0aG9uJywgJy1waCcsICc3LjAnLCAnLXRuJywgJzgnLCAnLW1hJywgJzIwMCcsICctbWV0YWxfYmluZGluZycsICctaW1hZScsICc8aW5maWxlLm1hZT4nLCAnLW9tYWUnLCAnPG91dGZpbGUubWFlPic=

> <r_lp_tautomer_probability>
1

> <r_epik_Ionization_Penalty>
0.0058098

> <r_epik_Ionization_Penalty_Charging>
0

> <r_epik_Ionization_Penalty_Neutral>
0.0058098

> <r_epik_State_Penalty>
0.00411166

> <r_epik_Charging_Adjusted_Penalty>
0.00411166

> <i_epik_Tot_Q>
0

> <i_epik_Tot_abs_Q>
0

> <r_epik_Metal_State_Penalty>
-0

> <b_epik_Metal_Only>
0

> <s_lp_Force_Field>
OPLS_2005

> <r_lp_Energy>
52.96

> <b_lp_Chiralities_Consistent>
1

> <s_lp_Variant>
AV-unprocessed.smi:255-5

> <Gold.Version>
5.8.1

> <Gold.Id.Protein>
6NUR|6NUR_protein|mol2

> <Gold.PLP.Fitness>
48.1164

> <Gold.PLP.PLP>
-39.0526

> <Gold.PLP.part.hbond>
-3.0000

> <Gold.PLP.part.metal>
0.0000

> <Gold.PLP.part.buried>
-2.4473

> <Gold.PLP.part.nonpolar>
-32.6497

> <Gold.PLP.part.repulsive>
0.2154

> <Gold.PLP.ligand.clash>
0.0000

> <Gold.PLP.ligand.torsion>
0.7611

> <Gold.PLP.Chemscore.Hbond>
3.0000

> <Gold.PLP.Chemscore.CHOScore>
0.4990

> <Gold.PLP.Chemscore.Metal>
0.0000

> <Gold.Chemscore.Hbonds>
donor molecule, donor type, donor heavy atom, donor atom, acceptor molecule, acceptor atom, score
      L1  H    20    38       P1  7957  0.75
      P1  H  7989  7998       L1    12  1.00
      P1  H  7997  8010       L1    10  1.00

> <Gold.PLP.Chemscore.Internal.Correction>
0.0890

> <Gold.Rescore>
     Score         DG    S(hbond)    S(metal)    S(lipo)     H(rot)  DE(clash)    DE(int)     intcor
      8.15     -11.75       2.13        0.00      65.61       3.33       0.01       3.59       ----

> <Gold.Chemscore.Fitness>
8.1454

> <Gold.Chemscore.DG>
-11.7525

> <Gold.Chemscore.ZeroCoef>
-5.4800

> <Gold.Chemscore.Hbond>
2.1301

> <Gold.Chemscore.Metal>
0.0000

> <Gold.Chemscore.Lipo>
65.6065

> <Gold.Chemscore.Internal_Hbond>
0.0000

> <Gold.Chemscore.DEClash>
0.0139

> <Gold.Chemscore.DEInternal>
3.5932

> <Gold.Chemscore.Rot>
3.3273

> <Gold.Chemscore.Internal.Correction>
   9.000000E+99

> <Gold.Chemscore.Hbonds>
donor molecule, donor type, donor heavy atom, donor atom, acceptor molecule, acceptor atom, score
      L1  H    20    38       P1  7957  0.72
      P1  H  7989  7998       L1    12  0.34
      P1  H  7997  8010       L1    10  0.25

> <Gold.Chemscore.Hbond.Weighted>
-7.1145

> <Gold.Chemscore.Metal.Weighted>
-0.0000

> <Gold.Chemscore.Lipo.Weighted>
-7.6760

> <Gold.Chemscore.Internal_Hbond.Weighted>
0.0000

> <Gold.Chemscore.DEClash.Weighted>
0.0139

> <Gold.Chemscore.DEInternal.Weighted>
3.5932

> <Gold.Chemscore.Rot.Weighted>
8.5179

> <Gold.Chemscore.Internal.Correction.Weighted>
   9.000000E+99

> <Gold.Protein.RotatedTorsions>
[ 6907 6896 6895 6894 ] final   46.22 input  -60.11 | X-H torsion
[ 7974 7965 7964 7962 ] final   46.84 input  175.53 | X-H torsion
[ 8008 7997 7996 7995 ] final   70.67 input   59.86 | X-H torsion
[ 10167 10162 10161 10158 ] final  -13.05 input  -65.29 | X-H torsion
[ 10718 10713 10712 10709 ] final  126.19 input   66.30 | X-H torsion
[ 10763 10752 10751 10750 ] final  -68.93 input  -60.55 | X-H torsion
[ 11005 11000 10999 10996 ] final  176.09 input  -57.11 | X-H torsion

> <Gold.Protein.ActiveResidues>
 VAL166  LYS551  ARG553  GLY616  TRP617  ASP618  TYR619  PRO620  LYS621  CYS622 
 ASP623  PHE694  ASN695  SER759  ASP760  ASP761  ALA762  ILE779  LEU786  VAL792 
 PHE793  MET794  SER795  GLU796  ALA797  LYS798  CYS799  TRP800  GLU811  SER814 

> <Gold.Protein.RotatedAtoms>
  152.2538  134.8105  160.0441 H   0  0  0  0  0  0  0  0  0  0  0  0  # atno 6907 bound_to 6896
  151.8775  133.3483  159.3763 H   0  0  0  0  0  0  0  0  0  0  0  0  # atno 6908 bound_to 6896
  150.7093  134.4978  159.5591 H   0  0  0  0  0  0  0  0  0  0  0  0  # atno 6909 bound_to 6896
  146.0352  139.4812  142.9812 H   0  0  0  0  0  0  0  0  0  0  0  0  # atno 7974 bound_to 7965
  155.7424  140.3490  155.5110 H   0  0  0  0  0  0  0  0  0  0  0  0  # atno 8008 bound_to 7997
  155.9082  140.1046  157.1321 H   0  0  0  0  0  0  0  0  0  0  0  0  # atno 8009 bound_to 7997
  154.4052  140.1273  156.4510 H   0  0  0  0  0  0  0  0  0  0  0  0  # atno 8010 bound_to 7997
  140.7174  143.5467  150.9347 H   0  0  0  0  0  0  0  0  0  0  0  0  # atno 10167 bound_to 10162
  157.5440  131.1096  150.8813 H   0  0  0  0  0  0  0  0  0  0  0  0  # atno 10718 bound_to 10713
  154.3961  135.6042  153.5870 H   0  0  0  0  0  0  0  0  0  0  0  0  # atno 10763 bound_to 10752
  152.9787  135.5895  154.4240 H   0  0  0  0  0  0  0  0  0  0  0  0  # atno 10764 bound_to 10752
  154.4032  135.2843  155.2062 H   0  0  0  0  0  0  0  0  0  0  0  0  # atno 10765 bound_to 10752
  140.3694  134.7043  157.4382 H   0  0  0  0  0  0  0  0  0  0  0  0  # atno 11005 bound_to 11000
  145.6975  141.0146  143.1522 LP  0  0  0  0  0  0  0  0  0  0  0  0  # atno 17320 bound_to 7965
  144.7048  139.8605  143.7433 LP  0  0  0  0  0  0  0  0  0  0  0  0  # atno 17321 bound_to 7965
  139.9191  143.6628  152.3100 LP  0  0  0  0  0  0  0  0  0  0  0  0  # atno 17342 bound_to 10162
  139.7038  144.7631  151.1227 LP  0  0  0  0  0  0  0  0  0  0  0  0  # atno 17343 bound_to 10162
  156.9357  130.5366  149.5279 LP  0  0  0  0  0  0  0  0  0  0  0  0  # atno 17370 bound_to 10713
  156.0520  130.5588  150.9009 LP  0  0  0  0  0  0  0  0  0  0  0  0  # atno 17371 bound_to 10713
  140.0564  134.6058  155.8800 LP  0  0  0  0  0  0  0  0  0  0  0  0  # atno 17394 bound_to 11000
  141.1959  133.6589  156.5667 LP  0  0  0  0  0  0  0  0  0  0  0  0  # atno 17395 bound_to 11000

$$$$
