AV-unprocessed.smi:252|AV-procd|sdf|1941|dock5
  -GOLD-   2262021 63D 1   1.00000     0.00000
 Structure written by MMmdl.
 56 59  0  0  0  0  0  0  0  0  1 V2000
  143.8664  132.8356  148.9772 C   0  0  0  0  0  0  0  0  0  0  0  0
  145.2250  132.2533  149.3977 C   0  0  0  0  0  0  0  0  0  0  0  0
  145.3118  131.9061  150.8876 C   0  0  0  0  0  0  0  0  0  0  0  0
  144.4019  132.2026  151.6631 O   0  0  0  0  0  0  0  0  0  0  0  0
  146.4287  131.2708  151.2742 N   0  0  0  0  0  0  0  0  0  0  0  0
  146.7273  130.8472  152.6382 C   0  0  1  0  0  0  0  0  0  0  0  0
  147.0732  129.3467  152.6550 C   0  0  0  0  0  0  0  0  0  0  0  0
  147.4814  128.9045  154.0692 C   0  0  0  0  0  0  0  0  0  0  0  0
  148.6235  129.7804  154.6088 C   0  0  0  0  0  0  0  0  0  0  0  0
  148.2601  131.1931  154.5475 N   0  0  0  0  0  0  0  0  0  0  0  0
  149.1304  131.9971  155.1935 C   0  0  0  0  0  0  0  0  0  0  0  0
  150.0879  131.4584  155.9940 N   0  0  0  0  0  0  0  0  0  0  0  0
  150.9469  132.2586  156.6337 C   0  0  0  0  0  0  0  0  0  0  0  0
  151.0231  133.5917  156.6115 N   0  0  0  0  0  0  0  0  0  0  0  0
  150.0605  134.1289  155.8078 C   0  0  0  0  0  0  0  0  0  0  0  0
  149.0806  133.4093  155.0699 C   0  0  0  0  0  0  0  0  0  0  0  0
  148.2667  134.2897  154.3682 N   0  0  0  0  0  0  0  0  0  0  0  0
  148.7391  135.4674  154.6756 C   0  0  0  0  0  0  0  0  0  0  0  0
  149.8161  135.4620  155.5334 N   0  0  0  0  0  0  0  0  0  0  0  0
  150.5336  136.6201  156.0411 C   0  0  0  0  0  0  0  0  0  0  0  0
  150.8818  137.6962  154.9648 C   0  0  1  0  0  0  0  0  0  0  0  0
  151.6510  137.1465  153.9034 O   0  0  0  0  0  0  0  0  0  0  0  0
  149.6445  138.3608  154.3401 C   0  0  0  0  0  0  0  0  0  0  0  0
  149.8778  139.8643  154.4993 C   0  0  0  0  0  0  0  0  0  0  0  0
  151.2690  139.9888  154.7376 O   0  0  0  0  0  0  0  0  0  0  0  0
  151.6439  138.8992  155.5634 C   0  0  2  0  0  0  0  0  0  0  0  0
  153.1724  138.7712  155.6676 C   0  0  0  0  0  0  0  0  0  0  0  0
  147.8922  131.6745  153.2185 C   0  0  0  0  0  0  0  0  0  0  0  0
  143.8561  133.0558  147.9096 H   0  0  0  0  0  0  0  0  0  0  0  0
  143.6504  133.7642  149.5069 H   0  0  0  0  0  0  0  0  0  0  0  0
  143.0539  132.1358  149.1763 H   0  0  0  0  0  0  0  0  0  0  0  0
  145.4296  131.3522  148.8183 H   0  0  0  0  0  0  0  0  0  0  0  0
  146.0152  132.9662  149.1592 H   0  0  0  0  0  0  0  0  0  0  0  0
  147.1257  131.0692  150.5722 H   0  0  0  0  0  0  0  0  0  0  0  0
  145.8428  130.9980  153.2605 H   0  0  0  0  0  0  0  0  0  0  0  0
  146.2223  128.7572  152.3115 H   0  0  0  0  0  0  0  0  0  0  0  0
  147.8927  129.1461  151.9632 H   0  0  0  0  0  0  0  0  0  0  0  0
  146.6213  128.9760  154.7362 H   0  0  0  0  0  0  0  0  0  0  0  0
  147.7839  127.8571  154.0632 H   0  0  0  0  0  0  0  0  0  0  0  0
  148.8506  129.5003  155.6386 H   0  0  0  0  0  0  0  0  0  0  0  0
  149.5288  129.6113  154.0235 H   0  0  0  0  0  0  0  0  0  0  0  0
  151.6782  131.7594  157.2520 H   0  0  0  0  0  0  0  0  0  0  0  0
  148.3108  136.3787  154.2847 H   0  0  0  0  0  0  0  0  0  0  0  0
  149.9355  137.0452  156.8470 H   0  0  0  0  0  0  0  0  0  0  0  0
  151.4389  136.2545  156.5272 H   0  0  0  0  0  0  0  0  0  0  0  0
  151.0592  136.8648  153.2225 H   0  0  0  0  0  0  0  0  0  0  0  0
  149.5373  138.0997  153.2860 H   0  0  0  0  0  0  0  0  0  0  0  0
  148.7096  138.0804  154.8256 H   0  0  0  0  0  0  0  0  0  0  0  0
  149.5701  140.4340  153.6222 H   0  0  0  0  0  0  0  0  0  0  0  0
  149.3323  140.2476  155.3630 H   0  0  0  0  0  0  0  0  0  0  0  0
  151.2503  139.1177  156.5582 H   0  0  0  0  0  0  0  0  0  0  0  0
  153.4524  137.9048  156.2673 H   0  0  0  0  0  0  0  0  0  0  0  0
  153.6001  139.6547  156.1417 H   0  0  0  0  0  0  0  0  0  0  0  0
  153.6402  138.6690  154.6884 H   0  0  0  0  0  0  0  0  0  0  0  0
  148.7581  131.6112  152.5577 H   0  0  0  0  0  0  0  0  0  0  0  0
  147.6115  132.7272  153.2771 H   0  0  0  0  0  0  0  0  0  0  0  0
  1  2  1  0  0  0  0
  1 29  1  0  0  0  0
  1 30  1  0  0  0  0
  1 31  1  0  0  0  0
  2  3  1  0  0  0  0
  2 32  1  0  0  0  0
  2 33  1  0  0  0  0
  3  4  2  0  0  0  0
  3  5  1  0  0  0  0
  5  6  1  0  0  0  0
  5 34  1  0  0  0  0
  6 28  1  0  0  0  0
  6  7  1  0  0  0  0
  6 35  1  0  0  0  0
  7  8  1  0  0  0  0
  7 36  1  0  0  0  0
  7 37  1  0  0  0  0
  8  9  1  0  0  0  0
  8 38  1  0  0  0  0
  8 39  1  0  0  0  0
  9 10  1  0  0  0  0
  9 40  1  0  0  0  0
  9 41  1  0  0  0  0
 10 11  1  0  0  0  0
 10 28  1  0  0  0  0
 11 16  1  0  0  0  0
 11 12  2  0  0  0  0
 12 13  1  0  0  0  0
 13 14  2  0  0  0  0
 13 42  1  0  0  0  0
 14 15  1  0  0  0  0
 15 19  1  0  0  0  0
 15 16  2  0  0  0  0
 16 17  1  0  0  0  0
 17 18  2  0  0  0  0
 18 19  1  0  0  0  0
 18 43  1  0  0  0  0
 19 20  1  0  0  0  0
 20 21  1  0  0  0  0
 20 44  1  0  0  0  0
 20 45  1  0  0  0  0
 21 26  1  0  0  0  0
 21 22  1  0  0  0  0
 21 23  1  0  0  0  0
 22 46  1  0  0  0  0
 23 24  1  0  0  0  0
 23 47  1  0  0  0  0
 23 48  1  0  0  0  0
 24 25  1  0  0  0  0
 24 49  1  0  0  0  0
 24 50  1  0  0  0  0
 25 26  1  0  0  0  0
 26 27  1  0  0  0  0
 26 51  1  0  0  0  0
 27 52  1  0  0  0  0
 27 53  1  0  0  0  0
 27 54  1  0  0  0  0
 28 55  1  0  0  0  0
 28 56  1  0  0  0  0
M  END
> <s_m_source_file>
AV-unprocessed.smi

> <i_m_source_file_index>
252

> <i_lp_mmshare_version>
43012

> <i_f3d_flags>
0

> <s_epik_input>
W0NIM11bQ0gyXUMoPU8pW05IXVtDQEBIXTFbQ0gyXVtDSDJdW0NIMl1OKFtDSDJdMSljKG5bY0hdbjIpYyhjMjMpbltjSF1uM1tDSDJdW0NAQF00KFtPSF0pW0NIMl1bQ0gyXU9bQ0BIXTRbQ0gzXQ==

> <s_epik_cmdline>
J2VwaWtfcHl0aG9uJywgJy1waCcsICc3LjAnLCAnLXRuJywgJzgnLCAnLW1hJywgJzIwMCcsICctbWV0YWxfYmluZGluZycsICctaW1hZScsICc8aW5maWxlLm1hZT4nLCAnLW9tYWUnLCAnPG91dGZpbGUubWFlPic=

> <r_lp_tautomer_probability>
1

> <r_epik_Ionization_Penalty>
0.00182575

> <r_epik_Ionization_Penalty_Charging>
0

> <r_epik_Ionization_Penalty_Neutral>
0.00182575

> <r_epik_State_Penalty>
0.00104524

> <r_epik_Charging_Adjusted_Penalty>
0.00104524

> <i_epik_Tot_Q>
0

> <i_epik_Tot_abs_Q>
0

> <r_epik_Metal_State_Penalty>
-0

> <b_epik_Metal_Only>
0

> <s_lp_Force_Field>
OPLS_2005

> <r_lp_Energy>
42.5457

> <b_lp_Chiralities_Consistent>
1

> <s_lp_Variant>
AV-unprocessed.smi:252-6

> <Gold.Version>
5.8.1

> <Gold.Id.Protein>
6NUR|6NUR_protein|mol2

> <Gold.PLP.Fitness>
54.2388

> <Gold.PLP.PLP>
-43.1227

> <Gold.PLP.part.hbond>
-4.0000

> <Gold.PLP.part.metal>
0.0000

> <Gold.PLP.part.buried>
-1.1115

> <Gold.PLP.part.nonpolar>
-37.8193

> <Gold.PLP.part.repulsive>
0.4233

> <Gold.PLP.ligand.clash>
0.0000

> <Gold.PLP.ligand.torsion>
0.7232

> <Gold.PLP.Chemscore.Hbond>
3.6640

> <Gold.PLP.Chemscore.CHOScore>
0.4536

> <Gold.PLP.Chemscore.Metal>
0.0000

> <Gold.Chemscore.Hbonds>
donor molecule, donor type, donor heavy atom, donor atom, acceptor molecule, acceptor atom, score
      L1  H     5    34       P1 10747  0.90
      L1  H    22    46       P1  7949  0.75
      P1  H  7989  7998       L1    25  0.95
      P1  H 10752 10763       L1    22  1.00
      L1  C    18    43       P1  7948  0.42

> <Gold.PLP.Chemscore.Internal.Correction>
0.2097

> <Gold.Rescore>
     Score         DG    S(hbond)    S(metal)    S(lipo)     H(rot)  DE(clash)    DE(int)     intcor
     13.66     -18.11       2.52        0.00      95.23       2.70       1.46       3.00       ----

> <Gold.Chemscore.Fitness>
13.6577

> <Gold.Chemscore.DG>
-18.1131

> <Gold.Chemscore.ZeroCoef>
-5.4800

> <Gold.Chemscore.Hbond>
2.5190

> <Gold.Chemscore.Metal>
0.0000

> <Gold.Chemscore.Lipo>
95.2329

> <Gold.Chemscore.Internal_Hbond>
0.0000

> <Gold.Chemscore.DEClash>
1.4575

> <Gold.Chemscore.DEInternal>
2.9980

> <Gold.Chemscore.Rot>
2.7041

> <Gold.Chemscore.Internal.Correction>
   9.000000E+99

> <Gold.Chemscore.Hbonds>
donor molecule, donor type, donor heavy atom, donor atom, acceptor molecule, acceptor atom, score
      L1  H     5    34       P1 10747  0.88
      L1  H    22    46       P1  7949  0.26
      P1  H  7989  7998       L1    25  0.21
      P1  H 10752 10763       L1    22  0.61

> <Gold.Chemscore.Hbond.Weighted>
-8.4134

> <Gold.Chemscore.Metal.Weighted>
-0.0000

> <Gold.Chemscore.Lipo.Weighted>
-11.1423

> <Gold.Chemscore.Internal_Hbond.Weighted>
0.0000

> <Gold.Chemscore.DEClash.Weighted>
1.4575

> <Gold.Chemscore.DEInternal.Weighted>
2.9980

> <Gold.Chemscore.Rot.Weighted>
6.9225

> <Gold.Chemscore.Internal.Correction.Weighted>
   9.000000E+99

> <Gold.Protein.RotatedTorsions>
[ 6907 6896 6895 6894 ] final    2.40 input  -60.11 | X-H torsion
[ 7974 7965 7964 7962 ] final   40.96 input  175.53 | X-H torsion
[ 8008 7997 7996 7995 ] final   89.66 input   59.86 | X-H torsion
[ 10167 10162 10161 10158 ] final   68.89 input  -65.29 | X-H torsion
[ 10718 10713 10712 10709 ] final  140.55 input   66.30 | X-H torsion
[ 10763 10752 10751 10750 ] final   41.46 input  -60.55 | X-H torsion
[ 11005 11000 10999 10996 ] final -135.15 input  -57.11 | X-H torsion

> <Gold.Protein.ActiveResidues>
 VAL166  LYS551  ARG553  GLY616  TRP617  ASP618  TYR619  PRO620  LYS621  CYS622 
 ASP623  PHE694  ASN695  SER759  ASP760  ASP761  ALA762  ILE779  LEU786  VAL792 
 PHE793  MET794  SER795  GLU796  ALA797  LYS798  CYS799  TRP800  GLU811  SER814 

> <Gold.Protein.RotatedAtoms>
  151.6083  135.1042  160.0075 H   0  0  0  0  0  0  0  0  0  0  0  0  # atno 6907 bound_to 6896
  152.4221  133.7130  159.6500 H   0  0  0  0  0  0  0  0  0  0  0  0  # atno 6908 bound_to 6896
  150.8109  133.8350  159.3204 H   0  0  0  0  0  0  0  0  0  0  0  0  # atno 6909 bound_to 6896
  146.0862  139.5472  142.9505 H   0  0  0  0  0  0  0  0  0  0  0  0  # atno 7974 bound_to 7965
  156.0026  140.3358  155.6861 H   0  0  0  0  0  0  0  0  0  0  0  0  # atno 8008 bound_to 7997
  155.6269  140.0681  157.2679 H   0  0  0  0  0  0  0  0  0  0  0  0  # atno 8009 bound_to 7997
  154.4254  140.1766  156.1418 H   0  0  0  0  0  0  0  0  0  0  0  0  # atno 8010 bound_to 7997
  140.0738  144.5130  150.7209 H   0  0  0  0  0  0  0  0  0  0  0  0  # atno 10167 bound_to 10162
  157.4020  131.1018  151.0541 H   0  0  0  0  0  0  0  0  0  0  0  0  # atno 10718 bound_to 10713
  152.9908  135.6161  154.2791 H   0  0  0  0  0  0  0  0  0  0  0  0  # atno 10763 bound_to 10752
  154.2521  135.2785  155.2814 H   0  0  0  0  0  0  0  0  0  0  0  0  # atno 10764 bound_to 10752
  154.5279  135.5796  153.6792 H   0  0  0  0  0  0  0  0  0  0  0  0  # atno 10765 bound_to 10752
  140.8924  134.1794  157.4518 H   0  0  0  0  0  0  0  0  0  0  0  0  # atno 11005 bound_to 11000
  145.6125  141.0337  143.1959 LP  0  0  0  0  0  0  0  0  0  0  0  0  # atno 17320 bound_to 7965
  144.7328  139.7676  143.7341 LP  0  0  0  0  0  0  0  0  0  0  0  0  # atno 17321 bound_to 7965
  140.7112  143.2507  151.4575 LP  0  0  0  0  0  0  0  0  0  0  0  0  # atno 17342 bound_to 10162
  139.5820  144.1688  152.1980 LP  0  0  0  0  0  0  0  0  0  0  0  0  # atno 17343 bound_to 10162
  157.1537  130.6195  149.5590 LP  0  0  0  0  0  0  0  0  0  0  0  0  # atno 17370 bound_to 10713
  155.9826  130.4840  150.6889 LP  0  0  0  0  0  0  0  0  0  0  0  0  # atno 17371 bound_to 10713
  139.8731  134.9864  156.5324 LP  0  0  0  0  0  0  0  0  0  0  0  0  # atno 17394 bound_to 11000
  140.8330  133.8264  155.9002 LP  0  0  0  0  0  0  0  0  0  0  0  0  # atno 17395 bound_to 11000

$$$$
