AV-unprocessed.smi:1966|AV-procd|sdf|7949|dock3
  -GOLD-   2272010113D 1   1.00000     0.00000
 Structure written by MMmdl.
 53 54  0  0  0  0  0  0  0  0  1 V2000
  154.2550  133.8240  164.7203 C   0  0  0  0  0  0  0  0  0  0  0  0
  155.0210  134.7990  163.8333 C   0  0  0  0  0  0  0  0  0  0  0  0
  154.7601  134.8793  162.6332 O   0  0  0  0  0  0  0  0  0  0  0  0
  155.9674  135.5346  164.4381 N   0  0  0  0  0  0  0  0  0  0  0  0
  156.8109  136.5367  163.7826 C   0  0  1  0  0  0  0  0  0  0  0  0
  155.9212  137.7085  163.3228 C   0  0  0  0  0  0  0  0  0  0  0  0
  155.3227  138.3880  164.1575 O   0  0  0  0  0  0  0  0  0  0  0  0
  155.8954  137.9292  161.9953 N   0  0  0  0  0  0  0  0  0  0  0  0
  155.1852  138.9225  161.2679 C   0  0  0  0  0  0  0  0  0  0  0  0
  154.5981  139.9759  161.9950 C   0  0  0  0  0  0  0  0  0  0  0  0
  153.9013  140.9860  161.3057 C   0  0  0  0  0  0  0  0  0  0  0  0
  153.8143  140.9244  159.8951 C   0  0  0  0  0  0  0  0  0  0  0  0
  153.1209  141.9267  159.1825 N   0  0  0  0  0  0  0  0  0  0  0  0
  152.0700  141.4487  158.2886 C   0  0  0  0  0  0  0  0  0  0  0  0
  151.6041  142.5788  157.3504 C   0  0  1  0  0  0  0  0  0  0  0  0
  150.4143  142.1523  156.4846 C   0  0  0  0  0  0  0  0  0  0  0  0
  151.2085  143.7049  158.1288 O   0  0  0  0  0  0  0  0  0  0  0  0
  152.2788  144.2284  158.9101 C   0  0  1  0  0  0  0  0  0  0  0  0
  151.7796  145.4867  159.6276 C   0  0  0  0  0  0  0  0  0  0  0  0
  152.7562  143.1478  159.8981 C   0  0  0  0  0  0  0  0  0  0  0  0
  154.3857  139.9142  159.1946 N   0  0  0  0  0  0  0  0  0  0  0  0
  155.0541  138.9479  159.8591 C   0  0  0  0  0  0  0  0  0  0  0  0
  157.8788  137.0409  164.7982 C   0  0  0  0  0  0  0  0  0  0  0  0
  158.8192  138.1112  164.2053 C   0  0  0  0  0  0  0  0  0  0  0  0
  158.7268  135.8829  165.3605 C   0  0  0  0  0  0  0  0  0  0  0  0
  153.7641  134.3553  165.5363 H   0  0  0  0  0  0  0  0  0  0  0  0
  154.9333  133.0843  165.1466 H   0  0  0  0  0  0  0  0  0  0  0  0
  153.4908  133.2974  164.1474 H   0  0  0  0  0  0  0  0  0  0  0  0
  156.1054  135.4055  165.4298 H   0  0  0  0  0  0  0  0  0  0  0  0
  157.3136  136.0875  162.9232 H   0  0  0  0  0  0  0  0  0  0  0  0
  156.4963  137.3363  161.4413 H   0  0  0  0  0  0  0  0  0  0  0  0
  154.6732  140.0103  163.0722 H   0  0  0  0  0  0  0  0  0  0  0  0
  153.4337  141.7831  161.8640 H   0  0  0  0  0  0  0  0  0  0  0  0
  152.4074  140.6052  157.6881 H   0  0  0  0  0  0  0  0  0  0  0  0
  151.2340  141.0928  158.8925 H   0  0  0  0  0  0  0  0  0  0  0  0
  152.4245  142.8706  156.6923 H   0  0  0  0  0  0  0  0  0  0  0  0
  150.6727  141.3001  155.8559 H   0  0  0  0  0  0  0  0  0  0  0  0
  150.0978  142.9649  155.8304 H   0  0  0  0  0  0  0  0  0  0  0  0
  149.5603  141.8682  157.1002 H   0  0  0  0  0  0  0  0  0  0  0  0
  153.1004  144.5099  158.2487 H   0  0  0  0  0  0  0  0  0  0  0  0
  152.5684  145.9300  160.2359 H   0  0  0  0  0  0  0  0  0  0  0  0
  150.9378  145.2599  160.2824 H   0  0  0  0  0  0  0  0  0  0  0  0
  151.4504  146.2389  158.9100 H   0  0  0  0  0  0  0  0  0  0  0  0
  151.9678  142.9207  160.6172 H   0  0  0  0  0  0  0  0  0  0  0  0
  153.6127  143.5232  160.4598 H   0  0  0  0  0  0  0  0  0  0  0  0
  155.5019  138.1985  159.2261 H   0  0  0  0  0  0  0  0  0  0  0  0
  157.3635  137.4982  165.6449 H   0  0  0  0  0  0  0  0  0  0  0  0
  159.3327  137.7368  163.3192 H   0  0  0  0  0  0  0  0  0  0  0  0
  159.5806  138.4079  164.9272 H   0  0  0  0  0  0  0  0  0  0  0  0
  158.2854  139.0188  163.9235 H   0  0  0  0  0  0  0  0  0  0  0  0
  159.2463  135.3519  164.5623 H   0  0  0  0  0  0  0  0  0  0  0  0
  158.1207  135.1575  165.9033 H   0  0  0  0  0  0  0  0  0  0  0  0
  159.4799  136.2505  166.0580 H   0  0  0  0  0  0  0  0  0  0  0  0
  1  2  1  0  0  0  0
  1 26  1  0  0  0  0
  1 27  1  0  0  0  0
  1 28  1  0  0  0  0
  2  3  2  0  0  0  0
  2  4  1  0  0  0  0
  4  5  1  0  0  0  0
  4 29  1  0  0  0  0
  5  6  1  0  0  0  0
  5 23  1  0  0  0  0
  5 30  1  0  0  0  0
  6  7  2  0  0  0  0
  6  8  1  0  0  0  0
  8  9  1  0  0  0  0
  8 31  1  0  0  0  0
  9 22  1  0  0  0  0
  9 10  2  0  0  0  0
 10 11  1  0  0  0  0
 10 32  1  0  0  0  0
 11 12  2  0  0  0  0
 11 33  1  0  0  0  0
 12 13  1  0  0  0  0
 12 21  1  0  0  0  0
 13 20  1  0  0  0  0
 13 14  1  0  0  0  0
 14 15  1  0  0  0  0
 14 34  1  0  0  0  0
 14 35  1  0  0  0  0
 15 16  1  0  0  0  0
 15 17  1  0  0  0  0
 15 36  1  0  0  0  0
 16 37  1  0  0  0  0
 16 38  1  0  0  0  0
 16 39  1  0  0  0  0
 17 18  1  0  0  0  0
 18 19  1  0  0  0  0
 18 20  1  0  0  0  0
 18 40  1  0  0  0  0
 19 41  1  0  0  0  0
 19 42  1  0  0  0  0
 19 43  1  0  0  0  0
 20 44  1  0  0  0  0
 20 45  1  0  0  0  0
 21 22  2  0  0  0  0
 22 46  1  0  0  0  0
 23 24  1  0  0  0  0
 23 25  1  0  0  0  0
 23 47  1  0  0  0  0
 24 48  1  0  0  0  0
 24 49  1  0  0  0  0
 24 50  1  0  0  0  0
 25 51  1  0  0  0  0
 25 52  1  0  0  0  0
 25 53  1  0  0  0  0
M  END
> <s_m_source_file>
AV-unprocessed.smi

> <i_m_source_file_index>
1966

> <i_lp_mmshare_version>
43012

> <i_f3d_flags>
0

> <s_epik_input>
W0NIM11DKD1PKVtOSF1bQ0BASF0oW0NIXShbQ0gzXSlbQ0gzXSlDKD1PKVtOSF1jMVtjSF1bY0hdYyhuW2NIXTEpTjJbQ0gyXVtDQEBIXShbQ0gzXSlPW0NAQEhdKFtDSDNdKVtDSDJdMg==

> <s_epik_cmdline>
J2VwaWtfcHl0aG9uJywgJy1waCcsICc3LjAnLCAnLXRuJywgJzgnLCAnLW1hJywgJzIwMCcsICctbWV0YWxfYmluZGluZycsICctaW1hZScsICc8aW5maWxlLm1hZT4nLCAnLW9tYWUnLCAnPG91dGZpbGUubWFlPic=

> <r_lp_tautomer_probability>
1

> <r_epik_Ionization_Penalty>
0.000679699

> <r_epik_Ionization_Penalty_Charging>
0

> <r_epik_Ionization_Penalty_Neutral>
0.000679699

> <r_epik_State_Penalty>
0.000430485

> <r_epik_Charging_Adjusted_Penalty>
0.000430485

> <i_epik_Tot_Q>
0

> <i_epik_Tot_abs_Q>
0

> <r_epik_Metal_State_Penalty>
-0

> <b_epik_Metal_Only>
0

> <s_lp_Force_Field>
OPLS_2005

> <r_lp_Energy>
24.6084

> <b_lp_Chiralities_Consistent>
1

> <s_lp_Variant>
AV-unprocessed.smi:1966-2

> <Gold.Version>
5.8.1

> <Gold.Id.Protein>
6NUR|6NUR_protein|mol2

> <Gold.PLP.Fitness>
40.0464

> <Gold.PLP.PLP>
-37.2509

> <Gold.PLP.part.hbond>
-1.0000

> <Gold.PLP.part.metal>
0.0000

> <Gold.PLP.part.buried>
-4.1665

> <Gold.PLP.part.nonpolar>
-31.7108

> <Gold.PLP.part.repulsive>
0.1528

> <Gold.PLP.ligand.clash>
0.0000

> <Gold.PLP.ligand.torsion>
0.2719

> <Gold.PLP.Chemscore.Hbond>
0.9913

> <Gold.PLP.Chemscore.CHOScore>
0.0000

> <Gold.PLP.Chemscore.Metal>
0.0000

> <Gold.Chemscore.Hbonds>
donor molecule, donor type, donor heavy atom, donor atom, acceptor molecule, acceptor atom, score
      P1  H  7997  8008       L1    21  1.00

> <Gold.PLP.Chemscore.Internal.Correction>
0.3656

> <Gold.Rescore>
     Score         DG    S(hbond)    S(metal)    S(lipo)     H(rot)  DE(clash)    DE(int)     intcor
     13.76     -15.51       0.86        0.00      97.95       1.68       0.04       1.71       ----

> <Gold.Chemscore.Fitness>
13.7589

> <Gold.Chemscore.DG>
-15.5068

> <Gold.Chemscore.ZeroCoef>
-5.4800

> <Gold.Chemscore.Hbond>
0.8553

> <Gold.Chemscore.Metal>
0.0000

> <Gold.Chemscore.Lipo>
97.9526

> <Gold.Chemscore.Internal_Hbond>
0.0000

> <Gold.Chemscore.DEClash>
0.0417

> <Gold.Chemscore.DEInternal>
1.7061

> <Gold.Chemscore.Rot>
1.6759

> <Gold.Chemscore.Internal.Correction>
   9.000000E+99

> <Gold.Chemscore.Hbonds>
donor molecule, donor type, donor heavy atom, donor atom, acceptor molecule, acceptor atom, score
      P1  H  7997  8008       L1    21  0.74

> <Gold.Chemscore.Hbond.Weighted>
-2.8566

> <Gold.Chemscore.Metal.Weighted>
-0.0000

> <Gold.Chemscore.Lipo.Weighted>
-11.4605

> <Gold.Chemscore.Internal_Hbond.Weighted>
0.0000

> <Gold.Chemscore.DEClash.Weighted>
0.0417

> <Gold.Chemscore.DEInternal.Weighted>
1.7061

> <Gold.Chemscore.Rot.Weighted>
4.2902

> <Gold.Chemscore.Internal.Correction.Weighted>
   9.000000E+99

> <Gold.Protein.RotatedTorsions>
[ 6907 6896 6895 6894 ] final  -16.33 input  -60.11 | X-H torsion
[ 7974 7965 7964 7962 ] final  171.02 input  175.53 | X-H torsion
[ 8008 7997 7996 7995 ] final -112.43 input   59.86 | X-H torsion
[ 10167 10162 10161 10158 ] final  167.47 input  -65.29 | X-H torsion
[ 10718 10713 10712 10709 ] final  168.95 input   66.30 | X-H torsion
[ 10763 10752 10751 10750 ] final  -48.25 input  -60.55 | X-H torsion
[ 11005 11000 10999 10996 ] final   75.16 input  -57.11 | X-H torsion

> <Gold.Protein.ActiveResidues>
 VAL166  LYS551  ARG553  GLY616  TRP617  ASP618  TYR619  PRO620  LYS621  CYS622 
 ASP623  PHE694  ASN695  SER759  ASP760  ASP761  ALA762  ILE779  LEU786  VAL792 
 PHE793  MET794  SER795  GLU796  ALA797  LYS798  CYS799  TRP800  GLU811  SER814 

> <Gold.Protein.RotatedAtoms>
  151.3103  135.0792  159.9269 H   0  0  0  0  0  0  0  0  0  0  0  0  # atno 6907 bound_to 6896
  152.5279  133.9743  159.7787 H   0  0  0  0  0  0  0  0  0  0  0  0  # atno 6908 bound_to 6896
  151.0045  133.5972  159.2721 H   0  0  0  0  0  0  0  0  0  0  0  0  # atno 6909 bound_to 6896
  144.7307  139.9288  143.6423 H   0  0  0  0  0  0  0  0  0  0  0  0  # atno 7974 bound_to 7965
  155.0052  140.0394  157.2376 H   0  0  0  0  0  0  0  0  0  0  0  0  # atno 8008 bound_to 7997
  154.7509  140.2766  155.6270 H   0  0  0  0  0  0  0  0  0  0  0  0  # atno 8009 bound_to 7997
  156.2885  140.2647  156.2262 H   0  0  0  0  0  0  0  0  0  0  0  0  # atno 8010 bound_to 7997
  139.4946  144.3918  151.9508 H   0  0  0  0  0  0  0  0  0  0  0  0  # atno 10167 bound_to 10162
  157.0297  131.0256  151.2748 H   0  0  0  0  0  0  0  0  0  0  0  0  # atno 10718 bound_to 10713
  154.0747  135.6599  153.4829 H   0  0  0  0  0  0  0  0  0  0  0  0  # atno 10763 bound_to 10752
  153.0378  135.5165  154.7532 H   0  0  0  0  0  0  0  0  0  0  0  0  # atno 10764 bound_to 10752
  154.6609  135.3015  154.9835 H   0  0  0  0  0  0  0  0  0  0  0  0  # atno 10765 bound_to 10752
  139.9357  134.7494  156.1237 H   0  0  0  0  0  0  0  0  0  0  0  0  # atno 11005 bound_to 11000
  146.0873  139.3862  143.0427 LP  0  0  0  0  0  0  0  0  0  0  0  0  # atno 17320 bound_to 7965
  145.7759  140.9877  143.1125 LP  0  0  0  0  0  0  0  0  0  0  0  0  # atno 17321 bound_to 7965
  140.3356  144.3265  150.5978 LP  0  0  0  0  0  0  0  0  0  0  0  0  # atno 17342 bound_to 10162
  140.5609  143.2192  151.7767 LP  0  0  0  0  0  0  0  0  0  0  0  0  # atno 17343 bound_to 10162
  157.5187  130.7984  149.7785 LP  0  0  0  0  0  0  0  0  0  0  0  0  # atno 17370 bound_to 10713
  156.0074  130.3849  150.2384 LP  0  0  0  0  0  0  0  0  0  0  0  0  # atno 17371 bound_to 10713
  141.0969  133.6692  156.2665 LP  0  0  0  0  0  0  0  0  0  0  0  0  # atno 17394 bound_to 11000
  140.6083  134.5484  157.5529 LP  0  0  0  0  0  0  0  0  0  0  0  0  # atno 17395 bound_to 11000

$$$$
