AV-unprocessed.smi:3023|AV-procd|sdf|11502|dock5
  -GOLD-   2272016433D 1   1.00000     0.00000
 Structure written by MMmdl.
 43 44  0  0  0  0  0  0  0  0  2 V2000
  144.8832  138.2555  154.1468 C   0  0  0  0  0  0  0  0  0  0  0  0
  145.8040  139.4146  154.1230 N   0  3  1  0  0  0  0  0  0  0  0  0
  146.0913  139.9226  155.4924 C   0  0  0  0  0  0  0  0  0  0  0  0
  146.2056  141.4616  155.5575 C   0  0  0  0  0  0  0  0  0  0  0  0
  147.0697  142.1149  154.4605 C   0  0  0  0  0  0  0  0  0  0  0  0
  148.1622  141.2295  154.0293 N   0  0  0  0  0  0  0  0  0  0  0  0
  149.3541  141.0892  154.6632 C   0  0  0  0  0  0  0  0  0  0  0  0
  150.1835  140.2348  154.3492 O   0  0  0  0  0  0  0  0  0  0  0  0
  149.5648  141.9708  155.6575 N   0  0  0  0  0  0  0  0  0  0  0  0
  150.7918  142.1004  156.4405 C   0  0  0  0  0  0  0  0  0  0  0  0
  151.0555  143.5601  156.8541 C   0  0  0  0  0  0  0  0  0  0  0  0
  151.1890  143.7292  158.3447 C   0  0  0  0  0  0  0  0  0  0  0  0
  150.2988  144.3978  159.2330 C   0  0  0  0  0  0  0  0  0  0  0  0
  150.6921  144.3399  160.4948 N   0  0  0  0  0  0  0  0  0  0  0  0
  151.8451  143.6414  160.4558 N   0  0  0  0  0  0  0  0  0  0  0  0
  152.5620  143.3756  161.6845 C   0  0  0  0  0  0  0  0  0  0  0  0
  152.1715  143.2626  159.1720 C   0  0  0  0  0  0  0  0  0  0  0  0
  147.7986  140.3820  152.8862 C   0  0  0  0  0  0  0  0  0  0  0  0
  147.0314  139.1196  153.3292 C   0  0  0  0  0  0  0  0  0  0  0  0
  145.3355  137.4088  154.6647 H   0  0  0  0  0  0  0  0  0  0  0  0
  144.6272  137.9412  153.1345 H   0  0  0  0  0  0  0  0  0  0  0  0
  143.9517  138.5114  154.6528 H   0  0  0  0  0  0  0  0  0  0  0  0
  145.2952  139.6276  156.1778 H   0  0  0  0  0  0  0  0  0  0  0  0
  146.9949  139.4514  155.8823 H   0  0  0  0  0  0  0  0  0  0  0  0
  145.2093  141.9037  155.5237 H   0  0  0  0  0  0  0  0  0  0  0  0
  146.6109  141.7276  156.5345 H   0  0  0  0  0  0  0  0  0  0  0  0
  146.4275  142.3531  153.6118 H   0  0  0  0  0  0  0  0  0  0  0  0
  147.4412  143.0858  154.7918 H   0  0  0  0  0  0  0  0  0  0  0  0
  148.8326  142.6372  155.8546 H   0  0  0  0  0  0  0  0  0  0  0  0
  150.6984  141.4785  157.3310 H   0  0  0  0  0  0  0  0  0  0  0  0
  151.6493  141.7112  155.8893 H   0  0  0  0  0  0  0  0  0  0  0  0
  151.9583  143.9091  156.3518 H   0  0  0  0  0  0  0  0  0  0  0  0
  150.2497  144.1864  156.4700 H   0  0  0  0  0  0  0  0  0  0  0  0
  149.3769  144.9096  158.9996 H   0  0  0  0  0  0  0  0  0  0  0  0
  153.5802  143.0561  161.4601 H   0  0  0  0  0  0  0  0  0  0  0  0
  152.0557  142.5864  162.2411 H   0  0  0  0  0  0  0  0  0  0  0  0
  152.6024  144.2774  162.2965 H   0  0  0  0  0  0  0  0  0  0  0  0
  153.0608  142.6892  158.9559 H   0  0  0  0  0  0  0  0  0  0  0  0
  147.1957  140.9437  152.1719 H   0  0  0  0  0  0  0  0  0  0  0  0
  148.6842  140.0886  152.3198 H   0  0  0  0  0  0  0  0  0  0  0  0
  147.6855  138.4547  153.8958 H   0  0  0  0  0  0  0  0  0  0  0  0
  146.7526  138.5706  152.4289 H   0  0  0  0  0  0  0  0  0  0  0  0
  145.3057  140.1464  153.6368 H   0  0  0  0  0  0  0  0  0  0  0  0
  1  2  1  0  0  0  0
  1 20  1  0  0  0  0
  1 21  1  0  0  0  0
  1 22  1  0  0  0  0
  2 19  1  0  0  0  0
  2  3  1  0  0  0  0
  2 43  1  0  0  0  0
  3  4  1  0  0  0  0
  3 23  1  0  0  0  0
  3 24  1  0  0  0  0
  4  5  1  0  0  0  0
  4 25  1  0  0  0  0
  4 26  1  0  0  0  0
  5  6  1  0  0  0  0
  5 27  1  0  0  0  0
  5 28  1  0  0  0  0
  6  7  1  0  0  0  0
  6 18  1  0  0  0  0
  7  8  2  0  0  0  0
  7  9  1  0  0  0  0
  9 10  1  0  0  0  0
  9 29  1  0  0  0  0
 10 11  1  0  0  0  0
 10 30  1  0  0  0  0
 10 31  1  0  0  0  0
 11 12  1  0  0  0  0
 11 32  1  0  0  0  0
 11 33  1  0  0  0  0
 12 17  2  0  0  0  0
 12 13  1  0  0  0  0
 13 14  2  0  0  0  0
 13 34  1  0  0  0  0
 14 15  1  0  0  0  0
 15 16  1  0  0  0  0
 15 17  1  0  0  0  0
 16 35  1  0  0  0  0
 16 36  1  0  0  0  0
 16 37  1  0  0  0  0
 17 38  1  0  0  0  0
 18 19  1  0  0  0  0
 18 39  1  0  0  0  0
 18 40  1  0  0  0  0
 19 41  1  0  0  0  0
 19 42  1  0  0  0  0
M  CHG  1   2   1
M  END
> <s_m_source_file>
AV-unprocessed.smi

> <i_m_source_file_index>
3023

> <i_lp_mmshare_version>
43012

> <i_f3d_flags>
0

> <s_epik_input>
W0NIM11OMVtDSDJdW0NIMl1bQ0gyXU4oW0NIMl1bQ0gyXTEpQyg9TylbTkhdW0NIMl1bQ0gyXWMyW2NIXW5uKFtDSDNdKVtjSF0y

> <s_epik_cmdline>
J2VwaWtfcHl0aG9uJywgJy1waCcsICc3LjAnLCAnLXRuJywgJzgnLCAnLW1hJywgJzIwMCcsICctbWV0YWxfYmluZGluZycsICctaW1hZScsICc8aW5maWxlLm1hZT4nLCAnLW9tYWUnLCAnPG91dGZpbGUubWFlPic=

> <r_lp_tautomer_probability>
1

> <r_epik_Ionization_Penalty>
0.00258886

> <r_epik_Ionization_Penalty_Charging>
0.00208099

> <r_epik_Ionization_Penalty_Neutral>
0.00050787

> <r_epik_State_Penalty>
-0

> <r_epik_Charging_Adjusted_Penalty>
0.00208099

> <i_epik_Tot_Q>
1

> <i_epik_Tot_abs_Q>
1

> <r_epik_Metal_State_Penalty>
-0

> <b_epik_Metal_Only>
0

> <s_lp_Force_Field>
OPLS_2005

> <r_lp_Energy>
39.0301

> <b_lp_Chiralities_Consistent>
1

> <s_lp_Variant>
AV-unprocessed.smi:3023-2

> <Gold.Version>
5.8.1

> <Gold.Id.Protein>
6NUR|6NUR_protein|mol2

> <Gold.PLP.Fitness>
46.7091

> <Gold.PLP.PLP>
-35.3682

> <Gold.PLP.part.hbond>
-3.0000

> <Gold.PLP.part.metal>
0.0000

> <Gold.PLP.part.buried>
2.7492

> <Gold.PLP.part.nonpolar>
-36.5819

> <Gold.PLP.part.repulsive>
0.4085

> <Gold.PLP.ligand.clash>
0.0000

> <Gold.PLP.ligand.torsion>
0.6282

> <Gold.PLP.Chemscore.Hbond>
3.1921

> <Gold.PLP.Chemscore.CHOScore>
1.0000

> <Gold.PLP.Chemscore.Metal>
0.0000

> <Gold.Chemscore.Hbonds>
donor molecule, donor type, donor heavy atom, donor atom, acceptor molecule, acceptor atom, score
      L1  H     2    43       P1 10175  1.70
      L1  H     9    29       P1  8028  0.50
      P1  H  7989  7998       L1     8  1.00
      L1  C    13    34       P1  8029  1.00

> <Gold.PLP.Chemscore.Internal.Correction>
0.0210

> <Gold.Rescore>
     Score         DG    S(hbond)    S(metal)    S(lipo)     H(rot)  DE(clash)    DE(int)     intcor
     15.89     -19.00       1.99        0.00      89.23       1.39       2.53       0.59       ----

> <Gold.Chemscore.Fitness>
15.8908

> <Gold.Chemscore.DG>
-19.0026

> <Gold.Chemscore.ZeroCoef>
-5.4800

> <Gold.Chemscore.Hbond>
1.9889

> <Gold.Chemscore.Metal>
0.0000

> <Gold.Chemscore.Lipo>
89.2253

> <Gold.Chemscore.Internal_Hbond>
0.0000

> <Gold.Chemscore.DEClash>
2.5258

> <Gold.Chemscore.DEInternal>
0.5859

> <Gold.Chemscore.Rot>
1.3906

> <Gold.Chemscore.Internal.Correction>
   9.000000E+99

> <Gold.Chemscore.Hbonds>
donor molecule, donor type, donor heavy atom, donor atom, acceptor molecule, acceptor atom, score
      L1  H     2    43       P1 10175  0.79
      L1  H     9    29       P1  8028  0.49
      P1  H  7989  7998       L1     8  0.83

> <Gold.Chemscore.Hbond.Weighted>
-6.6430

> <Gold.Chemscore.Metal.Weighted>
-0.0000

> <Gold.Chemscore.Lipo.Weighted>
-10.4394

> <Gold.Chemscore.Internal_Hbond.Weighted>
0.0000

> <Gold.Chemscore.DEClash.Weighted>
2.5258

> <Gold.Chemscore.DEInternal.Weighted>
0.5859

> <Gold.Chemscore.Rot.Weighted>
3.5598

> <Gold.Chemscore.Internal.Correction.Weighted>
   9.000000E+99

> <Gold.Protein.RotatedTorsions>
[ 6907 6896 6895 6894 ] final   -4.50 input  -60.11 | X-H torsion
[ 7974 7965 7964 7962 ] final  -94.59 input  175.53 | X-H torsion
[ 8008 7997 7996 7995 ] final -160.92 input   59.86 | X-H torsion
[ 10167 10162 10161 10158 ] final   59.94 input  -65.29 | X-H torsion
[ 10718 10713 10712 10709 ] final -106.09 input   66.30 | X-H torsion
[ 10763 10752 10751 10750 ] final -159.37 input  -60.55 | X-H torsion
[ 11005 11000 10999 10996 ] final -160.02 input  -57.11 | X-H torsion

> <Gold.Protein.ActiveResidues>
 VAL166  LYS551  ARG553  GLY616  TRP617  ASP618  TYR619  PRO620  LYS621  CYS622 
 ASP623  PHE694  ASN695  SER759  ASP760  ASP761  ALA762  ILE779  LEU786  VAL792 
 PHE793  MET794  SER795  GLU796  ALA797  LYS798  CYS799  TRP800  GLU811  SER814 

> <Gold.Protein.RotatedAtoms>
  151.4966  135.1060  159.9817 H   0  0  0  0  0  0  0  0  0  0  0  0  # atno 6907 bound_to 6896
  152.4719  133.8045  159.6981 H   0  0  0  0  0  0  0  0  0  0  0  0  # atno 6908 bound_to 6896
  150.8733  133.7412  159.2980 H   0  0  0  0  0  0  0  0  0  0  0  0  # atno 6909 bound_to 6896
  145.3713  140.9506  143.2445 H   0  0  0  0  0  0  0  0  0  0  0  0  # atno 7974 bound_to 7965
  155.7845  140.0869  157.2041 H   0  0  0  0  0  0  0  0  0  0  0  0  # atno 8008 bound_to 7997
  154.3988  140.1501  156.3149 H   0  0  0  0  0  0  0  0  0  0  0  0  # atno 8009 bound_to 7997
  155.8620  140.3429  155.5765 H   0  0  0  0  0  0  0  0  0  0  0  0  # atno 8010 bound_to 7997
  140.1710  144.4276  150.6661 H   0  0  0  0  0  0  0  0  0  0  0  0  # atno 10167 bound_to 10162
  156.0374  130.5595  150.7631 H   0  0  0  0  0  0  0  0  0  0  0  0  # atno 10718 bound_to 10713
  154.7480  135.3085  154.8609 H   0  0  0  0  0  0  0  0  0  0  0  0  # atno 10763 bound_to 10752
  153.9405  135.6775  153.4748 H   0  0  0  0  0  0  0  0  0  0  0  0  # atno 10764 bound_to 10752
  153.1076  135.4882  154.8906 H   0  0  0  0  0  0  0  0  0  0  0  0  # atno 10765 bound_to 10752
  140.6361  134.4600  157.5231 H   0  0  0  0  0  0  0  0  0  0  0  0  # atno 11005 bound_to 11000
  144.8574  139.5229  143.6828 LP  0  0  0  0  0  0  0  0  0  0  0  0  # atno 17320 bound_to 7965
  146.2884  139.7068  142.9179 LP  0  0  0  0  0  0  0  0  0  0  0  0  # atno 17321 bound_to 7965
  140.6582  143.2244  151.5919 LP  0  0  0  0  0  0  0  0  0  0  0  0  # atno 17342 bound_to 10162
  139.5338  144.2840  152.1206 LP  0  0  0  0  0  0  0  0  0  0  0  0  # atno 17343 bound_to 10162
  157.5145  131.0927  151.0156 LP  0  0  0  0  0  0  0  0  0  0  0  0  # atno 17370 bound_to 10713
  157.0503  130.5784  149.5369 LP  0  0  0  0  0  0  0  0  0  0  0  0  # atno 17371 bound_to 10713
  139.9097  134.8370  156.1572 LP  0  0  0  0  0  0  0  0  0  0  0  0  # atno 17394 bound_to 11000
  141.0640  133.6828  156.2009 LP  0  0  0  0  0  0  0  0  0  0  0  0  # atno 17395 bound_to 11000

$$$$
