AV-unprocessed.smi:3128|AV-procd|sdf|11921|dock7
  -GOLD-   2272017303D 1   1.00000     0.00000
 Structure written by MMmdl.
 39 39  0  0  0  0  0  0  0  0  1 V2000
  150.4561  139.1423  154.3947 C   0  0  0  0  0  0  0  0  0  0  0  0
  149.8703  140.5677  154.4316 C   0  0  0  0  0  0  0  0  0  0  0  0
  150.3836  141.2987  155.6854 C   0  0  0  0  0  0  0  0  0  0  0  0
  148.3213  140.5704  154.3371 C   0  0  1  0  0  0  0  0  0  0  0  0
  147.7169  141.9870  154.2876 C   0  0  0  0  0  0  0  0  0  0  0  0
  147.8887  139.8282  153.1535 N   0  0  0  0  0  0  0  0  0  0  0  0
  146.7697  139.0934  153.0551 C   0  0  0  0  0  0  0  0  0  0  0  0
  145.9558  138.9686  153.9701 O   0  0  0  0  0  0  0  0  0  0  0  0
  146.5343  138.3882  151.7206 C   0  0  0  0  0  0  0  0  0  0  0  0
  146.3897  136.9405  151.8982 N   0  0  0  0  0  0  0  0  0  0  0  0
  145.6071  136.3684  150.8136 C   0  0  0  0  0  0  0  0  0  0  0  0
  144.7305  135.2304  151.3568 C   0  0  0  0  0  0  0  0  0  0  0  0
  144.9836  133.9826  150.6622 N   0  0  0  0  0  0  0  0  0  0  0  0
  144.0930  133.1938  149.9652 C   0  0  0  0  0  0  0  0  0  0  0  0
  144.7883  132.1193  149.4890 C   0  0  0  0  0  0  0  0  0  0  0  0
  146.1151  132.3435  149.9520 C   0  0  0  0  0  0  0  0  0  0  0  0
  146.2289  133.4598  150.6534 N   0  0  0  0  0  0  0  0  0  0  0  0
  150.0705  138.5360  155.2150 H   0  0  0  0  0  0  0  0  0  0  0  0
  151.5428  139.1624  154.4810 H   0  0  0  0  0  0  0  0  0  0  0  0
  150.2228  138.6280  153.4623 H   0  0  0  0  0  0  0  0  0  0  0  0
  150.2624  141.0992  153.5631 H   0  0  0  0  0  0  0  0  0  0  0  0
  149.9731  140.8606  156.5956 H   0  0  0  0  0  0  0  0  0  0  0  0
  150.1235  142.3567  155.6739 H   0  0  0  0  0  0  0  0  0  0  0  0
  151.4704  141.2443  155.7536 H   0  0  0  0  0  0  0  0  0  0  0  0
  147.9325  140.0652  155.2237 H   0  0  0  0  0  0  0  0  0  0  0  0
  147.9077  142.5405  155.2064 H   0  0  0  0  0  0  0  0  0  0  0  0
  146.6340  141.9505  154.1650 H   0  0  0  0  0  0  0  0  0  0  0  0
  148.1241  142.5638  153.4565 H   0  0  0  0  0  0  0  0  0  0  0  0
  148.4963  139.8684  152.3482 H   0  0  0  0  0  0  0  0  0  0  0  0
  145.6292  138.7984  151.2700 H   0  0  0  0  0  0  0  0  0  0  0  0
  147.3585  138.5962  151.0355 H   0  0  0  0  0  0  0  0  0  0  0  0
  147.2888  136.4825  151.9390 H   0  0  0  0  0  0  0  0  0  0  0  0
  144.9822  137.1394  150.3600 H   0  0  0  0  0  0  0  0  0  0  0  0
  146.2745  135.9882  150.0387 H   0  0  0  0  0  0  0  0  0  0  0  0
  144.9191  135.0769  152.4204 H   0  0  0  0  0  0  0  0  0  0  0  0
  143.6724  135.4774  151.2549 H   0  0  0  0  0  0  0  0  0  0  0  0
  143.0504  133.4587  149.8683 H   0  0  0  0  0  0  0  0  0  0  0  0
  144.4074  131.2985  148.8997 H   0  0  0  0  0  0  0  0  0  0  0  0
  146.9927  131.7326  149.8004 H   0  0  0  0  0  0  0  0  0  0  0  0
  1  2  1  0  0  0  0
  1 18  1  0  0  0  0
  1 19  1  0  0  0  0
  1 20  1  0  0  0  0
  2  3  1  0  0  0  0
  2  4  1  0  0  0  0
  2 21  1  0  0  0  0
  3 22  1  0  0  0  0
  3 23  1  0  0  0  0
  3 24  1  0  0  0  0
  4  5  1  0  0  0  0
  4  6  1  0  0  0  0
  4 25  1  0  0  0  0
  5 26  1  0  0  0  0
  5 27  1  0  0  0  0
  5 28  1  0  0  0  0
  6  7  1  0  0  0  0
  6 29  1  0  0  0  0
  7  8  2  0  0  0  0
  7  9  1  0  0  0  0
  9 10  1  0  0  0  0
  9 30  1  0  0  0  0
  9 31  1  0  0  0  0
 10 11  1  0  0  0  0
 10 32  1  0  0  0  0
 11 12  1  0  0  0  0
 11 33  1  0  0  0  0
 11 34  1  0  0  0  0
 12 13  1  0  0  0  0
 12 35  1  0  0  0  0
 12 36  1  0  0  0  0
 13 17  1  0  0  0  0
 13 14  1  0  0  0  0
 14 15  2  0  0  0  0
 14 37  1  0  0  0  0
 15 16  1  0  0  0  0
 15 38  1  0  0  0  0
 16 17  2  0  0  0  0
 16 39  1  0  0  0  0
M  END
> <s_m_source_file>
AV-unprocessed.smi

> <i_m_source_file_index>
3128

> <i_lp_mmshare_version>
43012

> <i_f3d_flags>
0

> <s_epik_input>
W0NIM11bQ0hdKFtDSDNdKVtDQEhdKFtDSDNdKVtOSF1DKD1PKVtDSDJdW05IXVtDSDJdW0NIMl1uMVtjSF1bY0hdW2NIXW4x

> <s_epik_cmdline>
J2VwaWtfcHl0aG9uJywgJy1waCcsICc3LjAnLCAnLXRuJywgJzgnLCAnLW1hJywgJzIwMCcsICctbWV0YWxfYmluZGluZycsICctaW1hZScsICc8aW5maWxlLm1hZT4nLCAnLW9tYWUnLCAnPG91dGZpbGUubWFlPic=

> <r_lp_tautomer_probability>
1

> <r_epik_Ionization_Penalty>
0.724947

> <r_epik_Ionization_Penalty_Charging>
0

> <r_epik_Ionization_Penalty_Neutral>
0.724947

> <r_epik_State_Penalty>
0.747959

> <r_epik_Charging_Adjusted_Penalty>
0.747959

> <i_epik_Tot_Q>
0

> <i_epik_Tot_abs_Q>
0

> <r_epik_Metal_State_Penalty>
0.746178

> <b_epik_Metal_Only>
0

> <s_lp_Force_Field>
OPLS_2005

> <r_lp_Energy>
7.09657

> <b_lp_Chiralities_Consistent>
1

> <s_lp_Variant>
AV-unprocessed.smi:3128-4

> <Gold.Version>
5.8.1

> <Gold.Id.Protein>
6NUR|6NUR_protein|mol2

> <Gold.PLP.Fitness>
47.3580

> <Gold.PLP.PLP>
-37.4960

> <Gold.PLP.part.hbond>
-2.0000

> <Gold.PLP.part.metal>
0.0000

> <Gold.PLP.part.buried>
-0.0228

> <Gold.PLP.part.nonpolar>
-36.9407

> <Gold.PLP.part.repulsive>
0.6747

> <Gold.PLP.ligand.clash>
0.0000

> <Gold.PLP.ligand.torsion>
1.1522

> <Gold.PLP.Chemscore.Hbond>
2.0000

> <Gold.PLP.Chemscore.CHOScore>
2.0000

> <Gold.PLP.Chemscore.Metal>
0.0000

> <Gold.Chemscore.Hbonds>
donor molecule, donor type, donor heavy atom, donor atom, acceptor molecule, acceptor atom, score
      L1  H     6    29       P1  7957  1.00
      L1  H    10    32       P1  7948  1.00
      L1  C    14    37       P1 10186  1.00
      L1  C    16    39       P1 10747  1.00

> <Gold.PLP.Chemscore.Internal.Correction>
0.1665

> <Gold.Rescore>
     Score         DG    S(hbond)    S(metal)    S(lipo)     H(rot)  DE(clash)    DE(int)     intcor
     15.79     -17.32       1.98        0.00      91.63       2.15       0.40       1.13       ----

> <Gold.Chemscore.Fitness>
15.7874

> <Gold.Chemscore.DG>
-17.3224

> <Gold.Chemscore.ZeroCoef>
-5.4800

> <Gold.Chemscore.Hbond>
1.9828

> <Gold.Chemscore.Metal>
0.0000

> <Gold.Chemscore.Lipo>
91.6306

> <Gold.Chemscore.Internal_Hbond>
0.0000

> <Gold.Chemscore.DEClash>
0.4043

> <Gold.Chemscore.DEInternal>
1.1307

> <Gold.Chemscore.Rot>
2.1488

> <Gold.Chemscore.Internal.Correction>
   9.000000E+99

> <Gold.Chemscore.Hbonds>
donor molecule, donor type, donor heavy atom, donor atom, acceptor molecule, acceptor atom, score
      L1  H     6    29       P1  7957  0.99
      L1  H    10    32       P1  7948  1.00

> <Gold.Chemscore.Hbond.Weighted>
-6.6226

> <Gold.Chemscore.Metal.Weighted>
-0.0000

> <Gold.Chemscore.Lipo.Weighted>
-10.7208

> <Gold.Chemscore.Internal_Hbond.Weighted>
0.0000

> <Gold.Chemscore.DEClash.Weighted>
0.4043

> <Gold.Chemscore.DEInternal.Weighted>
1.1307

> <Gold.Chemscore.Rot.Weighted>
5.5010

> <Gold.Chemscore.Internal.Correction.Weighted>
   9.000000E+99

> <Gold.Protein.RotatedTorsions>
[ 6907 6896 6895 6894 ] final   42.67 input  -60.11 | X-H torsion
[ 7974 7965 7964 7962 ] final   -2.30 input  175.53 | X-H torsion
[ 8008 7997 7996 7995 ] final  -75.82 input   59.86 | X-H torsion
[ 10167 10162 10161 10158 ] final   77.35 input  -65.29 | X-H torsion
[ 10718 10713 10712 10709 ] final   48.71 input   66.30 | X-H torsion
[ 10763 10752 10751 10750 ] final  -95.34 input  -60.55 | X-H torsion
[ 11005 11000 10999 10996 ] final -174.00 input  -57.11 | X-H torsion

> <Gold.Protein.ActiveResidues>
 VAL166  LYS551  ARG553  GLY616  TRP617  ASP618  TYR619  PRO620  LYS621  CYS622 
 ASP623  PHE694  ASN695  SER759  ASP760  ASP761  ALA762  ILE779  LEU786  VAL792 
 PHE793  MET794  SER795  GLU796  ALA797  LYS798  CYS799  TRP800  GLU811  SER814 

> <Gold.Protein.RotatedAtoms>
  152.2107  134.8504  160.0497 H   0  0  0  0  0  0  0  0  0  0  0  0  # atno 6907 bound_to 6896
  151.9323  133.3609  159.3943 H   0  0  0  0  0  0  0  0  0  0  0  0  # atno 6908 bound_to 6896
  150.6975  134.4449  159.5353 H   0  0  0  0  0  0  0  0  0  0  0  0  # atno 6909 bound_to 6896
  146.2406  140.1550  142.8333 H   0  0  0  0  0  0  0  0  0  0  0  0  # atno 7974 bound_to 7965
  154.5451  140.0737  156.8575 H   0  0  0  0  0  0  0  0  0  0  0  0  # atno 8008 bound_to 7997
  155.3104  140.3390  155.4226 H   0  0  0  0  0  0  0  0  0  0  0  0  # atno 8009 bound_to 7997
  156.1910  140.1686  156.8078 H   0  0  0  0  0  0  0  0  0  0  0  0  # atno 8010 bound_to 7997
  139.9825  144.5816  150.7888 H   0  0  0  0  0  0  0  0  0  0  0  0  # atno 10167 bound_to 10162
  157.4714  130.8258  149.7992 H   0  0  0  0  0  0  0  0  0  0  0  0  # atno 10718 bound_to 10713
  154.7139  135.5124  153.8708 H   0  0  0  0  0  0  0  0  0  0  0  0  # atno 10763 bound_to 10752
  153.0804  135.6629  154.0066 H   0  0  0  0  0  0  0  0  0  0  0  0  # atno 10764 bound_to 10752
  153.9902  135.3020  155.3392 H   0  0  0  0  0  0  0  0  0  0  0  0  # atno 10765 bound_to 10752
  140.4794  134.6090  157.4913 H   0  0  0  0  0  0  0  0  0  0  0  0  # atno 11005 bound_to 11000
  145.0136  140.8735  143.5209 LP  0  0  0  0  0  0  0  0  0  0  0  0  # atno 17320 bound_to 7965
  145.1588  139.2471  143.5402 LP  0  0  0  0  0  0  0  0  0  0  0  0  # atno 17321 bound_to 7965
  140.7484  143.2921  151.3301 LP  0  0  0  0  0  0  0  0  0  0  0  0  # atno 17342 bound_to 10162
  139.6399  144.0559  152.2546 LP  0  0  0  0  0  0  0  0  0  0  0  0  # atno 17343 bound_to 10162
  156.0075  130.3848  150.2379 LP  0  0  0  0  0  0  0  0  0  0  0  0  # atno 17370 bound_to 10713
  157.0561  131.0076  151.3238 LP  0  0  0  0  0  0  0  0  0  0  0  0  # atno 17371 bound_to 10713
  139.9836  134.7098  155.9815 LP  0  0  0  0  0  0  0  0  0  0  0  0  # atno 17394 bound_to 11000
  141.1539  133.6545  156.4098 LP  0  0  0  0  0  0  0  0  0  0  0  0  # atno 17395 bound_to 11000

$$$$
