#       Name:                AV-unprocessed.smi:1906
#       Creating user name   scv26
#       Creation time:       Fri Mar 27 09:47:03 2020


#       File generated by GOLD software.
#

@<TRIPOS>MOLECULE
AV-unprocessed.smi:1906
    38    40     1
SMALL
NO_CHARGES


@<TRIPOS>ATOM
      1 ****        -2.1079  -0.4330  -1.7012 C.3            1 S1                 0.0000
      2 ****        -1.8239   0.2781  -0.4165 C.2            1 S1                 0.0000
      3 ****        -2.2349   1.5264  -0.1933 N.2            1 S1                 0.0000
      4 ****        -1.7697   1.7752   1.0833 C.ar           1 S1                 0.0000
      5 ****        -1.8802   2.9280   1.8930 C.ar           1 S1                 0.0000
      6 ****        -1.3172   2.9487   3.1860 C.ar           1 S1                 0.0000
      7 ****        -0.6374   1.8196   3.6870 C.ar           1 S1                 0.0000
      8 ****        -0.5154   0.6609   2.8964 C.ar           1 S1                 0.0000
      9 ****        -1.0778   0.6460   1.6061 C.ar           1 S1                 0.0000
     10 ****        -1.1297  -0.3055   0.5925 N.pl3          1 S1                 0.0000
     11 ****        -0.5481  -1.6406   0.6395 C.3            1 S1                 0.0000
     12 ****         0.9882  -1.6158   0.5070 C.3            1 S1                 0.0000
     13 ****         1.4747  -2.9186   0.7577 O.3            1 S1                 0.0000
     14 ****         1.4462  -1.0738  -0.8402 C.ar           1 S1                 0.0000
     15 ****         1.4648  -1.9017  -1.9846 C.ar           1 S1                 0.0000
     16 ****         1.8689  -1.3821  -3.2298 C.ar           1 S1                 0.0000
     17 ****         2.2554  -0.0325  -3.3387 C.ar           1 S1                 0.0000
     18 ****         2.2382   0.7976  -2.2017 C.ar           1 S1                 0.0000
     19 ****         2.6067   2.0962  -2.3061 F              1 S1                 0.0000
     20 ****         1.8353   0.2782  -0.9564 C.ar           1 S1                 0.0000
     21 ****        -2.6536   0.2172  -2.3856 H              1 S1                 0.0000
     22 ****        -2.7132  -1.3206  -1.5158 H              1 S1                 0.0000
     23 ****        -1.1775  -0.7312  -2.1833 H              1 S1                 0.0000
     24 ****        -2.3991   3.7978   1.5185 H              1 S1                 0.0000
     25 ****        -1.4085   3.8351   3.7965 H              1 S1                 0.0000
     26 ****        -0.2094   1.8429   4.6786 H              1 S1                 0.0000
     27 ****         0.0045  -0.2059   3.2766 H              1 S1                 0.0000
     28 ****        -0.8308  -2.0866   1.5941 H              1 S1                 0.0000
     29 ****        -0.9921  -2.2698  -0.1320 H              1 S1                 0.0000
     30 ****         1.4044  -0.9821   1.2910 H              1 S1                 0.0000
     31 ****         2.4189  -2.8856   0.7815 H              1 S1                 0.0000
     32 ****         1.1610  -2.9359  -1.9139 H              1 S1                 0.0000
     33 ****         1.8793  -2.0181  -4.1025 H              1 S1                 0.0000
     34 ****         2.5631   0.3661  -4.2940 H              1 S1                 0.0000
     35 ****         1.8166   0.9247  -0.0909 H              1 S1                 0.0000
     36 ****        -2.7512   2.1318  -0.7990 LP             1 S1                 0.0000
     37 ****         1.1767  -3.5361   0.0298 LP             1 S1                 0.0000
     38 ****         1.1261  -3.2459   1.6360 LP             1 S1                 0.0000
@<TRIPOS>BOND
    1    1    2 1     
    2    1   21 1     
    3    1   22 1     
    4    1   23 1     
    5    2   10 1     
    6    2    3 2     
    7    3    4 1     
    8    4    9 ar    
    9    4    5 ar    
   10    5    6 ar    
   11    5   24 1     
   12    6    7 ar    
   13    6   25 1     
   14    7    8 ar    
   15    7   26 1     
   16    8    9 ar    
   17    8   27 1     
   18    9   10 1     
   19   10   11 1     
   20   11   12 1     
   21   11   28 1     
   22   11   29 1     
   23   12   13 1     
   24   12   14 1     
   25   12   30 1     
   26   13   31 1     
   27   14   20 ar    
   28   14   15 ar    
   29   15   16 ar    
   30   15   32 1     
   31   16   17 ar    
   32   16   33 1     
   33   17   18 ar    
   34   17   34 1     
   35   18   19 1     
   36   18   20 ar    
   37   20   35 1     
   38    3   36 1     
   39   13   37 1     
   40   13   38 1     
@<TRIPOS>SUBSTRUCTURE
      1 S1             1
@<TRIPOS>SET
LONE_PAIRS      STATIC     ATOMS    <user>   **** ""
3 36 37 38
DONOR_HYDROGENS      STATIC     ATOMS    <user>   **** ""
1 31
ATOM$BLUE        STATIC     ATOMS    COLORGROUP SYSTEM
3 36 37 38
ATOM$RED        STATIC     ATOMS    COLORGROUP SYSTEM
1 31
