#       Name:                AV-unprocessed.smi:125
#       Creating user name   scv26
#       Creation time:       Thu Mar 26 18:28:40 2020


#       File generated by GOLD software.
#

@<TRIPOS>MOLECULE
AV-unprocessed.smi:125
    69    72     1
SMALL
NO_CHARGES


@<TRIPOS>ATOM
      1 ****        -5.5285   0.7209   0.6658 C.3            1 S1                 0.0000
      2 ****        -4.0151   0.6232   0.5651 C.ar           1 S1                 0.0000
      3 ****        -3.4176  -0.6528   0.6398 C.ar           1 S1                 0.0000
      4 ****        -2.0208  -0.8022   0.5549 C.ar           1 S1                 0.0000
      5 ****        -1.1931   0.3312   0.3825 C.ar           1 S1                 0.0000
      6 ****         0.2248   0.2645   0.3173 N.am           1 S1                 0.0000
      7 ****         1.0001  -0.7625  -0.0753 C.2            1 S1                 0.0000
      8 ****         0.5715  -1.8368  -0.4990 O.2            1 S1                 0.0000
      9 ****         2.5126  -0.5014   0.0066 C.3            1 S1                 0.0000
     10 ****         3.3392  -1.6597  -0.3992 N.am           1 S1                 0.0000
     11 ****         3.6964  -2.6162   0.5835 C.2            1 S1                 0.0000
     12 ****         3.3332  -2.4944   1.7544 O.2            1 S1                 0.0000
     13 ****         4.5061  -3.7335   0.1107 C.2            1 S1                 0.0000
     14 ****         4.9062  -4.6794   0.9772 F              1 S1                 0.0000
     15 ****         4.8653  -3.8312  -1.1857 C.2            1 S1                 0.0000
     16 ****         4.4936  -2.8996  -2.1381 N.am           1 S1                 0.0000
     17 ****         4.9139  -3.0378  -3.5853 C.3            1 S1                 0.0000
     18 ****         6.1923  -2.2330  -3.8436 C.3            1 S1                 0.0000
     19 ****         7.2647  -3.2741  -3.6087 C.3            1 S1                 0.0000
     20 ****         6.5923  -4.5336  -4.1439 C.3            1 S1                 0.0000
     21 ****         5.2045  -4.3796  -3.8541 O.3            1 S1                 0.0000
     22 ****         3.7193  -1.7822  -1.7569 C.2            1 S1                 0.0000
     23 ****         3.3853  -0.9352  -2.5884 O.2            1 S1                 0.0000
     24 ****        -1.7830   1.6090   0.3218 C.ar           1 S1                 0.0000
     25 ****        -3.1833   1.7618   0.4049 C.ar           1 S1                 0.0000
     26 ****        -3.8473   3.4346   0.3284 S.o2           1 S1                 0.0000
     27 ****        -2.7392   4.3956   0.2101 O.2            1 S1                 0.0000
     28 ****        -4.9369   3.4491  -0.6601 O.2            1 S1                 0.0000
     29 ****        -4.5357   3.6366   1.9044 N.pl3          1 S1                 0.0000
     30 ****        -5.8520   4.2789   2.0469 C.3            1 S1                 0.0000
     31 ****        -6.4606   3.9821   3.4274 C.3            1 S1                 0.0000
     32 ****        -5.5388   4.3121   4.4557 O.3            1 S1                 0.0000
     33 ****        -4.3614   3.5231   4.3724 C.3            1 S1                 0.0000
     34 ****        -3.6304   3.8049   3.0506 C.3            1 S1                 0.0000
     35 ****        -5.9770  -0.2629   0.8053 H              1 S1                 0.0000
     36 ****        -5.9529   1.1436  -0.2439 H              1 S1                 0.0000
     37 ****        -5.8269   1.3339   1.5145 H              1 S1                 0.0000
     38 ****        -4.0310  -1.5324   0.7707 H              1 S1                 0.0000
     39 ****        -1.6062  -1.7946   0.6413 H              1 S1                 0.0000
     40 ****         0.7094   1.1216   0.5412 H              1 S1                 0.0000
     41 ****         2.7446   0.3773  -0.5974 H              1 S1                 0.0000
     42 ****         2.7553  -0.1907   1.0241 H              1 S1                 0.0000
     43 ****         5.4709  -4.6767  -1.4758 H              1 S1                 0.0000
     44 ****         4.0575  -2.7188  -4.1817 H              1 S1                 0.0000
     45 ****         6.1951  -1.9086  -4.8849 H              1 S1                 0.0000
     46 ****         6.2727  -1.3569  -3.1992 H              1 S1                 0.0000
     47 ****         8.2037  -3.0441  -4.1127 H              1 S1                 0.0000
     48 ****         7.4652  -3.3753  -2.5414 H              1 S1                 0.0000
     49 ****         6.7159  -4.5982  -5.2257 H              1 S1                 0.0000
     50 ****         6.9948  -5.4448  -3.7010 H              1 S1                 0.0000
     51 ****        -1.1491   2.4757   0.2079 H              1 S1                 0.0000
     52 ****        -5.7332   5.3540   1.9094 H              1 S1                 0.0000
     53 ****        -6.5284   3.9271   1.2682 H              1 S1                 0.0000
     54 ****        -7.3701   4.5665   3.5671 H              1 S1                 0.0000
     55 ****        -6.7463   2.9317   3.5049 H              1 S1                 0.0000
     56 ****        -3.7140   3.7643   5.2155 H              1 S1                 0.0000
     57 ****        -4.6108   2.4642   4.4585 H              1 S1                 0.0000
     58 ****        -2.7747   3.1375   2.9463 H              1 S1                 0.0000
     59 ****        -3.2441   4.8247   3.0450 H              1 S1                 0.0000
     60 ****        -0.4143  -1.9893  -0.5688 LP             1 S1                 0.0000
     61 ****         1.2094  -2.5565  -0.7731 LP             1 S1                 0.0000
     62 ****         2.7760  -1.7097   2.0260 LP             1 S1                 0.0000
     63 ****         3.5957  -3.1802   2.4333 LP             1 S1                 0.0000
     64 ****         4.6670  -4.6830  -4.6409 LP             1 S1                 0.0000
     65 ****         4.9700  -4.9348  -3.0561 LP             1 S1                 0.0000
     66 ****         2.8378  -0.1471  -2.3071 LP             1 S1                 0.0000
     67 ****         3.6620  -1.0363  -3.5440 LP             1 S1                 0.0000
     68 ****        -5.9724   4.1559   5.3432 LP             1 S1                 0.0000
     69 ****        -5.2899   5.2770   4.3716 LP             1 S1                 0.0000
@<TRIPOS>BOND
    1    1    2 1     
    2    1   35 1     
    3    1   36 1     
    4    1   37 1     
    5    2   25 ar    
    6    2    3 ar    
    7    3    4 ar    
    8    3   38 1     
    9    4    5 ar    
   10    4   39 1     
   11    5    6 1     
   12    5   24 ar    
   13    6    7 am    
   14    6   40 1     
   15    7    8 2     
   16    7    9 1     
   17    9   10 1     
   18    9   41 1     
   19    9   42 1     
   20   10   22 am    
   21   10   11 am    
   22   11   12 2     
   23   11   13 1     
   24   13   14 1     
   25   13   15 2     
   26   15   16 1     
   27   15   43 1     
   28   16   17 1     
   29   16   22 am    
   30   17   21 1     
   31   17   18 1     
   32   17   44 1     
   33   18   19 1     
   34   18   45 1     
   35   18   46 1     
   36   19   20 1     
   37   19   47 1     
   38   19   48 1     
   39   20   21 1     
   40   20   49 1     
   41   20   50 1     
   42   22   23 2     
   43   24   25 ar    
   44   24   51 1     
   45   25   26 1     
   46   26   27 2     
   47   26   28 2     
   48   26   29 1     
   49   29   34 1     
   50   29   30 1     
   51   30   31 1     
   52   30   52 1     
   53   30   53 1     
   54   31   32 1     
   55   31   54 1     
   56   31   55 1     
   57   32   33 1     
   58   33   34 1     
   59   33   56 1     
   60   33   57 1     
   61   34   58 1     
   62   34   59 1     
   63    8   60 1     
   64    8   61 1     
   65   12   62 1     
   66   12   63 1     
   67   21   64 1     
   68   21   65 1     
   69   23   66 1     
   70   23   67 1     
   71   32   68 1     
   72   32   69 1     
@<TRIPOS>SUBSTRUCTURE
      1 S1             1
@<TRIPOS>SET
LONE_PAIRS      STATIC     ATOMS    <user>   **** ""
12 60 61 62 63 64 65 66 67 27 28 68 69
DONOR_HYDROGENS      STATIC     ATOMS    <user>   **** ""
1 40
ATOM$BLUE        STATIC     ATOMS    COLORGROUP SYSTEM
12 60 61 62 63 64 65 66 67 27 28 68 69
ATOM$RED        STATIC     ATOMS    COLORGROUP SYSTEM
1 40
