#       Name:                AV-unprocessed.smi:2856
#       Creating user name   scv26
#       Creation time:       Fri Mar 27 15:45:02 2020


#       File generated by GOLD software.
#

@<TRIPOS>MOLECULE
AV-unprocessed.smi:2856
    42    43     1
SMALL
NO_CHARGES


@<TRIPOS>ATOM
      1 ****        -2.8438   0.6662   3.0336 C.3            1 S1                 0.0000
      2 ****        -1.8281  -0.8063   2.7403 S.3            1 S1                 0.0000
      3 ****        -2.3736  -1.2810   1.0681 C.3            1 S1                 0.0000
      4 ****        -1.9419  -2.7256   0.7484 C.3            1 S1                 0.0000
      5 ****        -2.4196  -3.1618  -0.6457 C.3            1 S1                 0.0000
      6 ****        -1.9299  -2.1925  -1.7319 C.3            1 S1                 0.0000
      7 ****        -2.3564  -0.7474  -1.4216 C.3            1 S1                 0.0000
      8 ****        -1.8939  -0.2896  -0.0212 C.3            1 S1                 0.0000
      9 ****        -0.4397  -0.1296   0.0195 N.am           1 S1                 0.0000
     10 ****         0.2338   0.9599  -0.3751 C.2            1 S1                 0.0000
     11 ****        -0.3076   1.9638  -0.8390 O.2            1 S1                 0.0000
     12 ****         1.5566   0.8047  -0.1972 N.am           1 S1                 0.0000
     13 ****         2.5835   1.7369  -0.4925 C.2            1 S1                 0.0000
     14 ****         3.9468   1.4203  -0.2506 C.2            1 S1                 0.0000
     15 ****         4.6017   2.5494  -0.6560 C.2            1 S1                 0.0000
     16 ****         6.0421   2.9301  -0.6892 C.3            1 S1                 0.0000
     17 ****         3.7132   3.4768  -1.1058 O.3            1 S1                 0.0000
     18 ****         2.4208   2.9495  -0.9994 N.2            1 S1                 0.0000
     19 ****        -2.6870   1.0299   4.0489 H              1 S1                 0.0000
     20 ****        -3.9012   0.4324   2.9109 H              1 S1                 0.0000
     21 ****        -2.5780   1.4653   2.3422 H              1 S1                 0.0000
     22 ****        -3.4643  -1.2644   1.0843 H              1 S1                 0.0000
     23 ****        -0.8560  -2.8122   0.8054 H              1 S1                 0.0000
     24 ****        -2.3425  -3.4072   1.4995 H              1 S1                 0.0000
     25 ****        -2.0663  -4.1706  -0.8609 H              1 S1                 0.0000
     26 ****        -3.5093  -3.2061  -0.6607 H              1 S1                 0.0000
     27 ****        -0.8434  -2.2484  -1.8106 H              1 S1                 0.0000
     28 ****        -2.3238  -2.4942  -2.7029 H              1 S1                 0.0000
     29 ****        -1.9754  -0.0730  -2.1894 H              1 S1                 0.0000
     30 ****        -3.4436  -0.6797  -1.4762 H              1 S1                 0.0000
     31 ****        -2.3511   0.6804   0.1769 H              1 S1                 0.0000
     32 ****         0.0880  -0.9057   0.3910 H              1 S1                 0.0000
     33 ****         1.8617  -0.0743   0.1936 H              1 S1                 0.0000
     34 ****         4.3767   0.5160   0.1540 H              1 S1                 0.0000
     35 ****         6.6791   2.0552  -0.5585 H              1 S1                 0.0000
     36 ****         6.2718   3.6381   0.1071 H              1 S1                 0.0000
     37 ****         6.2990   3.3955  -1.6409 H              1 S1                 0.0000
     38 ****        -1.3022   1.9950  -0.9378 LP             1 S1                 0.0000
     39 ****         0.2474   2.7479  -1.1169 LP             1 S1                 0.0000
     40 ****         3.9098   3.6952  -2.0616 LP             1 S1                 0.0000
     41 ****         3.7845   4.3069  -0.5527 LP             1 S1                 0.0000
     42 ****         1.5606   3.3927  -1.2516 LP             1 S1                 0.0000
@<TRIPOS>BOND
    1    1    2 1     
    2    1   19 1     
    3    1   20 1     
    4    1   21 1     
    5    2    3 1     
    6    3    8 1     
    7    3    4 1     
    8    3   22 1     
    9    4    5 1     
   10    4   23 1     
   11    4   24 1     
   12    5    6 1     
   13    5   25 1     
   14    5   26 1     
   15    6    7 1     
   16    6   27 1     
   17    6   28 1     
   18    7    8 1     
   19    7   29 1     
   20    7   30 1     
   21    8    9 1     
   22    8   31 1     
   23    9   10 am    
   24    9   32 1     
   25   10   11 2     
   26   10   12 am    
   27   12   13 1     
   28   12   33 1     
   29   13   18 2     
   30   13   14 1     
   31   14   15 2     
   32   14   34 1     
   33   15   16 1     
   34   15   17 1     
   35   16   35 1     
   36   16   36 1     
   37   16   37 1     
   38   17   18 1     
   39   11   38 1     
   40   11   39 1     
   41   17   40 1     
   42   17   41 1     
   43   18   42 1     
@<TRIPOS>SUBSTRUCTURE
      1 S1             1
@<TRIPOS>SET
LONE_PAIRS      STATIC     ATOMS    <user>   **** ""
5 38 39 40 41 42
DONOR_HYDROGENS      STATIC     ATOMS    <user>   **** ""
2 32 33
ATOM$BLUE        STATIC     ATOMS    COLORGROUP SYSTEM
5 38 39 40 41 42
ATOM$RED        STATIC     ATOMS    COLORGROUP SYSTEM
2 32 33
