AV-unprocessed.smi:2874|AV-procd|sdf|11038|dock2
  -GOLD-   2272015503D 1   1.00000     0.00000
 Structure written by MMmdl.
 39 41  0  0  0  0  0  0  0  0  1 V2000
  151.6444  145.3654  160.1585 C   0  0  0  0  0  0  0  0  0  0  0  0
  151.3164  145.5915  158.7993 O   0  0  0  0  0  0  0  0  0  0  0  0
  151.8263  144.5832  157.9415 C   0  0  0  0  0  0  0  0  0  0  0  0
  150.9987  143.3005  158.1035 C   0  0  0  0  0  0  0  0  0  0  0  0
  151.8353  142.1400  158.3736 N   0  0  0  0  0  0  0  0  0  0  0  0
  152.0722  141.0775  157.5645 C   0  0  0  0  0  0  0  0  0  0  0  0
  151.3469  140.9628  155.9561 S   0  0  0  0  0  0  0  0  0  0  0  0
  149.6754  140.4126  156.4128 C   0  0  0  0  0  0  0  0  0  0  0  0
  148.7509  140.5340  155.2180 C   0  0  0  0  0  0  0  0  0  0  0  0
  148.0626  141.6753  155.1053 N   0  0  0  0  0  0  0  0  0  0  0  0
  147.2383  141.7881  154.0416 C   0  0  0  0  0  0  0  0  0  0  0  0
  147.1033  140.7531  153.0943 C   0  0  0  0  0  0  0  0  0  0  0  0
  147.8767  139.5966  153.3203 C   0  0  0  0  0  0  0  0  0  0  0  0
  147.8122  138.5142  152.4469 N   0  0  0  0  0  0  0  0  0  0  0  0
  148.7018  139.4898  154.3835 N   0  0  0  0  0  0  0  0  0  0  0  0
  152.8899  140.1489  158.0643 N   0  0  0  0  0  0  0  0  0  0  0  0
  153.2111  140.6555  159.3077 C   0  0  0  0  0  0  0  0  0  0  0  0
  154.0436  140.1355  160.3240 C   0  0  0  0  0  0  0  0  0  0  0  0
  154.2253  140.8441  161.5299 C   0  0  0  0  0  0  0  0  0  0  0  0
  155.2453  140.1955  162.7608 Cl  0  0  0  0  0  0  0  0  0  0  0  0
  153.5784  142.0803  161.7350 C   0  0  0  0  0  0  0  0  0  0  0  0
  152.7443  142.6156  160.7347 C   0  0  0  0  0  0  0  0  0  0  0  0
  152.5662  141.9034  159.5336 C   0  0  0  0  0  0  0  0  0  0  0  0
  151.2426  146.1726  160.7708 H   0  0  0  0  0  0  0  0  0  0  0  0
  152.7248  145.3375  160.3049 H   0  0  0  0  0  0  0  0  0  0  0  0
  151.2175  144.4273  160.5150 H   0  0  0  0  0  0  0  0  0  0  0  0
  151.7835  144.9204  156.9050 H   0  0  0  0  0  0  0  0  0  0  0  0
  152.8733  144.3857  158.1770 H   0  0  0  0  0  0  0  0  0  0  0  0
  150.2883  143.4165  158.9226 H   0  0  0  0  0  0  0  0  0  0  0  0
  150.4021  143.1157  157.2102 H   0  0  0  0  0  0  0  0  0  0  0  0
  149.7080  139.3808  156.7661 H   0  0  0  0  0  0  0  0  0  0  0  0
  149.2956  141.0278  157.2296 H   0  0  0  0  0  0  0  0  0  0  0  0
  146.6813  142.7082  153.9469 H   0  0  0  0  0  0  0  0  0  0  0  0
  146.4415  140.8458  152.2459 H   0  0  0  0  0  0  0  0  0  0  0  0
  147.2146  138.5264  151.6332 H   0  0  0  0  0  0  0  0  0  0  0  0
  148.3537  137.6771  152.6074 H   0  0  0  0  0  0  0  0  0  0  0  0
  154.5441  139.1903  160.1743 H   0  0  0  0  0  0  0  0  0  0  0  0
  153.7227  142.6192  162.6599 H   0  0  0  0  0  0  0  0  0  0  0  0
  152.2497  143.5633  160.8876 H   0  0  0  0  0  0  0  0  0  0  0  0
  1  2  1  0  0  0  0
  1 24  1  0  0  0  0
  1 25  1  0  0  0  0
  1 26  1  0  0  0  0
  2  3  1  0  0  0  0
  3  4  1  0  0  0  0
  3 27  1  0  0  0  0
  3 28  1  0  0  0  0
  4  5  1  0  0  0  0
  4 29  1  0  0  0  0
  4 30  1  0  0  0  0
  5 23  1  0  0  0  0
  5  6  1  0  0  0  0
  6  7  1  0  0  0  0
  6 16  2  0  0  0  0
  7  8  1  0  0  0  0
  8  9  1  0  0  0  0
  8 31  1  0  0  0  0
  8 32  1  0  0  0  0
  9 15  1  0  0  0  0
  9 10  2  0  0  0  0
 10 11  1  0  0  0  0
 11 12  2  0  0  0  0
 11 33  1  0  0  0  0
 12 13  1  0  0  0  0
 12 34  1  0  0  0  0
 13 14  1  0  0  0  0
 13 15  2  0  0  0  0
 14 35  1  0  0  0  0
 14 36  1  0  0  0  0
 16 17  1  0  0  0  0
 17 23  2  0  0  0  0
 17 18  1  0  0  0  0
 18 19  2  0  0  0  0
 18 37  1  0  0  0  0
 19 20  1  0  0  0  0
 19 21  1  0  0  0  0
 21 22  2  0  0  0  0
 21 38  1  0  0  0  0
 22 23  1  0  0  0  0
 22 39  1  0  0  0  0
M  END
> <s_m_source_file>
AV-unprocessed.smi

> <i_m_source_file_index>
2874

> <i_lp_mmshare_version>
43012

> <i_f3d_flags>
0

> <s_epik_input>
W2NIXTFjKENsKVtjSF1bY0hdYyhjMTIpbihbQ0gyXVtDSDJdT1tDSDNdKWMobjIpU1tDSDJdYzNuW2NIXVtjSF1jKG4zKVtOSDJd

> <s_epik_cmdline>
J2VwaWtfcHl0aG9uJywgJy1waCcsICc3LjAnLCAnLXRuJywgJzgnLCAnLW1hJywgJzIwMCcsICctbWV0YWxfYmluZGluZycsICctaW1hZScsICc8aW5maWxlLm1hZT4nLCAnLW9tYWUnLCAnPG91dGZpbGUubWFlPic=

> <r_lp_tautomer_probability>
1

> <r_epik_Ionization_Penalty>
0.0126717

> <r_epik_Ionization_Penalty_Charging>
0

> <r_epik_Ionization_Penalty_Neutral>
0.0126717

> <r_epik_State_Penalty>
0.00687269

> <r_epik_Charging_Adjusted_Penalty>
0.00687269

> <i_epik_Tot_Q>
0

> <i_epik_Tot_abs_Q>
0

> <r_epik_Metal_State_Penalty>
0.00678378

> <b_epik_Metal_Only>
0

> <s_lp_Force_Field>
OPLS_2005

> <r_lp_Energy>
1.60018

> <b_lp_Chiralities_Consistent>
1

> <s_lp_Variant>
AV-unprocessed.smi:2874-1

> <Gold.Version>
5.8.1

> <Gold.Id.Protein>
6NUR|6NUR_protein|mol2

> <Gold.PLP.Fitness>
54.6273

> <Gold.PLP.PLP>
-50.9975

> <Gold.PLP.part.hbond>
-4.0000

> <Gold.PLP.part.metal>
0.0000

> <Gold.PLP.part.buried>
-4.6974

> <Gold.PLP.part.nonpolar>
-41.3840

> <Gold.PLP.part.repulsive>
1.0141

> <Gold.PLP.ligand.clash>
0.0000

> <Gold.PLP.ligand.torsion>
1.1443

> <Gold.PLP.Chemscore.Hbond>
1.9440

> <Gold.PLP.Chemscore.CHOScore>
0.0000

> <Gold.PLP.Chemscore.Metal>
0.0000

> <Gold.Chemscore.Hbonds>
donor molecule, donor type, donor heavy atom, donor atom, acceptor molecule, acceptor atom, score
      L1  H    14    36       P1  7948  0.86
      P1  H  7997  8008       L1    16  1.00

> <Gold.PLP.Chemscore.Internal.Correction>
0.0864

> <Gold.Rescore>
     Score         DG    S(hbond)    S(metal)    S(lipo)     H(rot)  DE(clash)    DE(int)     intcor
     16.53     -18.37       1.48        0.00     121.43       2.44       0.75       1.09       ----

> <Gold.Chemscore.Fitness>
16.5282

> <Gold.Chemscore.DG>
-18.3681

> <Gold.Chemscore.ZeroCoef>
-5.4800

> <Gold.Chemscore.Hbond>
1.4773

> <Gold.Chemscore.Metal>
0.0000

> <Gold.Chemscore.Lipo>
121.4284

> <Gold.Chemscore.Internal_Hbond>
0.0000

> <Gold.Chemscore.DEClash>
0.7529

> <Gold.Chemscore.DEInternal>
1.0870

> <Gold.Chemscore.Rot>
2.4426

> <Gold.Chemscore.Internal.Correction>
   9.000000E+99

> <Gold.Chemscore.Hbonds>
donor molecule, donor type, donor heavy atom, donor atom, acceptor molecule, acceptor atom, score
      L1  H    14    36       P1  7948  0.85
      P1  H  7997  8008       L1    16  0.44

> <Gold.Chemscore.Hbond.Weighted>
-4.9341

> <Gold.Chemscore.Metal.Weighted>
-0.0000

> <Gold.Chemscore.Lipo.Weighted>
-14.2071

> <Gold.Chemscore.Internal_Hbond.Weighted>
0.0000

> <Gold.Chemscore.DEClash.Weighted>
0.7529

> <Gold.Chemscore.DEInternal.Weighted>
1.0870

> <Gold.Chemscore.Rot.Weighted>
6.2531

> <Gold.Chemscore.Internal.Correction.Weighted>
   9.000000E+99

> <Gold.Protein.RotatedTorsions>
[ 6907 6896 6895 6894 ] final   39.47 input  -60.11 | X-H torsion
[ 7974 7965 7964 7962 ] final  -29.44 input  175.53 | X-H torsion
[ 8008 7997 7996 7995 ] final  -75.54 input   59.86 | X-H torsion
[ 10167 10162 10161 10158 ] final  -90.34 input  -65.29 | X-H torsion
[ 10718 10713 10712 10709 ] final   42.21 input   66.30 | X-H torsion
[ 10763 10752 10751 10750 ] final  -86.98 input  -60.55 | X-H torsion
[ 11005 11000 10999 10996 ] final   99.66 input  -57.11 | X-H torsion

> <Gold.Protein.ActiveResidues>
 VAL166  LYS551  ARG553  GLY616  TRP617  ASP618  TYR619  PRO620  LYS621  CYS622 
 ASP623  PHE694  ASN695  SER759  ASP760  ASP761  ALA762  ILE779  LEU786  VAL792 
 PHE793  MET794  SER795  GLU796  ALA797  LYS798  CYS799  TRP800  GLU811  SER814 

> <Gold.Protein.RotatedAtoms>
  152.1700  134.8842  160.0534 H   0  0  0  0  0  0  0  0  0  0  0  0  # atno 6907 bound_to 6896
  151.9805  133.3751  159.4114 H   0  0  0  0  0  0  0  0  0  0  0  0  # atno 6908 bound_to 6896
  150.6900  134.3966  159.5144 H   0  0  0  0  0  0  0  0  0  0  0  0  # atno 6909 bound_to 6896
  146.1216  140.5413  142.8733 H   0  0  0  0  0  0  0  0  0  0  0  0  # atno 7974 bound_to 7965
  154.5425  140.0742  156.8534 H   0  0  0  0  0  0  0  0  0  0  0  0  # atno 8008 bound_to 7997
  155.3152  140.3392  155.4224 H   0  0  0  0  0  0  0  0  0  0  0  0  # atno 8009 bound_to 7997
  156.1888  140.1678  156.8119 H   0  0  0  0  0  0  0  0  0  0  0  0  # atno 8010 bound_to 7997
  140.3558  143.2867  151.9672 H   0  0  0  0  0  0  0  0  0  0  0  0  # atno 10167 bound_to 10162
  157.4023  130.7867  149.7359 H   0  0  0  0  0  0  0  0  0  0  0  0  # atno 10718 bound_to 10713
  154.6285  135.5430  153.7654 H   0  0  0  0  0  0  0  0  0  0  0  0  # atno 10763 bound_to 10752
  153.0273  135.6430  154.1336 H   0  0  0  0  0  0  0  0  0  0  0  0  # atno 10764 bound_to 10752
  154.1267  135.2917  155.3175 H   0  0  0  0  0  0  0  0  0  0  0  0  # atno 10765 bound_to 10752
  139.8770  134.9106  156.4640 H   0  0  0  0  0  0  0  0  0  0  0  0  # atno 11005 bound_to 11000
  144.7602  140.5404  143.6740 LP  0  0  0  0  0  0  0  0  0  0  0  0  # atno 17320 bound_to 7965
  145.5454  139.1476  143.3424 LP  0  0  0  0  0  0  0  0  0  0  0  0  # atno 17321 bound_to 7965
  139.4820  144.6036  151.7561 LP  0  0  0  0  0  0  0  0  0  0  0  0  # atno 17342 bound_to 10162
  140.5175  144.0931  150.6012 LP  0  0  0  0  0  0  0  0  0  0  0  0  # atno 17343 bound_to 10162
  155.9826  130.4008  150.3405 LP  0  0  0  0  0  0  0  0  0  0  0  0  # atno 17370 bound_to 10713
  157.1534  131.0326  151.2874 LP  0  0  0  0  0  0  0  0  0  0  0  0  # atno 17371 bound_to 10713
  140.8844  133.7894  155.9502 LP  0  0  0  0  0  0  0  0  0  0  0  0  # atno 17394 bound_to 11000
  140.8820  134.2599  157.5139 LP  0  0  0  0  0  0  0  0  0  0  0  0  # atno 17395 bound_to 11000

$$$$
