AV-unprocessed.smi:372|AV-procd|sdf|2448|dock4
  -GOLD-   2262022383D 1   1.00000     0.00000
 Structure written by MMmdl.
 22 23  0  0  0  0  0  0  0  0  2 V2000
  150.5246  139.9199  158.7557 C   0  0  0  0  0  0  0  0  0  0  0  0
  151.2463  140.6725  157.6187 C   0  0  2  0  0  0  0  0  0  0  0  0
  151.6441  142.0947  158.0695 C   0  0  0  0  0  0  0  0  0  0  0  0
  152.5752  142.3231  159.1149 C   0  0  0  0  0  0  0  0  0  0  0  0
  152.9025  143.6473  159.4630 C   0  0  0  0  0  0  0  0  0  0  0  0
  152.2993  144.7053  158.7592 C   0  0  0  0  0  0  0  0  0  0  0  0
  151.3922  144.3876  157.7315 C   0  0  0  0  0  0  0  0  0  0  0  0
  151.0730  143.1217  157.3907 N   0  0  0  0  0  0  0  0  0  0  0  0
  150.3988  140.6504  156.4302 N   0  5  0  0  0  0  0  0  0  0  0  0
  151.0547  140.0259  155.4252 C   0  0  0  0  0  0  0  0  0  0  0  0
  150.6664  139.8401  154.2743 O   0  0  0  0  0  0  0  0  0  0  0  0
  152.2478  139.5941  155.8402 N   0  0  0  0  0  0  0  0  0  0  0  0
  152.4599  139.8873  157.1191 C   0  0  0  0  0  0  0  0  0  0  0  0
  153.4405  139.5688  157.7921 O   0  0  0  0  0  0  0  0  0  0  0  0
  151.1486  139.8445  159.6468 H   0  0  0  0  0  0  0  0  0  0  0  0
  150.2544  138.9044  158.4622 H   0  0  0  0  0  0  0  0  0  0  0  0
  149.6063  140.4332  159.0430 H   0  0  0  0  0  0  0  0  0  0  0  0
  153.0412  141.5091  159.6494 H   0  0  0  0  0  0  0  0  0  0  0  0
  153.6069  143.8472  160.2568 H   0  0  0  0  0  0  0  0  0  0  0  0
  152.5274  145.7329  158.9993 H   0  0  0  0  0  0  0  0  0  0  0  0
  150.9098  145.1715  157.1666 H   0  0  0  0  0  0  0  0  0  0  0  0
  152.8970  139.0842  155.2601 H   0  0  0  0  0  0  0  0  0  0  0  0
  1  2  1  0  0  0  0
  1 15  1  0  0  0  0
  1 16  1  0  0  0  0
  1 17  1  0  0  0  0
  2 13  1  0  0  0  0
  2  3  1  0  0  0  0
  2  9  1  0  0  0  0
  3  8  1  0  0  0  0
  3  4  2  0  0  0  0
  4  5  1  0  0  0  0
  4 18  1  0  0  0  0
  5  6  2  0  0  0  0
  5 19  1  0  0  0  0
  6  7  1  0  0  0  0
  6 20  1  0  0  0  0
  7  8  2  0  0  0  0
  7 21  1  0  0  0  0
  9 10  1  0  0  0  0
 10 11  2  0  0  0  0
 10 12  1  0  0  0  0
 12 13  1  0  0  0  0
 12 22  1  0  0  0  0
 13 14  2  0  0  0  0
M  CHG  1   9  -1
M  END
> <s_m_source_file>
AV-unprocessed.smi

> <i_m_source_file_index>
372

> <i_lp_mmshare_version>
43012

> <i_f3d_flags>
0

> <s_epik_input>
Tz1DMVtOSF1DKD1PKVtOSF1bQ0BAXTEoW0NIM10pYzJbY0hdW2NIXVtjSF1bY0hdbjI=

> <s_epik_cmdline>
J2VwaWtfcHl0aG9uJywgJy1waCcsICc3LjAnLCAnLXRuJywgJzgnLCAnLW1hJywgJzIwMCcsICctbWV0YWxfYmluZGluZycsICctaW1hZScsICc8aW5maWxlLm1hZT4nLCAnLW9tYWUnLCAnPG91dGZpbGUubWFlPic=

> <r_lp_tautomer_probability>
1

> <r_epik_Ionization_Penalty>
4.88994

> <r_epik_Ionization_Penalty_Charging>
4.8337

> <r_epik_Ionization_Penalty_Neutral>
0.0562367

> <r_epik_State_Penalty>
4.86848

> <r_epik_Charging_Adjusted_Penalty>
9.70218

> <i_epik_Tot_Q>
-1

> <i_epik_Tot_abs_Q>
1

> <r_epik_Metal_State_Penalty>
1.42536

> <b_epik_Metal_Only>
1

> <s_lp_Force_Field>
OPLS_2005

> <r_lp_Energy>
15.0122

> <b_lp_Chiralities_Consistent>
1

> <s_lp_Variant>
AV-unprocessed.smi:372-6

> <Gold.Version>
5.8.1

> <Gold.Id.Protein>
6NUR|6NUR_protein|mol2

> <Gold.PLP.Fitness>
34.1169

> <Gold.PLP.PLP>
-25.6237

> <Gold.PLP.part.hbond>
-1.9153

> <Gold.PLP.part.metal>
0.0000

> <Gold.PLP.part.buried>
-0.2593

> <Gold.PLP.part.nonpolar>
-23.7627

> <Gold.PLP.part.repulsive>
0.4812

> <Gold.PLP.ligand.clash>
0.0000

> <Gold.PLP.ligand.torsion>
0.0502

> <Gold.PLP.Chemscore.Hbond>
2.0000

> <Gold.PLP.Chemscore.CHOScore>
0.8466

> <Gold.PLP.Chemscore.Metal>
0.0000

> <Gold.Chemscore.Hbonds>
donor molecule, donor type, donor heavy atom, donor atom, acceptor molecule, acceptor atom, score
      P1  H  7989  7998       L1    11  1.00
      P1  H  7997  8010       L1    14  0.99
      L1  C     7    21       P1  8028  0.87

> <Gold.PLP.Chemscore.Internal.Correction>
0.0536

> <Gold.Rescore>
     Score         DG    S(hbond)    S(metal)    S(lipo)     H(rot)  DE(clash)    DE(int)     intcor
     15.08     -15.47       1.33        0.00      69.42       1.00       0.37       0.03       ----

> <Gold.Chemscore.Fitness>
15.0784

> <Gold.Chemscore.DG>
-15.4728

> <Gold.Chemscore.ZeroCoef>
-5.4800

> <Gold.Chemscore.Hbond>
1.3264

> <Gold.Chemscore.Metal>
0.0000

> <Gold.Chemscore.Lipo>
69.4237

> <Gold.Chemscore.Internal_Hbond>
0.0000

> <Gold.Chemscore.DEClash>
0.3651

> <Gold.Chemscore.DEInternal>
0.0293

> <Gold.Chemscore.Rot>
1.0000

> <Gold.Chemscore.Internal.Correction>
   9.000000E+99

> <Gold.Chemscore.Hbonds>
donor molecule, donor type, donor heavy atom, donor atom, acceptor molecule, acceptor atom, score
      P1  H  7989  7998       L1    11  0.25
      P1  H  7997  8010       L1    14  0.75

> <Gold.Chemscore.Hbond.Weighted>
-4.4303

> <Gold.Chemscore.Metal.Weighted>
-0.0000

> <Gold.Chemscore.Lipo.Weighted>
-8.1226

> <Gold.Chemscore.Internal_Hbond.Weighted>
0.0000

> <Gold.Chemscore.DEClash.Weighted>
0.3651

> <Gold.Chemscore.DEInternal.Weighted>
0.0293

> <Gold.Chemscore.Rot.Weighted>
2.5600

> <Gold.Chemscore.Internal.Correction.Weighted>
   9.000000E+99

> <Gold.Protein.RotatedTorsions>
[ 6907 6896 6895 6894 ] final -178.21 input  -60.11 | X-H torsion
[ 7974 7965 7964 7962 ] final -115.94 input  175.53 | X-H torsion
[ 8008 7997 7996 7995 ] final   20.66 input   59.86 | X-H torsion
[ 10167 10162 10161 10158 ] final   64.99 input  -65.29 | X-H torsion
[ 10718 10713 10712 10709 ] final  171.63 input   66.30 | X-H torsion
[ 10763 10752 10751 10750 ] final  -45.96 input  -60.55 | X-H torsion
[ 11005 11000 10999 10996 ] final   25.48 input  -57.11 | X-H torsion

> <Gold.Protein.ActiveResidues>
 VAL166  LYS551  ARG553  GLY616  TRP617  ASP618  TYR619  PRO620  LYS621  CYS622 
 ASP623  PHE694  ASN695  SER759  ASP760  ASP761  ALA762  ILE779  LEU786  VAL792 
 PHE793  MET794  SER795  GLU796  ALA797  LYS798  CYS799  TRP800  GLU811  SER814 

> <Gold.Protein.RotatedAtoms>
  151.6335  133.3330  159.3113 H   0  0  0  0  0  0  0  0  0  0  0  0  # atno 6907 bound_to 6896
  150.8044  134.7163  159.6642 H   0  0  0  0  0  0  0  0  0  0  0  0  # atno 6908 bound_to 6896
  152.4139  134.6081  160.0069 H   0  0  0  0  0  0  0  0  0  0  0  0  # atno 6909 bound_to 6896
  145.1025  140.8561  143.3917 H   0  0  0  0  0  0  0  0  0  0  0  0  # atno 7974 bound_to 7965
  154.9389  140.3050  155.5131 H   0  0  0  0  0  0  0  0  0  0  0  0  # atno 8008 bound_to 7997
  156.2997  140.2340  156.4393 H   0  0  0  0  0  0  0  0  0  0  0  0  # atno 8009 bound_to 7997
  154.8165  140.0425  157.1369 H   0  0  0  0  0  0  0  0  0  0  0  0  # atno 8010 bound_to 7997
  140.1162  144.4773  150.6948 H   0  0  0  0  0  0  0  0  0  0  0  0  # atno 10167 bound_to 10162
  156.9908  131.0147  151.2857 H   0  0  0  0  0  0  0  0  0  0  0  0  # atno 10718 bound_to 10713
  154.0371  135.6649  153.4786 H   0  0  0  0  0  0  0  0  0  0  0  0  # atno 10763 bound_to 10752
  153.0517  135.5081  154.7878 H   0  0  0  0  0  0  0  0  0  0  0  0  # atno 10764 bound_to 10752
  154.6842  135.3050  154.9536 H   0  0  0  0  0  0  0  0  0  0  0  0  # atno 10765 bound_to 10752
  140.3473  134.2267  155.7683 H   0  0  0  0  0  0  0  0  0  0  0  0  # atno 11005 bound_to 11000
  145.0939  139.2870  143.5721 LP  0  0  0  0  0  0  0  0  0  0  0  0  # atno 17320 bound_to 7965
  146.3529  140.0485  142.8637 LP  0  0  0  0  0  0  0  0  0  0  0  0  # atno 17321 bound_to 7965
  140.6898  143.2369  151.5162 LP  0  0  0  0  0  0  0  0  0  0  0  0  # atno 17342 bound_to 10162
  139.5593  144.2197  152.1664 LP  0  0  0  0  0  0  0  0  0  0  0  0  # atno 17343 bound_to 10162
  157.5460  130.8151  149.8086 LP  0  0  0  0  0  0  0  0  0  0  0  0  # atno 17370 bound_to 10713
  156.0208  130.3796  150.1969 LP  0  0  0  0  0  0  0  0  0  0  0  0  # atno 17371 bound_to 10713
  141.2022  133.7944  157.0403 LP  0  0  0  0  0  0  0  0  0  0  0  0  # atno 17394 bound_to 11000
  140.0731  134.9691  157.1501 LP  0  0  0  0  0  0  0  0  0  0  0  0  # atno 17395 bound_to 11000

$$$$
