AV-unprocessed.smi:858|AV-procd|sdf|3962|dock1
  -GOLD-   22720 1433D 1   1.00000     0.00000
 Structure written by MMmdl.
 44 45  0  0  0  0  0  0  0  0  1 V2000
  150.4467  131.3818  155.9356 C   0  0  0  0  0  0  0  0  0  0  0  0
  150.1102  132.7524  156.5304 C   0  0  0  0  0  0  0  0  0  0  0  0
  150.6267  133.0607  157.6051 O   0  0  0  0  0  0  0  0  0  0  0  0
  149.2629  133.5763  155.8662 N   0  0  0  0  0  0  0  0  0  0  0  0
  148.6661  133.1416  154.5999 C   0  0  0  0  0  0  0  0  0  0  0  0
  148.8846  134.9188  156.3377 C   0  0  0  0  0  0  0  0  0  0  0  0
  149.7724  136.0376  155.7750 C   0  0  0  0  0  0  0  0  0  0  0  0
  150.9821  136.0618  156.0058 O   0  0  0  0  0  0  0  0  0  0  0  0
  149.1449  136.9719  155.0445 N   0  0  0  0  0  0  0  0  0  0  0  0
  149.7832  138.1364  154.4422 C   0  0  0  0  0  0  0  0  0  0  0  0
  150.1879  139.1718  155.4751 C   0  0  0  0  0  0  0  0  0  0  0  0
  149.3910  140.3084  155.7121 C   0  0  0  0  0  0  0  0  0  0  0  0
  149.7983  141.2338  156.6918 C   0  0  0  0  0  0  0  0  0  0  0  0
  150.9928  140.9955  157.4126 C   0  0  0  0  0  0  0  0  0  0  0  0
  151.4156  141.9077  158.4029 N   0  0  0  0  0  0  0  0  0  0  0  0
  151.2556  143.3205  158.0686 C   0  0  0  0  0  0  0  0  0  0  0  0
  151.4541  144.1924  159.3207 C   0  0  0  0  0  0  0  0  0  0  0  0
  152.7142  143.9026  159.9170 O   0  0  0  0  0  0  0  0  0  0  0  0
  152.8025  142.5446  160.3355 C   0  0  0  0  0  0  0  0  0  0  0  0
  152.6573  141.6174  159.1170 C   0  0  0  0  0  0  0  0  0  0  0  0
  151.7527  139.8955  157.1844 N   0  0  0  0  0  0  0  0  0  0  0  0
  151.3600  139.0137  156.2411 C   0  0  0  0  0  0  0  0  0  0  0  0
  149.5635  130.7436  155.9089 H   0  0  0  0  0  0  0  0  0  0  0  0
  151.2010  130.8775  156.5409 H   0  0  0  0  0  0  0  0  0  0  0  0
  150.8447  131.4779  154.9255 H   0  0  0  0  0  0  0  0  0  0  0  0
  149.4181  133.1292  153.8097 H   0  0  0  0  0  0  0  0  0  0  0  0
  147.8565  133.7993  154.2812 H   0  0  0  0  0  0  0  0  0  0  0  0
  148.2433  132.1391  154.6864 H   0  0  0  0  0  0  0  0  0  0  0  0
  147.8391  135.1318  156.1119 H   0  0  0  0  0  0  0  0  0  0  0  0
  148.9474  134.9564  157.4260 H   0  0  0  0  0  0  0  0  0  0  0  0
  148.1491  136.8762  154.9065 H   0  0  0  0  0  0  0  0  0  0  0  0
  150.6539  137.8408  153.8540 H   0  0  0  0  0  0  0  0  0  0  0  0
  149.0814  138.5866  153.7396 H   0  0  0  0  0  0  0  0  0  0  0  0
  148.4783  140.4683  155.1570 H   0  0  0  0  0  0  0  0  0  0  0  0
  149.1857  142.1005  156.8906 H   0  0  0  0  0  0  0  0  0  0  0  0
  151.9918  143.5866  157.3090 H   0  0  0  0  0  0  0  0  0  0  0  0
  150.2739  143.5261  157.6440 H   0  0  0  0  0  0  0  0  0  0  0  0
  151.4247  145.2481  159.0508 H   0  0  0  0  0  0  0  0  0  0  0  0
  150.6518  144.0259  160.0413 H   0  0  0  0  0  0  0  0  0  0  0  0
  153.7668  142.3829  160.8174 H   0  0  0  0  0  0  0  0  0  0  0  0
  152.0342  142.3311  161.0805 H   0  0  0  0  0  0  0  0  0  0  0  0
  152.6673  140.5787  159.4493 H   0  0  0  0  0  0  0  0  0  0  0  0
  153.5034  141.7533  158.4419 H   0  0  0  0  0  0  0  0  0  0  0  0
  151.9982  138.1540  156.0990 H   0  0  0  0  0  0  0  0  0  0  0  0
  1  2  1  0  0  0  0
  1 23  1  0  0  0  0
  1 24  1  0  0  0  0
  1 25  1  0  0  0  0
  2  3  2  0  0  0  0
  2  4  1  0  0  0  0
  4  5  1  0  0  0  0
  4  6  1  0  0  0  0
  5 26  1  0  0  0  0
  5 27  1  0  0  0  0
  5 28  1  0  0  0  0
  6  7  1  0  0  0  0
  6 29  1  0  0  0  0
  6 30  1  0  0  0  0
  7  8  2  0  0  0  0
  7  9  1  0  0  0  0
  9 10  1  0  0  0  0
  9 31  1  0  0  0  0
 10 11  1  0  0  0  0
 10 32  1  0  0  0  0
 10 33  1  0  0  0  0
 11 22  1  0  0  0  0
 11 12  2  0  0  0  0
 12 13  1  0  0  0  0
 12 34  1  0  0  0  0
 13 14  2  0  0  0  0
 13 35  1  0  0  0  0
 14 15  1  0  0  0  0
 14 21  1  0  0  0  0
 15 20  1  0  0  0  0
 15 16  1  0  0  0  0
 16 17  1  0  0  0  0
 16 36  1  0  0  0  0
 16 37  1  0  0  0  0
 17 18  1  0  0  0  0
 17 38  1  0  0  0  0
 17 39  1  0  0  0  0
 18 19  1  0  0  0  0
 19 20  1  0  0  0  0
 19 40  1  0  0  0  0
 19 41  1  0  0  0  0
 20 42  1  0  0  0  0
 20 43  1  0  0  0  0
 21 22  2  0  0  0  0
 22 44  1  0  0  0  0
M  END
> <s_m_source_file>
AV-unprocessed.smi

> <i_m_source_file_index>
858

> <i_lp_mmshare_version>
43012

> <i_f3d_flags>
0

> <s_epik_input>
W0NIM11DKD1PKU4oW0NIM10pW0NIMl1DKD1PKVtOSF1bQ0gyXWMxW2NIXVtjSF1jKG5bY0hdMSlOMltDSDJdW0NIMl1PW0NIMl1bQ0gyXTI=

> <s_epik_cmdline>
J2VwaWtfcHl0aG9uJywgJy1waCcsICc3LjAnLCAnLXRuJywgJzgnLCAnLW1hJywgJzIwMCcsICctbWV0YWxfYmluZGluZycsICctaW1hZScsICc8aW5maWxlLm1hZT4nLCAnLW9tYWUnLCAnPG91dGZpbGUubWFlPic=

> <r_lp_tautomer_probability>
1

> <r_epik_Ionization_Penalty>
0.00462928

> <r_epik_Ionization_Penalty_Charging>
0

> <r_epik_Ionization_Penalty_Neutral>
0.00462928

> <r_epik_State_Penalty>
0.00334737

> <r_epik_Charging_Adjusted_Penalty>
0.00334737

> <i_epik_Tot_Q>
0

> <i_epik_Tot_abs_Q>
0

> <r_epik_Metal_State_Penalty>
-0

> <b_epik_Metal_Only>
0

> <s_lp_Force_Field>
OPLS_2005

> <r_lp_Energy>
20.1823

> <b_lp_Chiralities_Consistent>
1

> <s_lp_Variant>
AV-unprocessed.smi:858-1

> <Gold.Version>
5.8.1

> <Gold.Id.Protein>
6NUR|6NUR_protein|mol2

> <Gold.PLP.Fitness>
50.5831

> <Gold.PLP.PLP>
-44.3035

> <Gold.PLP.part.hbond>
-3.9562

> <Gold.PLP.part.metal>
0.0000

> <Gold.PLP.part.buried>
-4.6927

> <Gold.PLP.part.nonpolar>
-36.1147

> <Gold.PLP.part.repulsive>
0.1013

> <Gold.PLP.ligand.clash>
0.0000

> <Gold.PLP.ligand.torsion>
0.9740

> <Gold.PLP.Chemscore.Hbond>
2.6139

> <Gold.PLP.Chemscore.CHOScore>
0.0000

> <Gold.PLP.Chemscore.Metal>
0.0000

> <Gold.Chemscore.Hbonds>
donor molecule, donor type, donor heavy atom, donor atom, acceptor molecule, acceptor atom, score
      P1  H  6896  6909       L1     3  1.00
      P1  H 10752 10763       L1     8  0.05

> <Gold.PLP.Chemscore.Internal.Correction>
0.3858

> <Gold.Rescore>
     Score         DG    S(hbond)    S(metal)    S(lipo)     H(rot)  DE(clash)    DE(int)     intcor
     15.43     -18.04       2.03        0.00      93.08       2.00       0.51       2.10       ----

> <Gold.Chemscore.Fitness>
15.4304

> <Gold.Chemscore.DG>
-18.0397

> <Gold.Chemscore.ZeroCoef>
-5.4800

> <Gold.Chemscore.Hbond>
2.0294

> <Gold.Chemscore.Metal>
0.0000

> <Gold.Chemscore.Lipo>
93.0775

> <Gold.Chemscore.Internal_Hbond>
0.0000

> <Gold.Chemscore.DEClash>
0.5099

> <Gold.Chemscore.DEInternal>
2.0994

> <Gold.Chemscore.Rot>
1.9956

> <Gold.Chemscore.Internal.Correction>
   9.000000E+99

> <Gold.Chemscore.Hbonds>
donor molecule, donor type, donor heavy atom, donor atom, acceptor molecule, acceptor atom, score
      P1  H  6896  6909       L1     3  0.96
      P1  H 10752 10763       L1     8  0.10

> <Gold.Chemscore.Hbond.Weighted>
-6.7783

> <Gold.Chemscore.Metal.Weighted>
-0.0000

> <Gold.Chemscore.Lipo.Weighted>
-10.8901

> <Gold.Chemscore.Internal_Hbond.Weighted>
0.0000

> <Gold.Chemscore.DEClash.Weighted>
0.5099

> <Gold.Chemscore.DEInternal.Weighted>
2.0994

> <Gold.Chemscore.Rot.Weighted>
5.1087

> <Gold.Chemscore.Internal.Correction.Weighted>
   9.000000E+99

> <Gold.Protein.RotatedTorsions>
[ 6907 6896 6895 6894 ] final  -11.70 input  -60.11 | X-H torsion
[ 7974 7965 7964 7962 ] final   68.65 input  175.53 | X-H torsion
[ 8008 7997 7996 7995 ] final  166.48 input   59.86 | X-H torsion
[ 10167 10162 10161 10158 ] final   92.29 input  -65.29 | X-H torsion
[ 10718 10713 10712 10709 ] final  137.66 input   66.30 | X-H torsion
[ 10763 10752 10751 10750 ] final   66.70 input  -60.55 | X-H torsion
[ 11005 11000 10999 10996 ] final  122.09 input  -57.11 | X-H torsion

> <Gold.Protein.ActiveResidues>
 VAL166  LYS551  ARG553  GLY616  TRP617  ASP618  TYR619  PRO620  LYS621  CYS622 
 ASP623  PHE694  ASN695  SER759  ASP760  ASP761  ALA762  ILE779  LEU786  VAL792 
 PHE793  MET794  SER795  GLU796  ALA797  LYS798  CYS799  TRP800  GLU811  SER814 

> <Gold.Protein.RotatedAtoms>
  151.3822  135.0941  159.9499 H   0  0  0  0  0  0  0  0  0  0  0  0  # atno 6907 bound_to 6896
  152.5105  133.9061  159.7475 H   0  0  0  0  0  0  0  0  0  0  0  0  # atno 6908 bound_to 6896
  150.9497  133.6508  159.2803 H   0  0  0  0  0  0  0  0  0  0  0  0  # atno 6909 bound_to 6896
  145.8000  139.2977  143.1160 H   0  0  0  0  0  0  0  0  0  0  0  0  # atno 7974 bound_to 7965
  156.1715  140.1642  156.8439 H   0  0  0  0  0  0  0  0  0  0  0  0  # atno 8008 bound_to 7997
  154.5261  140.0767  156.8296 H   0  0  0  0  0  0  0  0  0  0  0  0  # atno 8009 bound_to 7997
  155.3503  140.3389  155.4241 H   0  0  0  0  0  0  0  0  0  0  0  0  # atno 8010 bound_to 7997
  139.8291  144.6696  150.9423 H   0  0  0  0  0  0  0  0  0  0  0  0  # atno 10167 bound_to 10162
  157.4337  131.1051  151.0222 H   0  0  0  0  0  0  0  0  0  0  0  0  # atno 10718 bound_to 10713
  153.0152  135.5311  154.6865 H   0  0  0  0  0  0  0  0  0  0  0  0  # atno 10763 bound_to 10752
  154.6011  135.2868  155.0536 H   0  0  0  0  0  0  0  0  0  0  0  0  # atno 10764 bound_to 10752
  154.1593  135.6550  153.5034 H   0  0  0  0  0  0  0  0  0  0  0  0  # atno 10765 bound_to 10752
  139.9253  134.9640  156.8056 H   0  0  0  0  0  0  0  0  0  0  0  0  # atno 11005 bound_to 11000
  145.9887  140.8621  143.0077 LP  0  0  0  0  0  0  0  0  0  0  0  0  # atno 17320 bound_to 7965
  144.6770  140.2185  143.7369 LP  0  0  0  0  0  0  0  0  0  0  0  0  # atno 17321 bound_to 7965
  140.7808  143.4018  151.1136 LP  0  0  0  0  0  0  0  0  0  0  0  0  # atno 17342 bound_to 10162
  139.7673  143.8546  152.3113 LP  0  0  0  0  0  0  0  0  0  0  0  0  # atno 17343 bound_to 10162
  157.1109  130.6021  149.5482 LP  0  0  0  0  0  0  0  0  0  0  0  0  # atno 17370 bound_to 10713
  155.9922  130.4980  150.7332 LP  0  0  0  0  0  0  0  0  0  0  0  0  # atno 17371 bound_to 10713
  140.6354  133.9867  155.7682 LP  0  0  0  0  0  0  0  0  0  0  0  0  # atno 17394 bound_to 11000
  141.0806  134.0068  157.3392 LP  0  0  0  0  0  0  0  0  0  0  0  0  # atno 17395 bound_to 11000

$$$$
