AV-unprocessed.smi:3250|AV-procd|sdf|12431|dock1
  -GOLD-   2272018323D 1   1.00000     0.00000
 Structure written by MMmdl.
 40 41  0  0  0  0  0  0  0  0  3 V2000
  146.5501  142.3839  154.0138 C   0  0  0  0  0  0  0  0  0  0  0  0
  147.1411  141.1176  153.3785 C   0  0  0  0  0  0  0  0  0  0  0  0
  148.2052  140.5052  154.2126 N   0  3  1  0  0  0  0  0  0  0  0  0
  148.9943  139.4975  153.4657 C   0  0  0  0  0  0  0  0  0  0  0  0
  150.0507  138.8568  154.3793 C   0  0  0  0  0  0  0  0  0  0  0  0
  150.8852  139.8717  154.9231 O   0  0  0  0  0  0  0  0  0  0  0  0
  150.1613  140.7961  155.7291 C   0  0  1  0  0  0  0  0  0  0  0  0
  151.1642  141.7988  156.3181 C   0  0  0  0  0  0  0  0  0  0  0  0
  150.4949  142.9164  156.9674 N   0  0  0  0  0  0  0  0  0  0  0  0
  150.8142  143.3737  158.2324 C   0  0  0  0  0  0  0  0  0  0  0  0
  150.1166  144.4142  158.7118 N   0  3  0  0  0  0  0  0  0  0  0  0
  150.3945  144.8996  159.9470 C   0  0  0  0  0  0  0  0  0  0  0  0
  151.4083  144.3164  160.7281 C   0  0  0  0  0  0  0  0  0  0  0  0
  152.0973  143.2284  160.1677 C   0  0  0  0  0  0  0  0  0  0  0  0
  153.0979  142.6120  160.8903 O   0  0  0  0  0  0  0  0  0  0  0  0
  153.7839  141.5157  160.2949 C   0  0  0  0  0  0  0  0  0  0  0  0
  151.7917  142.7756  158.9284 N   0  0  0  0  0  0  0  0  0  0  0  0
  149.1071  141.4981  154.8487 C   0  0  0  0  0  0  0  0  0  0  0  0
  145.7137  142.7543  153.4206 H   0  0  0  0  0  0  0  0  0  0  0  0
  147.2807  143.1898  154.0785 H   0  0  0  0  0  0  0  0  0  0  0  0
  146.1770  142.1836  155.0185 H   0  0  0  0  0  0  0  0  0  0  0  0
  146.3300  140.3990  153.2530 H   0  0  0  0  0  0  0  0  0  0  0  0
  147.5226  141.3304  152.3787 H   0  0  0  0  0  0  0  0  0  0  0  0
  148.3334  138.7240  153.0729 H   0  0  0  0  0  0  0  0  0  0  0  0
  149.4777  139.9717  152.6099 H   0  0  0  0  0  0  0  0  0  0  0  0
  149.5803  138.2850  155.1809 H   0  0  0  0  0  0  0  0  0  0  0  0
  150.6663  138.1603  153.8099 H   0  0  0  0  0  0  0  0  0  0  0  0
  149.6601  140.2658  156.5414 H   0  0  0  0  0  0  0  0  0  0  0  0
  151.8229  141.2983  157.0289 H   0  0  0  0  0  0  0  0  0  0  0  0
  151.7955  142.1987  155.5238 H   0  0  0  0  0  0  0  0  0  0  0  0
  149.7745  143.4082  156.4587 H   0  0  0  0  0  0  0  0  0  0  0  0
  149.7948  145.7381  160.2699 H   0  0  0  0  0  0  0  0  0  0  0  0
  151.6452  144.6866  161.7151 H   0  0  0  0  0  0  0  0  0  0  0  0
  154.5355  141.1402  160.9892 H   0  0  0  0  0  0  0  0  0  0  0  0
  154.2989  141.8155  159.3809 H   0  0  0  0  0  0  0  0  0  0  0  0
  153.1025  140.6940  160.0691 H   0  0  0  0  0  0  0  0  0  0  0  0
  149.5975  142.0917  154.0751 H   0  0  0  0  0  0  0  0  0  0  0  0
  148.5304  142.1893  155.4628 H   0  0  0  0  0  0  0  0  0  0  0  0
  147.7373  140.0054  154.9556 H   0  0  0  0  0  0  0  0  0  0  0  0
  149.3770  144.8491  158.1598 H   0  0  0  0  0  0  0  0  0  0  0  0
  1  2  1  0  0  0  0
  1 19  1  0  0  0  0
  1 20  1  0  0  0  0
  1 21  1  0  0  0  0
  2  3  1  0  0  0  0
  2 22  1  0  0  0  0
  2 23  1  0  0  0  0
  3 18  1  0  0  0  0
  3  4  1  0  0  0  0
  3 39  1  0  0  0  0
  4  5  1  0  0  0  0
  4 24  1  0  0  0  0
  4 25  1  0  0  0  0
  5  6  1  0  0  0  0
  5 26  1  0  0  0  0
  5 27  1  0  0  0  0
  6  7  1  0  0  0  0
  7  8  1  0  0  0  0
  7 18  1  0  0  0  0
  7 28  1  0  0  0  0
  8  9  1  0  0  0  0
  8 29  1  0  0  0  0
  8 30  1  0  0  0  0
  9 10  1  0  0  0  0
  9 31  1  0  0  0  0
 10 17  1  0  0  0  0
 10 11  2  0  0  0  0
 11 12  1  0  0  0  0
 11 40  1  0  0  0  0
 12 13  2  0  0  0  0
 12 32  1  0  0  0  0
 13 14  1  0  0  0  0
 13 33  1  0  0  0  0
 14 15  1  0  0  0  0
 14 17  2  0  0  0  0
 15 16  1  0  0  0  0
 16 34  1  0  0  0  0
 16 35  1  0  0  0  0
 16 36  1  0  0  0  0
 18 37  1  0  0  0  0
 18 38  1  0  0  0  0
M  CHG  1   3   1
M  CHG  1  11   1
M  END
> <s_m_source_file>
AV-unprocessed.smi

> <i_m_source_file_index>
3250

> <i_lp_mmshare_version>
43012

> <i_f3d_flags>
0

> <s_epik_input>
W0NIM11bQ0gyXU4xW0NIMl1bQ0gyXU9bQ0BIXShbQ0gyXTEpW0NIMl1bTkhdYzJuW2NIXVtjSF1jKG4yKU9bQ0gzXQ==

> <s_epik_cmdline>
J2VwaWtfcHl0aG9uJywgJy1waCcsICc3LjAnLCAnLXRuJywgJzgnLCAnLW1hJywgJzIwMCcsICctbWV0YWxfYmluZGluZycsICctaW1hZScsICc8aW5maWxlLm1hZT4nLCAnLW9tYWUnLCAnPG91dGZpbGUubWFlPic=

> <r_lp_tautomer_probability>
0.999985

> <r_epik_Ionization_Penalty>
2.24691

> <r_epik_Ionization_Penalty_Charging>
2.24686

> <r_epik_Ionization_Penalty_Neutral>
4.52111e-05

> <r_epik_State_Penalty>
2.24709

> <r_epik_Charging_Adjusted_Penalty>
4.49395

> <i_epik_Tot_Q>
2

> <i_epik_Tot_abs_Q>
2

> <r_epik_Metal_State_Penalty>
2.26327

> <b_epik_Metal_Only>
0

> <s_lp_Force_Field>
OPLS_2005

> <r_lp_Energy>
18.3796

> <b_lp_Chiralities_Consistent>
1

> <s_lp_Variant>
AV-unprocessed.smi:3250-7

> <Gold.Version>
5.8.1

> <Gold.Id.Protein>
6NUR|6NUR_protein|mol2

> <Gold.PLP.Fitness>
52.0135

> <Gold.PLP.PLP>
-37.4780

> <Gold.PLP.part.hbond>
-3.3627

> <Gold.PLP.part.metal>
0.0000

> <Gold.PLP.part.buried>
-4.4240

> <Gold.PLP.part.nonpolar>
-31.4725

> <Gold.PLP.part.repulsive>
0.3295

> <Gold.PLP.ligand.clash>
0.0000

> <Gold.PLP.ligand.torsion>
0.2493

> <Gold.PLP.Chemscore.Hbond>
5.0000

> <Gold.PLP.Chemscore.CHOScore>
0.0000

> <Gold.PLP.Chemscore.Metal>
0.0000

> <Gold.Chemscore.Hbonds>
donor molecule, donor type, donor heavy atom, donor atom, acceptor molecule, acceptor atom, score
      L1  H     9    31       P1  8028  2.00
      L1  H    11    40       P1  8029  1.98
      P1  H  7989  7998       L1     6  1.00

> <Gold.PLP.Chemscore.Internal.Correction>
0.0341

> <Gold.Rescore>
     Score         DG    S(hbond)    S(metal)    S(lipo)     H(rot)  DE(clash)    DE(int)     intcor
     16.82     -18.01       2.38        0.00      77.43       1.75       1.05       0.14       ----

> <Gold.Chemscore.Fitness>
16.8157

> <Gold.Chemscore.DG>
-18.0096

> <Gold.Chemscore.ZeroCoef>
-5.4800

> <Gold.Chemscore.Hbond>
2.3827

> <Gold.Chemscore.Metal>
0.0000

> <Gold.Chemscore.Lipo>
77.4270

> <Gold.Chemscore.Internal_Hbond>
0.0000

> <Gold.Chemscore.DEClash>
1.0531

> <Gold.Chemscore.DEInternal>
0.1408

> <Gold.Chemscore.Rot>
1.7530

> <Gold.Chemscore.Internal.Correction>
   9.000000E+99

> <Gold.Chemscore.Hbonds>
donor molecule, donor type, donor heavy atom, donor atom, acceptor molecule, acceptor atom, score
      L1  H     9    31       P1  8028  1.00
      L1  H    11    40       P1  8029  0.24
      P1  H  7989  7998       L1     6  0.42

> <Gold.Chemscore.Hbond.Weighted>
-7.9583

> <Gold.Chemscore.Metal.Weighted>
-0.0000

> <Gold.Chemscore.Lipo.Weighted>
-9.0590

> <Gold.Chemscore.Internal_Hbond.Weighted>
0.0000

> <Gold.Chemscore.DEClash.Weighted>
1.0531

> <Gold.Chemscore.DEInternal.Weighted>
0.1408

> <Gold.Chemscore.Rot.Weighted>
4.4876

> <Gold.Chemscore.Internal.Correction.Weighted>
   9.000000E+99

> <Gold.Protein.RotatedTorsions>
[ 6907 6896 6895 6894 ] final -176.10 input  -60.11 | X-H torsion
[ 7974 7965 7964 7962 ] final -134.05 input  175.53 | X-H torsion
[ 8008 7997 7996 7995 ] final -107.17 input   59.86 | X-H torsion
[ 10167 10162 10161 10158 ] final   30.95 input  -65.29 | X-H torsion
[ 10718 10713 10712 10709 ] final  108.72 input   66.30 | X-H torsion
[ 10763 10752 10751 10750 ] final   14.73 input  -60.55 | X-H torsion
[ 11005 11000 10999 10996 ] final -129.68 input  -57.11 | X-H torsion

> <Gold.Protein.ActiveResidues>
 VAL166  LYS551  ARG553  GLY616  TRP617  ASP618  TYR619  PRO620  LYS621  CYS622 
 ASP623  PHE694  ASN695  SER759  ASP760  ASP761  ALA762  ILE779  LEU786  VAL792 
 PHE793  MET794  SER795  GLU796  ALA797  LYS798  CYS799  TRP800  GLU811  SER814 

> <Gold.Protein.RotatedAtoms>
  151.5993  133.3358  159.3043 H   0  0  0  0  0  0  0  0  0  0  0  0  # atno 6907 bound_to 6896
  150.8217  134.7431  159.6789 H   0  0  0  0  0  0  0  0  0  0  0  0  # atno 6908 bound_to 6896
  152.4310  134.5784  159.9992 H   0  0  0  0  0  0  0  0  0  0  0  0  # atno 6909 bound_to 6896
  144.9138  140.6928  143.5008 H   0  0  0  0  0  0  0  0  0  0  0  0  # atno 7974 bound_to 7965
  154.9254  140.0406  157.2020 H   0  0  0  0  0  0  0  0  0  0  0  0  # atno 8008 bound_to 7997
  154.8213  140.2884  155.5763 H   0  0  0  0  0  0  0  0  0  0  0  0  # atno 8009 bound_to 7997
  156.2980  140.2518  156.3120 H   0  0  0  0  0  0  0  0  0  0  0  0  # atno 8010 bound_to 7997
  140.4632  144.0875  150.6218 H   0  0  0  0  0  0  0  0  0  0  0  0  # atno 10167 bound_to 10162
  157.6574  131.0899  150.6347 H   0  0  0  0  0  0  0  0  0  0  0  0  # atno 10718 bound_to 10713
  153.1594  135.6793  153.8765 H   0  0  0  0  0  0  0  0  0  0  0  0  # atno 10763 bound_to 10752
  153.8165  135.3136  155.3407 H   0  0  0  0  0  0  0  0  0  0  0  0  # atno 10764 bound_to 10752
  154.7921  135.4828  154.0165 H   0  0  0  0  0  0  0  0  0  0  0  0  # atno 10765 bound_to 10752
  140.9410  134.1193  157.4150 H   0  0  0  0  0  0  0  0  0  0  0  0  # atno 11005 bound_to 11000
  145.3410  139.1732  143.4485 LP  0  0  0  0  0  0  0  0  0  0  0  0  # atno 17320 bound_to 7965
  146.3171  140.3451  142.8651 LP  0  0  0  0  0  0  0  0  0  0  0  0  # atno 17321 bound_to 7965
  140.4068  143.2676  151.9882 LP  0  0  0  0  0  0  0  0  0  0  0  0  # atno 17342 bound_to 10162
  139.4809  144.5950  151.7705 LP  0  0  0  0  0  0  0  0  0  0  0  0  # atno 17343 bound_to 10162
  156.6653  130.4524  149.5674 LP  0  0  0  0  0  0  0  0  0  0  0  0  # atno 17370 bound_to 10713
  156.2037  130.6636  151.1195 LP  0  0  0  0  0  0  0  0  0  0  0  0  # atno 17371 bound_to 10713
  139.8820  135.0036  156.6200 LP  0  0  0  0  0  0  0  0  0  0  0  0  # atno 17394 bound_to 11000
  140.7733  133.8720  155.8509 LP  0  0  0  0  0  0  0  0  0  0  0  0  # atno 17395 bound_to 11000

$$$$
