#       Name:                AV-unprocessed.smi:34
#       Creating user name   scv26
#       Creation time:       Thu Mar 26 15:59:06 2020


#       File generated by GOLD software.
#

@<TRIPOS>MOLECULE
AV-unprocessed.smi:34
    66    70     1
SMALL
NO_CHARGES


@<TRIPOS>ATOM
      1 ****        -4.0356   1.1231   0.9541 O.2            1 S1                 0.0000
      2 ****        -4.6797   1.1178  -0.0972 C.2            1 S1                 0.0000
      3 ****        -4.3297   1.6639  -1.2896 N.pl3          1 S1                -1.0000
      4 ****        -3.1368   2.2625  -1.4262 C.ar           1 S1                 0.0000
      5 ****        -3.0394   3.6154  -1.3664 N.ar           1 S1                 0.0000
      6 ****        -1.8509   4.2153  -1.5040 C.ar           1 S1                 0.0000
      7 ****        -0.6496   3.6648  -1.7083 N.ar           1 S1                 0.0000
      8 ****        -0.7383   2.3049  -1.7793 C.ar           1 S1                 0.0000
      9 ****        -1.9332   1.5400  -1.6545 C.ar           1 S1                 0.0000
     10 ****        -1.6626   0.1855  -1.7822 N.2            1 S1                 0.0000
     11 ****        -0.3440   0.1898  -1.9688 C.2            1 S1                 0.0000
     12 ****         0.2789   1.3870  -1.9695 N.pl3          1 S1                 0.0000
     13 ****         1.7298   1.7065  -2.1628 C.3            1 S1                 0.0000
     14 ****         2.4012   0.5472  -2.5700 O.3            1 S1                 0.0000
     15 ****         3.3248   0.1154  -1.5742 C.3            1 S1                 0.0000
     16 ****         2.6744  -0.9632  -0.6922 C.3            1 S1                 0.0000
     17 ****         3.6291  -1.4515   0.2360 O.3            1 S1                 0.0000
     18 ****         3.2719  -2.3719   1.1520 C.2            1 S1                 0.0000
     19 ****         2.1420  -2.8591   1.2251 O.2            1 S1                 0.0000
     20 ****         4.3883  -2.7378   2.0710 C.ar           1 S1                 0.0000
     21 ****         4.1662  -3.7014   3.0826 C.ar           1 S1                 0.0000
     22 ****         5.2002  -4.0637   3.9677 C.ar           1 S1                 0.0000
     23 ****         6.4692  -3.4670   3.8522 C.ar           1 S1                 0.0000
     24 ****         6.7030  -2.5073   2.8500 C.ar           1 S1                 0.0000
     25 ****         5.6702  -2.1436   1.9639 C.ar           1 S1                 0.0000
     26 ****         3.6853   1.3986  -0.8235 C.3            1 S1                 0.0000
     27 ****         4.6490   2.0407  -1.4860 F              1 S1                 0.0000
     28 ****         2.4075   2.2175  -0.8709 C.3            1 S1                 0.0000
     29 ****         1.6530   2.0288   0.3139 O.3            1 S1                 0.0000
     30 ****        -6.0539   0.5019  -0.1024 C.ar           1 S1                 0.0000
     31 ****        -6.8594   0.5783   1.0569 C.ar           1 S1                 0.0000
     32 ****        -8.1364  -0.0152   1.0832 C.ar           1 S1                 0.0000
     33 ****        -8.6195  -0.6991  -0.0478 C.ar           1 S1                 0.0000
     34 ****        -7.8223  -0.7930  -1.2036 C.ar           1 S1                 0.0000
     35 ****        -6.5446  -0.2010  -1.2302 C.ar           1 S1                 0.0000
     36 ****        -1.8642   5.2931  -1.4391 H              1 S1                 0.0000
     37 ****         0.1951  -0.7343  -2.1136 H              1 S1                 0.0000
     38 ****         1.7400   2.4378  -2.9720 H              1 S1                 0.0000
     39 ****         4.2023  -0.3117  -2.0613 H              1 S1                 0.0000
     40 ****         1.8082  -0.5648  -0.1633 H              1 S1                 0.0000
     41 ****         2.3251  -1.7880  -1.3146 H              1 S1                 0.0000
     42 ****         3.1997  -4.1723   3.1913 H              1 S1                 0.0000
     43 ****         5.0184  -4.8002   4.7366 H              1 S1                 0.0000
     44 ****         7.2616  -3.7446   4.5314 H              1 S1                 0.0000
     45 ****         7.6765  -2.0481   2.7603 H              1 S1                 0.0000
     46 ****         5.8832  -1.4026   1.2073 H              1 S1                 0.0000
     47 ****         4.0621   1.2274   0.1859 H              1 S1                 0.0000
     48 ****         2.6156   3.2836  -0.9689 H              1 S1                 0.0000
     49 ****         0.8472   2.5176   0.2369 H              1 S1                 0.0000
     50 ****        -6.5029   1.0976   1.9347 H              1 S1                 0.0000
     51 ****        -8.7441   0.0533   1.9731 H              1 S1                 0.0000
     52 ****        -9.5983  -1.1548  -0.0275 H              1 S1                 0.0000
     53 ****        -8.1883  -1.3233  -2.0704 H              1 S1                 0.0000
     54 ****        -5.9447  -0.2957  -2.1239 H              1 S1                 0.0000
     55 ****        -3.1412   1.5689   0.9902 LP             1 S1                 0.0000
     56 ****        -4.4076   0.6816   1.7706 LP             1 S1                 0.0000
     57 ****        -4.9599   1.6201  -2.0649 LP             1 S1                 0.0000
     58 ****        -3.8604   4.1668  -1.2187 LP             1 S1                 0.0000
     59 ****         0.2018   4.1816  -1.7974 LP             1 S1                 0.0000
     60 ****        -2.2923  -0.5904  -1.7442 LP             1 S1                 0.0000
     61 ****         2.8983   0.7375  -3.4166 LP             1 S1                 0.0000
     62 ****         1.7323  -0.1782  -2.7322 LP             1 S1                 0.0000
     63 ****         1.4318  -2.5736   0.5816 LP             1 S1                 0.0000
     64 ****         1.9355  -3.5399   1.9279 LP             1 S1                 0.0000
     65 ****         2.1736   2.3583   1.1015 LP             1 S1                 0.0000
     66 ****         1.4483   1.0572   0.4324 LP             1 S1                 0.0000
@<TRIPOS>BOND
    1    1    2 2     
    2    2    3 1     
    3    2   30 1     
    4    3    4 1     
    5    4    9 ar    
    6    4    5 ar    
    7    5    6 ar    
    8    6    7 ar    
    9    6   36 1     
   10    7    8 ar    
   11    8   12 1     
   12    8    9 ar    
   13    9   10 1     
   14   10   11 2     
   15   11   12 1     
   16   11   37 1     
   17   12   13 1     
   18   13   28 1     
   19   13   14 1     
   20   13   38 1     
   21   14   15 1     
   22   15   16 1     
   23   15   26 1     
   24   15   39 1     
   25   16   17 1     
   26   16   40 1     
   27   16   41 1     
   28   17   18 1     
   29   18   19 2     
   30   18   20 1     
   31   20   25 ar    
   32   20   21 ar    
   33   21   22 ar    
   34   21   42 1     
   35   22   23 ar    
   36   22   43 1     
   37   23   24 ar    
   38   23   44 1     
   39   24   25 ar    
   40   24   45 1     
   41   25   46 1     
   42   26   27 1     
   43   26   28 1     
   44   26   47 1     
   45   28   29 1     
   46   28   48 1     
   47   29   49 1     
   48   30   35 ar    
   49   30   31 ar    
   50   31   32 ar    
   51   31   50 1     
   52   32   33 ar    
   53   32   51 1     
   54   33   34 ar    
   55   33   52 1     
   56   34   35 ar    
   57   34   53 1     
   58   35   54 1     
   59    1   55 1     
   60    1   56 1     
   61    3   57 1     
   62    5   58 1     
   63    7   59 1     
   64   10   60 1     
   65   14   61 1     
   66   14   62 1     
   67   19   63 1     
   68   19   64 1     
   69   29   65 1     
   70   29   66 1     
@<TRIPOS>SUBSTRUCTURE
      1 S1             1
@<TRIPOS>SET
LONE_PAIRS      STATIC     ATOMS    <user>   **** ""
12 55 56 57 58 59 60 61 62 63 64 65 66
DONOR_HYDROGENS      STATIC     ATOMS    <user>   **** ""
1 49
ATOM$BLUE        STATIC     ATOMS    COLORGROUP SYSTEM
12 55 56 57 58 59 60 61 62 63 64 65 66
ATOM$RED        STATIC     ATOMS    COLORGROUP SYSTEM
1 49
