AV-unprocessed.smi:152|AV-procd|sdf|1246|dock3
  -GOLD-   2262018473D 1   1.00000     0.00000
 Structure written by MMmdl.
 58 61  0  0  0  0  0  0  0  0  2 V2000
  145.7760  137.1114  152.1559 C   0  0  0  0  0  0  0  0  0  0  0  0
  146.0392  135.7793  152.8720 C   0  0  0  0  0  0  0  0  0  0  0  0
  146.5655  134.7253  151.9663 N   0  3  2  0  0  0  0  0  0  0  0  0
  145.6798  134.4782  150.8027 C   0  0  0  0  0  0  0  0  0  0  0  0
  145.1000  133.0806  150.9928 C   0  0  0  0  0  0  0  0  0  0  0  0
  146.2322  132.3503  151.6943 C   0  0  0  0  0  0  0  0  0  0  0  0
  146.8350  133.4160  152.6231 C   0  0  1  0  0  0  0  0  0  0  0  0
  148.3466  133.2190  152.8760 C   0  0  0  0  0  0  0  0  0  0  0  0
  148.6368  132.4124  154.0618 N   0  0  0  0  0  0  0  0  0  0  0  0
  148.5329  130.9615  153.9310 C   0  0  0  0  0  0  0  0  0  0  0  0
  149.4862  132.9116  155.0008 C   0  0  0  0  0  0  0  0  0  0  0  0
  150.4234  132.0886  155.5439 N   0  0  0  0  0  0  0  0  0  0  0  0
  151.2892  132.5471  156.4518 C   0  0  0  0  0  0  0  0  0  0  0  0
  151.3929  133.7766  156.9566 N   0  0  0  0  0  0  0  0  0  0  0  0
  150.4499  134.6077  156.4294 C   0  0  0  0  0  0  0  0  0  0  0  0
  149.4672  134.2629  155.4568 C   0  0  0  0  0  0  0  0  0  0  0  0
  148.6793  135.3743  155.1779 N   0  0  0  0  0  0  0  0  0  0  0  0
  149.1714  136.3186  155.9319 C   0  0  0  0  0  0  0  0  0  0  0  0
  150.2336  135.9429  156.7210 N   0  0  0  0  0  0  0  0  0  0  0  0
  150.9640  136.7850  157.6562 C   0  0  0  0  0  0  0  0  0  0  0  0
  151.6361  138.0155  156.9982 C   0  0  0  0  0  0  0  0  0  0  0  0
  152.5391  138.5676  157.9412 O   0  0  0  0  0  0  0  0  0  0  0  0
  152.4253  137.6514  155.7215 C   0  0  0  0  0  0  0  0  0  0  0  0
  152.9147  138.9007  154.9674 C   0  0  0  0  0  0  0  0  0  0  0  0
  151.8181  139.7591  154.6769 O   0  0  0  0  0  0  0  0  0  0  0  0
  151.1794  140.2525  155.8484 C   0  0  0  0  0  0  0  0  0  0  0  0
  150.5806  139.0851  156.6527 C   0  0  0  0  0  0  0  0  0  0  0  0
  145.3102  137.8255  152.8351 H   0  0  0  0  0  0  0  0  0  0  0  0
  145.1049  136.9788  151.3068 H   0  0  0  0  0  0  0  0  0  0  0  0
  146.6983  137.5656  151.7937 H   0  0  0  0  0  0  0  0  0  0  0  0
  146.7232  135.9275  153.7091 H   0  0  0  0  0  0  0  0  0  0  0  0
  145.0965  135.4334  153.2981 H   0  0  0  0  0  0  0  0  0  0  0  0
  144.8998  135.2309  150.6785 H   0  0  0  0  0  0  0  0  0  0  0  0
  146.2966  134.4993  149.9037 H   0  0  0  0  0  0  0  0  0  0  0  0
  144.2242  133.1224  151.6414 H   0  0  0  0  0  0  0  0  0  0  0  0
  144.8069  132.6110  150.0534 H   0  0  0  0  0  0  0  0  0  0  0  0
  145.8917  131.4645  152.2314 H   0  0  0  0  0  0  0  0  0  0  0  0
  146.9648  132.0298  150.9521 H   0  0  0  0  0  0  0  0  0  0  0  0
  146.2905  133.3845  153.5685 H   0  0  0  0  0  0  0  0  0  0  0  0
  148.8240  132.8170  151.9855 H   0  0  0  0  0  0  0  0  0  0  0  0
  148.8200  134.1883  153.0285 H   0  0  0  0  0  0  0  0  0  0  0  0
  148.3687  130.4952  154.9031 H   0  0  0  0  0  0  0  0  0  0  0  0
  149.4407  130.5437  153.4948 H   0  0  0  0  0  0  0  0  0  0  0  0
  147.6940  130.6916  153.2893 H   0  0  0  0  0  0  0  0  0  0  0  0
  152.0006  131.8259  156.8266 H   0  0  0  0  0  0  0  0  0  0  0  0
  148.7657  137.3199  155.9402 H   0  0  0  0  0  0  0  0  0  0  0  0
  150.2697  137.1097  158.4321 H   0  0  0  0  0  0  0  0  0  0  0  0
  151.7107  136.1683  158.1586 H   0  0  0  0  0  0  0  0  0  0  0  0
  152.2587  139.4468  158.1458 H   0  0  0  0  0  0  0  0  0  0  0  0
  153.2759  137.0106  155.9575 H   0  0  0  0  0  0  0  0  0  0  0  0
  151.7827  137.0744  155.0552 H   0  0  0  0  0  0  0  0  0  0  0  0
  153.6686  139.4384  155.5444 H   0  0  0  0  0  0  0  0  0  0  0  0
  153.3873  138.6073  154.0299 H   0  0  0  0  0  0  0  0  0  0  0  0
  151.8871  140.8242  156.4503 H   0  0  0  0  0  0  0  0  0  0  0  0
  150.3898  140.9429  155.5515 H   0  0  0  0  0  0  0  0  0  0  0  0
  149.7878  138.6295  156.0578 H   0  0  0  0  0  0  0  0  0  0  0  0
  150.1036  139.4603  157.5592 H   0  0  0  0  0  0  0  0  0  0  0  0
  147.4400  135.0647  151.5918 H   0  0  0  0  0  0  0  0  0  0  0  0
  1  2  1  0  0  0  0
  1 28  1  0  0  0  0
  1 29  1  0  0  0  0
  1 30  1  0  0  0  0
  2  3  1  0  0  0  0
  2 31  1  0  0  0  0
  2 32  1  0  0  0  0
  3  7  1  0  0  0  0
  3  4  1  0  0  0  0
  3 58  1  0  0  0  0
  4  5  1  0  0  0  0
  4 33  1  0  0  0  0
  4 34  1  0  0  0  0
  5  6  1  0  0  0  0
  5 35  1  0  0  0  0
  5 36  1  0  0  0  0
  6  7  1  0  0  0  0
  6 37  1  0  0  0  0
  6 38  1  0  0  0  0
  7  8  1  0  0  0  0
  7 39  1  0  0  0  0
  8  9  1  0  0  0  0
  8 40  1  0  0  0  0
  8 41  1  0  0  0  0
  9 10  1  0  0  0  0
  9 11  1  0  0  0  0
 10 42  1  0  0  0  0
 10 43  1  0  0  0  0
 10 44  1  0  0  0  0
 11 16  1  0  0  0  0
 11 12  2  0  0  0  0
 12 13  1  0  0  0  0
 13 14  2  0  0  0  0
 13 45  1  0  0  0  0
 14 15  1  0  0  0  0
 15 19  1  0  0  0  0
 15 16  2  0  0  0  0
 16 17  1  0  0  0  0
 17 18  2  0  0  0  0
 18 19  1  0  0  0  0
 18 46  1  0  0  0  0
 19 20  1  0  0  0  0
 20 21  1  0  0  0  0
 20 47  1  0  0  0  0
 20 48  1  0  0  0  0
 21 27  1  0  0  0  0
 21 22  1  0  0  0  0
 21 23  1  0  0  0  0
 22 49  1  0  0  0  0
 23 24  1  0  0  0  0
 23 50  1  0  0  0  0
 23 51  1  0  0  0  0
 24 25  1  0  0  0  0
 24 52  1  0  0  0  0
 24 53  1  0  0  0  0
 25 26  1  0  0  0  0
 26 27  1  0  0  0  0
 26 54  1  0  0  0  0
 26 55  1  0  0  0  0
 27 56  1  0  0  0  0
 27 57  1  0  0  0  0
M  CHG  1   3   1
M  END
> <s_m_source_file>
AV-unprocessed.smi

> <i_m_source_file_index>
152

> <i_lp_mmshare_version>
43012

> <i_f3d_flags>
0

> <s_epik_input>
W0NIM11bQ0gyXU4xW0NIMl1bQ0gyXVtDSDJdW0NASF0xW0NIMl1OKFtDSDNdKWMobltjSF1uMiljKGMyMyluW2NIXW4zW0NIMl1DNChbT0hdKVtDSDJdW0NIMl1PW0NIMl1bQ0gyXTQ=

> <s_epik_cmdline>
J2VwaWtfcHl0aG9uJywgJy1waCcsICc3LjAnLCAnLXRuJywgJzgnLCAnLW1hJywgJzIwMCcsICctbWV0YWxfYmluZGluZycsICctaW1hZScsICc8aW5maWxlLm1hZT4nLCAnLW9tYWUnLCAnPG91dGZpbGUubWFlPic=

> <r_lp_tautomer_probability>
1

> <r_epik_Ionization_Penalty>
0.00152183

> <r_epik_Ionization_Penalty_Charging>
0.00112577

> <r_epik_Ionization_Penalty_Neutral>
0.000396066

> <r_epik_State_Penalty>
-0

> <r_epik_Charging_Adjusted_Penalty>
0.00112577

> <i_epik_Tot_Q>
1

> <i_epik_Tot_abs_Q>
1

> <r_epik_Metal_State_Penalty>
-0

> <b_epik_Metal_Only>
0

> <s_lp_Force_Field>
OPLS_2005

> <r_lp_Energy>
43.1926

> <b_lp_Chiralities_Consistent>
1

> <s_lp_Variant>
AV-unprocessed.smi:152-1

> <Gold.Version>
5.8.1

> <Gold.Id.Protein>
6NUR|6NUR_protein|mol2

> <Gold.PLP.Fitness>
47.4735

> <Gold.PLP.PLP>
-39.2785

> <Gold.PLP.part.hbond>
-3.0000

> <Gold.PLP.part.metal>
0.0000

> <Gold.PLP.part.buried>
-6.1230

> <Gold.PLP.part.nonpolar>
-31.6672

> <Gold.PLP.part.repulsive>
0.1950

> <Gold.PLP.ligand.clash>
0.0000

> <Gold.PLP.ligand.torsion>
1.1011

> <Gold.PLP.Chemscore.Hbond>
3.2652

> <Gold.PLP.Chemscore.CHOScore>
0.0000

> <Gold.PLP.Chemscore.Metal>
0.0000

> <Gold.Chemscore.Hbonds>
donor molecule, donor type, donor heavy atom, donor atom, acceptor molecule, acceptor atom, score
      L1  H     3    58       P1  7948  1.92
      P1  H  6896  6908       L1    14  0.20
      P1  H  7989  7998       L1    25  1.00

> <Gold.PLP.Chemscore.Internal.Correction>
0.6015

> <Gold.Rescore>
     Score         DG    S(hbond)    S(metal)    S(lipo)     H(rot)  DE(clash)    DE(int)     intcor
     13.75     -14.93       2.03        0.00      76.75       2.46       0.01       1.17       ----

> <Gold.Chemscore.Fitness>
13.7529

> <Gold.Chemscore.DG>
-14.9303

> <Gold.Chemscore.ZeroCoef>
-5.4800

> <Gold.Chemscore.Hbond>
2.0273

> <Gold.Chemscore.Metal>
0.0000

> <Gold.Chemscore.Lipo>
76.7542

> <Gold.Chemscore.Internal_Hbond>
0.0000

> <Gold.Chemscore.DEClash>
0.0086

> <Gold.Chemscore.DEInternal>
1.1687

> <Gold.Chemscore.Rot>
2.4614

> <Gold.Chemscore.Internal.Correction>
   9.000000E+99

> <Gold.Chemscore.Hbonds>
donor molecule, donor type, donor heavy atom, donor atom, acceptor molecule, acceptor atom, score
      L1  H     3    58       P1  7948  0.69
      P1  H  6896  6908       L1    14  0.08
      P1  H  7989  7998       L1    25  0.66

> <Gold.Chemscore.Hbond.Weighted>
-6.7712

> <Gold.Chemscore.Metal.Weighted>
-0.0000

> <Gold.Chemscore.Lipo.Weighted>
-8.9802

> <Gold.Chemscore.Internal_Hbond.Weighted>
0.0000

> <Gold.Chemscore.DEClash.Weighted>
0.0086

> <Gold.Chemscore.DEInternal.Weighted>
1.1687

> <Gold.Chemscore.Rot.Weighted>
6.3012

> <Gold.Chemscore.Internal.Correction.Weighted>
   9.000000E+99

> <Gold.Protein.RotatedTorsions>
[ 6907 6896 6895 6894 ] final   94.98 input  -60.11 | X-H torsion
[ 7974 7965 7964 7962 ] final  -84.74 input  175.53 | X-H torsion
[ 8008 7997 7996 7995 ] final   17.12 input   59.86 | X-H torsion
[ 10167 10162 10161 10158 ] final  -12.27 input  -65.29 | X-H torsion
[ 10718 10713 10712 10709 ] final -168.51 input   66.30 | X-H torsion
[ 10763 10752 10751 10750 ] final  -67.53 input  -60.55 | X-H torsion
[ 11005 11000 10999 10996 ] final -144.03 input  -57.11 | X-H torsion

> <Gold.Protein.ActiveResidues>
 VAL166  LYS551  ARG553  GLY616  TRP617  ASP618  TYR619  PRO620  LYS621  CYS622 
 ASP623  PHE694  ASN695  SER759  ASP760  ASP761  ALA762  ILE779  LEU786  VAL792 
 PHE793  MET794  SER795  GLU796  ALA797  LYS798  CYS799  TRP800  GLU811  SER814 

> <Gold.Protein.RotatedAtoms>
  152.5446  134.1110  159.8358 H   0  0  0  0  0  0  0  0  0  0  0  0  # atno 6907 bound_to 6896
  151.1177  133.5119  159.2610 H   0  0  0  0  0  0  0  0  0  0  0  0  # atno 6908 bound_to 6896
  151.1814  135.0372  159.8848 H   0  0  0  0  0  0  0  0  0  0  0  0  # atno 6909 bound_to 6896
  145.5026  140.9546  143.1751 H   0  0  0  0  0  0  0  0  0  0  0  0  # atno 7974 bound_to 7965
  154.8868  140.2981  155.5393 H   0  0  0  0  0  0  0  0  0  0  0  0  # atno 8008 bound_to 7997
  156.3021  140.2432  156.3813 H   0  0  0  0  0  0  0  0  0  0  0  0  # atno 8009 bound_to 7997
  154.8659  140.0403  157.1683 H   0  0  0  0  0  0  0  0  0  0  0  0  # atno 8010 bound_to 7997
  140.7157  143.5551  150.9258 H   0  0  0  0  0  0  0  0  0  0  0  0  # atno 10167 bound_to 10162
  156.6980  130.9185  151.3076 H   0  0  0  0  0  0  0  0  0  0  0  0  # atno 10718 bound_to 10713
  154.3759  135.6085  153.5764 H   0  0  0  0  0  0  0  0  0  0  0  0  # atno 10763 bound_to 10752
  152.9789  135.5849  154.4468 H   0  0  0  0  0  0  0  0  0  0  0  0  # atno 10764 bound_to 10752
  154.4229  135.2846  155.1941 H   0  0  0  0  0  0  0  0  0  0  0  0  # atno 10765 bound_to 10752
  140.8066  134.2794  157.4958 H   0  0  0  0  0  0  0  0  0  0  0  0  # atno 11005 bound_to 11000
  144.7771  139.6606  143.7170 LP  0  0  0  0  0  0  0  0  0  0  0  0  # atno 17320 bound_to 7965
  146.2216  139.5646  142.9614 LP  0  0  0  0  0  0  0  0  0  0  0  0  # atno 17321 bound_to 7965
  139.9275  143.6532  152.3083 LP  0  0  0  0  0  0  0  0  0  0  0  0  # atno 17342 bound_to 10162
  139.6971  144.7640  151.1337 LP  0  0  0  0  0  0  0  0  0  0  0  0  # atno 17343 bound_to 10162
  157.6984  130.9306  150.0711 LP  0  0  0  0  0  0  0  0  0  0  0  0  # atno 17370 bound_to 10713
  156.1749  130.3648  149.9114 LP  0  0  0  0  0  0  0  0  0  0  0  0  # atno 17371 bound_to 10713
  139.8717  134.9459  156.3924 LP  0  0  0  0  0  0  0  0  0  0  0  0  # atno 17394 bound_to 11000
  140.9241  133.7625  155.9942 LP  0  0  0  0  0  0  0  0  0  0  0  0  # atno 17395 bound_to 11000

$$$$
