#       Name:                AV-unprocessed.smi:197
#       Creating user name   scv26
#       Creation time:       Thu Mar 26 19:41:25 2020


#       File generated by GOLD software.
#

@<TRIPOS>MOLECULE
AV-unprocessed.smi:197
    66    69     1
SMALL
NO_CHARGES


@<TRIPOS>ATOM
      1 ****        -0.4534   0.3816   3.9405 C.3            1 S1                 0.0000
      2 ****        -1.8400   0.6868   3.9331 O.3            1 S1                 0.0000
      3 ****        -2.5130   0.3036   2.7417 C.3            1 S1                 0.0000
      4 ****        -2.3140   1.3374   1.6181 C.3            1 S1                 0.0000
      5 ****        -2.9631   0.9228   0.2742 C.3            1 S1                 0.0000
      6 ****        -4.5067   0.9688   0.3078 C.3            1 S1                 0.0000
      7 ****        -4.9589   2.3175   0.3711 O.3            1 S1                 0.0000
      8 ****        -4.5695   3.0606  -0.7785 C.3            1 S1                 0.0000
      9 ****        -3.0363   3.1022  -0.8718 C.3            1 S1                 0.0000
     10 ****        -2.4906   1.7450  -0.8463 N.3            1 S1                 0.0000
     11 ****        -1.1882   1.5773  -1.2033 C.ar           1 S1                 0.0000
     12 ****        -0.3474   2.6470  -1.1985 N.ar           1 S1                 0.0000
     13 ****         0.9471   2.4950  -1.4897 C.ar           1 S1                 0.0000
     14 ****         1.6048   1.3785  -1.8043 N.ar           1 S1                 0.0000
     15 ****         0.7677   0.3028  -1.8270 C.ar           1 S1                 0.0000
     16 ****        -0.6299   0.3139  -1.5543 C.ar           1 S1                 0.0000
     17 ****        -1.1453  -0.9693  -1.6995 N.2            1 S1                 0.0000
     18 ****        -0.1099  -1.6993  -2.0102 C.2            1 S1                 0.0000
     19 ****         1.0835  -1.0188  -2.0879 N.pl3          1 S1                 0.0000
     20 ****         2.3911  -1.5841  -2.3775 C.3            1 S1                 0.0000
     21 ****         3.0642  -2.2258  -1.1397 C.3            1 S1                 0.0000
     22 ****         2.3052  -3.3610  -0.7545 O.3            1 S1                 0.0000
     23 ****         4.4872  -2.6820  -1.4227 C.3            1 S1                 0.0000
     24 ****         5.1129  -2.6941  -0.0347 C.3            1 S1                 0.0000
     25 ****         4.5490  -1.5634   0.6133 O.3            1 S1                 0.0000
     26 ****         3.2676  -1.2657   0.0602 C.3            1 S1                 0.0000
     27 ****         2.1946  -1.2886   1.1640 C.3            1 S1                 0.0000
     28 ****        -0.0268   0.6655   4.9024 H              1 S1                 0.0000
     29 ****         0.0904   0.9229   3.1669 H              1 S1                 0.0000
     30 ****        -0.2828  -0.6867   3.8037 H              1 S1                 0.0000
     31 ****        -2.1977  -0.6917   2.4236 H              1 S1                 0.0000
     32 ****        -3.5719   0.2291   2.9865 H              1 S1                 0.0000
     33 ****        -2.6945   2.3068   1.9413 H              1 S1                 0.0000
     34 ****        -1.2447   1.4740   1.4646 H              1 S1                 0.0000
     35 ****        -2.6909  -0.1144   0.0906 H              1 S1                 0.0000
     36 ****        -4.9192   0.4874  -0.5806 H              1 S1                 0.0000
     37 ****        -4.9020   0.4191   1.1608 H              1 S1                 0.0000
     38 ****        -5.0008   2.6149  -1.6764 H              1 S1                 0.0000
     39 ****        -4.9695   4.0715  -0.7017 H              1 S1                 0.0000
     40 ****        -2.7450   3.6089  -1.7929 H              1 S1                 0.0000
     41 ****        -2.6269   3.6790  -0.0418 H              1 S1                 0.0000
     42 ****         1.5429   3.3952  -1.4565 H              1 S1                 0.0000
     43 ****        -0.1853  -2.7642  -2.1762 H              1 S1                 0.0000
     44 ****         2.2796  -2.3198  -3.1751 H              1 S1                 0.0000
     45 ****         3.0225  -0.7915  -2.7809 H              1 S1                 0.0000
     46 ****         2.7142  -3.7490   0.0041 H              1 S1                 0.0000
     47 ****         4.5480  -3.6457  -1.9300 H              1 S1                 0.0000
     48 ****         5.0050  -1.9475  -2.0410 H              1 S1                 0.0000
     49 ****         4.8286  -3.5959   0.5093 H              1 S1                 0.0000
     50 ****         6.2013  -2.6405  -0.0613 H              1 S1                 0.0000
     51 ****         3.3503  -0.2459  -0.3157 H              1 S1                 0.0000
     52 ****         1.2043  -1.0703   0.7648 H              1 S1                 0.0000
     53 ****         2.4116  -0.5404   1.9261 H              1 S1                 0.0000
     54 ****         2.1502  -2.2570   1.6625 H              1 S1                 0.0000
     55 ****        -1.9446   1.6745   4.0488 LP             1 S1                 0.0000
     56 ****        -2.2696   0.2137   4.7023 LP             1 S1                 0.0000
     57 ****        -4.5700   2.7513   1.1838 LP             1 S1                 0.0000
     58 ****        -5.9568   2.3215   0.4363 LP             1 S1                 0.0000
     59 ****        -2.9262   1.3390  -1.6497 LP             1 S1                 0.0000
     60 ****        -0.7018   3.5549  -0.9750 LP             1 S1                 0.0000
     61 ****         2.5849   1.3358  -1.9984 LP             1 S1                 0.0000
     62 ****        -2.0942  -1.2654  -1.5905 LP             1 S1                 0.0000
     63 ****         2.2845  -4.0236  -1.5032 LP             1 S1                 0.0000
     64 ****         1.3714  -3.0828  -0.5297 LP             1 S1                 0.0000
     65 ****         5.1532  -0.7763   0.4892 LP             1 S1                 0.0000
     66 ****         4.4504  -1.7573   1.5893 LP             1 S1                 0.0000
@<TRIPOS>BOND
    1    1    2 1     
    2    1   28 1     
    3    1   29 1     
    4    1   30 1     
    5    2    3 1     
    6    3    4 1     
    7    3   31 1     
    8    3   32 1     
    9    4    5 1     
   10    4   33 1     
   11    4   34 1     
   12    5   10 1     
   13    5    6 1     
   14    5   35 1     
   15    6    7 1     
   16    6   36 1     
   17    6   37 1     
   18    7    8 1     
   19    8    9 1     
   20    8   38 1     
   21    8   39 1     
   22    9   10 1     
   23    9   40 1     
   24    9   41 1     
   25   10   11 1     
   26   11   16 ar    
   27   11   12 ar    
   28   12   13 ar    
   29   13   14 ar    
   30   13   42 1     
   31   14   15 ar    
   32   15   19 1     
   33   15   16 ar    
   34   16   17 1     
   35   17   18 2     
   36   18   19 1     
   37   18   43 1     
   38   19   20 1     
   39   20   21 1     
   40   20   44 1     
   41   20   45 1     
   42   21   26 1     
   43   21   22 1     
   44   21   23 1     
   45   22   46 1     
   46   23   24 1     
   47   23   47 1     
   48   23   48 1     
   49   24   25 1     
   50   24   49 1     
   51   24   50 1     
   52   25   26 1     
   53   26   27 1     
   54   26   51 1     
   55   27   52 1     
   56   27   53 1     
   57   27   54 1     
   58    2   55 1     
   59    2   56 1     
   60    7   57 1     
   61    7   58 1     
   62   10   59 1     
   63   12   60 1     
   64   14   61 1     
   65   17   62 1     
   66   22   63 1     
   67   22   64 1     
   68   25   65 1     
   69   25   66 1     
@<TRIPOS>SUBSTRUCTURE
      1 S1             1
@<TRIPOS>SET
LONE_PAIRS      STATIC     ATOMS    <user>   **** ""
12 55 56 57 58 59 60 61 62 63 64 65 66
DONOR_HYDROGENS      STATIC     ATOMS    <user>   **** ""
1 46
ATOM$BLUE        STATIC     ATOMS    COLORGROUP SYSTEM
12 55 56 57 58 59 60 61 62 63 64 65 66
ATOM$RED        STATIC     ATOMS    COLORGROUP SYSTEM
1 46
