#       Name:                AV-unprocessed.smi:349
#       Creating user name   scv26
#       Creation time:       Thu Mar 26 22:32:44 2020


#       File generated by GOLD software.
#

@<TRIPOS>MOLECULE
AV-unprocessed.smi:349
    49    50     1
SMALL
NO_CHARGES


@<TRIPOS>ATOM
      1 ****        -3.8725  -0.4927   1.5694 C.3            1 S1                 0.0000
      2 ****        -3.9840  -1.4395   0.3639 C.3            1 S1                 0.0000
      3 ****        -3.4087  -0.8680  -0.9513 C.3            1 S1                 0.0000
      4 ****        -3.6917  -1.8128  -2.1316 C.3            1 S1                 0.0000
      5 ****        -1.9014  -0.5925  -0.8440 C.2            1 S1                 0.0000
      6 ****        -1.1151  -1.5175  -0.6373 O.2            1 S1                 0.0000
      7 ****        -1.5150   0.6862  -0.9747 N.am           1 S1                 0.0000
      8 ****        -0.1385   1.1569  -0.8611 C.3            1 S1                 0.0000
      9 ****         0.3744   1.2398   0.5782 C.ar           1 S1                 0.0000
     10 ****        -0.4958   1.6542   1.6125 C.ar           1 S1                 0.0000
     11 ****        -0.0115   1.7499   2.9290 C.ar           1 S1                 0.0000
     12 ****         1.3377   1.4348   3.1655 C.ar           1 S1                 0.0000
     13 ****         2.1859   1.0481   2.1912 N.ar           1 S1                 0.0000
     14 ****         1.7239   0.9512   0.9202 C.ar           1 S1                 0.0000
     15 ****         2.6353   0.5224  -0.0608 N.3            1 S1                 0.0000
     16 ****         2.6181  -0.9215  -0.2581 C.3            1 S1                 0.0000
     17 ****         3.4637  -1.2926  -1.4883 C.3            1 S1                 0.0000
     18 ****         4.7839  -0.7770  -1.3371 O.3            1 S1                 0.0000
     19 ****         4.7954   0.6430  -1.2154 C.3            1 S1                 0.0000
     20 ****         3.9890   1.0597   0.0264 C.3            1 S1                 0.0000
     21 ****        -4.3665  -0.9200   2.4421 H              1 S1                 0.0000
     22 ****        -4.3420   0.4688   1.3602 H              1 S1                 0.0000
     23 ****        -2.8334  -0.3079   1.8424 H              1 S1                 0.0000
     24 ****        -3.4993  -2.3869   0.6042 H              1 S1                 0.0000
     25 ****        -5.0378  -1.6762   0.2130 H              1 S1                 0.0000
     26 ****        -3.9160   0.0758  -1.1592 H              1 S1                 0.0000
     27 ****        -3.2734  -1.4249  -3.0614 H              1 S1                 0.0000
     28 ****        -4.7644  -1.9350  -2.2840 H              1 S1                 0.0000
     29 ****        -3.2682  -2.8040  -1.9635 H              1 S1                 0.0000
     30 ****        -2.2248   1.3834  -1.1469 H              1 S1                 0.0000
     31 ****         0.4951   0.5305  -1.4888 H              1 S1                 0.0000
     32 ****        -0.0901   2.1576  -1.2904 H              1 S1                 0.0000
     33 ****        -1.5264   1.9016   1.4053 H              1 S1                 0.0000
     34 ****        -0.6579   2.0603   3.7364 H              1 S1                 0.0000
     35 ****         1.7480   1.4963   4.1627 H              1 S1                 0.0000
     36 ****         3.0170  -1.4113   0.6313 H              1 S1                 0.0000
     37 ****         1.5958  -1.2773  -0.3869 H              1 S1                 0.0000
     38 ****         3.5151  -2.3759  -1.5964 H              1 S1                 0.0000
     39 ****         3.0117  -0.9019  -2.4015 H              1 S1                 0.0000
     40 ****         5.8267   0.9846  -1.1267 H              1 S1                 0.0000
     41 ****         4.3844   1.0990  -2.1177 H              1 S1                 0.0000
     42 ****         3.9510   2.1469   0.1040 H              1 S1                 0.0000
     43 ****         4.4811   0.6852   0.9251 H              1 S1                 0.0000
     44 ****        -1.4572  -2.4520  -0.5387 LP             1 S1                 0.0000
     45 ****        -0.1345  -1.3342  -0.5681 LP             1 S1                 0.0000
     46 ****         3.1401   0.8362   2.4026 LP             1 S1                 0.0000
     47 ****         2.2773   0.9468  -0.8925 LP             1 S1                 0.0000
     48 ****         5.3247  -1.0363  -2.1373 LP             1 S1                 0.0000
     49 ****         5.1929  -1.1742  -0.5155 LP             1 S1                 0.0000
@<TRIPOS>BOND
    1    1    2 1     
    2    1   21 1     
    3    1   22 1     
    4    1   23 1     
    5    2    3 1     
    6    2   24 1     
    7    2   25 1     
    8    3    4 1     
    9    3    5 1     
   10    3   26 1     
   11    4   27 1     
   12    4   28 1     
   13    4   29 1     
   14    5    6 2     
   15    5    7 am    
   16    7    8 1     
   17    7   30 1     
   18    8    9 1     
   19    8   31 1     
   20    8   32 1     
   21    9   14 ar    
   22    9   10 ar    
   23   10   11 ar    
   24   10   33 1     
   25   11   12 ar    
   26   11   34 1     
   27   12   13 ar    
   28   12   35 1     
   29   13   14 ar    
   30   14   15 1     
   31   15   20 1     
   32   15   16 1     
   33   16   17 1     
   34   16   36 1     
   35   16   37 1     
   36   17   18 1     
   37   17   38 1     
   38   17   39 1     
   39   18   19 1     
   40   19   20 1     
   41   19   40 1     
   42   19   41 1     
   43   20   42 1     
   44   20   43 1     
   45    6   44 1     
   46    6   45 1     
   47   13   46 1     
   48   15   47 1     
   49   18   48 1     
   50   18   49 1     
@<TRIPOS>SUBSTRUCTURE
      1 S1             1
@<TRIPOS>SET
LONE_PAIRS      STATIC     ATOMS    <user>   **** ""
6 44 45 46 47 48 49
DONOR_HYDROGENS      STATIC     ATOMS    <user>   **** ""
1 30
ATOM$BLUE        STATIC     ATOMS    COLORGROUP SYSTEM
6 44 45 46 47 48 49
ATOM$RED        STATIC     ATOMS    COLORGROUP SYSTEM
1 30
