AV-unprocessed.smi:2819|AV-procd|sdf|10852|dock1
  -GOLD-   2272015293D 1   1.00000     0.00000
 Structure written by MMmdl.
 49 50  0  0  0  0  0  0  0  0  1 V2000
  145.4218  128.9994  151.4373 C   0  0  0  0  0  0  0  0  0  0  0  0
  146.0885  130.1231  152.0866 N   0  0  0  0  0  0  0  0  0  0  0  0
  147.2601  129.8958  152.9231 C   0  0  0  0  0  0  0  0  0  0  0  0
  145.6437  131.4405  151.8374 C   0  0  0  0  0  0  0  0  0  0  0  0
  144.4834  131.7069  151.0708 C   0  0  0  0  0  0  0  0  0  0  0  0
  144.1359  133.0595  150.8914 C   0  0  0  0  0  0  0  0  0  0  0  0
  144.8692  134.0590  151.4217 N   0  0  0  0  0  0  0  0  0  0  0  0
  145.9510  133.7156  152.1322 C   0  0  0  0  0  0  0  0  0  0  0  0
  146.7459  134.6871  152.7010 N   0  0  0  0  0  0  0  0  0  0  0  0
  146.7959  135.1582  153.9616 C   0  0  0  0  0  0  0  0  0  0  0  0
  146.0894  134.7770  154.8958 O   0  0  0  0  0  0  0  0  0  0  0  0
  147.7364  136.1060  154.0857 N   0  0  0  0  0  0  0  0  0  0  0  0
  148.0895  136.8040  155.3224 C   0  0  0  0  0  0  0  0  0  0  0  0
  149.6086  136.7147  155.6553 C   0  0  0  0  0  0  0  0  0  0  0  0
  150.0361  135.2424  155.4415 C   0  0  0  0  0  0  0  0  0  0  0  0
  150.3472  137.5616  154.5873 C   0  0  0  0  0  0  0  0  0  0  0  0
  149.8996  137.2118  157.0300 N   0  0  0  0  0  0  0  0  0  0  0  0
  151.3249  137.3551  157.3478 C   0  0  0  0  0  0  0  0  0  0  0  0
  151.5482  137.9859  158.7329 C   0  0  0  0  0  0  0  0  0  0  0  0
  150.8908  137.2085  159.7261 O   0  0  0  0  0  0  0  0  0  0  0  0
  149.4934  137.0939  159.4881 C   0  0  0  0  0  0  0  0  0  0  0  0
  149.2536  136.4553  158.1096 C   0  0  0  0  0  0  0  0  0  0  0  0
  146.3645  132.4651  152.3577 N   0  0  0  0  0  0  0  0  0  0  0  0
  144.3665  128.9705  151.7107 H   0  0  0  0  0  0  0  0  0  0  0  0
  145.8673  128.0484  151.7298 H   0  0  0  0  0  0  0  0  0  0  0  0
  145.4975  129.0846  150.3528 H   0  0  0  0  0  0  0  0  0  0  0  0
  148.1332  130.3984  152.5057 H   0  0  0  0  0  0  0  0  0  0  0  0
  147.4934  128.8338  152.9999 H   0  0  0  0  0  0  0  0  0  0  0  0
  147.0898  130.2726  153.9320 H   0  0  0  0  0  0  0  0  0  0  0  0
  143.8755  130.9295  150.6335 H   0  0  0  0  0  0  0  0  0  0  0  0
  143.2645  133.3401  150.3184 H   0  0  0  0  0  0  0  0  0  0  0  0
  147.4069  135.1049  152.0631 H   0  0  0  0  0  0  0  0  0  0  0  0
  148.2733  136.3495  153.2661 H   0  0  0  0  0  0  0  0  0  0  0  0
  147.7731  137.8416  155.2190 H   0  0  0  0  0  0  0  0  0  0  0  0
  147.4976  136.4255  156.1578 H   0  0  0  0  0  0  0  0  0  0  0  0
  149.8268  134.9193  154.4210 H   0  0  0  0  0  0  0  0  0  0  0  0
  149.5015  134.5591  156.1012 H   0  0  0  0  0  0  0  0  0  0  0  0
  151.1034  135.0946  155.6037 H   0  0  0  0  0  0  0  0  0  0  0  0
  150.0007  137.3259  153.5803 H   0  0  0  0  0  0  0  0  0  0  0  0
  151.4222  137.3816  154.5878 H   0  0  0  0  0  0  0  0  0  0  0  0
  150.1933  138.6302  154.7415 H   0  0  0  0  0  0  0  0  0  0  0  0
  151.8176  136.3833  157.3206 H   0  0  0  0  0  0  0  0  0  0  0  0
  151.8257  137.9848  156.6148 H   0  0  0  0  0  0  0  0  0  0  0  0
  152.6131  138.0282  158.9620 H   0  0  0  0  0  0  0  0  0  0  0  0
  151.1743  139.0107  158.7554 H   0  0  0  0  0  0  0  0  0  0  0  0
  149.0483  136.4806  160.2718 H   0  0  0  0  0  0  0  0  0  0  0  0
  149.0241  138.0776  159.5454 H   0  0  0  0  0  0  0  0  0  0  0  0
  148.1779  136.3953  157.9555 H   0  0  0  0  0  0  0  0  0  0  0  0
  149.6285  135.4320  158.1288 H   0  0  0  0  0  0  0  0  0  0  0  0
  1  2  1  0  0  0  0
  1 24  1  0  0  0  0
  1 25  1  0  0  0  0
  1 26  1  0  0  0  0
  2  3  1  0  0  0  0
  2  4  1  0  0  0  0
  3 27  1  0  0  0  0
  3 28  1  0  0  0  0
  3 29  1  0  0  0  0
  4 23  1  0  0  0  0
  4  5  2  0  0  0  0
  5  6  1  0  0  0  0
  5 30  1  0  0  0  0
  6  7  2  0  0  0  0
  6 31  1  0  0  0  0
  7  8  1  0  0  0  0
  8  9  1  0  0  0  0
  8 23  2  0  0  0  0
  9 10  1  0  0  0  0
  9 32  1  0  0  0  0
 10 11  2  0  0  0  0
 10 12  1  0  0  0  0
 12 13  1  0  0  0  0
 12 33  1  0  0  0  0
 13 14  1  0  0  0  0
 13 34  1  0  0  0  0
 13 35  1  0  0  0  0
 14 15  1  0  0  0  0
 14 16  1  0  0  0  0
 14 17  1  0  0  0  0
 15 36  1  0  0  0  0
 15 37  1  0  0  0  0
 15 38  1  0  0  0  0
 16 39  1  0  0  0  0
 16 40  1  0  0  0  0
 16 41  1  0  0  0  0
 17 22  1  0  0  0  0
 17 18  1  0  0  0  0
 18 19  1  0  0  0  0
 18 42  1  0  0  0  0
 18 43  1  0  0  0  0
 19 20  1  0  0  0  0
 19 44  1  0  0  0  0
 19 45  1  0  0  0  0
 20 21  1  0  0  0  0
 21 22  1  0  0  0  0
 21 46  1  0  0  0  0
 21 47  1  0  0  0  0
 22 48  1  0  0  0  0
 22 49  1  0  0  0  0
M  END
> <s_m_source_file>
AV-unprocessed.smi

> <i_m_source_file_index>
2819

> <i_lp_mmshare_version>
43012

> <i_f3d_flags>
0

> <s_epik_input>
W0NIM11OKFtDSDNdKWMxW2NIXVtjSF1uYyhuMSlbTkhdQyg9TylbTkhdW0NIMl1DKFtDSDNdKShbQ0gzXSlOMltDSDJdW0NIMl1PW0NIMl1bQ0gyXTI=

> <s_epik_cmdline>
J2VwaWtfcHl0aG9uJywgJy1waCcsICc3LjAnLCAnLXRuJywgJzgnLCAnLW1hJywgJzIwMCcsICctbWV0YWxfYmluZGluZycsICctaW1hZScsICc8aW5maWxlLm1hZT4nLCAnLW9tYWUnLCAnPG91dGZpbGUubWFlPic=

> <r_lp_tautomer_probability>
1

> <r_epik_Ionization_Penalty>
1.38931

> <r_epik_Ionization_Penalty_Charging>
0

> <r_epik_Ionization_Penalty_Neutral>
1.38931

> <r_epik_State_Penalty>
1.41304

> <r_epik_Charging_Adjusted_Penalty>
1.41304

> <i_epik_Tot_Q>
0

> <i_epik_Tot_abs_Q>
0

> <r_epik_Metal_State_Penalty>
0.631353

> <b_epik_Metal_Only>
0

> <s_lp_Force_Field>
OPLS_2005

> <r_lp_Energy>
40.3447

> <b_lp_Chiralities_Consistent>
1

> <s_lp_Variant>
AV-unprocessed.smi:2819-3

> <Gold.Version>
5.8.1

> <Gold.Id.Protein>
6NUR|6NUR_protein|mol2

> <Gold.PLP.Fitness>
39.7737

> <Gold.PLP.PLP>
-29.6176

> <Gold.PLP.part.hbond>
-2.9753

> <Gold.PLP.part.metal>
0.0000

> <Gold.PLP.part.buried>
-5.7457

> <Gold.PLP.part.nonpolar>
-21.4538

> <Gold.PLP.part.repulsive>
0.2963

> <Gold.PLP.ligand.clash>
0.0000

> <Gold.PLP.ligand.torsion>
0.9070

> <Gold.PLP.Chemscore.Hbond>
2.9760

> <Gold.PLP.Chemscore.CHOScore>
0.9491

> <Gold.PLP.Chemscore.Metal>
0.0000

> <Gold.Chemscore.Hbonds>
donor molecule, donor type, donor heavy atom, donor atom, acceptor molecule, acceptor atom, score
      L1  H     9    32       P1  7948  0.96
      L1  H    12    33       P1  7948  1.00
      P1  H  6896  6908       L1    20  0.76
      L1  C     6    31       P1 10186  0.78

> <Gold.PLP.Chemscore.Internal.Correction>
0.1946

> <Gold.Rescore>
     Score         DG    S(hbond)    S(metal)    S(lipo)     H(rot)  DE(clash)    DE(int)     intcor
     16.62     -17.57       2.53        0.00      64.20       1.51       0.02       0.93       ----

> <Gold.Chemscore.Fitness>
16.6173

> <Gold.Chemscore.DG>
-17.5749

> <Gold.Chemscore.ZeroCoef>
-5.4800

> <Gold.Chemscore.Hbond>
2.5276

> <Gold.Chemscore.Metal>
0.0000

> <Gold.Chemscore.Lipo>
64.2028

> <Gold.Chemscore.Internal_Hbond>
0.0000

> <Gold.Chemscore.DEClash>
0.0234

> <Gold.Chemscore.DEInternal>
0.9342

> <Gold.Chemscore.Rot>
1.5075

> <Gold.Chemscore.Internal.Correction>
   9.000000E+99

> <Gold.Chemscore.Hbonds>
donor molecule, donor type, donor heavy atom, donor atom, acceptor molecule, acceptor atom, score
      L1  H     9    32       P1  7948  0.89
      L1  H    12    33       P1  7948  0.96
      P1  H  6896  6908       L1    20  0.22

> <Gold.Chemscore.Hbond.Weighted>
-8.4423

> <Gold.Chemscore.Metal.Weighted>
-0.0000

> <Gold.Chemscore.Lipo.Weighted>
-7.5117

> <Gold.Chemscore.Internal_Hbond.Weighted>
0.0000

> <Gold.Chemscore.DEClash.Weighted>
0.0234

> <Gold.Chemscore.DEInternal.Weighted>
0.9342

> <Gold.Chemscore.Rot.Weighted>
3.8591

> <Gold.Chemscore.Internal.Correction.Weighted>
   9.000000E+99

> <Gold.Protein.RotatedTorsions>
[ 6907 6896 6895 6894 ] final -126.98 input  -60.11 | X-H torsion
[ 7974 7965 7964 7962 ] final -125.60 input  175.53 | X-H torsion
[ 8008 7997 7996 7995 ] final  -43.02 input   59.86 | X-H torsion
[ 10167 10162 10161 10158 ] final    4.43 input  -65.29 | X-H torsion
[ 10718 10713 10712 10709 ] final -135.33 input   66.30 | X-H torsion
[ 10763 10752 10751 10750 ] final   -7.54 input  -60.55 | X-H torsion
[ 11005 11000 10999 10996 ] final  -89.07 input  -57.11 | X-H torsion

> <Gold.Protein.ActiveResidues>
 VAL166  LYS551  ARG553  GLY616  TRP617  ASP618  TYR619  PRO620  LYS621  CYS622 
 ASP623  PHE694  ASN695  SER759  ASP760  ASP761  ALA762  ILE779  LEU786  VAL792 
 PHE793  MET794  SER795  GLU796  ALA797  LYS798  CYS799  TRP800  GLU811  SER814 

> <Gold.Protein.RotatedAtoms>
  150.9026  133.7099  159.2874 H   0  0  0  0  0  0  0  0  0  0  0  0  # atno 6907 bound_to 6896
  151.4613  135.1037  159.9735 H   0  0  0  0  0  0  0  0  0  0  0  0  # atno 6908 bound_to 6896
  152.4885  133.8388  159.7197 H   0  0  0  0  0  0  0  0  0  0  0  0  # atno 6909 bound_to 6896
  144.9960  140.7776  143.4525 H   0  0  0  0  0  0  0  0  0  0  0  0  # atno 7974 bound_to 7965
  154.3997  140.1458  156.3450 H   0  0  0  0  0  0  0  0  0  0  0  0  # atno 8008 bound_to 7997
  155.8322  140.3465  155.5558 H   0  0  0  0  0  0  0  0  0  0  0  0  # atno 8009 bound_to 7997
  155.8176  140.0893  157.1858 H   0  0  0  0  0  0  0  0  0  0  0  0  # atno 8010 bound_to 7997
  140.6535  143.7486  150.7614 H   0  0  0  0  0  0  0  0  0  0  0  0  # atno 10167 bound_to 10162
  156.2650  130.7232  151.1179 H   0  0  0  0  0  0  0  0  0  0  0  0  # atno 10718 bound_to 10713
  153.4277  135.7011  153.6251 H   0  0  0  0  0  0  0  0  0  0  0  0  # atno 10763 bound_to 10752
  153.4679  135.3721  155.2375 H   0  0  0  0  0  0  0  0  0  0  0  0  # atno 10764 bound_to 10752
  154.8724  135.4036  154.3656 H   0  0  0  0  0  0  0  0  0  0  0  0  # atno 10765 bound_to 10752
  141.1591  133.7608  156.9542 H   0  0  0  0  0  0  0  0  0  0  0  0  # atno 11005 bound_to 11000
  145.2220  139.2155  143.5088 LP  0  0  0  0  0  0  0  0  0  0  0  0  # atno 17320 bound_to 7965
  146.3442  140.2079  142.8590 LP  0  0  0  0  0  0  0  0  0  0  0  0  # atno 17321 bound_to 7965
  140.1141  143.4672  152.2352 LP  0  0  0  0  0  0  0  0  0  0  0  0  # atno 17342 bound_to 10162
  139.5753  144.7484  151.3780 LP  0  0  0  0  0  0  0  0  0  0  0  0  # atno 17343 bound_to 10162
  157.7264  131.0646  150.5911 LP  0  0  0  0  0  0  0  0  0  0  0  0  # atno 17370 bound_to 10713
  156.6002  130.4352  149.5900 LP  0  0  0  0  0  0  0  0  0  0  0  0  # atno 17371 bound_to 10713
  140.1237  134.9401  157.2239 LP  0  0  0  0  0  0  0  0  0  0  0  0  # atno 17394 bound_to 11000
  140.3040  134.3099  155.7283 LP  0  0  0  0  0  0  0  0  0  0  0  0  # atno 17395 bound_to 11000

$$$$
