AV-unprocessed.smi:287|AV-procd|sdf|2182|dock5
  -GOLD-   2262021553D 1   1.00000     0.00000
 Structure written by MMmdl.
 55 58  0  0  0  0  0  0  0  0  1 V2000
  145.7145  133.9608  162.3276 C   0  0  0  0  0  0  0  0  0  0  0  0
  144.6011  134.3993  161.4393 C   0  0  0  0  0  0  0  0  0  0  0  0
  144.3711  135.5193  160.6946 C   0  0  0  0  0  0  0  0  0  0  0  0
  143.1134  135.3474  160.0430 C   0  0  0  0  0  0  0  0  0  0  0  0
  142.4481  136.3457  159.1046 C   0  0  2  0  0  0  0  0  0  0  0  0
  142.2777  137.6974  159.8177 C   0  0  0  0  0  0  0  0  0  0  0  0
  141.1426  135.9561  158.7240 O   0  0  0  0  0  0  0  0  0  0  0  0
  143.2354  136.5370  157.7880 C   0  0  0  0  0  0  0  0  0  0  0  0
  143.0013  135.4699  156.8234 N   0  0  0  0  0  0  0  0  0  0  0  0
  143.9526  135.1187  155.9327 C   0  0  0  0  0  0  0  0  0  0  0  0
  145.2041  134.9941  156.4357 N   0  0  0  0  0  0  0  0  0  0  0  0
  146.2196  134.6560  155.6361 C   0  0  0  0  0  0  0  0  0  0  0  0
  146.2013  134.4001  154.3268 N   0  0  0  0  0  0  0  0  0  0  0  0
  144.9427  134.5188  153.8134 C   0  0  0  0  0  0  0  0  0  0  0  0
  143.7693  134.8723  154.5390 C   0  0  0  0  0  0  0  0  0  0  0  0
  142.6849  134.8917  153.6678 N   0  0  0  0  0  0  0  0  0  0  0  0
  143.1917  134.5758  152.5070 C   0  0  0  0  0  0  0  0  0  0  0  0
  144.5465  134.3226  152.5085 N   0  0  0  0  0  0  0  0  0  0  0  0
  145.4496  133.9523  151.3718 C   0  0  2  0  0  0  0  0  0  0  0  0
  144.7019  133.9800  150.1931 O   0  0  0  0  0  0  0  0  0  0  0  0
  144.2417  132.6665  149.8924 C   0  0  1  0  0  0  0  0  0  0  0  0
  143.7791  132.5551  148.4291 C   0  0  0  0  0  0  0  0  0  0  0  0
  143.0528  133.7090  148.0628 O   0  0  0  0  0  0  0  0  0  0  0  0
  145.4594  131.8163  150.2729 C   0  0  1  0  0  0  0  0  0  0  0  0
  146.4235  131.8358  149.2321 O   0  0  0  0  0  0  0  0  0  0  0  0
  145.9516  132.5053  151.5458 C   0  0  1  0  0  0  0  0  0  0  0  0
  147.3544  132.4139  151.7118 O   0  0  0  0  0  0  0  0  0  0  0  0
  142.6651  134.1188  160.4659 C   0  0  0  0  0  0  0  0  0  0  0  0
  141.4342  133.3157  160.2032 C   0  0  0  0  0  0  0  0  0  0  0  0
  143.5631  133.5364  161.3084 O   0  0  0  0  0  0  0  0  0  0  0  0
  146.2284  134.7162  151.3709 H   0  0  0  0  0  0  0  0  0  0  0  0
  143.4207  132.4074  150.5640 H   0  0  0  0  0  0  0  0  0  0  0  0
  145.1845  130.7780  150.4607 H   0  0  0  0  0  0  0  0  0  0  0  0
  145.4645  132.0525  152.4111 H   0  0  0  0  0  0  0  0  0  0  0  0
  146.5732  134.6256  162.2332 H   0  0  0  0  0  0  0  0  0  0  0  0
  146.0396  132.9519  162.0723 H   0  0  0  0  0  0  0  0  0  0  0  0
  145.3989  133.9617  163.3709 H   0  0  0  0  0  0  0  0  0  0  0  0
  145.0347  136.3679  160.6192 H   0  0  0  0  0  0  0  0  0  0  0  0
  143.2411  138.1081  160.1221 H   0  0  0  0  0  0  0  0  0  0  0  0
  141.6656  137.5979  160.7151 H   0  0  0  0  0  0  0  0  0  0  0  0
  141.7990  138.4339  159.1710 H   0  0  0  0  0  0  0  0  0  0  0  0
  141.2099  135.3335  158.0164 H   0  0  0  0  0  0  0  0  0  0  0  0
  143.0130  137.5081  157.3439 H   0  0  0  0  0  0  0  0  0  0  0  0
  144.3016  136.5305  158.0188 H   0  0  0  0  0  0  0  0  0  0  0  0
  142.1265  134.9752  156.9238 H   0  0  0  0  0  0  0  0  0  0  0  0
  147.1851  134.5803  156.1142 H   0  0  0  0  0  0  0  0  0  0  0  0
  142.5812  134.5209  151.6173 H   0  0  0  0  0  0  0  0  0  0  0  0
  144.6223  132.4096  147.7533 H   0  0  0  0  0  0  0  0  0  0  0  0
  143.1138  131.6993  148.3099 H   0  0  0  0  0  0  0  0  0  0  0  0
  142.7012  133.5791  147.1953 H   0  0  0  0  0  0  0  0  0  0  0  0
  147.2061  131.4079  149.5455 H   0  0  0  0  0  0  0  0  0  0  0  0
  147.7004  131.8673  151.0222 H   0  0  0  0  0  0  0  0  0  0  0  0
  140.5387  133.9053  160.3998 H   0  0  0  0  0  0  0  0  0  0  0  0
  141.3968  132.4301  160.8384 H   0  0  0  0  0  0  0  0  0  0  0  0
  141.4032  132.9857  159.1648 H   0  0  0  0  0  0  0  0  0  0  0  0
  1  2  1  0  0  0  0
  1 35  1  0  0  0  0
  1 36  1  0  0  0  0
  1 37  1  0  0  0  0
  2 30  1  0  0  0  0
  2  3  2  0  0  0  0
  3  4  1  0  0  0  0
  3 38  1  0  0  0  0
  4  5  1  0  0  0  0
  4 28  2  0  0  0  0
  5  6  1  0  0  0  0
  5  7  1  0  0  0  0
  5  8  1  0  0  0  0
  6 39  1  0  0  0  0
  6 40  1  0  0  0  0
  6 41  1  0  0  0  0
  7 42  1  0  0  0  0
  8  9  1  0  0  0  0
  8 43  1  0  0  0  0
  8 44  1  0  0  0  0
  9 10  1  0  0  0  0
  9 45  1  0  0  0  0
 10 15  1  0  0  0  0
 10 11  2  0  0  0  0
 11 12  1  0  0  0  0
 12 13  2  0  0  0  0
 12 46  1  0  0  0  0
 13 14  1  0  0  0  0
 14 18  1  0  0  0  0
 14 15  2  0  0  0  0
 15 16  1  0  0  0  0
 16 17  2  0  0  0  0
 17 18  1  0  0  0  0
 17 47  1  0  0  0  0
 18 19  1  0  0  0  0
 19 31  1  0  0  0  0
 19 26  1  0  0  0  0
 19 20  1  0  0  0  0
 20 21  1  0  0  0  0
 21 32  1  0  0  0  0
 21 22  1  0  0  0  0
 21 24  1  0  0  0  0
 22 23  1  0  0  0  0
 22 48  1  0  0  0  0
 22 49  1  0  0  0  0
 23 50  1  0  0  0  0
 24 33  1  0  0  0  0
 24 25  1  0  0  0  0
 24 26  1  0  0  0  0
 25 51  1  0  0  0  0
 26 34  1  0  0  0  0
 26 27  1  0  0  0  0
 27 52  1  0  0  0  0
 28 29  1  0  0  0  0
 28 30  1  0  0  0  0
 29 53  1  0  0  0  0
 29 54  1  0  0  0  0
 29 55  1  0  0  0  0
M  END
> <s_m_source_file>
AV-unprocessed.smi

> <i_m_source_file_index>
287

> <i_lp_mmshare_version>
43012

> <i_f3d_flags>
0

> <s_epik_input>
W0NIM11jMVtjSF1jKGMobzEpW0NIM10pW0NAQF0oW0NIM10pKFtPSF0pW0NIMl1bTkhdYyhuW2NIXW4yKWMoYzIzKW5bY0hdbjNbQ0BASF00T1tDQEhdKFtDSDJdW09IXSlbQ0BASF0oW09IXSlbQ0BIXTRbT0hd

> <s_epik_cmdline>
J2VwaWtfcHl0aG9uJywgJy1waCcsICc3LjAnLCAnLXRuJywgJzgnLCAnLW1hJywgJzIwMCcsICctbWV0YWxfYmluZGluZycsICctaW1hZScsICc8aW5maWxlLm1hZT4nLCAnLW9tYWUnLCAnPG91dGZpbGUubWFlPic=

> <r_lp_tautomer_probability>
1

> <r_epik_Ionization_Penalty>
0.000992612

> <r_epik_Ionization_Penalty_Charging>
0

> <r_epik_Ionization_Penalty_Neutral>
0.000992612

> <r_epik_State_Penalty>
-0

> <r_epik_Charging_Adjusted_Penalty>
0

> <i_epik_Tot_Q>
0

> <i_epik_Tot_abs_Q>
0

> <r_epik_Metal_State_Penalty>
-0

> <b_epik_Metal_Only>
0

> <s_epik_Chemistry_Notes>
This compound contains an acetal/aminal-like group ( X-CH(R)-Y where X, Y are N, S, or O) that may be acid/base labile, releasing an aldehyde.

> <s_lp_Force_Field>
OPLS_2005

> <r_lp_Energy>
45.3255

> <b_lp_Chiralities_Consistent>
1

> <s_lp_Variant>
AV-unprocessed.smi:287-6

> <Gold.Version>
5.8.1

> <Gold.Id.Protein>
6NUR|6NUR_protein|mol2

> <Gold.PLP.Fitness>
51.5526

> <Gold.PLP.PLP>
-38.1367

> <Gold.PLP.part.hbond>
-7.6442

> <Gold.PLP.part.metal>
0.0000

> <Gold.PLP.part.buried>
-7.8341

> <Gold.PLP.part.nonpolar>
-23.2944

> <Gold.PLP.part.repulsive>
1.1799

> <Gold.PLP.ligand.clash>
0.0000

> <Gold.PLP.ligand.torsion>
1.2145

> <Gold.PLP.Chemscore.Hbond>
4.9500

> <Gold.PLP.Chemscore.CHOScore>
0.3128

> <Gold.PLP.Chemscore.Metal>
0.0000

> <Gold.Chemscore.Hbonds>
donor molecule, donor type, donor heavy atom, donor atom, acceptor molecule, acceptor atom, score
      L1  H     7    42       P1 11000  0.99
      L1  H     9    45       P1 11000  0.85
      L1  H    23    50       P1 10195  1.00
      L1  H    25    51       P1 10747  1.00
      L1  H    27    52       P1 10747  1.00
      L1  C    17    47       P1 10186  0.36

> <Gold.PLP.Chemscore.Internal.Correction>
0.0564

> <Gold.Rescore>
     Score         DG    S(hbond)    S(metal)    S(lipo)     H(rot)  DE(clash)    DE(int)     intcor
     13.04     -14.95       4.35        0.00      71.99       5.27       0.14       1.76       ----

> <Gold.Chemscore.Fitness>
13.0442

> <Gold.Chemscore.DG>
-14.9460

> <Gold.Chemscore.ZeroCoef>
-5.4800

> <Gold.Chemscore.Hbond>
4.3494

> <Gold.Chemscore.Metal>
0.0000

> <Gold.Chemscore.Lipo>
71.9898

> <Gold.Chemscore.Internal_Hbond>
0.0000

> <Gold.Chemscore.DEClash>
0.1446

> <Gold.Chemscore.DEInternal>
1.7572

> <Gold.Chemscore.Rot>
5.2672

> <Gold.Chemscore.Internal.Correction>
   9.000000E+99

> <Gold.Chemscore.Hbonds>
donor molecule, donor type, donor heavy atom, donor atom, acceptor molecule, acceptor atom, score
      L1  H     7    42       P1 11000  0.24
      L1  H     9    45       P1 11000  0.14
      L1  H    23    50       P1 10195  0.98
      L1  H    25    51       P1 10747  0.98
      L1  H    27    52       P1 10747  0.97

> <Gold.Chemscore.Hbond.Weighted>
-14.5271

> <Gold.Chemscore.Metal.Weighted>
-0.0000

> <Gold.Chemscore.Lipo.Weighted>
-8.4228

> <Gold.Chemscore.Internal_Hbond.Weighted>
0.0000

> <Gold.Chemscore.DEClash.Weighted>
0.1446

> <Gold.Chemscore.DEInternal.Weighted>
1.7572

> <Gold.Chemscore.Rot.Weighted>
13.4839

> <Gold.Chemscore.Internal.Correction.Weighted>
   9.000000E+99

> <Gold.Protein.RotatedTorsions>
[ 6907 6896 6895 6894 ] final  177.13 input  -60.11 | X-H torsion
[ 7974 7965 7964 7962 ] final -171.98 input  175.53 | X-H torsion
[ 8008 7997 7996 7995 ] final   -0.31 input   59.86 | X-H torsion
[ 10167 10162 10161 10158 ] final  168.56 input  -65.29 | X-H torsion
[ 10718 10713 10712 10709 ] final -104.49 input   66.30 | X-H torsion
[ 10763 10752 10751 10750 ] final  -23.16 input  -60.55 | X-H torsion
[ 11005 11000 10999 10996 ] final   74.06 input  -57.11 | X-H torsion

> <Gold.Protein.ActiveResidues>
 VAL166  LYS551  ARG553  GLY616  TRP617  ASP618  TYR619  PRO620  LYS621  CYS622 
 ASP623  PHE694  ASN695  SER759  ASP760  ASP761  ALA762  ILE779  LEU786  VAL792 
 PHE793  MET794  SER795  GLU796  ALA797  LYS798  CYS799  TRP800  GLU811  SER814 

> <Gold.Protein.RotatedAtoms>
  151.7089  133.3312  159.3285 H   0  0  0  0  0  0  0  0  0  0  0  0  # atno 6907 bound_to 6896
  150.7702  134.6549  159.6318 H   0  0  0  0  0  0  0  0  0  0  0  0  # atno 6908 bound_to 6896
  152.3723  134.6718  160.0223 H   0  0  0  0  0  0  0  0  0  0  0  0  # atno 6909 bound_to 6896
  144.7151  140.1841  143.6355 H   0  0  0  0  0  0  0  0  0  0  0  0  # atno 7974 bound_to 7965
  154.6596  140.2587  155.7124 H   0  0  0  0  0  0  0  0  0  0  0  0  # atno 8008 bound_to 7997
  156.2612  140.2851  156.0984 H   0  0  0  0  0  0  0  0  0  0  0  0  # atno 8009 bound_to 7997
  155.1329  140.0379  157.2769 H   0  0  0  0  0  0  0  0  0  0  0  0  # atno 8010 bound_to 7997
  139.4971  144.3801  151.9631 H   0  0  0  0  0  0  0  0  0  0  0  0  # atno 10167 bound_to 10162
  156.0306  130.5518  150.7404 H   0  0  0  0  0  0  0  0  0  0  0  0  # atno 10718 bound_to 10713
  153.6634  135.6975  153.5170 H   0  0  0  0  0  0  0  0  0  0  0  0  # atno 10763 bound_to 10752
  153.2614  135.4243  155.0897 H   0  0  0  0  0  0  0  0  0  0  0  0  # atno 10764 bound_to 10752
  154.8446  135.3556  154.6178 H   0  0  0  0  0  0  0  0  0  0  0  0  # atno 10765 bound_to 10752
  139.9409  134.7401  156.1102 H   0  0  0  0  0  0  0  0  0  0  0  0  # atno 11005 bound_to 11000
  145.8829  139.2333  143.1595 LP  0  0  0  0  0  0  0  0  0  0  0  0  # atno 17320 bound_to 7965
  145.9977  140.8547  143.0034 LP  0  0  0  0  0  0  0  0  0  0  0  0  # atno 17321 bound_to 7965
  140.3237  144.3397  150.6003 LP  0  0  0  0  0  0  0  0  0  0  0  0  # atno 17342 bound_to 10162
  140.5701  143.2182  151.7614 LP  0  0  0  0  0  0  0  0  0  0  0  0  # atno 17343 bound_to 10162
  157.4974  131.0916  151.0355 LP  0  0  0  0  0  0  0  0  0  0  0  0  # atno 17370 bound_to 10713
  157.0745  130.5878  149.5409 LP  0  0  0  0  0  0  0  0  0  0  0  0  # atno 17371 bound_to 10713
  141.1043  133.6666  156.2827 LP  0  0  0  0  0  0  0  0  0  0  0  0  # atno 17394 bound_to 11000
  140.5954  134.5608  157.5507 LP  0  0  0  0  0  0  0  0  0  0  0  0  # atno 17395 bound_to 11000

$$$$
