AV-unprocessed.smi:249|AV-procd|sdf|1921|dock5
  -GOLD-   2262021 23D 1   1.00000     0.00000
 Structure written by MMmdl.
 64 67  0  0  0  0  0  0  0  0  2 V2000
  144.2006  131.7173  150.7314 C   0  0  0  0  0  0  0  0  0  0  0  0
  145.6353  131.4284  150.2591 C   0  0  0  0  0  0  0  0  0  0  0  0
  146.6590  131.5661  151.3362 N   0  3  1  0  0  0  0  0  0  0  0  0
  146.8097  132.9837  151.7781 C   0  0  0  0  0  0  0  0  0  0  0  0
  147.9395  133.1564  152.8028 C   0  0  0  0  0  0  0  0  0  0  0  0
  147.6942  132.2584  154.0202 C   0  0  2  0  0  0  0  0  0  0  0  0
  148.7256  132.4204  155.0486 N   0  0  0  0  0  0  0  0  0  0  0  0
  150.0141  131.7392  154.9457 C   0  0  0  0  0  0  0  0  0  0  0  0
  148.6045  133.4318  155.9469 C   0  0  0  0  0  0  0  0  0  0  0  0
  147.9220  133.2050  157.1002 N   0  0  0  0  0  0  0  0  0  0  0  0
  147.7924  134.1732  158.0117 C   0  0  0  0  0  0  0  0  0  0  0  0
  148.2514  135.4250  157.9697 N   0  0  0  0  0  0  0  0  0  0  0  0
  148.9207  135.6671  156.8069 C   0  0  0  0  0  0  0  0  0  0  0  0
  149.1451  134.7364  155.7524 C   0  0  0  0  0  0  0  0  0  0  0  0
  149.8588  135.3502  154.7283 N   0  0  0  0  0  0  0  0  0  0  0  0
  150.0568  136.5660  155.1582 C   0  0  0  0  0  0  0  0  0  0  0  0
  149.5103  136.8479  156.3896 N   0  0  0  0  0  0  0  0  0  0  0  0
  149.5816  138.1122  157.1004 C   0  0  0  0  0  0  0  0  0  0  0  0
  150.1871  139.2843  156.2838 C   0  0  1  0  0  0  0  0  0  0  0  0
  149.3616  139.4815  154.9911 C   0  0  0  0  0  0  0  0  0  0  0  0
  150.1343  140.0689  153.9638 O   0  0  0  0  0  0  0  0  0  0  0  0
  150.3620  140.6074  157.0860 C   0  0  2  0  0  0  0  0  0  0  0  0
  151.0031  141.7432  156.3034 C   0  0  0  0  0  0  0  0  0  0  0  0
  151.4501  142.6843  157.4120 C   0  0  0  0  0  0  0  0  0  0  0  0
  151.9088  141.8219  158.4413 O   0  0  0  0  0  0  0  0  0  0  0  0
  151.3061  140.5388  158.2981 C   0  0  0  0  0  0  0  0  0  0  0  0
  147.5620  130.8044  153.5498 C   0  0  0  0  0  0  0  0  0  0  0  0
  146.4403  130.6443  152.5004 C   0  0  2  0  0  0  0  0  0  0  0  0
  146.3569  129.1581  152.0940 C   0  0  0  0  0  0  0  0  0  0  0  0
  143.5233  131.7615  149.8782 H   0  0  0  0  0  0  0  0  0  0  0  0
  144.1387  132.6750  151.2489 H   0  0  0  0  0  0  0  0  0  0  0  0
  143.8164  130.9436  151.3952 H   0  0  0  0  0  0  0  0  0  0  0  0
  145.6959  130.4345  149.8136 H   0  0  0  0  0  0  0  0  0  0  0  0
  145.8293  132.1393  149.4594 H   0  0  0  0  0  0  0  0  0  0  0  0
  147.0357  133.6297  150.9317 H   0  0  0  0  0  0  0  0  0  0  0  0
  145.8664  133.3350  152.1996 H   0  0  0  0  0  0  0  0  0  0  0  0
  148.8942  132.9174  152.3325 H   0  0  0  0  0  0  0  0  0  0  0  0
  147.9973  134.2001  153.1142 H   0  0  0  0  0  0  0  0  0  0  0  0
  146.7318  132.5635  154.4294 H   0  0  0  0  0  0  0  0  0  0  0  0
  150.4151  131.5196  155.9359 H   0  0  0  0  0  0  0  0  0  0  0  0
  150.7336  132.3612  154.4126 H   0  0  0  0  0  0  0  0  0  0  0  0
  149.9234  130.7950  154.4101 H   0  0  0  0  0  0  0  0  0  0  0  0
  147.2417  133.9068  158.9017 H   0  0  0  0  0  0  0  0  0  0  0  0
  150.5973  137.3000  154.5780 H   0  0  0  0  0  0  0  0  0  0  0  0
  148.5670  138.3622  157.4126 H   0  0  0  0  0  0  0  0  0  0  0  0
  150.1532  137.9597  158.0168 H   0  0  0  0  0  0  0  0  0  0  0  0
  151.1794  138.9753  155.9540 H   0  0  0  0  0  0  0  0  0  0  0  0
  148.9587  138.5348  154.6320 H   0  0  0  0  0  0  0  0  0  0  0  0
  148.4998  140.1207  155.1858 H   0  0  0  0  0  0  0  0  0  0  0  0
  149.7008  139.9189  153.1375 H   0  0  0  0  0  0  0  0  0  0  0  0
  149.3847  140.9499  157.4308 H   0  0  0  0  0  0  0  0  0  0  0  0
  151.8702  141.3843  155.7466 H   0  0  0  0  0  0  0  0  0  0  0  0
  150.3197  142.2244  155.6032 H   0  0  0  0  0  0  0  0  0  0  0  0
  152.2282  143.3773  157.0913 H   0  0  0  0  0  0  0  0  0  0  0  0
  150.6052  143.2647  157.7848 H   0  0  0  0  0  0  0  0  0  0  0  0
  150.7796  140.2729  159.2136 H   0  0  0  0  0  0  0  0  0  0  0  0
  152.1022  139.8104  158.1411 H   0  0  0  0  0  0  0  0  0  0  0  0
  148.5047  130.4543  153.1279 H   0  0  0  0  0  0  0  0  0  0  0  0
  147.3554  130.1675  154.4110 H   0  0  0  0  0  0  0  0  0  0  0  0
  145.4948  130.9182  152.9716 H   0  0  0  0  0  0  0  0  0  0  0  0
  146.3649  128.5133  152.9734 H   0  0  0  0  0  0  0  0  0  0  0  0
  147.2013  128.8677  151.4683 H   0  0  0  0  0  0  0  0  0  0  0  0
  145.4367  128.9235  151.5602 H   0  0  0  0  0  0  0  0  0  0  0  0
  147.5416  131.2957  150.9262 H   0  0  0  0  0  0  0  0  0  0  0  0
  1  2  1  0  0  0  0
  1 30  1  0  0  0  0
  1 31  1  0  0  0  0
  1 32  1  0  0  0  0
  2  3  1  0  0  0  0
  2 33  1  0  0  0  0
  2 34  1  0  0  0  0
  3 28  1  0  0  0  0
  3  4  1  0  0  0  0
  3 64  1  0  0  0  0
  4  5  1  0  0  0  0
  4 35  1  0  0  0  0
  4 36  1  0  0  0  0
  5  6  1  0  0  0  0
  5 37  1  0  0  0  0
  5 38  1  0  0  0  0
  6  7  1  0  0  0  0
  6 27  1  0  0  0  0
  6 39  1  0  0  0  0
  7  8  1  0  0  0  0
  7  9  1  0  0  0  0
  8 40  1  0  0  0  0
  8 41  1  0  0  0  0
  8 42  1  0  0  0  0
  9 14  1  0  0  0  0
  9 10  2  0  0  0  0
 10 11  1  0  0  0  0
 11 12  2  0  0  0  0
 11 43  1  0  0  0  0
 12 13  1  0  0  0  0
 13 17  1  0  0  0  0
 13 14  2  0  0  0  0
 14 15  1  0  0  0  0
 15 16  2  0  0  0  0
 16 17  1  0  0  0  0
 16 44  1  0  0  0  0
 17 18  1  0  0  0  0
 18 19  1  0  0  0  0
 18 45  1  0  0  0  0
 18 46  1  0  0  0  0
 19 20  1  0  0  0  0
 19 22  1  0  0  0  0
 19 47  1  0  0  0  0
 20 21  1  0  0  0  0
 20 48  1  0  0  0  0
 20 49  1  0  0  0  0
 21 50  1  0  0  0  0
 22 26  1  0  0  0  0
 22 23  1  0  0  0  0
 22 51  1  0  0  0  0
 23 24  1  0  0  0  0
 23 52  1  0  0  0  0
 23 53  1  0  0  0  0
 24 25  1  0  0  0  0
 24 54  1  0  0  0  0
 24 55  1  0  0  0  0
 25 26  1  0  0  0  0
 26 56  1  0  0  0  0
 26 57  1  0  0  0  0
 27 28  1  0  0  0  0
 27 58  1  0  0  0  0
 27 59  1  0  0  0  0
 28 29  1  0  0  0  0
 28 60  1  0  0  0  0
 29 61  1  0  0  0  0
 29 62  1  0  0  0  0
 29 63  1  0  0  0  0
M  CHG  1   3   1
M  END
> <s_m_source_file>
AV-unprocessed.smi

> <i_m_source_file_index>
249

> <i_lp_mmshare_version>
43012

> <i_f3d_flags>
0

> <s_epik_input>
W0NIM11bQ0gyXU4xW0NIMl1bQ0gyXVtDQEhdKFtDSDJdW0NASF0xW0NIM10pTihbQ0gzXSljKG5bY0hdbjIpYyhjMjMpbltjSF1uM1tDSDJdW0NASF0oW0NIMl1bT0hdKVtDQEBIXTRbQ0gyXVtDSDJdT1tDSDJdNA==

> <s_epik_cmdline>
J2VwaWtfcHl0aG9uJywgJy1waCcsICc3LjAnLCAnLXRuJywgJzgnLCAnLW1hJywgJzIwMCcsICctbWV0YWxfYmluZGluZycsICctaW1hZScsICc8aW5maWxlLm1hZT4nLCAnLW9tYWUnLCAnPG91dGZpbGUubWFlPic=

> <r_lp_tautomer_probability>
1

> <r_epik_Ionization_Penalty>
0.00294688

> <r_epik_Ionization_Penalty_Charging>
0.00169971

> <r_epik_Ionization_Penalty_Neutral>
0.00124717

> <r_epik_State_Penalty>
-0

> <r_epik_Charging_Adjusted_Penalty>
0.00169971

> <i_epik_Tot_Q>
1

> <i_epik_Tot_abs_Q>
1

> <r_epik_Metal_State_Penalty>
-0

> <b_epik_Metal_Only>
0

> <s_lp_Force_Field>
OPLS_2005

> <r_lp_Energy>
53.8216

> <b_lp_Chiralities_Consistent>
1

> <s_lp_Variant>
AV-unprocessed.smi:249-24

> <Gold.Version>
5.8.1

> <Gold.Id.Protein>
6NUR|6NUR_protein|mol2

> <Gold.PLP.Fitness>
45.8842

> <Gold.PLP.PLP>
-41.5597

> <Gold.PLP.part.hbond>
-3.0000

> <Gold.PLP.part.metal>
0.0000

> <Gold.PLP.part.buried>
-7.1365

> <Gold.PLP.part.nonpolar>
-32.5875

> <Gold.PLP.part.repulsive>
0.7508

> <Gold.PLP.ligand.clash>
0.0000

> <Gold.PLP.ligand.torsion>
2.3902

> <Gold.PLP.Chemscore.Hbond>
2.8800

> <Gold.PLP.Chemscore.CHOScore>
0.0000

> <Gold.PLP.Chemscore.Metal>
0.0000

> <Gold.Chemscore.Hbonds>
donor molecule, donor type, donor heavy atom, donor atom, acceptor molecule, acceptor atom, score
      L1  H     3    64       P1 10747  1.00
      L1  H    21    50       P1  7957  1.00
      P1  H  7989  7998       L1    21  0.91

> <Gold.PLP.Chemscore.Internal.Correction>
0.4649

> <Gold.Rescore>
     Score         DG    S(hbond)    S(metal)    S(lipo)     H(rot)  DE(clash)    DE(int)     intcor
     16.61     -19.20       2.47        0.00     104.90       2.65       0.11       2.48       ----

> <Gold.Chemscore.Fitness>
16.6120

> <Gold.Chemscore.DG>
-19.1997

> <Gold.Chemscore.ZeroCoef>
-5.4800

> <Gold.Chemscore.Hbond>
2.4653

> <Gold.Chemscore.Metal>
0.0000

> <Gold.Chemscore.Lipo>
104.9029

> <Gold.Chemscore.Internal_Hbond>
0.0000

> <Gold.Chemscore.DEClash>
0.1092

> <Gold.Chemscore.DEInternal>
2.4785

> <Gold.Chemscore.Rot>
2.6515

> <Gold.Chemscore.Internal.Correction>
   9.000000E+99

> <Gold.Chemscore.Hbonds>
donor molecule, donor type, donor heavy atom, donor atom, acceptor molecule, acceptor atom, score
      L1  H     3    64       P1 10747  1.00
      L1  H    21    50       P1  7957  0.94
      P1  H  7989  7998       L1    21  0.31

> <Gold.Chemscore.Hbond.Weighted>
-8.2340

> <Gold.Chemscore.Metal.Weighted>
-0.0000

> <Gold.Chemscore.Lipo.Weighted>
-12.2736

> <Gold.Chemscore.Internal_Hbond.Weighted>
0.0000

> <Gold.Chemscore.DEClash.Weighted>
0.1092

> <Gold.Chemscore.DEInternal.Weighted>
2.4785

> <Gold.Chemscore.Rot.Weighted>
6.7880

> <Gold.Chemscore.Internal.Correction.Weighted>
   9.000000E+99

> <Gold.Protein.RotatedTorsions>
[ 6907 6896 6895 6894 ] final   13.45 input  -60.11 | X-H torsion
[ 7974 7965 7964 7962 ] final  133.84 input  175.53 | X-H torsion
[ 8008 7997 7996 7995 ] final  163.19 input   59.86 | X-H torsion
[ 10167 10162 10161 10158 ] final  -98.15 input  -65.29 | X-H torsion
[ 10718 10713 10712 10709 ] final  131.31 input   66.30 | X-H torsion
[ 10763 10752 10751 10750 ] final -174.01 input  -60.55 | X-H torsion
[ 11005 11000 10999 10996 ] final  -88.09 input  -57.11 | X-H torsion

> <Gold.Protein.ActiveResidues>
 VAL166  LYS551  ARG553  GLY616  TRP617  ASP618  TYR619  PRO620  LYS621  CYS622 
 ASP623  PHE694  ASN695  SER759  ASP760  ASP761  ALA762  ILE779  LEU786  VAL792 
 PHE793  MET794  SER795  GLU796  ALA797  LYS798  CYS799  TRP800  GLU811  SER814 

> <Gold.Protein.RotatedAtoms>
  151.7865  135.0747  160.0380 H   0  0  0  0  0  0  0  0  0  0  0  0  # atno 6907 bound_to 6896
  152.3186  133.5825  159.5738 H   0  0  0  0  0  0  0  0  0  0  0  0  # atno 6908 bound_to 6896
  150.7357  133.9961  159.3665 H   0  0  0  0  0  0  0  0  0  0  0  0  # atno 6909 bound_to 6896
  144.9824  139.4491  143.5380 H   0  0  0  0  0  0  0  0  0  0  0  0  # atno 7974 bound_to 7965
  156.1975  140.1730  156.7967 H   0  0  0  0  0  0  0  0  0  0  0  0  # atno 8008 bound_to 7997
  154.5549  140.0710  156.8758 H   0  0  0  0  0  0  0  0  0  0  0  0  # atno 8009 bound_to 7997
  155.2958  140.3358  155.4252 H   0  0  0  0  0  0  0  0  0  0  0  0  # atno 8010 bound_to 7997
  140.2760  143.3313  152.0488 H   0  0  0  0  0  0  0  0  0  0  0  0  # atno 10167 bound_to 10162
  157.4980  131.1093  150.9466 H   0  0  0  0  0  0  0  0  0  0  0  0  # atno 10718 bound_to 10713
  154.6013  135.2855  155.0533 H   0  0  0  0  0  0  0  0  0  0  0  0  # atno 10763 bound_to 10752
  154.1797  135.6459  153.5034 H   0  0  0  0  0  0  0  0  0  0  0  0  # atno 10764 bound_to 10752
  153.0158  135.5420  154.6732 H   0  0  0  0  0  0  0  0  0  0  0  0  # atno 10765 bound_to 10752
  141.1607  133.7550  156.9402 H   0  0  0  0  0  0  0  0  0  0  0  0  # atno 11005 bound_to 11000
  146.3411  139.9105  142.8781 LP  0  0  0  0  0  0  0  0  0  0  0  0  # atno 17320 bound_to 7965
  145.2402  141.0006  143.3940 LP  0  0  0  0  0  0  0  0  0  0  0  0  # atno 17321 bound_to 7965
  139.4975  144.6624  151.6434 LP  0  0  0  0  0  0  0  0  0  0  0  0  # atno 17342 bound_to 10162
  140.5851  143.9878  150.6291 LP  0  0  0  0  0  0  0  0  0  0  0  0  # atno 17343 bound_to 10162
  157.0146  130.5650  149.5324 LP  0  0  0  0  0  0  0  0  0  0  0  0  # atno 17370 bound_to 10713
  156.0212  130.5307  150.8280 LP  0  0  0  0  0  0  0  0  0  0  0  0  # atno 17371 bound_to 10713
  140.1327  134.9345  157.2359 LP  0  0  0  0  0  0  0  0  0  0  0  0  # atno 17394 bound_to 11000
  140.2933  134.3215  155.7309 LP  0  0  0  0  0  0  0  0  0  0  0  0  # atno 17395 bound_to 11000

$$$$
