#       Name:                AV-unprocessed.smi:2795
#       Creating user name   scv26
#       Creation time:       Fri Mar 27 15:21:28 2020


#       File generated by GOLD software.
#

@<TRIPOS>MOLECULE
AV-unprocessed.smi:2795
    41    42     1
SMALL
NO_CHARGES


@<TRIPOS>ATOM
      1 ****        -2.4340   0.4056   0.2544 C.3            1 S1                 0.0000
      2 ****        -2.0308   0.4543  -1.1539 N.pl3          1 S1                 0.0000
      3 ****        -1.8332   1.6179  -1.7859 C.2            1 S1                 0.0000
      4 ****        -1.4822   1.3246  -3.0396 N.pl3          1 S1                 1.0000
      5 ****        -1.4565  -0.0314  -3.2140 C.2            1 S1                 0.0000
      6 ****        -1.8021  -0.5999  -2.0125 C.2            1 S1                 0.0000
      7 ****        -1.9071  -2.0435  -1.6207 C.3            1 S1                 0.0000
      8 ****        -0.5360  -2.6908  -1.3369 C.3            1 S1                 0.0000
      9 ****         0.1991  -2.0028  -0.2780 N.am           1 S1                 0.0000
     10 ****         1.1243  -1.0457  -0.4600 C.2            1 S1                 0.0000
     11 ****         1.5051  -0.6870  -1.5751 O.2            1 S1                 0.0000
     12 ****         1.6873  -0.3855   0.8072 C.3            1 S1                 0.0000
     13 ****         2.2354   1.0354   0.5389 C.3            1 S1                 0.0000
     14 ****         2.6998   1.6943   1.8423 C.3            1 S1                 0.0000
     15 ****         1.5761   1.6381   2.8815 C.3            1 S1                 0.0000
     16 ****         1.0727   0.1958   3.0409 C.3            1 S1                 0.0000
     17 ****         0.6439  -0.3080   1.7804 O.3            1 S1                 0.0000
     18 ****        -2.2074   1.3554   0.7411 H              1 S1                 0.0000
     19 ****        -1.8926  -0.3903   0.7649 H              1 S1                 0.0000
     20 ****        -3.5054   0.2125   0.3106 H              1 S1                 0.0000
     21 ****        -1.9357   2.6028  -1.3665 H              1 S1                 0.0000
     22 ****        -1.1897  -0.4852  -4.1573 H              1 S1                 0.0000
     23 ****        -2.5561  -2.1436  -0.7506 H              1 S1                 0.0000
     24 ****        -2.4025  -2.5839  -2.4277 H              1 S1                 0.0000
     25 ****        -0.6803  -3.7267  -1.0297 H              1 S1                 0.0000
     26 ****         0.0570  -2.7283  -2.2522 H              1 S1                 0.0000
     27 ****        -0.0443  -2.2408   0.6729 H              1 S1                 0.0000
     28 ****         2.4850  -1.0266   1.1867 H              1 S1                 0.0000
     29 ****         3.0677   0.9995  -0.1653 H              1 S1                 0.0000
     30 ****         1.4615   1.6518   0.0780 H              1 S1                 0.0000
     31 ****         3.5788   1.1733   2.2238 H              1 S1                 0.0000
     32 ****         3.0006   2.7267   1.6612 H              1 S1                 0.0000
     33 ****         1.9279   2.0242   3.8386 H              1 S1                 0.0000
     34 ****         0.7516   2.2794   2.5675 H              1 S1                 0.0000
     35 ****         1.8517  -0.4461   3.4551 H              1 S1                 0.0000
     36 ****         0.2328   0.1661   3.7352 H              1 S1                 0.0000
     37 ****        -1.2638   2.0081  -3.7536 H              1 S1                 0.0000
     38 ****         1.1227  -1.1130  -2.3951 LP             1 S1                 0.0000
     39 ****         2.1968   0.0302  -1.6605 LP             1 S1                 0.0000
     40 ****         0.2714  -1.2258   1.9175 LP             1 S1                 0.0000
     41 ****        -0.0729   0.2934   1.4274 LP             1 S1                 0.0000
@<TRIPOS>BOND
    1    1    2 1     
    2    1   18 1     
    3    1   19 1     
    4    1   20 1     
    5    2    6 1     
    6    2    3 1     
    7    3    4 2     
    8    3   21 1     
    9    4    5 1     
   10    4   37 1     
   11    5    6 2     
   12    5   22 1     
   13    6    7 1     
   14    7    8 1     
   15    7   23 1     
   16    7   24 1     
   17    8    9 1     
   18    8   25 1     
   19    8   26 1     
   20    9   10 am    
   21    9   27 1     
   22   10   11 2     
   23   10   12 1     
   24   12   17 1     
   25   12   13 1     
   26   12   28 1     
   27   13   14 1     
   28   13   29 1     
   29   13   30 1     
   30   14   15 1     
   31   14   31 1     
   32   14   32 1     
   33   15   16 1     
   34   15   33 1     
   35   15   34 1     
   36   16   17 1     
   37   16   35 1     
   38   16   36 1     
   39   11   38 1     
   40   11   39 1     
   41   17   40 1     
   42   17   41 1     
@<TRIPOS>SUBSTRUCTURE
      1 S1             1
@<TRIPOS>SET
LONE_PAIRS      STATIC     ATOMS    <user>   **** ""
4 38 39 40 41
DONOR_HYDROGENS      STATIC     ATOMS    <user>   **** ""
2 37 27
ATOM$BLUE        STATIC     ATOMS    COLORGROUP SYSTEM
4 38 39 40 41
ATOM$RED        STATIC     ATOMS    COLORGROUP SYSTEM
2 37 27
