AV-unprocessed.smi:9|AV-procd|sdf|50|dock2
  -GOLD-   2262015163D 1   1.00000     0.00000
 Structure written by MMmdl.
 34 36  0  0  0  0  0  0  0  0  2 V2000
  150.4452  133.0935  157.3010 O   0  0  0  0  0  0  0  0  0  0  0  0
  150.1736  132.4702  156.2767 C   0  0  0  0  0  0  0  0  0  0  0  0
  150.5382  131.1747  156.0190 N   0  5  0  0  0  0  0  0  0  0  0  0
  150.1730  130.5528  154.8193 C   0  0  0  0  0  0  0  0  0  0  0  0
  150.6362  129.1114  154.6316 C   0  0  0  0  0  0  0  0  0  0  0  0
  151.9675  129.0358  154.5692 F   0  0  0  0  0  0  0  0  0  0  0  0
  150.2257  128.3600  155.6533 F   0  0  0  0  0  0  0  0  0  0  0  0
  150.1492  128.5873  153.5049 F   0  0  0  0  0  0  0  0  0  0  0  0
  149.4945  131.1041  153.8649 N   0  0  0  0  0  0  0  0  0  0  0  0
  149.1153  132.4091  154.0911 C   0  0  0  0  0  0  0  0  0  0  0  0
  149.3876  133.1445  155.2099 C   0  0  0  0  0  0  0  0  0  0  0  0
  148.8483  134.4225  155.1163 N   0  0  0  0  0  0  0  0  0  0  0  0
  148.2664  134.3927  153.9172 C   0  0  0  0  0  0  0  0  0  0  0  0
  148.3910  133.2334  153.2398 N   0  0  0  0  0  0  0  0  0  0  0  0
  147.8646  132.9206  151.9193 C   0  0  0  0  0  0  0  0  0  0  0  0
  146.4420  133.4763  151.6512 C   0  0  2  0  0  0  0  0  0  0  0  0
  146.5605  134.8781  151.4945 O   0  0  0  0  0  0  0  0  0  0  0  0
  145.4684  133.1742  152.8122 C   0  0  0  0  0  0  0  0  0  0  0  0
  144.0166  133.4830  152.4328 C   0  0  0  0  0  0  0  0  0  0  0  0
  143.6583  132.7939  151.1118 C   0  0  0  0  0  0  0  0  0  0  0  0
  144.5379  133.2533  150.0951 O   0  0  0  0  0  0  0  0  0  0  0  0
  145.9039  132.9100  150.3157 C   0  0  0  0  0  0  0  0  0  0  0  0
  147.7379  135.2442  153.5145 H   0  0  0  0  0  0  0  0  0  0  0  0
  148.5660  133.2942  151.1718 H   0  0  0  0  0  0  0  0  0  0  0  0
  147.8634  131.8350  151.8133 H   0  0  0  0  0  0  0  0  0  0  0  0
  147.4620  135.1201  151.6415 H   0  0  0  0  0  0  0  0  0  0  0  0
  145.5407  132.1177  153.0741 H   0  0  0  0  0  0  0  0  0  0  0  0
  145.7412  133.7331  153.7083 H   0  0  0  0  0  0  0  0  0  0  0  0
  143.3444  133.1521  153.2249 H   0  0  0  0  0  0  0  0  0  0  0  0
  143.8776  134.5602  152.3346 H   0  0  0  0  0  0  0  0  0  0  0  0
  143.7178  131.7082  151.2036 H   0  0  0  0  0  0  0  0  0  0  0  0
  142.6341  133.0364  150.8281 H   0  0  0  0  0  0  0  0  0  0  0  0
  146.4994  133.2696  149.4757 H   0  0  0  0  0  0  0  0  0  0  0  0
  145.9885  131.8221  150.3078 H   0  0  0  0  0  0  0  0  0  0  0  0
  1  2  2  0  0  0  0
  2 11  1  0  0  0  0
  2  3  1  0  0  0  0
  3  4  1  0  0  0  0
  4  5  1  0  0  0  0
  4  9  2  0  0  0  0
  5  6  1  0  0  0  0
  5  7  1  0  0  0  0
  5  8  1  0  0  0  0
  9 10  1  0  0  0  0
 10 14  1  0  0  0  0
 10 11  2  0  0  0  0
 11 12  1  0  0  0  0
 12 13  2  0  0  0  0
 13 14  1  0  0  0  0
 13 23  1  0  0  0  0
 14 15  1  0  0  0  0
 15 16  1  0  0  0  0
 15 24  1  0  0  0  0
 15 25  1  0  0  0  0
 16 22  1  0  0  0  0
 16 17  1  0  0  0  0
 16 18  1  0  0  0  0
 17 26  1  0  0  0  0
 18 19  1  0  0  0  0
 18 27  1  0  0  0  0
 18 28  1  0  0  0  0
 19 20  1  0  0  0  0
 19 29  1  0  0  0  0
 19 30  1  0  0  0  0
 20 21  1  0  0  0  0
 20 31  1  0  0  0  0
 20 32  1  0  0  0  0
 21 22  1  0  0  0  0
 22 33  1  0  0  0  0
 22 34  1  0  0  0  0
M  CHG  1   3  -1
M  END
> <s_m_source_file>
AV-unprocessed.smi

> <i_m_source_file_index>
9

> <i_lp_mmshare_version>
43012

> <i_f3d_flags>
0

> <s_epik_input>
RkMoRikoRiljKG4xKVtuSF1jKD1PKWMoYzEyKW5bY0hdbjJbQ0gyXVtDQEBdMyhbT0hdKVtDSDJdW0NIMl1bQ0gyXU9bQ0gyXTM=

> <s_epik_cmdline>
J2VwaWtfcHl0aG9uJywgJy1waCcsICc3LjAnLCAnLXRuJywgJzgnLCAnLW1hJywgJzIwMCcsICctbWV0YWxfYmluZGluZycsICctaW1hZScsICc8aW5maWxlLm1hZT4nLCAnLW9tYWUnLCAnPG91dGZpbGUubWFlPic=

> <r_lp_tautomer_probability>
1

> <r_epik_Ionization_Penalty>
0.188582

> <r_epik_Ionization_Penalty_Charging>
1.37005e-11

> <r_epik_Ionization_Penalty_Neutral>
0.188582

> <r_epik_State_Penalty>
0.012336

> <r_epik_Charging_Adjusted_Penalty>
0.012336

> <i_epik_Tot_Q>
-1

> <i_epik_Tot_abs_Q>
1

> <r_epik_Metal_State_Penalty>
0.0089237

> <b_epik_Metal_Only>
0

> <s_lp_Force_Field>
OPLS_2005

> <r_lp_Energy>
37.4202

> <b_lp_Chiralities_Consistent>
1

> <s_lp_Variant>
AV-unprocessed.smi:9-2

> <Gold.Version>
5.8.1

> <Gold.Id.Protein>
6NUR|6NUR_protein|mol2

> <Gold.PLP.Fitness>
35.6207

> <Gold.PLP.PLP>
-28.9058

> <Gold.PLP.part.hbond>
-2.0000

> <Gold.PLP.part.metal>
0.0000

> <Gold.PLP.part.buried>
2.2991

> <Gold.PLP.part.nonpolar>
-28.9551

> <Gold.PLP.part.repulsive>
0.3178

> <Gold.PLP.ligand.clash>
0.0000

> <Gold.PLP.ligand.torsion>
0.4493

> <Gold.PLP.Chemscore.Hbond>
2.0000

> <Gold.PLP.Chemscore.CHOScore>
0.5338

> <Gold.PLP.Chemscore.Metal>
0.0000

> <Gold.Chemscore.Hbonds>
donor molecule, donor type, donor heavy atom, donor atom, acceptor molecule, acceptor atom, score
      L1  H    17    26       P1  7948  1.00
      P1  H  6896  6908       L1     1  0.96
      L1  C    13    23       P1  7948  0.59

> <Gold.PLP.Chemscore.Internal.Correction>
0.0120

> <Gold.Rescore>
     Score         DG    S(hbond)    S(metal)    S(lipo)     H(rot)  DE(clash)    DE(int)     intcor
     11.68     -12.02       1.99        0.00      45.51       2.12       0.02       0.32       ----

> <Gold.Chemscore.Fitness>
11.6750

> <Gold.Chemscore.DG>
-12.0181

> <Gold.Chemscore.ZeroCoef>
-5.4800

> <Gold.Chemscore.Hbond>
1.9913

> <Gold.Chemscore.Metal>
0.0000

> <Gold.Chemscore.Lipo>
45.5079

> <Gold.Chemscore.Internal_Hbond>
0.0000

> <Gold.Chemscore.DEClash>
0.0197

> <Gold.Chemscore.DEInternal>
0.3233

> <Gold.Chemscore.Rot>
2.1239

> <Gold.Chemscore.Internal.Correction>
   9.000000E+99

> <Gold.Chemscore.Hbonds>
donor molecule, donor type, donor heavy atom, donor atom, acceptor molecule, acceptor atom, score
      L1  H    17    26       P1  7948  0.82
      P1  H  6896  6908       L1     1  0.88

> <Gold.Chemscore.Hbond.Weighted>
-6.6509

> <Gold.Chemscore.Metal.Weighted>
-0.0000

> <Gold.Chemscore.Lipo.Weighted>
-5.3244

> <Gold.Chemscore.Internal_Hbond.Weighted>
0.0000

> <Gold.Chemscore.DEClash.Weighted>
0.0197

> <Gold.Chemscore.DEInternal.Weighted>
0.3233

> <Gold.Chemscore.Rot.Weighted>
5.4373

> <Gold.Chemscore.Internal.Correction.Weighted>
   9.000000E+99

> <Gold.Protein.RotatedTorsions>
[ 6907 6896 6895 6894 ] final  108.00 input  -60.11 | X-H torsion
[ 7974 7965 7964 7962 ] final  120.47 input  175.53 | X-H torsion
[ 8008 7997 7996 7995 ] final  -58.91 input   59.86 | X-H torsion
[ 10167 10162 10161 10158 ] final  107.14 input  -65.29 | X-H torsion
[ 10718 10713 10712 10709 ] final  -53.26 input   66.30 | X-H torsion
[ 10763 10752 10751 10750 ] final  170.17 input  -60.55 | X-H torsion
[ 11005 11000 10999 10996 ] final  109.16 input  -57.11 | X-H torsion

> <Gold.Protein.ActiveResidues>
 VAL166  LYS551  ARG553  GLY616  TRP617  ASP618  TYR619  PRO620  LYS621  CYS622 
 ASP623  PHE694  ASN695  SER759  ASP760  ASP761  ALA762  ILE779  LEU786  VAL792 
 PHE793  MET794  SER795  GLU796  ALA797  LYS798  CYS799  TRP800  GLU811  SER814 

> <Gold.Protein.RotatedAtoms>
  152.5131  133.9153  159.7507 H   0  0  0  0  0  0  0  0  0  0  0  0  # atno 6907 bound_to 6896
  150.9537  133.6513  159.2774 H   0  0  0  0  0  0  0  0  0  0  0  0  # atno 6908 bound_to 6896
  151.3782  135.0940  159.9540 H   0  0  0  0  0  0  0  0  0  0  0  0  # atno 6909 bound_to 6896
  145.1308  139.3329  143.4666 H   0  0  0  0  0  0  0  0  0  0  0  0  # atno 7974 bound_to 7965
  154.4329  140.1073  156.6032 H   0  0  0  0  0  0  0  0  0  0  0  0  # atno 8008 bound_to 7997
  155.5889  140.3492  155.4542 H   0  0  0  0  0  0  0  0  0  0  0  0  # atno 8009 bound_to 7997
  156.0261  140.1250  157.0296 H   0  0  0  0  0  0  0  0  0  0  0  0  # atno 8010 bound_to 7997
  139.6951  144.7102  151.1281 H   0  0  0  0  0  0  0  0  0  0  0  0  # atno 10167 bound_to 10162
  156.1550  130.4150  149.9883 H   0  0  0  0  0  0  0  0  0  0  0  0  # atno 10718 bound_to 10713
  154.3938  135.2754  155.2138 H   0  0  0  0  0  0  0  0  0  0  0  0  # atno 10763 bound_to 10752
  154.4193  135.6004  153.6004 H   0  0  0  0  0  0  0  0  0  0  0  0  # atno 10764 bound_to 10752
  152.9831  135.5968  154.4196 H   0  0  0  0  0  0  0  0  0  0  0  0  # atno 10765 bound_to 10752
  139.8857  134.9451  156.6083 H   0  0  0  0  0  0  0  0  0  0  0  0  # atno 11005 bound_to 11000
  146.3514  140.1306  142.8597 LP  0  0  0  0  0  0  0  0  0  0  0  0  # atno 17320 bound_to 7965
  145.0638  140.9106  143.4923 LP  0  0  0  0  0  0  0  0  0  0  0  0  # atno 17321 bound_to 7965
  140.7694  143.5503  150.9212 LP  0  0  0  0  0  0  0  0  0  0  0  0  # atno 17342 bound_to 10162
  139.9182  143.6637  152.3102 LP  0  0  0  0  0  0  0  0  0  0  0  0  # atno 17343 bound_to 10162
  156.7730  130.9193  151.3644 LP  0  0  0  0  0  0  0  0  0  0  0  0  # atno 17370 bound_to 10713
  157.6688  130.9032  149.9992 LP  0  0  0  0  0  0  0  0  0  0  0  0  # atno 17371 bound_to 10713
  140.7831  133.8644  155.8584 LP  0  0  0  0  0  0  0  0  0  0  0  0  # atno 17394 bound_to 11000
  140.9743  134.1490  157.4549 LP  0  0  0  0  0  0  0  0  0  0  0  0  # atno 17395 bound_to 11000

$$$$
