#       Name:                AV-unprocessed.smi:1702
#       Creating user name   scv26
#       Creation time:       Fri Mar 27 08:02:54 2020


#       File generated by GOLD software.
#

@<TRIPOS>MOLECULE
AV-unprocessed.smi:1702
    47    49     1
SMALL
NO_CHARGES


@<TRIPOS>ATOM
      1 ****        -2.3681   5.0871   0.0243 C.3            1 S1                 0.0000
      2 ****        -1.9257   3.6192   0.1031 C.3            1 S1                 0.0000
      3 ****        -0.4542   3.4906   0.5305 C.3            1 S1                 0.0000
      4 ****        -0.0129   2.0182   0.5781 C.3            1 S1                 0.0000
      5 ****        -0.2272   1.3518  -0.7342 N.4            1 S1                 1.0000
      6 ****         0.2949  -0.0385  -0.7823 C.3            1 S1                 0.0000
      7 ****         1.8342  -0.1060  -0.9056 C.3            1 S1                 0.0000
      8 ****         2.2276   0.4908  -2.1248 O.3            1 S1                 0.0000
      9 ****         2.3897  -1.5444  -0.9059 C.3            1 S1                 0.0000
     10 ****         2.1028  -2.2757   0.3370 N.pl3          1 S1                 0.0000
     11 ****         2.7415  -2.2226   1.5380 C.2            1 S1                 0.0000
     12 ****         2.1168  -3.0953   2.3761 N.pl3          1 S1                 1.0000
     13 ****         1.0667  -3.7207   1.7009 C.ar           1 S1                 0.0000
     14 ****         0.1524  -4.6785   2.1278 C.ar           1 S1                 0.0000
     15 ****        -0.8004  -5.1131   1.1832 C.ar           1 S1                 0.0000
     16 ****        -1.7136  -6.0446   1.5461 F              1 S1                 0.0000
     17 ****        -0.8202  -4.5959  -0.1292 C.ar           1 S1                 0.0000
     18 ****        -1.7538  -5.0378  -1.0047 F              1 S1                 0.0000
     19 ****         0.1120  -3.6248  -0.5505 C.ar           1 S1                 0.0000
     20 ****         1.0521  -3.2012   0.3888 C.ar           1 S1                 0.0000
     21 ****        -1.6499   1.4301  -1.1560 C.3            1 S1                 0.0000
     22 ****        -2.1287   2.8895  -1.2354 C.3            1 S1                 0.0000
     23 ****        -1.7889   5.6382  -0.7172 H              1 S1                 0.0000
     24 ****        -2.2405   5.5873   0.9847 H              1 S1                 0.0000
     25 ****        -3.4205   5.1659  -0.2502 H              1 S1                 0.0000
     26 ****        -2.5432   3.1273   0.8565 H              1 S1                 0.0000
     27 ****         0.1835   4.0397  -0.1639 H              1 S1                 0.0000
     28 ****        -0.3087   3.9484   1.5099 H              1 S1                 0.0000
     29 ****         1.0380   1.9779   0.8609 H              1 S1                 0.0000
     30 ****        -0.5677   1.4868   1.3529 H              1 S1                 0.0000
     31 ****        -0.0495  -0.5679   0.1067 H              1 S1                 0.0000
     32 ****        -0.1382  -0.5639  -1.6350 H              1 S1                 0.0000
     33 ****         2.3110   0.4412  -0.0930 H              1 S1                 0.0000
     34 ****         2.0778   1.4226  -2.0765 H              1 S1                 0.0000
     35 ****         2.0157  -2.1125  -1.7577 H              1 S1                 0.0000
     36 ****         3.4751  -1.5212  -1.0136 H              1 S1                 0.0000
     37 ****         3.5932  -1.6034   1.7818 H              1 S1                 0.0000
     38 ****         0.1640  -5.0774   3.1317 H              1 S1                 0.0000
     39 ****         0.0829  -3.2399  -1.5588 H              1 S1                 0.0000
     40 ****        -1.7705   0.9641  -2.1348 H              1 S1                 0.0000
     41 ****        -2.2708   0.8665  -0.4578 H              1 S1                 0.0000
     42 ****        -3.1818   2.9143  -1.5182 H              1 S1                 0.0000
     43 ****        -1.5850   3.4078  -2.0267 H              1 S1                 0.0000
     44 ****         0.2944   1.8765  -1.4216 H              1 S1                 0.0000
     45 ****         2.3941  -3.2557   3.3365 H              1 S1                 0.0000
     46 ****         1.6913   0.1041  -2.8751 LP             1 S1                 0.0000
     47 ****         3.1991   0.3159  -2.2849 LP             1 S1                 0.0000
@<TRIPOS>BOND
    1    1    2 1     
    2    1   23 1     
    3    1   24 1     
    4    1   25 1     
    5    2   22 1     
    6    2    3 1     
    7    2   26 1     
    8    3    4 1     
    9    3   27 1     
   10    3   28 1     
   11    4    5 1     
   12    4   29 1     
   13    4   30 1     
   14    5    6 1     
   15    5   21 1     
   16    5   44 1     
   17    6    7 1     
   18    6   31 1     
   19    6   32 1     
   20    7    8 1     
   21    7    9 1     
   22    7   33 1     
   23    8   34 1     
   24    9   10 1     
   25    9   35 1     
   26    9   36 1     
   27   10   20 1     
   28   10   11 1     
   29   11   12 2     
   30   11   37 1     
   31   12   13 1     
   32   12   45 1     
   33   13   20 ar    
   34   13   14 ar    
   35   14   15 ar    
   36   14   38 1     
   37   15   16 1     
   38   15   17 ar    
   39   17   18 1     
   40   17   19 ar    
   41   19   20 ar    
   42   19   39 1     
   43   21   22 1     
   44   21   40 1     
   45   21   41 1     
   46   22   42 1     
   47   22   43 1     
   48    8   46 1     
   49    8   47 1     
@<TRIPOS>SUBSTRUCTURE
      1 S1             1
@<TRIPOS>SET
LONE_PAIRS      STATIC     ATOMS    <user>   **** ""
2 46 47
DONOR_HYDROGENS      STATIC     ATOMS    <user>   **** ""
3 44 34 45
ATOM$BLUE        STATIC     ATOMS    COLORGROUP SYSTEM
2 46 47
ATOM$RED        STATIC     ATOMS    COLORGROUP SYSTEM
3 44 34 45
