AV-unprocessed.smi:1897|AV-procd|sdf|7691|dock5
  -GOLD-   22720 9433D 1   1.00000     0.00000
 Structure written by MMmdl.
 39 41  0  0  0  0  0  0  0  0  2 V2000
  146.7000  142.7281  154.0161 C   0  0  0  0  0  0  0  0  0  0  0  0
  146.7241  141.2379  153.9923 C   0  0  0  0  0  0  0  0  0  0  0  0
  146.6690  140.4968  155.1053 N   0  0  0  0  0  0  0  0  0  0  0  0
  146.7071  139.1370  154.8333 N   0  0  0  0  0  0  0  0  0  0  0  0
  146.7999  138.8880  153.5187 C   0  0  0  0  0  0  0  0  0  0  0  0
  146.8465  137.5847  152.9419 N   0  0  0  0  0  0  0  0  0  0  0  0
  145.8825  136.6646  152.7239 C   0  0  0  0  0  0  0  0  0  0  0  0
  144.7139  136.8850  153.0367 O   0  0  0  0  0  0  0  0  0  0  0  0
  146.2738  135.5155  152.1490 N   0  0  0  0  0  0  0  0  0  0  0  0
  145.4081  134.3853  151.8299 C   0  0  1  0  0  0  0  0  0  0  0  0
  144.7194  134.5253  150.4776 C   0  0  0  0  0  0  0  0  0  0  0  0
  144.3206  133.0815  150.1683 C   0  0  0  0  0  0  0  0  0  0  0  0
  145.3863  132.2318  150.7477 N   0  3  2  0  0  0  0  0  0  0  0  0
  144.9144  130.9346  151.2910 C   0  0  0  0  0  0  0  0  0  0  0  0
  146.0932  130.1193  151.8546 C   0  0  0  0  0  0  0  0  0  0  0  0
  146.9826  130.9294  152.8210 C   0  0  0  0  0  0  0  0  0  0  0  0
  146.4661  132.3611  153.0332 C   0  0  0  0  0  0  0  0  0  0  0  0
  146.1879  133.0673  151.6868 C   0  0  2  0  0  0  0  0  0  0  0  0
  146.8319  140.3162  152.4975 S   0  0  0  0  0  0  0  0  0  0  0  0
  146.0477  143.0844  154.8139 H   0  0  0  0  0  0  0  0  0  0  0  0
  146.3308  143.1158  153.0664 H   0  0  0  0  0  0  0  0  0  0  0  0
  147.7053  143.1141  154.1850 H   0  0  0  0  0  0  0  0  0  0  0  0
  147.7621  137.3107  152.6154 H   0  0  0  0  0  0  0  0  0  0  0  0
  147.2533  135.4177  151.9205 H   0  0  0  0  0  0  0  0  0  0  0  0
  144.6308  134.2758  152.5892 H   0  0  0  0  0  0  0  0  0  0  0  0
  143.8665  135.2043  150.5018 H   0  0  0  0  0  0  0  0  0  0  0  0
  145.4221  134.8883  149.7257 H   0  0  0  0  0  0  0  0  0  0  0  0
  143.3664  132.8621  150.6506 H   0  0  0  0  0  0  0  0  0  0  0  0
  144.2026  132.9001  149.0997 H   0  0  0  0  0  0  0  0  0  0  0  0
  144.1721  131.1101  152.0716 H   0  0  0  0  0  0  0  0  0  0  0  0
  144.4133  130.3714  150.5032 H   0  0  0  0  0  0  0  0  0  0  0  0
  145.7120  129.2298  152.3573 H   0  0  0  0  0  0  0  0  0  0  0  0
  146.7065  129.7562  151.0288 H   0  0  0  0  0  0  0  0  0  0  0  0
  147.0581  130.4177  153.7812 H   0  0  0  0  0  0  0  0  0  0  0  0
  147.9968  130.9720  152.4220 H   0  0  0  0  0  0  0  0  0  0  0  0
  145.5564  132.3287  153.6344 H   0  0  0  0  0  0  0  0  0  0  0  0
  147.1903  132.9323  153.6147 H   0  0  0  0  0  0  0  0  0  0  0  0
  147.1367  133.2596  151.1829 H   0  0  0  0  0  0  0  0  0  0  0  0
  146.0153  132.0065  149.9900 H   0  0  0  0  0  0  0  0  0  0  0  0
  1  2  1  0  0  0  0
  1 20  1  0  0  0  0
  1 21  1  0  0  0  0
  1 22  1  0  0  0  0
  2 19  1  0  0  0  0
  2  3  2  0  0  0  0
  3  4  1  0  0  0  0
  4  5  2  0  0  0  0
  5  6  1  0  0  0  0
  5 19  1  0  0  0  0
  6  7  1  0  0  0  0
  6 23  1  0  0  0  0
  7  8  2  0  0  0  0
  7  9  1  0  0  0  0
  9 10  1  0  0  0  0
  9 24  1  0  0  0  0
 10 18  1  0  0  0  0
 10 11  1  0  0  0  0
 10 25  1  0  0  0  0
 11 12  1  0  0  0  0
 11 26  1  0  0  0  0
 11 27  1  0  0  0  0
 12 13  1  0  0  0  0
 12 28  1  0  0  0  0
 12 29  1  0  0  0  0
 13 18  1  0  0  0  0
 13 14  1  0  0  0  0
 13 39  1  0  0  0  0
 14 15  1  0  0  0  0
 14 30  1  0  0  0  0
 14 31  1  0  0  0  0
 15 16  1  0  0  0  0
 15 32  1  0  0  0  0
 15 33  1  0  0  0  0
 16 17  1  0  0  0  0
 16 34  1  0  0  0  0
 16 35  1  0  0  0  0
 17 18  1  0  0  0  0
 17 36  1  0  0  0  0
 17 37  1  0  0  0  0
 18 38  1  0  0  0  0
M  CHG  1  13   1
M  END
> <s_m_source_file>
AV-unprocessed.smi

> <i_m_source_file_index>
1897

> <i_lp_mmshare_version>
43012

> <i_f3d_flags>
0

> <s_epik_input>
W0NIM11jMW5uYyhzMSlbTkhdQyg9TylbTkhdW0NASF0oW0NIMl1bQ0gyXTIpW0NAQEhdKE4yMylbQ0gyXVtDSDJdW0NIMl1bQ0gyXTM=

> <s_epik_cmdline>
J2VwaWtfcHl0aG9uJywgJy1waCcsICc3LjAnLCAnLXRuJywgJzgnLCAnLW1hJywgJzIwMCcsICctbWV0YWxfYmluZGluZycsICctaW1hZScsICc8aW5maWxlLm1hZT4nLCAnLW9tYWUnLCAnPG91dGZpbGUubWFlPic=

> <r_lp_tautomer_probability>
1

> <r_epik_Ionization_Penalty>
0.00228891

> <r_epik_Ionization_Penalty_Charging>
0.00107044

> <r_epik_Ionization_Penalty_Neutral>
0.00121847

> <r_epik_State_Penalty>
-0

> <r_epik_Charging_Adjusted_Penalty>
0.00107044

> <i_epik_Tot_Q>
1

> <i_epik_Tot_abs_Q>
1

> <r_epik_Metal_State_Penalty>
0.304057

> <b_epik_Metal_Only>
0

> <s_lp_Force_Field>
OPLS_2005

> <r_lp_Energy>
41.04

> <b_lp_Chiralities_Consistent>
1

> <s_lp_Variant>
AV-unprocessed.smi:1897-8

> <Gold.Version>
5.8.1

> <Gold.Id.Protein>
6NUR|6NUR_protein|mol2

> <Gold.PLP.Fitness>
33.5856

> <Gold.PLP.PLP>
-29.7407

> <Gold.PLP.part.hbond>
-2.0000

> <Gold.PLP.part.metal>
0.0000

> <Gold.PLP.part.buried>
-2.4076

> <Gold.PLP.part.nonpolar>
-25.3072

> <Gold.PLP.part.repulsive>
0.3810

> <Gold.PLP.ligand.clash>
0.0000

> <Gold.PLP.ligand.torsion>
1.0456

> <Gold.PLP.Chemscore.Hbond>
1.9760

> <Gold.PLP.Chemscore.CHOScore>
0.0000

> <Gold.PLP.Chemscore.Metal>
0.0000

> <Gold.Chemscore.Hbonds>
donor molecule, donor type, donor heavy atom, donor atom, acceptor molecule, acceptor atom, score
      L1  H     6    23       P1  7948  1.00
      L1  H     9    24       P1  7948  0.98

> <Gold.PLP.Chemscore.Internal.Correction>
0.0080

> <Gold.Rescore>
     Score         DG    S(hbond)    S(metal)    S(lipo)     H(rot)  DE(clash)    DE(int)     intcor
     17.12     -18.33       1.90        0.00      77.59       1.00       0.18       1.03       ----

> <Gold.Chemscore.Fitness>
17.1225

> <Gold.Chemscore.DG>
-18.3306

> <Gold.Chemscore.ZeroCoef>
-5.4800

> <Gold.Chemscore.Hbond>
1.8959

> <Gold.Chemscore.Metal>
0.0000

> <Gold.Chemscore.Lipo>
77.5934

> <Gold.Chemscore.Internal_Hbond>
0.0000

> <Gold.Chemscore.DEClash>
0.1814

> <Gold.Chemscore.DEInternal>
1.0267

> <Gold.Chemscore.Rot>
1.0000

> <Gold.Chemscore.Internal.Correction>
   9.000000E+99

> <Gold.Chemscore.Hbonds>
donor molecule, donor type, donor heavy atom, donor atom, acceptor molecule, acceptor atom, score
      L1  H     6    23       P1  7948  0.99
      L1  H     9    24       P1  7948  0.92

> <Gold.Chemscore.Hbond.Weighted>
-6.3322

> <Gold.Chemscore.Metal.Weighted>
-0.0000

> <Gold.Chemscore.Lipo.Weighted>
-9.0784

> <Gold.Chemscore.Internal_Hbond.Weighted>
0.0000

> <Gold.Chemscore.DEClash.Weighted>
0.1814

> <Gold.Chemscore.DEInternal.Weighted>
1.0267

> <Gold.Chemscore.Rot.Weighted>
2.5600

> <Gold.Chemscore.Internal.Correction.Weighted>
   9.000000E+99

> <Gold.Protein.RotatedTorsions>
[ 6907 6896 6895 6894 ] final -140.19 input  -60.11 | X-H torsion
[ 7974 7965 7964 7962 ] final -142.21 input  175.53 | X-H torsion
[ 8008 7997 7996 7995 ] final -129.94 input   59.86 | X-H torsion
[ 10167 10162 10161 10158 ] final -145.33 input  -65.29 | X-H torsion
[ 10718 10713 10712 10709 ] final  -34.23 input   66.30 | X-H torsion
[ 10763 10752 10751 10750 ] final  162.26 input  -60.55 | X-H torsion
[ 11005 11000 10999 10996 ] final -148.49 input  -57.11 | X-H torsion

> <Gold.Protein.ActiveResidues>
 VAL166  LYS551  ARG553  GLY616  TRP617  ASP618  TYR619  PRO620  LYS621  CYS622 
 ASP623  PHE694  ASN695  SER759  ASP760  ASP761  ALA762  ILE779  LEU786  VAL792 
 PHE793  MET794  SER795  GLU796  ALA797  LYS798  CYS799  TRP800  GLU811  SER814 

> <Gold.Protein.RotatedAtoms>
  151.0574  133.5572  159.2636 H   0  0  0  0  0  0  0  0  0  0  0  0  # atno 6907 bound_to 6896
  151.2560  135.0637  159.9090 H   0  0  0  0  0  0  0  0  0  0  0  0  # atno 6908 bound_to 6896
  152.5392  134.0327  159.8086 H   0  0  0  0  0  0  0  0  0  0  0  0  # atno 6909 bound_to 6896
  144.8461  140.5986  143.5421 H   0  0  0  0  0  0  0  0  0  0  0  0  # atno 7974 bound_to 7965
  155.2875  140.0447  157.3020 H   0  0  0  0  0  0  0  0  0  0  0  0  # atno 8008 bound_to 7997
  154.5560  140.2332  155.8377 H   0  0  0  0  0  0  0  0  0  0  0  0  # atno 8009 bound_to 7997
  156.2008  140.3026  155.9529 H   0  0  0  0  0  0  0  0  0  0  0  0  # atno 8010 bound_to 7997
  139.7816  143.8093  152.2639 H   0  0  0  0  0  0  0  0  0  0  0  0  # atno 10167 bound_to 10162
  156.3531  130.4311  149.7687 H   0  0  0  0  0  0  0  0  0  0  0  0  # atno 10718 bound_to 10713
  154.2756  135.2764  155.2719 H   0  0  0  0  0  0  0  0  0  0  0  0  # atno 10763 bound_to 10752
  154.5263  135.5742  153.6725 H   0  0  0  0  0  0  0  0  0  0  0  0  # atno 10764 bound_to 10752
  152.9937  135.6217  154.2913 H   0  0  0  0  0  0  0  0  0  0  0  0  # atno 10765 bound_to 10752
  140.7606  134.3302  157.5102 H   0  0  0  0  0  0  0  0  0  0  0  0  # atno 11005 bound_to 11000
  145.4595  139.1514  143.3874 LP  0  0  0  0  0  0  0  0  0  0  0  0  # atno 17320 bound_to 7965
  146.2745  140.4724  142.8801 LP  0  0  0  0  0  0  0  0  0  0  0  0  # atno 17321 bound_to 7965
  139.8157  144.7317  150.9638 LP  0  0  0  0  0  0  0  0  0  0  0  0  # atno 17342 bound_to 10162
  140.7818  143.4207  151.0846 LP  0  0  0  0  0  0  0  0  0  0  0  0  # atno 17343 bound_to 10162
  156.4880  130.8072  151.3083 LP  0  0  0  0  0  0  0  0  0  0  0  0  # atno 17370 bound_to 10713
  157.7464  130.9984  150.2853 LP  0  0  0  0  0  0  0  0  0  0  0  0  # atno 17371 bound_to 10713
  139.8771  134.9200  156.3240 LP  0  0  0  0  0  0  0  0  0  0  0  0  # atno 17394 bound_to 11000
  140.9666  133.7354  156.0476 LP  0  0  0  0  0  0  0  0  0  0  0  0  # atno 17395 bound_to 11000

$$$$
