AV-unprocessed.smi:3050|AV-procd|sdf|11632|dock2
  -GOLD-   2272017 23D 1   1.00000     0.00000
 Structure written by MMmdl.
 45 46  0  0  0  0  0  0  0  0  1 V2000
  148.2469  131.5379  155.7390 C   0  0  0  0  0  0  0  0  0  0  0  0
  149.1043  131.7310  154.4821 C   0  0  0  0  0  0  0  0  0  0  0  0
  149.0143  133.1600  153.9150 C   0  0  1  0  0  0  0  0  0  0  0  0
  147.6560  133.4034  153.5516 O   0  0  0  0  0  0  0  0  0  0  0  0
  147.1580  132.6767  152.4310 C   0  0  0  0  0  0  0  0  0  0  0  0
  145.9249  133.3726  151.8595 C   0  0  0  0  0  0  0  0  0  0  0  0
  145.2074  132.2803  151.0627 C   0  0  0  0  0  0  0  0  0  0  0  0
  145.5763  130.9515  151.7406 C   0  0  0  0  0  0  0  0  0  0  0  0
  146.6352  131.2844  152.8004 C   0  0  0  0  0  0  0  0  0  0  0  0
  149.4788  134.1987  154.9479 C   0  0  0  0  0  0  0  0  0  0  0  0
  149.7450  133.8561  156.1001 O   0  0  0  0  0  0  0  0  0  0  0  0
  149.5735  135.4651  154.5161 N   0  0  0  0  0  0  0  0  0  0  0  0
  150.0580  136.5887  155.3115 C   0  0  0  0  0  0  0  0  0  0  0  0
  150.9584  137.5390  154.4987 C   0  0  0  0  0  0  0  0  0  0  0  0
  150.7698  138.9837  154.8807 C   0  0  0  0  0  0  0  0  0  0  0  0
  150.0060  139.9761  154.2028 C   0  0  0  0  0  0  0  0  0  0  0  0
  150.0614  141.1594  154.7922 N   0  0  0  0  0  0  0  0  0  0  0  0
  150.8570  140.9640  155.8638 N   0  0  0  0  0  0  0  0  0  0  0  0
  151.1429  142.0710  156.7512 C   0  0  0  0  0  0  0  0  0  0  0  0
  151.2968  139.6607  155.9446 C   0  0  0  0  0  0  0  0  0  0  0  0
  148.3281  130.5161  156.1100 H   0  0  0  0  0  0  0  0  0  0  0  0
  147.1947  131.7340  155.5317 H   0  0  0  0  0  0  0  0  0  0  0  0
  148.5616  132.2077  156.5396 H   0  0  0  0  0  0  0  0  0  0  0  0
  150.1420  131.4850  154.7124 H   0  0  0  0  0  0  0  0  0  0  0  0
  148.7793  131.0137  153.7269 H   0  0  0  0  0  0  0  0  0  0  0  0
  149.6565  133.2167  153.0345 H   0  0  0  0  0  0  0  0  0  0  0  0
  147.9035  132.5957  151.6388 H   0  0  0  0  0  0  0  0  0  0  0  0
  145.2818  133.7113  152.6731 H   0  0  0  0  0  0  0  0  0  0  0  0
  146.1763  134.2421  151.2514 H   0  0  0  0  0  0  0  0  0  0  0  0
  144.1298  132.4430  151.0289 H   0  0  0  0  0  0  0  0  0  0  0  0
  145.5699  132.2778  150.0339 H   0  0  0  0  0  0  0  0  0  0  0  0
  144.7057  130.4806  152.1985 H   0  0  0  0  0  0  0  0  0  0  0  0
  145.9738  130.2527  151.0035 H   0  0  0  0  0  0  0  0  0  0  0  0
  147.4280  130.5369  152.8437 H   0  0  0  0  0  0  0  0  0  0  0  0
  146.1626  131.3207  153.7832 H   0  0  0  0  0  0  0  0  0  0  0  0
  149.3287  135.6579  153.5556 H   0  0  0  0  0  0  0  0  0  0  0  0
  149.1847  137.1344  155.6696 H   0  0  0  0  0  0  0  0  0  0  0  0
  150.5819  136.2297  156.1987 H   0  0  0  0  0  0  0  0  0  0  0  0
  151.9984  137.2404  154.6317 H   0  0  0  0  0  0  0  0  0  0  0  0
  150.7520  137.3996  153.4369 H   0  0  0  0  0  0  0  0  0  0  0  0
  149.4215  139.8724  153.3004 H   0  0  0  0  0  0  0  0  0  0  0  0
  151.8381  141.7563  157.5300 H   0  0  0  0  0  0  0  0  0  0  0  0
  150.2201  142.4169  157.2180 H   0  0  0  0  0  0  0  0  0  0  0  0
  151.5898  142.8909  156.1878 H   0  0  0  0  0  0  0  0  0  0  0  0
  151.9470  139.3254  156.7394 H   0  0  0  0  0  0  0  0  0  0  0  0
  1  2  1  0  0  0  0
  1 21  1  0  0  0  0
  1 22  1  0  0  0  0
  1 23  1  0  0  0  0
  2  3  1  0  0  0  0
  2 24  1  0  0  0  0
  2 25  1  0  0  0  0
  3  4  1  0  0  0  0
  3 10  1  0  0  0  0
  3 26  1  0  0  0  0
  4  5  1  0  0  0  0
  5  9  1  0  0  0  0
  5  6  1  0  0  0  0
  5 27  1  0  0  0  0
  6  7  1  0  0  0  0
  6 28  1  0  0  0  0
  6 29  1  0  0  0  0
  7  8  1  0  0  0  0
  7 30  1  0  0  0  0
  7 31  1  0  0  0  0
  8  9  1  0  0  0  0
  8 32  1  0  0  0  0
  8 33  1  0  0  0  0
  9 34  1  0  0  0  0
  9 35  1  0  0  0  0
 10 11  2  0  0  0  0
 10 12  1  0  0  0  0
 12 13  1  0  0  0  0
 12 36  1  0  0  0  0
 13 14  1  0  0  0  0
 13 37  1  0  0  0  0
 13 38  1  0  0  0  0
 14 15  1  0  0  0  0
 14 39  1  0  0  0  0
 14 40  1  0  0  0  0
 15 20  2  0  0  0  0
 15 16  1  0  0  0  0
 16 17  2  0  0  0  0
 16 41  1  0  0  0  0
 17 18  1  0  0  0  0
 18 19  1  0  0  0  0
 18 20  1  0  0  0  0
 19 42  1  0  0  0  0
 19 43  1  0  0  0  0
 19 44  1  0  0  0  0
 20 45  1  0  0  0  0
M  END
> <s_m_source_file>
AV-unprocessed.smi

> <i_m_source_file_index>
3050

> <i_lp_mmshare_version>
43012

> <i_f3d_flags>
0

> <s_epik_input>
W0NIMl0xW0NIMl1bQ0gyXVtDSDJdW0NIXTFPW0NAQEhdKFtDSDJdW0NIM10pQyg9TylbTkhdW0NIMl1bQ0gyXWMyW2NIXW5uKFtDSDNdKVtjSF0y

> <s_epik_cmdline>
J2VwaWtfcHl0aG9uJywgJy1waCcsICc3LjAnLCAnLXRuJywgJzgnLCAnLW1hJywgJzIwMCcsICctbWV0YWxfYmluZGluZycsICctaW1hZScsICc8aW5maWxlLm1hZT4nLCAnLW9tYWUnLCAnPG91dGZpbGUubWFlPic=

> <r_lp_tautomer_probability>
1

> <r_epik_Ionization_Penalty>
0.000440265

> <r_epik_Ionization_Penalty_Charging>
0

> <r_epik_Ionization_Penalty_Neutral>
0.000440265

> <r_epik_State_Penalty>
-0

> <r_epik_Charging_Adjusted_Penalty>
0

> <i_epik_Tot_Q>
0

> <i_epik_Tot_abs_Q>
0

> <r_epik_Metal_State_Penalty>
-0

> <b_epik_Metal_Only>
0

> <s_lp_Force_Field>
OPLS_2005

> <r_lp_Energy>
20.8184

> <b_lp_Chiralities_Consistent>
1

> <s_lp_Variant>
AV-unprocessed.smi:3050-2

> <Gold.Version>
5.8.1

> <Gold.Id.Protein>
6NUR|6NUR_protein|mol2

> <Gold.PLP.Fitness>
43.2881

> <Gold.PLP.PLP>
-39.1166

> <Gold.PLP.part.hbond>
-2.2752

> <Gold.PLP.part.metal>
0.0000

> <Gold.PLP.part.buried>
-2.2889

> <Gold.PLP.part.nonpolar>
-33.6881

> <Gold.PLP.part.repulsive>
0.3061

> <Gold.PLP.ligand.clash>
0.0000

> <Gold.PLP.ligand.torsion>
1.0453

> <Gold.PLP.Chemscore.Hbond>
1.0000

> <Gold.PLP.Chemscore.CHOScore>
1.0000

> <Gold.PLP.Chemscore.Metal>
0.0000

> <Gold.Chemscore.Hbonds>
donor molecule, donor type, donor heavy atom, donor atom, acceptor molecule, acceptor atom, score
      L1  H    12    36       P1  7948  1.00
      L1  C    16    41       P1  7957  1.00

> <Gold.PLP.Chemscore.Internal.Correction>
0.2621

> <Gold.Rescore>
     Score         DG    S(hbond)    S(metal)    S(lipo)     H(rot)  DE(clash)    DE(int)     intcor
     11.62     -13.67       0.84        0.00      86.15       1.83       0.04       2.01       ----

> <Gold.Chemscore.Fitness>
11.6211

> <Gold.Chemscore.DG>
-13.6732

> <Gold.Chemscore.ZeroCoef>
-5.4800

> <Gold.Chemscore.Hbond>
0.8369

> <Gold.Chemscore.Metal>
0.0000

> <Gold.Chemscore.Lipo>
86.1450

> <Gold.Chemscore.Internal_Hbond>
0.0000

> <Gold.Chemscore.DEClash>
0.0434

> <Gold.Chemscore.DEInternal>
2.0087

> <Gold.Chemscore.Rot>
1.8286

> <Gold.Chemscore.Internal.Correction>
   9.000000E+99

> <Gold.Chemscore.Hbonds>
donor molecule, donor type, donor heavy atom, donor atom, acceptor molecule, acceptor atom, score
      L1  H    12    36       P1  7948  0.45

> <Gold.Chemscore.Hbond.Weighted>
-2.7953

> <Gold.Chemscore.Metal.Weighted>
-0.0000

> <Gold.Chemscore.Lipo.Weighted>
-10.0790

> <Gold.Chemscore.Internal_Hbond.Weighted>
0.0000

> <Gold.Chemscore.DEClash.Weighted>
0.0434

> <Gold.Chemscore.DEInternal.Weighted>
2.0087

> <Gold.Chemscore.Rot.Weighted>
4.6811

> <Gold.Chemscore.Internal.Correction.Weighted>
   9.000000E+99

> <Gold.Protein.RotatedTorsions>
[ 6907 6896 6895 6894 ] final  143.84 input  -60.11 | X-H torsion
[ 7974 7965 7964 7962 ] final  159.34 input  175.53 | X-H torsion
[ 8008 7997 7996 7995 ] final -163.48 input   59.86 | X-H torsion
[ 10167 10162 10161 10158 ] final -125.44 input  -65.29 | X-H torsion
[ 10718 10713 10712 10709 ] final   44.88 input   66.30 | X-H torsion
[ 10763 10752 10751 10750 ] final  175.60 input  -60.55 | X-H torsion
[ 11005 11000 10999 10996 ] final  -44.95 input  -57.11 | X-H torsion

> <Gold.Protein.ActiveResidues>
 VAL166  LYS551  ARG553  GLY616  TRP617  ASP618  TYR619  PRO620  LYS621  CYS622 
 ASP623  PHE694  ASN695  SER759  ASP760  ASP761  ALA762  ILE779  LEU786  VAL792 
 PHE793  MET794  SER795  GLU796  ALA797  LYS798  CYS799  TRP800  GLU811  SER814 

> <Gold.Protein.RotatedAtoms>
  152.2012  133.4842  159.5059 H   0  0  0  0  0  0  0  0  0  0  0  0  # atno 6907 bound_to 6896
  150.6970  134.1588  159.4177 H   0  0  0  0  0  0  0  0  0  0  0  0  # atno 6908 bound_to 6896
  151.9505  135.0171  160.0592 H   0  0  0  0  0  0  0  0  0  0  0  0  # atno 6909 bound_to 6896
  144.7795  139.7604  143.6265 H   0  0  0  0  0  0  0  0  0  0  0  0  # atno 7974 bound_to 7965
  155.8219  140.0921  157.1844 H   0  0  0  0  0  0  0  0  0  0  0  0  # atno 8008 bound_to 7997
  154.3979  140.1435  156.3570 H   0  0  0  0  0  0  0  0  0  0  0  0  # atno 8009 bound_to 7997
  155.8257  140.3444  155.5544 H   0  0  0  0  0  0  0  0  0  0  0  0  # atno 8010 bound_to 7997
  139.9820  143.5732  152.2374 H   0  0  0  0  0  0  0  0  0  0  0  0  # atno 10167 bound_to 10162
  157.4316  130.8028  149.7608 H   0  0  0  0  0  0  0  0  0  0  0  0  # atno 10718 bound_to 10713
  154.4698  135.2770  155.1651 H   0  0  0  0  0  0  0  0  0  0  0  0  # atno 10763 bound_to 10752
  154.3404  135.6171  153.5597 H   0  0  0  0  0  0  0  0  0  0  0  0  # atno 10764 bound_to 10752
  152.9863  135.5787  154.5077 H   0  0  0  0  0  0  0  0  0  0  0  0  # atno 10765 bound_to 10752
  141.0484  133.6752  156.2945 H   0  0  0  0  0  0  0  0  0  0  0  0  # atno 11005 bound_to 11000
  146.1996  139.5282  142.9752 LP  0  0  0  0  0  0  0  0  0  0  0  0  # atno 17320 bound_to 7965
  145.6089  141.0343  143.1977 LP  0  0  0  0  0  0  0  0  0  0  0  0  # atno 17321 bound_to 7965
  139.6402  144.7654  151.2354 LP  0  0  0  0  0  0  0  0  0  0  0  0  # atno 17342 bound_to 10162
  140.7485  143.6329  150.8406 LP  0  0  0  0  0  0  0  0  0  0  0  0  # atno 17343 bound_to 10162
  155.9915  130.3937  150.2981 LP  0  0  0  0  0  0  0  0  0  0  0  0  # atno 17370 bound_to 10713
  157.1139  131.0228  151.3037 LP  0  0  0  0  0  0  0  0  0  0  0  0  # atno 17371 bound_to 10713
  140.6102  134.5466  157.5532 LP  0  0  0  0  0  0  0  0  0  0  0  0  # atno 17394 bound_to 11000
  139.9330  134.7927  156.0878 LP  0  0  0  0  0  0  0  0  0  0  0  0  # atno 17395 bound_to 11000

$$$$
