#       Name:                AV-unprocessed.smi:1952
#       Creating user name   scv26
#       Creation time:       Fri Mar 27 10:04:51 2020


#       File generated by GOLD software.
#

@<TRIPOS>MOLECULE
AV-unprocessed.smi:1952
    47    48     1
SMALL
NO_CHARGES


@<TRIPOS>ATOM
      1 ****        -5.9467   2.5317   1.3049 C.3            1 S1                 0.0000
      2 ****        -4.5340   2.0687   1.2033 C.2            1 S1                 0.0000
      3 ****        -3.8903   0.9457   1.6412 C.2            1 S1                 0.0000
      4 ****        -2.5528   1.1541   1.2112 C.2            1 S1                 0.0000
      5 ****        -1.5478   0.1877   1.4781 N.am           1 S1                 0.0000
      6 ****        -0.2331   0.2422   1.1997 C.2            1 S1                 0.0000
      7 ****         0.2509   1.2415   0.6548 O.2            1 S1                 0.0000
      8 ****         0.4218  -0.8927   1.5716 N.pl3          1 S1                -1.0000
      9 ****         1.8697  -1.1134   1.4629 C.3            1 S1                 0.0000
     10 ****         2.3169  -2.0203   2.6177 C.3            1 S1                 0.0000
     11 ****         2.2148  -1.7403   0.0897 C.3            1 S1                 0.0000
     12 ****         1.8932  -0.8314  -1.0432 N.4            1 S1                 1.0000
     13 ****         3.0198   0.0310  -1.4805 C.3            1 S1                 0.0000
     14 ****         2.5392   1.0124  -2.5615 C.3            1 S1                 0.0000
     15 ****         1.9904   0.2853  -3.6548 O.3            1 S1                 0.0000
     16 ****         0.8644  -0.4931  -3.2660 C.3            1 S1                 0.0000
     17 ****         1.2876  -1.5225  -2.2050 C.3            1 S1                 0.0000
     18 ****        -2.3969   2.2983   0.5615 N.2            1 S1                 0.0000
     19 ****        -3.6651   2.8911   0.5554 O.3            1 S1                 0.0000
     20 ****        -6.6010   1.7182   1.6186 H              1 S1                 0.0000
     21 ****        -6.3042   2.9012   0.3436 H              1 S1                 0.0000
     22 ****        -6.0363   3.3379   2.0331 H              1 S1                 0.0000
     23 ****        -4.3095   0.1122   2.1852 H              1 S1                 0.0000
     24 ****        -1.8628  -0.6520   1.9411 H              1 S1                 0.0000
     25 ****         2.4259  -0.1796   1.5571 H              1 S1                 0.0000
     26 ****         3.3916  -2.2001   2.5797 H              1 S1                 0.0000
     27 ****         1.8174  -2.9893   2.5830 H              1 S1                 0.0000
     28 ****         2.0964  -1.5654   3.5841 H              1 S1                 0.0000
     29 ****         3.2691  -2.0177   0.0472 H              1 S1                 0.0000
     30 ****         1.6596  -2.6745  -0.0125 H              1 S1                 0.0000
     31 ****         3.4205   0.5894  -0.6339 H              1 S1                 0.0000
     32 ****         3.8295  -0.5890  -1.8683 H              1 S1                 0.0000
     33 ****         1.7972   1.7034  -2.1576 H              1 S1                 0.0000
     34 ****         3.3740   1.6147  -2.9204 H              1 S1                 0.0000
     35 ****         0.0737   0.1552  -2.8842 H              1 S1                 0.0000
     36 ****         0.4647  -1.0007  -4.1440 H              1 S1                 0.0000
     37 ****         2.0018  -2.2322  -2.6254 H              1 S1                 0.0000
     38 ****         0.4149  -2.0916  -1.8824 H              1 S1                 0.0000
     39 ****         1.1763  -0.2146  -0.6848 H              1 S1                 0.0000
     40 ****        -0.3362   2.0157   0.4183 LP             1 S1                 0.0000
     41 ****         1.2293   1.2752   0.4507 LP             1 S1                 0.0000
     42 ****        -0.1286  -1.6370   1.9498 LP             1 S1                 0.0000
     43 ****         2.6928  -0.3243  -4.0222 LP             1 S1                 0.0000
     44 ****         1.7068   0.9320  -4.3628 LP             1 S1                 0.0000
     45 ****        -1.5549   2.6603   0.1617 LP             1 S1                 0.0000
     46 ****        -3.6259   3.7744   1.0225 LP             1 S1                 0.0000
     47 ****        -3.9690   3.0259  -0.3877 LP             1 S1                 0.0000
@<TRIPOS>BOND
    1    1    2 1     
    2    1   20 1     
    3    1   21 1     
    4    1   22 1     
    5    2   19 1     
    6    2    3 2     
    7    3    4 1     
    8    3   23 1     
    9    4    5 1     
   10    4   18 2     
   11    5    6 am    
   12    5   24 1     
   13    6    7 2     
   14    6    8 1     
   15    8    9 1     
   16    9   10 1     
   17    9   11 1     
   18    9   25 1     
   19   10   26 1     
   20   10   27 1     
   21   10   28 1     
   22   11   12 1     
   23   11   29 1     
   24   11   30 1     
   25   12   17 1     
   26   12   13 1     
   27   12   39 1     
   28   13   14 1     
   29   13   31 1     
   30   13   32 1     
   31   14   15 1     
   32   14   33 1     
   33   14   34 1     
   34   15   16 1     
   35   16   17 1     
   36   16   35 1     
   37   16   36 1     
   38   17   37 1     
   39   17   38 1     
   40   18   19 1     
   41    7   40 1     
   42    7   41 1     
   43    8   42 1     
   44   15   43 1     
   45   15   44 1     
   46   18   45 1     
   47   19   46 1     
   48   19   47 1     
@<TRIPOS>SUBSTRUCTURE
      1 S1             1
@<TRIPOS>SET
LONE_PAIRS      STATIC     ATOMS    <user>   **** ""
8 40 41 42 43 44 45 46 47
DONOR_HYDROGENS      STATIC     ATOMS    <user>   **** ""
2 24 39
ATOM$BLUE        STATIC     ATOMS    COLORGROUP SYSTEM
8 40 41 42 43 44 45 46 47
ATOM$RED        STATIC     ATOMS    COLORGROUP SYSTEM
2 24 39
