AV-unprocessed.smi:1205|AV-procd|sdf|5046|dock3
  -GOLD-   22720 4 73D 1   1.00000     0.00000
 Structure written by MMmdl.
 49 50  0  0  0  0  0  0  0  0  2 V2000
  150.4960  141.9089  156.2220 C   0  0  0  0  0  0  0  0  0  0  0  0
  150.2019  140.6845  155.4064 C   0  0  0  0  0  0  0  0  0  0  0  0
  148.9755  140.3225  154.7763 C   0  0  0  0  0  0  0  0  0  0  0  0
  149.2829  139.1280  154.1844 C   0  0  0  0  0  0  0  0  0  0  0  0
  148.4871  138.3098  153.4457 N   0  0  0  0  0  0  0  0  0  0  0  0
  147.1487  138.3278  153.3219 C   0  0  0  0  0  0  0  0  0  0  0  0
  146.3882  139.1220  153.8757 O   0  0  0  0  0  0  0  0  0  0  0  0
  146.7261  137.3609  152.4951 N   0  0  0  0  0  0  0  0  0  0  0  0
  145.3318  137.1150  152.1415 C   0  0  0  0  0  0  0  0  0  0  0  0
  144.7301  135.9052  152.9021 C   0  0  1  0  0  0  0  0  0  0  0  0
  143.2335  136.0870  153.2203 C   0  0  0  0  0  0  0  0  0  0  0  0
  144.9679  134.6024  152.2146 N   0  3  2  0  0  0  0  0  0  0  0  0
  146.4013  134.2097  152.1688 C   0  0  0  0  0  0  0  0  0  0  0  0
  146.5520  132.7559  151.6927 C   0  0  0  0  0  0  0  0  0  0  0  0
  145.8771  132.5490  150.3300 C   0  0  0  0  0  0  0  0  0  0  0  0
  144.4060  132.9969  150.3846 C   0  0  2  0  0  0  0  0  0  0  0  0
  143.7171  132.8269  149.0234 C   0  0  0  0  0  0  0  0  0  0  0  0
  144.3124  134.4516  150.8862 C   0  0  0  0  0  0  0  0  0  0  0  0
  150.5971  138.8202  154.4583 N   0  0  0  0  0  0  0  0  0  0  0  0
  151.3759  137.6641  154.0592 C   0  0  0  0  0  0  0  0  0  0  0  0
  151.1619  139.7868  155.2133 N   0  0  0  0  0  0  0  0  0  0  0  0
  149.6265  142.5638  156.2778 H   0  0  0  0  0  0  0  0  0  0  0  0
  151.3156  142.4825  155.7883 H   0  0  0  0  0  0  0  0  0  0  0  0
  150.7769  141.6430  157.2413 H   0  0  0  0  0  0  0  0  0  0  0  0
  148.0403  140.8616  154.7752 H   0  0  0  0  0  0  0  0  0  0  0  0
  148.9752  137.6074  152.9101 H   0  0  0  0  0  0  0  0  0  0  0  0
  147.4166  136.7497  152.0835 H   0  0  0  0  0  0  0  0  0  0  0  0
  144.7813  138.0263  152.3750 H   0  0  0  0  0  0  0  0  0  0  0  0
  145.2559  136.9764  151.0621 H   0  0  0  0  0  0  0  0  0  0  0  0
  145.2275  135.8366  153.8705 H   0  0  0  0  0  0  0  0  0  0  0  0
  143.0706  136.9393  153.8806 H   0  0  0  0  0  0  0  0  0  0  0  0
  142.8308  135.2093  153.7267 H   0  0  0  0  0  0  0  0  0  0  0  0
  142.6412  136.2558  152.3213 H   0  0  0  0  0  0  0  0  0  0  0  0
  146.9506  134.8778  151.5046 H   0  0  0  0  0  0  0  0  0  0  0  0
  146.8487  134.3074  153.1587 H   0  0  0  0  0  0  0  0  0  0  0  0
  147.6081  132.4918  151.6289 H   0  0  0  0  0  0  0  0  0  0  0  0
  146.1087  132.0820  152.4272 H   0  0  0  0  0  0  0  0  0  0  0  0
  146.4112  133.1178  149.5674 H   0  0  0  0  0  0  0  0  0  0  0  0
  145.9433  131.4999  150.0395 H   0  0  0  0  0  0  0  0  0  0  0  0
  143.8835  132.3590  151.0992 H   0  0  0  0  0  0  0  0  0  0  0  0
  144.1907  133.4436  148.2588 H   0  0  0  0  0  0  0  0  0  0  0  0
  142.6659  133.1115  149.0756 H   0  0  0  0  0  0  0  0  0  0  0  0
  143.7606  131.7901  148.6885 H   0  0  0  0  0  0  0  0  0  0  0  0
  143.2635  134.7397  150.9509 H   0  0  0  0  0  0  0  0  0  0  0  0
  144.7812  135.1186  150.1615 H   0  0  0  0  0  0  0  0  0  0  0  0
  151.2502  137.4861  152.9908 H   0  0  0  0  0  0  0  0  0  0  0  0
  151.0357  136.7870  154.6101 H   0  0  0  0  0  0  0  0  0  0  0  0
  152.4348  137.8250  154.2658 H   0  0  0  0  0  0  0  0  0  0  0  0
  144.5316  133.9148  152.8119 H   0  0  0  0  0  0  0  0  0  0  0  0
  1  2  1  0  0  0  0
  1 22  1  0  0  0  0
  1 23  1  0  0  0  0
  1 24  1  0  0  0  0
  2 21  2  0  0  0  0
  2  3  1  0  0  0  0
  3  4  2  0  0  0  0
  3 25  1  0  0  0  0
  4  5  1  0  0  0  0
  4 19  1  0  0  0  0
  5  6  1  0  0  0  0
  5 26  1  0  0  0  0
  6  7  2  0  0  0  0
  6  8  1  0  0  0  0
  8  9  1  0  0  0  0
  8 27  1  0  0  0  0
  9 10  1  0  0  0  0
  9 28  1  0  0  0  0
  9 29  1  0  0  0  0
 10 11  1  0  0  0  0
 10 12  1  0  0  0  0
 10 30  1  0  0  0  0
 11 31  1  0  0  0  0
 11 32  1  0  0  0  0
 11 33  1  0  0  0  0
 12 18  1  0  0  0  0
 12 13  1  0  0  0  0
 12 49  1  0  0  0  0
 13 14  1  0  0  0  0
 13 34  1  0  0  0  0
 13 35  1  0  0  0  0
 14 15  1  0  0  0  0
 14 36  1  0  0  0  0
 14 37  1  0  0  0  0
 15 16  1  0  0  0  0
 15 38  1  0  0  0  0
 15 39  1  0  0  0  0
 16 17  1  0  0  0  0
 16 18  1  0  0  0  0
 16 40  1  0  0  0  0
 17 41  1  0  0  0  0
 17 42  1  0  0  0  0
 17 43  1  0  0  0  0
 18 44  1  0  0  0  0
 18 45  1  0  0  0  0
 19 20  1  0  0  0  0
 19 21  1  0  0  0  0
 20 46  1  0  0  0  0
 20 47  1  0  0  0  0
 20 48  1  0  0  0  0
M  CHG  1  12   1
M  END
> <s_m_source_file>
AV-unprocessed.smi

> <i_m_source_file_index>
1205

> <i_lp_mmshare_version>
43012

> <i_f3d_flags>
0

> <s_epik_input>
W0NIM11jMVtjSF1jKG4objEpW0NIM10pW05IXUMoPU8pW05IXVtDSDJdW0NASF0oW0NIM10pTjJbQ0gyXVtDSDJdW0NIMl1bQ0BASF0oW0NIM10pW0NIMl0y

> <s_epik_cmdline>
J2VwaWtfcHl0aG9uJywgJy1waCcsICc3LjAnLCAnLXRuJywgJzgnLCAnLW1hJywgJzIwMCcsICctbWV0YWxfYmluZGluZycsICctaW1hZScsICc8aW5maWxlLm1hZT4nLCAnLW9tYWUnLCAnPG91dGZpbGUubWFlPic=

> <r_lp_tautomer_probability>
1

> <r_epik_Ionization_Penalty>
0.0020309

> <r_epik_Ionization_Penalty_Charging>
0.00195276

> <r_epik_Ionization_Penalty_Neutral>
7.81448e-05

> <r_epik_State_Penalty>
0.00133177

> <r_epik_Charging_Adjusted_Penalty>
0.00328452

> <i_epik_Tot_Q>
1

> <i_epik_Tot_abs_Q>
1

> <r_epik_Metal_State_Penalty>
-0

> <b_epik_Metal_Only>
0

> <s_lp_Force_Field>
OPLS_2005

> <r_lp_Energy>
21.2667

> <b_lp_Chiralities_Consistent>
1

> <s_lp_Variant>
AV-unprocessed.smi:1205-8

> <Gold.Version>
5.8.1

> <Gold.Id.Protein>
6NUR|6NUR_protein|mol2

> <Gold.PLP.Fitness>
44.4049

> <Gold.PLP.PLP>
-39.0833

> <Gold.PLP.part.hbond>
-3.8989

> <Gold.PLP.part.metal>
0.0000

> <Gold.PLP.part.buried>
-0.8237

> <Gold.PLP.part.nonpolar>
-35.5525

> <Gold.PLP.part.repulsive>
0.3189

> <Gold.PLP.ligand.clash>
0.0000

> <Gold.PLP.ligand.torsion>
0.6120

> <Gold.PLP.Chemscore.Hbond>
2.1420

> <Gold.PLP.Chemscore.CHOScore>
0.0000

> <Gold.PLP.Chemscore.Metal>
0.0000

> <Gold.Chemscore.Hbonds>
donor molecule, donor type, donor heavy atom, donor atom, acceptor molecule, acceptor atom, score
      L1  H     5    26       P1  7948  1.00
      L1  H     8    27       P1  7948  1.00
      P1  H  7989  7998       L1    21  0.14

> <Gold.PLP.Chemscore.Internal.Correction>
0.1197

> <Gold.Rescore>
     Score         DG    S(hbond)    S(metal)    S(lipo)     H(rot)  DE(clash)    DE(int)     intcor
     16.78     -18.57       1.94        0.00      88.59       1.47       0.10       1.69       ----

> <Gold.Chemscore.Fitness>
16.7811

> <Gold.Chemscore.DG>
-18.5671

> <Gold.Chemscore.ZeroCoef>
-5.4800

> <Gold.Chemscore.Hbond>
1.9387

> <Gold.Chemscore.Metal>
0.0000

> <Gold.Chemscore.Lipo>
88.5852

> <Gold.Chemscore.Internal_Hbond>
0.0000

> <Gold.Chemscore.DEClash>
0.0951

> <Gold.Chemscore.DEInternal>
1.6909

> <Gold.Chemscore.Rot>
1.4658

> <Gold.Chemscore.Internal.Correction>
   9.000000E+99

> <Gold.Chemscore.Hbonds>
donor molecule, donor type, donor heavy atom, donor atom, acceptor molecule, acceptor atom, score
      L1  H     5    26       P1  7948  0.96
      L1  H     8    27       P1  7948  0.97

> <Gold.Chemscore.Hbond.Weighted>
-6.4752

> <Gold.Chemscore.Metal.Weighted>
-0.0000

> <Gold.Chemscore.Lipo.Weighted>
-10.3645

> <Gold.Chemscore.Internal_Hbond.Weighted>
0.0000

> <Gold.Chemscore.DEClash.Weighted>
0.0951

> <Gold.Chemscore.DEInternal.Weighted>
1.6909

> <Gold.Chemscore.Rot.Weighted>
3.7526

> <Gold.Chemscore.Internal.Correction.Weighted>
   9.000000E+99

> <Gold.Protein.RotatedTorsions>
[ 6907 6896 6895 6894 ] final   13.48 input  -60.11 | X-H torsion
[ 7974 7965 7964 7962 ] final  -60.59 input  175.53 | X-H torsion
[ 8008 7997 7996 7995 ] final  -58.73 input   59.86 | X-H torsion
[ 10167 10162 10161 10158 ] final  -78.50 input  -65.29 | X-H torsion
[ 10718 10713 10712 10709 ] final -140.28 input   66.30 | X-H torsion
[ 10763 10752 10751 10750 ] final   65.85 input  -60.55 | X-H torsion
[ 11005 11000 10999 10996 ] final  -44.45 input  -57.11 | X-H torsion

> <Gold.Protein.ActiveResidues>
 VAL166  LYS551  ARG553  GLY616  TRP617  ASP618  TYR619  PRO620  LYS621  CYS622 
 ASP623  PHE694  ASN695  SER759  ASP760  ASP761  ALA762  ILE779  LEU786  VAL792 
 PHE793  MET794  SER795  GLU796  ALA797  LYS798  CYS799  TRP800  GLU811  SER814 

> <Gold.Protein.RotatedAtoms>
  151.7871  135.0746  160.0381 H   0  0  0  0  0  0  0  0  0  0  0  0  # atno 6907 bound_to 6896
  152.3183  133.5821  159.5735 H   0  0  0  0  0  0  0  0  0  0  0  0  # atno 6908 bound_to 6896
  150.7356  133.9966  159.3666 H   0  0  0  0  0  0  0  0  0  0  0  0  # atno 6909 bound_to 6896
  145.8137  140.8583  143.0169 H   0  0  0  0  0  0  0  0  0  0  0  0  # atno 7974 bound_to 7965
  154.4321  140.1077  156.6003 H   0  0  0  0  0  0  0  0  0  0  0  0  # atno 8008 bound_to 7997
  155.5918  140.3492  155.4550 H   0  0  0  0  0  0  0  0  0  0  0  0  # atno 8009 bound_to 7997
  156.0240  140.1246  157.0317 H   0  0  0  0  0  0  0  0  0  0  0  0  # atno 8010 bound_to 7997
  140.4677  143.2435  151.8253 H   0  0  0  0  0  0  0  0  0  0  0  0  # atno 10167 bound_to 10162
  156.3205  130.7531  151.1628 H   0  0  0  0  0  0  0  0  0  0  0  0  # atno 10718 bound_to 10713
  153.0114  135.5342  154.6731 H   0  0  0  0  0  0  0  0  0  0  0  0  # atno 10763 bound_to 10752
  154.5910  135.2859  155.0637 H   0  0  0  0  0  0  0  0  0  0  0  0  # atno 10764 bound_to 10752
  154.1730  135.6529  153.5067 H   0  0  0  0  0  0  0  0  0  0  0  0  # atno 10765 bound_to 10752
  141.0451  133.6764  156.2874 H   0  0  0  0  0  0  0  0  0  0  0  0  # atno 11005 bound_to 11000
  144.6755  140.0432  143.7480 LP  0  0  0  0  0  0  0  0  0  0  0  0  # atno 17320 bound_to 7965
  145.9750  139.2898  143.1076 LP  0  0  0  0  0  0  0  0  0  0  0  0  # atno 17321 bound_to 7965
  139.4814  144.4931  151.9159 LP  0  0  0  0  0  0  0  0  0  0  0  0  # atno 17342 bound_to 10162
  140.4016  144.2486  150.5893 LP  0  0  0  0  0  0  0  0  0  0  0  0  # atno 17343 bound_to 10162
  157.7411  131.0509  150.5123 LP  0  0  0  0  0  0  0  0  0  0  0  0  # atno 17370 bound_to 10713
  156.5275  130.4176  149.6219 LP  0  0  0  0  0  0  0  0  0  0  0  0  # atno 17371 bound_to 10713
  140.6161  134.5409  157.5541 LP  0  0  0  0  0  0  0  0  0  0  0  0  # atno 17394 bound_to 11000
  139.9305  134.7972  156.0943 LP  0  0  0  0  0  0  0  0  0  0  0  0  # atno 17395 bound_to 11000

$$$$
