AV-unprocessed.smi:963|AV-procd|sdf|4276|dock2
  -GOLD-   22720 2183D 1   1.00000     0.00000
 Structure written by MMmdl.
 36 37  0  0  0  0  0  0  0  0  1 V2000
  151.5390  145.3527  160.2971 C   0  0  0  0  0  0  0  0  0  0  0  0
  152.1509  145.0563  158.9236 C   0  0  0  0  0  0  0  0  0  0  0  0
  151.9587  143.6264  158.5111 C   0  0  0  0  0  0  0  0  0  0  0  0
  151.1435  143.3338  157.4132 N   0  0  0  0  0  0  0  0  0  0  0  0
  151.0565  142.0246  157.1696 C   0  0  0  0  0  0  0  0  0  0  0  0
  150.2856  141.4476  156.0301 C   0  0  0  0  0  0  0  0  0  0  0  0
  149.2209  140.4450  156.4945 C   0  0  0  0  0  0  0  0  0  0  0  0
  148.6645  139.7229  155.3562 N   0  0  0  0  0  0  0  0  0  0  0  0
  148.4004  140.2483  154.1494 C   0  0  0  0  0  0  0  0  0  0  0  0
  148.5733  141.4319  153.8602 O   0  0  0  0  0  0  0  0  0  0  0  0
  147.8450  139.3638  153.3056 N   0  0  0  0  0  0  0  0  0  0  0  0
  147.1456  139.5640  152.0397 C   0  0  0  0  0  0  0  0  0  0  0  0
  146.7607  138.0890  152.1276 C   0  0  0  0  0  0  0  0  0  0  0  0
  147.1540  138.1152  153.6029 C   0  0  0  0  0  0  0  0  0  0  0  0
  152.0046  141.0503  158.2838 S   0  0  0  0  0  0  0  0  0  0  0  0
  152.4982  142.5088  159.1050 C   0  0  0  0  0  0  0  0  0  0  0  0
  153.3996  142.4472  160.2933 C   0  0  0  0  0  0  0  0  0  0  0  0
  151.6905  146.3965  160.5723 H   0  0  0  0  0  0  0  0  0  0  0  0
  151.9942  144.7342  161.0710 H   0  0  0  0  0  0  0  0  0  0  0  0
  150.4657  145.1596  160.3007 H   0  0  0  0  0  0  0  0  0  0  0  0
  151.7046  145.7204  158.1826 H   0  0  0  0  0  0  0  0  0  0  0  0
  153.2119  145.3060  158.9417 H   0  0  0  0  0  0  0  0  0  0  0  0
  149.8175  142.2644  155.4795 H   0  0  0  0  0  0  0  0  0  0  0  0
  150.9835  140.9667  155.3432 H   0  0  0  0  0  0  0  0  0  0  0  0
  149.6631  139.7182  157.1766 H   0  0  0  0  0  0  0  0  0  0  0  0
  148.4449  140.9690  157.0550 H   0  0  0  0  0  0  0  0  0  0  0  0
  148.4555  138.7455  155.4976 H   0  0  0  0  0  0  0  0  0  0  0  0
  146.2947  140.2438  152.1097 H   0  0  0  0  0  0  0  0  0  0  0  0
  147.7895  139.7999  151.1918 H   0  0  0  0  0  0  0  0  0  0  0  0
  145.7050  137.8853  151.9450 H   0  0  0  0  0  0  0  0  0  0  0  0
  147.4071  137.4457  151.5282 H   0  0  0  0  0  0  0  0  0  0  0  0
  147.8054  137.2925  153.9000 H   0  0  0  0  0  0  0  0  0  0  0  0
  146.3071  138.2316  154.2810 H   0  0  0  0  0  0  0  0  0  0  0  0
  153.0148  143.0653  161.1047 H   0  0  0  0  0  0  0  0  0  0  0  0
  154.3978  142.8042  160.0392 H   0  0  0  0  0  0  0  0  0  0  0  0
  153.4921  141.4268  160.6657 H   0  0  0  0  0  0  0  0  0  0  0  0
  1  2  1  0  0  0  0
  1 18  1  0  0  0  0
  1 19  1  0  0  0  0
  1 20  1  0  0  0  0
  2  3  1  0  0  0  0
  2 21  1  0  0  0  0
  2 22  1  0  0  0  0
  3 16  2  0  0  0  0
  3  4  1  0  0  0  0
  4  5  2  0  0  0  0
  5  6  1  0  0  0  0
  5 15  1  0  0  0  0
  6  7  1  0  0  0  0
  6 23  1  0  0  0  0
  6 24  1  0  0  0  0
  7  8  1  0  0  0  0
  7 25  1  0  0  0  0
  7 26  1  0  0  0  0
  8  9  1  0  0  0  0
  8 27  1  0  0  0  0
  9 10  2  0  0  0  0
  9 11  1  0  0  0  0
 11 14  1  0  0  0  0
 11 12  1  0  0  0  0
 12 13  1  0  0  0  0
 12 28  1  0  0  0  0
 12 29  1  0  0  0  0
 13 14  1  0  0  0  0
 13 30  1  0  0  0  0
 13 31  1  0  0  0  0
 14 32  1  0  0  0  0
 14 33  1  0  0  0  0
 15 16  1  0  0  0  0
 16 17  1  0  0  0  0
 17 34  1  0  0  0  0
 17 35  1  0  0  0  0
 17 36  1  0  0  0  0
M  END
> <s_m_source_file>
AV-unprocessed.smi

> <i_m_source_file_index>
963

> <i_lp_mmshare_version>
43012

> <i_f3d_flags>
0

> <s_epik_input>
W0NIM11bQ0gyXWMxbmMoc2MxW0NIM10pW0NIMl1bQ0gyXVtOSF1DKD1PKU4yW0NIMl1bQ0gyXVtDSDJdMg==

> <s_epik_cmdline>
J2VwaWtfcHl0aG9uJywgJy1waCcsICc3LjAnLCAnLXRuJywgJzgnLCAnLW1hJywgJzIwMCcsICctbWV0YWxfYmluZGluZycsICctaW1hZScsICc8aW5maWxlLm1hZT4nLCAnLW9tYWUnLCAnPG91dGZpbGUubWFlPic=

> <r_epik_Ionization_Penalty>
0.00446738

> <r_epik_Ionization_Penalty_Charging>
0

> <r_epik_Ionization_Penalty_Neutral>
0.00446738

> <r_epik_State_Penalty>
0.00317617

> <r_epik_Charging_Adjusted_Penalty>
0.00317617

> <i_epik_Tot_Q>
0

> <i_epik_Tot_abs_Q>
0

> <r_epik_Metal_State_Penalty>
-0

> <b_epik_Metal_Only>
0

> <s_lp_Force_Field>
OPLS_2005

> <r_lp_Energy>
11.733

> <b_lp_Chiralities_Consistent>
1

> <s_lp_Variant>
AV-unprocessed.smi:963-1

> <Gold.Version>
5.8.1

> <Gold.Id.Protein>
6NUR|6NUR_protein|mol2

> <Gold.PLP.Fitness>
40.9832

> <Gold.PLP.PLP>
-39.4355

> <Gold.PLP.part.hbond>
-1.0000

> <Gold.PLP.part.metal>
0.0000

> <Gold.PLP.part.buried>
0.8698

> <Gold.PLP.part.nonpolar>
-39.4403

> <Gold.PLP.part.repulsive>
0.3369

> <Gold.PLP.ligand.clash>
0.0000

> <Gold.PLP.ligand.torsion>
0.3666

> <Gold.PLP.Chemscore.Hbond>
0.6560

> <Gold.PLP.Chemscore.CHOScore>
0.0000

> <Gold.PLP.Chemscore.Metal>
0.0000

> <Gold.Chemscore.Hbonds>
donor molecule, donor type, donor heavy atom, donor atom, acceptor molecule, acceptor atom, score
      P1  H  8011  8017       L1    10  0.43

> <Gold.PLP.Chemscore.Internal.Correction>
0.3129

> <Gold.Rescore>
     Score         DG    S(hbond)    S(metal)    S(lipo)     H(rot)  DE(clash)    DE(int)     intcor
     13.71     -16.49       0.59        0.00     109.67       1.48       0.96       1.82       ----

> <Gold.Chemscore.Fitness>
13.7095

> <Gold.Chemscore.DG>
-16.4890

> <Gold.Chemscore.ZeroCoef>
-5.4800

> <Gold.Chemscore.Hbond>
0.5855

> <Gold.Chemscore.Metal>
0.0000

> <Gold.Chemscore.Lipo>
109.6704

> <Gold.Chemscore.Internal_Hbond>
0.0000

> <Gold.Chemscore.DEClash>
0.9609

> <Gold.Chemscore.DEInternal>
1.8186

> <Gold.Chemscore.Rot>
1.4758

> <Gold.Chemscore.Internal.Correction>
   9.000000E+99

> <Gold.Chemscore.Hbonds>
donor molecule, donor type, donor heavy atom, donor atom, acceptor molecule, acceptor atom, score
      P1  H  8011  8017       L1    10  0.43

> <Gold.Chemscore.Hbond.Weighted>
-1.9556

> <Gold.Chemscore.Metal.Weighted>
-0.0000

> <Gold.Chemscore.Lipo.Weighted>
-12.8314

> <Gold.Chemscore.Internal_Hbond.Weighted>
0.0000

> <Gold.Chemscore.DEClash.Weighted>
0.9609

> <Gold.Chemscore.DEInternal.Weighted>
1.8186

> <Gold.Chemscore.Rot.Weighted>
3.7780

> <Gold.Chemscore.Internal.Correction.Weighted>
   9.000000E+99

> <Gold.Protein.RotatedTorsions>
[ 6907 6896 6895 6894 ] final   30.60 input  -60.11 | X-H torsion
[ 7974 7965 7964 7962 ] final  -53.95 input  175.53 | X-H torsion
[ 8008 7997 7996 7995 ] final  -90.00 input   59.86 | X-H torsion
[ 10167 10162 10161 10158 ] final   31.03 input  -65.29 | X-H torsion
[ 10718 10713 10712 10709 ] final    7.32 input   66.30 | X-H torsion
[ 10763 10752 10751 10750 ] final  113.73 input  -60.55 | X-H torsion
[ 11005 11000 10999 10996 ] final  -86.04 input  -57.11 | X-H torsion

> <Gold.Protein.ActiveResidues>
 VAL166  LYS551  ARG553  GLY616  TRP617  ASP618  TYR619  PRO620  LYS621  CYS622 
 ASP623  PHE694  ASN695  SER759  ASP760  ASP761  ALA762  ILE779  LEU786  VAL792 
 PHE793  MET794  SER795  GLU796  ALA797  LYS798  CYS799  TRP800  GLU811  SER814 

> <Gold.Protein.RotatedAtoms>
  152.0482  134.9670  160.0574 H   0  0  0  0  0  0  0  0  0  0  0  0  # atno 6907 bound_to 6896
  152.1081  133.4281  159.4626 H   0  0  0  0  0  0  0  0  0  0  0  0  # atno 6908 bound_to 6896
  150.6842  134.2600  159.4588 H   0  0  0  0  0  0  0  0  0  0  0  0  # atno 6909 bound_to 6896
  145.8911  140.8070  142.9791 H   0  0  0  0  0  0  0  0  0  0  0  0  # atno 7974 bound_to 7965
  154.6933  140.0535  157.0385 H   0  0  0  0  0  0  0  0  0  0  0  0  # atno 8008 bound_to 7997
  155.0786  140.3207  155.4589 H   0  0  0  0  0  0  0  0  0  0  0  0  # atno 8009 bound_to 7997
  156.2735  140.2069  156.5914 H   0  0  0  0  0  0  0  0  0  0  0  0  # atno 8010 bound_to 7997
  140.4625  144.0885  150.6216 H   0  0  0  0  0  0  0  0  0  0  0  0  # atno 10167 bound_to 10162
  156.9352  130.5841  149.5650 H   0  0  0  0  0  0  0  0  0  0  0  0  # atno 10718 bound_to 10713
  153.4968  135.3647  155.2520 H   0  0  0  0  0  0  0  0  0  0  0  0  # atno 10763 bound_to 10752
  154.8749  135.3990  154.3525 H   0  0  0  0  0  0  0  0  0  0  0  0  # atno 10764 bound_to 10752
  153.4154  135.7079  153.6396 H   0  0  0  0  0  0  0  0  0  0  0  0  # atno 10765 bound_to 10752
  141.1634  133.7432  156.9103 H   0  0  0  0  0  0  0  0  0  0  0  0  # atno 11005 bound_to 11000
  144.6730  140.1531  143.7428 LP  0  0  0  0  0  0  0  0  0  0  0  0  # atno 17320 bound_to 7965
  145.8907  139.2374  143.1551 LP  0  0  0  0  0  0  0  0  0  0  0  0  # atno 17321 bound_to 7965
  140.4076  143.2673  151.9872 LP  0  0  0  0  0  0  0  0  0  0  0  0  # atno 17342 bound_to 10162
  139.4808  144.5944  151.7716 LP  0  0  0  0  0  0  0  0  0  0  0  0  # atno 17343 bound_to 10162
  156.0429  130.5509  150.8813 LP  0  0  0  0  0  0  0  0  0  0  0  0  # atno 17370 bound_to 10713
  157.5821  131.0946  150.9255 LP  0  0  0  0  0  0  0  0  0  0  0  0  # atno 17371 bound_to 10713
  140.1521  134.9223  157.2606 LP  0  0  0  0  0  0  0  0  0  0  0  0  # atno 17394 bound_to 11000
  140.2710  134.3460  155.7373 LP  0  0  0  0  0  0  0  0  0  0  0  0  # atno 17395 bound_to 11000

$$$$
