AV-unprocessed.smi:2059|AV-procd|sdf|8348|dock7
  -GOLD-   2272011 13D 1   1.00000     0.00000
 Structure written by MMmdl.
 30 31  0  0  0  0  0  0  0  0  1 V2000
  146.0320  130.1130  152.3917 C   0  0  0  0  0  0  0  0  0  0  0  0
  146.8962  131.1286  153.0572 C   0  0  0  0  0  0  0  0  0  0  0  0
  147.3496  132.3592  152.6735 C   0  0  0  0  0  0  0  0  0  0  0  0
  148.1255  132.7807  153.7863 C   0  0  0  0  0  0  0  0  0  0  0  0
  148.7815  134.0446  153.7670 N   0  0  0  0  0  0  0  0  0  0  0  0
  149.6036  134.6290  154.6638 C   0  0  0  0  0  0  0  0  0  0  0  0
  149.9062  134.0613  155.7120 O   0  0  0  0  0  0  0  0  0  0  0  0
  150.0629  135.8494  154.3412 N   0  0  0  0  0  0  0  0  0  0  0  0
  150.9602  136.6570  155.1600 C   0  0  2  0  0  0  0  0  0  0  0  0
  150.2651  137.1921  156.4287 C   0  0  0  0  0  0  0  0  0  0  0  0
  151.1236  138.3142  157.0257 C   0  0  0  0  0  0  0  0  0  0  0  0
  151.9954  139.0968  155.6157 S   0  0  0  0  0  0  0  0  0  0  0  0
  151.3686  140.3899  155.3026 O   0  0  0  0  0  0  0  0  0  0  0  0
  153.4457  138.9926  155.8372 O   0  0  0  0  0  0  0  0  0  0  0  0
  151.4804  137.8616  154.3647 C   0  0  0  0  0  0  0  0  0  0  0  0
  148.1445  131.8822  154.7605 N   0  0  0  0  0  0  0  0  0  0  0  0
  147.3578  130.8205  154.2991 O   0  0  0  0  0  0  0  0  0  0  0  0
  145.4583  130.5619  151.5809 H   0  0  0  0  0  0  0  0  0  0  0  0
  145.3281  129.6772  153.1008 H   0  0  0  0  0  0  0  0  0  0  0  0
  146.6355  129.3072  151.9742 H   0  0  0  0  0  0  0  0  0  0  0  0
  147.1543  132.8734  151.7439 H   0  0  0  0  0  0  0  0  0  0  0  0
  148.6084  134.5928  152.9369 H   0  0  0  0  0  0  0  0  0  0  0  0
  149.7663  136.2456  153.4603 H   0  0  0  0  0  0  0  0  0  0  0  0
  151.8203  136.0563  155.4620 H   0  0  0  0  0  0  0  0  0  0  0  0
  149.2929  137.6054  156.1566 H   0  0  0  0  0  0  0  0  0  0  0  0
  150.0811  136.4021  157.1573 H   0  0  0  0  0  0  0  0  0  0  0  0
  150.5361  139.0568  157.5656 H   0  0  0  0  0  0  0  0  0  0  0  0
  151.8760  137.9066  157.7010 H   0  0  0  0  0  0  0  0  0  0  0  0
  152.3176  137.6151  153.7113 H   0  0  0  0  0  0  0  0  0  0  0  0
  150.6889  138.3106  153.7630 H   0  0  0  0  0  0  0  0  0  0  0  0
  1  2  1  0  0  0  0
  1 18  1  0  0  0  0
  1 19  1  0  0  0  0
  1 20  1  0  0  0  0
  2 17  1  0  0  0  0
  2  3  2  0  0  0  0
  3  4  1  0  0  0  0
  3 21  1  0  0  0  0
  4  5  1  0  0  0  0
  4 16  2  0  0  0  0
  5  6  1  0  0  0  0
  5 22  1  0  0  0  0
  6  7  2  0  0  0  0
  6  8  1  0  0  0  0
  8  9  1  0  0  0  0
  8 23  1  0  0  0  0
  9 15  1  0  0  0  0
  9 10  1  0  0  0  0
  9 24  1  0  0  0  0
 10 11  1  0  0  0  0
 10 25  1  0  0  0  0
 10 26  1  0  0  0  0
 11 12  1  0  0  0  0
 11 27  1  0  0  0  0
 11 28  1  0  0  0  0
 12 13  2  0  0  0  0
 12 14  2  0  0  0  0
 12 15  1  0  0  0  0
 15 29  1  0  0  0  0
 15 30  1  0  0  0  0
 16 17  1  0  0  0  0
M  END
> <s_m_source_file>
AV-unprocessed.smi

> <i_m_source_file_index>
2059

> <i_lp_mmshare_version>
43012

> <i_f3d_flags>
0

> <s_epik_input>
W0NIM11jMVtjSF1jKG5vMSlbTkhdQyg9TylbTkhdW0NAQEhdKFtDSDJdMilbQ0gyXVtDSDJdUzIoPU8pPU8=

> <s_epik_cmdline>
J2VwaWtfcHl0aG9uJywgJy1waCcsICc3LjAnLCAnLXRuJywgJzgnLCAnLW1hJywgJzIwMCcsICctbWV0YWxfYmluZGluZycsICctaW1hZScsICc8aW5maWxlLm1hZT4nLCAnLW9tYWUnLCAnPG91dGZpbGUubWFlPic=

> <r_lp_tautomer_probability>
1

> <r_epik_Ionization_Penalty>
3.88767e-05

> <r_epik_Ionization_Penalty_Charging>
0

> <r_epik_Ionization_Penalty_Neutral>
3.88767e-05

> <r_epik_State_Penalty>
-0

> <r_epik_Charging_Adjusted_Penalty>
0

> <i_epik_Tot_Q>
0

> <i_epik_Tot_abs_Q>
0

> <r_epik_Metal_State_Penalty>
0.0251347

> <b_epik_Metal_Only>
0

> <s_lp_Force_Field>
OPLS_2005

> <r_lp_Energy>
4.38419

> <b_lp_Chiralities_Consistent>
1

> <s_lp_Variant>
AV-unprocessed.smi:2059-1

> <Gold.Version>
5.8.1

> <Gold.Id.Protein>
6NUR|6NUR_protein|mol2

> <Gold.PLP.Fitness>
36.1204

> <Gold.PLP.PLP>
-24.5262

> <Gold.PLP.part.hbond>
-4.5354

> <Gold.PLP.part.metal>
0.0000

> <Gold.PLP.part.buried>
-3.7726

> <Gold.PLP.part.nonpolar>
-17.1727

> <Gold.PLP.part.repulsive>
0.2093

> <Gold.PLP.ligand.clash>
0.0000

> <Gold.PLP.ligand.torsion>
0.1059

> <Gold.PLP.Chemscore.Hbond>
3.9353

> <Gold.PLP.Chemscore.CHOScore>
0.0000

> <Gold.PLP.Chemscore.Metal>
0.0000

> <Gold.Chemscore.Hbonds>
donor molecule, donor type, donor heavy atom, donor atom, acceptor molecule, acceptor atom, score
      L1  H     5    22       P1  7948  0.89
      L1  H     8    23       P1  7948  0.95
      P1  H  7989  7998       L1    13  0.94
      P1  H  7997  8009       L1    14  0.93

> <Gold.PLP.Chemscore.Internal.Correction>
0.0002

> <Gold.Rescore>
     Score         DG    S(hbond)    S(metal)    S(lipo)     H(rot)  DE(clash)    DE(int)     intcor
     15.75     -17.04       2.88        0.00      38.47       1.00       0.03       1.26       ----

> <Gold.Chemscore.Fitness>
15.7501

> <Gold.Chemscore.DG>
-17.0435

> <Gold.Chemscore.ZeroCoef>
-5.4800

> <Gold.Chemscore.Hbond>
2.8809

> <Gold.Chemscore.Metal>
0.0000

> <Gold.Chemscore.Lipo>
38.4731

> <Gold.Chemscore.Internal_Hbond>
0.0000

> <Gold.Chemscore.DEClash>
0.0321

> <Gold.Chemscore.DEInternal>
1.2612

> <Gold.Chemscore.Rot>
1.0000

> <Gold.Chemscore.Internal.Correction>
   9.000000E+99

> <Gold.Chemscore.Hbonds>
donor molecule, donor type, donor heavy atom, donor atom, acceptor molecule, acceptor atom, score
      L1  H     5    22       P1  7948  0.17
      L1  H     8    23       P1  7948  0.21
      P1  H  7989  7998       L1    13  0.75
      P1  H  7997  8009       L1    14  0.84

> <Gold.Chemscore.Hbond.Weighted>
-9.6221

> <Gold.Chemscore.Metal.Weighted>
-0.0000

> <Gold.Chemscore.Lipo.Weighted>
-4.5014

> <Gold.Chemscore.Internal_Hbond.Weighted>
0.0000

> <Gold.Chemscore.DEClash.Weighted>
0.0321

> <Gold.Chemscore.DEInternal.Weighted>
1.2612

> <Gold.Chemscore.Rot.Weighted>
2.5600

> <Gold.Chemscore.Internal.Correction.Weighted>
   9.000000E+99

> <Gold.Protein.RotatedTorsions>
[ 6907 6896 6895 6894 ] final  106.82 input  -60.11 | X-H torsion
[ 7974 7965 7964 7962 ] final   15.86 input  175.53 | X-H torsion
[ 8008 7997 7996 7995 ] final -148.60 input   59.86 | X-H torsion
[ 10167 10162 10161 10158 ] final  145.64 input  -65.29 | X-H torsion
[ 10718 10713 10712 10709 ] final  153.90 input   66.30 | X-H torsion
[ 10763 10752 10751 10750 ] final   56.62 input  -60.55 | X-H torsion
[ 11005 11000 10999 10996 ] final   51.45 input  -57.11 | X-H torsion

> <Gold.Protein.ActiveResidues>
 VAL166  LYS551  ARG553  GLY616  TRP617  ASP618  TYR619  PRO620  LYS621  CYS622 
 ASP623  PHE694  ASN695  SER759  ASP760  ASP761  ALA762  ILE779  LEU786  VAL792 
 PHE793  MET794  SER795  GLU796  ALA797  LYS798  CYS799  TRP800  GLU811  SER814 

> <Gold.Protein.RotatedAtoms>
  152.5179  133.9324  159.7586 H   0  0  0  0  0  0  0  0  0  0  0  0  # atno 6907 bound_to 6896
  150.9672  133.6374  159.2751 H   0  0  0  0  0  0  0  0  0  0  0  0  # atno 6908 bound_to 6896
  151.3598  135.0907  159.9483 H   0  0  0  0  0  0  0  0  0  0  0  0  # atno 6909 bound_to 6896
  146.2266  139.8832  142.8567 H   0  0  0  0  0  0  0  0  0  0  0  0  # atno 7974 bound_to 7965
  155.5943  140.0655  157.2750 H   0  0  0  0  0  0  0  0  0  0  0  0  # atno 8008 bound_to 7997
  154.4296  140.1830  156.1153 H   0  0  0  0  0  0  0  0  0  0  0  0  # atno 8009 bound_to 7997
  156.0209  140.3317  155.7041 H   0  0  0  0  0  0  0  0  0  0  0  0  # atno 8010 bound_to 7997
  139.4922  144.5887  151.6725 H   0  0  0  0  0  0  0  0  0  0  0  0  # atno 10167 bound_to 10162
  157.2387  131.0754  151.1807 H   0  0  0  0  0  0  0  0  0  0  0  0  # atno 10718 bound_to 10713
  152.9835  135.5670  154.5259 H   0  0  0  0  0  0  0  0  0  0  0  0  # atno 10763 bound_to 10752
  154.4739  135.2786  155.1624 H   0  0  0  0  0  0  0  0  0  0  0  0  # atno 10764 bound_to 10752
  154.3161  135.6278  153.5540 H   0  0  0  0  0  0  0  0  0  0  0  0  # atno 10765 bound_to 10752
  140.0932  134.5181  155.8832 H   0  0  0  0  0  0  0  0  0  0  0  0  # atno 11005 bound_to 11000
  145.2492  141.0037  143.3891 LP  0  0  0  0  0  0  0  0  0  0  0  0  # atno 17320 bound_to 7965
  144.9389  139.4212  143.6459 LP  0  0  0  0  0  0  0  0  0  0  0  0  # atno 17321 bound_to 7965
  140.5509  144.0427  150.6126 LP  0  0  0  0  0  0  0  0  0  0  0  0  # atno 17342 bound_to 10162
  140.3481  143.2979  152.0517 LP  0  0  0  0  0  0  0  0  0  0  0  0  # atno 17343 bound_to 10162
  157.3402  130.7029  149.6377 LP  0  0  0  0  0  0  0  0  0  0  0  0  # atno 17370 bound_to 10713
  155.9671  130.4282  150.4778 LP  0  0  0  0  0  0  0  0  0  0  0  0  # atno 17371 bound_to 10713
  141.2084  133.6673  156.6369 LP  0  0  0  0  0  0  0  0  0  0  0  0  # atno 17394 bound_to 11000
  140.3323  134.7918  157.4336 LP  0  0  0  0  0  0  0  0  0  0  0  0  # atno 17395 bound_to 11000

$$$$
