AV-unprocessed.smi:3025|AV-procd|sdf|11505|dock9
  -GOLD-   2272016443D 1   1.00000     0.00000
 Structure written by MMmdl.
 42 43  0  0  0  0  0  0  0  0  2 V2000
  152.2059  143.5539  158.6373 C   0  0  0  0  0  0  0  0  0  0  0  0
  151.2658  143.0018  157.5602 C   0  0  0  0  0  0  0  0  0  0  0  0
  151.5122  141.5110  157.2721 C   0  0  0  0  0  0  0  0  0  0  0  0
  150.8873  141.0122  155.9527 C   0  0  2  0  0  0  0  0  0  0  0  0
  149.4048  141.4171  155.8055 C   0  0  0  0  0  0  0  0  0  0  0  0
  148.7962  140.8964  154.4930 C   0  0  0  0  0  0  0  0  0  0  0  0
  148.9441  139.3663  154.3638 C   0  0  1  0  0  0  0  0  0  0  0  0
  148.4158  138.8759  153.0713 N   0  3  0  0  0  0  0  0  0  0  0  0
  146.9559  139.0199  152.8910 C   0  0  0  0  0  0  0  0  0  0  0  0
  146.5016  138.3991  151.5634 C   0  0  0  0  0  0  0  0  0  0  0  0
  145.4736  137.3326  151.7550 C   0  0  0  0  0  0  0  0  0  0  0  0
  144.2695  137.5834  152.2728 N   0  0  0  0  0  0  0  0  0  0  0  0
  143.5663  136.4337  152.3416 N   0  0  0  0  0  0  0  0  0  0  0  0
  144.4284  135.5486  151.8447 C   0  0  0  0  0  0  0  0  0  0  0  0
  145.6427  136.0478  151.4627 N   0  0  0  0  0  0  0  0  0  0  0  0
  150.4232  138.9656  154.5076 C   0  0  0  0  0  0  0  0  0  0  0  0
  151.0224  139.4816  155.8254 C   0  0  0  0  0  0  0  0  0  0  0  0
  143.9004  138.4734  152.5764 H   0  0  0  0  0  0  0  0  0  0  0  0
  152.0081  144.6101  158.8211 H   0  0  0  0  0  0  0  0  0  0  0  0
  153.2494  143.4591  158.3363 H   0  0  0  0  0  0  0  0  0  0  0  0
  152.0786  143.0229  159.5811 H   0  0  0  0  0  0  0  0  0  0  0  0
  150.2367  143.1589  157.8818 H   0  0  0  0  0  0  0  0  0  0  0  0
  151.3958  143.5789  156.6442 H   0  0  0  0  0  0  0  0  0  0  0  0
  152.5901  141.3474  157.2331 H   0  0  0  0  0  0  0  0  0  0  0  0
  151.1474  140.9090  158.1054 H   0  0  0  0  0  0  0  0  0  0  0  0
  151.4461  141.4607  155.1296 H   0  0  0  0  0  0  0  0  0  0  0  0
  148.8317  141.0319  156.6501 H   0  0  0  0  0  0  0  0  0  0  0  0
  149.3008  142.5014  155.8324 H   0  0  0  0  0  0  0  0  0  0  0  0
  147.7465  141.1866  154.4543 H   0  0  0  0  0  0  0  0  0  0  0  0
  149.2831  141.3878  153.6492 H   0  0  0  0  0  0  0  0  0  0  0  0
  148.3852  138.8831  155.1673 H   0  0  0  0  0  0  0  0  0  0  0  0
  148.8947  139.3545  152.3216 H   0  0  0  0  0  0  0  0  0  0  0  0
  146.4426  138.5341  153.7221 H   0  0  0  0  0  0  0  0  0  0  0  0
  146.6807  140.0743  152.9125 H   0  0  0  0  0  0  0  0  0  0  0  0
  146.0925  139.1704  150.9089 H   0  0  0  0  0  0  0  0  0  0  0  0
  147.3548  137.9663  151.0393 H   0  0  0  0  0  0  0  0  0  0  0  0
  144.1752  134.5022  151.7566 H   0  0  0  0  0  0  0  0  0  0  0  0
  150.5222  137.8803  154.4641 H   0  0  0  0  0  0  0  0  0  0  0  0
  150.9993  139.3617  153.6698 H   0  0  0  0  0  0  0  0  0  0  0  0
  152.0730  139.1936  155.8804 H   0  0  0  0  0  0  0  0  0  0  0  0
  150.5260  138.9953  156.6666 H   0  0  0  0  0  0  0  0  0  0  0  0
  148.6292  137.8906  153.0088 H   0  0  0  0  0  0  0  0  0  0  0  0
  1  2  1  0  0  0  0
  1 19  1  0  0  0  0
  1 20  1  0  0  0  0
  1 21  1  0  0  0  0
  2  3  1  0  0  0  0
  2 22  1  0  0  0  0
  2 23  1  0  0  0  0
  3  4  1  0  0  0  0
  3 24  1  0  0  0  0
  3 25  1  0  0  0  0
  4 17  1  0  0  0  0
  4  5  1  0  0  0  0
  4 26  1  0  0  0  0
  5  6  1  0  0  0  0
  5 27  1  0  0  0  0
  5 28  1  0  0  0  0
  6  7  1  0  0  0  0
  6 29  1  0  0  0  0
  6 30  1  0  0  0  0
  7  8  1  0  0  0  0
  7 16  1  0  0  0  0
  7 31  1  0  0  0  0
  8  9  1  0  0  0  0
  8 32  1  0  0  0  0
  8 42  1  0  0  0  0
  9 10  1  0  0  0  0
  9 33  1  0  0  0  0
  9 34  1  0  0  0  0
 10 35  1  0  0  0  0
 10 36  1  0  0  0  0
 10 11  1  0  0  0  0
 11 15  2  0  0  0  0
 11 12  1  0  0  0  0
 12 18  1  0  0  0  0
 12 13  1  0  0  0  0
 13 14  2  0  0  0  0
 14 15  1  0  0  0  0
 14 37  1  0  0  0  0
 16 17  1  0  0  0  0
 16 38  1  0  0  0  0
 16 39  1  0  0  0  0
 17 40  1  0  0  0  0
 17 41  1  0  0  0  0
M  CHG  1   8   1
M  END
> <s_m_source_file>
AV-unprocessed.smi

> <i_m_source_file_index>
3025

> <i_lp_mmshare_version>
43012

> <i_f3d_flags>
0

> <s_epik_input>
W0NIM11bQ0gyXVtDSDJdW0NAQEhdMVtDSDJdW0NIMl1bQ0BIXShbQ0gyXVtDSDJdMSlbTkhdW0NIMl1bQ0gyXWMybm5bY0hdW25IXTI=

> <s_epik_cmdline>
J2VwaWtfcHl0aG9uJywgJy1waCcsICc3LjAnLCAnLXRuJywgJzgnLCAnLW1hJywgJzIwMCcsICctbWV0YWxfYmluZGluZycsICctaW1hZScsICc8aW5maWxlLm1hZT4nLCAnLW9tYWUnLCAnPG91dGZpbGUubWFlPic=

> <r_lp_tautomer_probability>
0.948284

> <r_epik_Ionization_Penalty>
0.0093758

> <r_epik_Ionization_Penalty_Charging>
0.000546397

> <r_epik_Ionization_Penalty_Neutral>
0.00882941

> <r_epik_State_Penalty>
0.401098

> <r_epik_Charging_Adjusted_Penalty>
0.401645

> <i_epik_Tot_Q>
1

> <i_epik_Tot_abs_Q>
1

> <r_epik_Metal_State_Penalty>
0.634803

> <b_epik_Metal_Only>
0

> <s_lp_Force_Field>
OPLS_2005

> <r_lp_Energy>
13.6193

> <b_lp_Chiralities_Consistent>
1

> <s_lp_Variant>
AV-unprocessed.smi:3025-1

> <Gold.Version>
5.8.1

> <Gold.Id.Protein>
6NUR|6NUR_protein|mol2

> <Gold.PLP.Fitness>
47.3324

> <Gold.PLP.PLP>
-36.5152

> <Gold.PLP.part.hbond>
-3.9466

> <Gold.PLP.part.metal>
0.0000

> <Gold.PLP.part.buried>
-2.4874

> <Gold.PLP.part.nonpolar>
-32.4073

> <Gold.PLP.part.repulsive>
0.5007

> <Gold.PLP.ligand.clash>
0.0000

> <Gold.PLP.ligand.torsion>
0.5278

> <Gold.PLP.Chemscore.Hbond>
3.9265

> <Gold.PLP.Chemscore.CHOScore>
0.0000

> <Gold.PLP.Chemscore.Metal>
0.0000

> <Gold.Chemscore.Hbonds>
donor molecule, donor type, donor heavy atom, donor atom, acceptor molecule, acceptor atom, score
      L1  H     8    32       P1  7957  0.96
      L1  H     8    42       P1  7948  1.95
      L1  H    12    18       P1 10175  1.00

> <Gold.PLP.Chemscore.Internal.Correction>
0.0934

> <Gold.Rescore>
     Score         DG    S(hbond)    S(metal)    S(lipo)     H(rot)  DE(clash)    DE(int)     intcor
     17.82     -18.54       2.79        0.00      88.13       2.56       0.19       0.53       ----

> <Gold.Chemscore.Fitness>
17.8190

> <Gold.Chemscore.DG>
-18.5427

> <Gold.Chemscore.ZeroCoef>
-5.4800

> <Gold.Chemscore.Hbond>
2.7861

> <Gold.Chemscore.Metal>
0.0000

> <Gold.Chemscore.Lipo>
88.1305

> <Gold.Chemscore.Internal_Hbond>
0.0000

> <Gold.Chemscore.DEClash>
0.1902

> <Gold.Chemscore.DEInternal>
0.5336

> <Gold.Chemscore.Rot>
2.5602

> <Gold.Chemscore.Internal.Correction>
   9.000000E+99

> <Gold.Chemscore.Hbonds>
donor molecule, donor type, donor heavy atom, donor atom, acceptor molecule, acceptor atom, score
      L1  H     8    32       P1  7957  0.91
      L1  H     8    42       P1  7948  0.87
      L1  H    12    18       P1 10175  0.95

> <Gold.Chemscore.Hbond.Weighted>
-9.3057

> <Gold.Chemscore.Metal.Weighted>
-0.0000

> <Gold.Chemscore.Lipo.Weighted>
-10.3113

> <Gold.Chemscore.Internal_Hbond.Weighted>
0.0000

> <Gold.Chemscore.DEClash.Weighted>
0.1902

> <Gold.Chemscore.DEInternal.Weighted>
0.5336

> <Gold.Chemscore.Rot.Weighted>
6.5542

> <Gold.Chemscore.Internal.Correction.Weighted>
   9.000000E+99

> <Gold.Protein.RotatedTorsions>
[ 6907 6896 6895 6894 ] final -161.70 input  -60.11 | X-H torsion
[ 7974 7965 7964 7962 ] final  -50.26 input  175.53 | X-H torsion
[ 8008 7997 7996 7995 ] final   -9.46 input   59.86 | X-H torsion
[ 10167 10162 10161 10158 ] final -158.96 input  -65.29 | X-H torsion
[ 10718 10713 10712 10709 ] final -126.08 input   66.30 | X-H torsion
[ 10763 10752 10751 10750 ] final  -27.74 input  -60.55 | X-H torsion
[ 11005 11000 10999 10996 ] final  150.45 input  -57.11 | X-H torsion

> <Gold.Protein.ActiveResidues>
 VAL166  LYS551  ARG553  GLY616  TRP617  ASP618  TYR619  PRO620  LYS621  CYS622 
 ASP623  PHE694  ASN695  SER759  ASP760  ASP761  ALA762  ILE779  LEU786  VAL792 
 PHE793  MET794  SER795  GLU796  ALA797  LYS798  CYS799  TRP800  GLU811  SER814 

> <Gold.Protein.RotatedAtoms>
  151.3687  133.3862  159.2697 H   0  0  0  0  0  0  0  0  0  0  0  0  # atno 6907 bound_to 6896
  150.9668  134.9048  159.7774 H   0  0  0  0  0  0  0  0  0  0  0  0  # atno 6908 bound_to 6896
  152.5170  134.3648  159.9350 H   0  0  0  0  0  0  0  0  0  0  0  0  # atno 6909 bound_to 6896
  145.9318  140.7742  142.9596 H   0  0  0  0  0  0  0  0  0  0  0  0  # atno 7974 bound_to 7965
  154.5645  140.2354  155.8285 H   0  0  0  0  0  0  0  0  0  0  0  0  # atno 8008 bound_to 7997
  156.2056  140.3040  155.9579 H   0  0  0  0  0  0  0  0  0  0  0  0  # atno 8009 bound_to 7997
  155.2827  140.0423  157.3007 H   0  0  0  0  0  0  0  0  0  0  0  0  # atno 8010 bound_to 7997
  139.6652  143.9842  152.2250 H   0  0  0  0  0  0  0  0  0  0  0  0  # atno 10167 bound_to 10162
  156.1733  130.6682  151.0209 H   0  0  0  0  0  0  0  0  0  0  0  0  # atno 10718 bound_to 10713
  153.7370  135.6935  153.4976 H   0  0  0  0  0  0  0  0  0  0  0  0  # atno 10763 bound_to 10752
  153.2095  135.4408  155.0362 H   0  0  0  0  0  0  0  0  0  0  0  0  # atno 10764 bound_to 10752
  154.8233  135.3433  154.6898 H   0  0  0  0  0  0  0  0  0  0  0  0  # atno 10765 bound_to 10752
  140.1133  134.8910  157.1967 H   0  0  0  0  0  0  0  0  0  0  0  0  # atno 11005 bound_to 11000
  144.6766  140.2139  143.7374 LP  0  0  0  0  0  0  0  0  0  0  0  0  # atno 17320 bound_to 7965
  145.8416  139.2132  143.1824 LP  0  0  0  0  0  0  0  0  0  0  0  0  # atno 17321 bound_to 7965
  139.9591  144.6569  150.8096 LP  0  0  0  0  0  0  0  0  0  0  0  0  # atno 17342 bound_to 10162
  140.7596  143.3133  151.2793 LP  0  0  0  0  0  0  0  0  0  0  0  0  # atno 17343 bound_to 10162
  157.6818  131.0836  150.7349 LP  0  0  0  0  0  0  0  0  0  0  0  0  # atno 17370 bound_to 10713
  156.7407  130.4738  149.5478 LP  0  0  0  0  0  0  0  0  0  0  0  0  # atno 17371 bound_to 10713
  140.3062  134.3075  155.7277 LP  0  0  0  0  0  0  0  0  0  0  0  0  # atno 17394 bound_to 11000
  141.2135  133.7622  156.9712 LP  0  0  0  0  0  0  0  0  0  0  0  0  # atno 17395 bound_to 11000

$$$$
