#       Name:                AV-unprocessed.smi:2065
#       Creating user name   scv26
#       Creation time:       Fri Mar 27 11:11:02 2020


#       File generated by GOLD software.
#

@<TRIPOS>MOLECULE
AV-unprocessed.smi:2065
    43    44     1
SMALL
NO_CHARGES


@<TRIPOS>ATOM
      1 ****        -6.1753   0.0631  -0.7196 C.3            1 S1                 0.0000
      2 ****        -4.8266   0.6967  -0.5459 C.2            1 S1                 0.0000
      3 ****        -3.5725   0.0498  -0.3448 C.2            1 S1                 0.0000
      4 ****        -2.7025   1.1018  -0.2542 C.2            1 S1                 0.0000
      5 ****        -1.3571   1.0852  -0.0590 N.am           1 S1                 0.0000
      6 ****        -0.5392   0.0260   0.0688 C.2            1 S1                 0.0000
      7 ****        -0.8865  -1.1545   0.0287 O.2            1 S1                 0.0000
      8 ****         0.7311   0.4170   0.2465 N.am           1 S1                 0.0000
      9 ****         1.8801  -0.4687   0.4434 C.3            1 S1                 0.0000
     10 ****         2.4169  -0.9548  -0.9216 C.3            1 S1                 0.0000
     11 ****         3.2239  -2.2611  -0.8466 C.3            1 S1                 0.0000
     12 ****         4.5123  -2.1772  -0.0146 C.3            1 S1                 0.0000
     13 ****         4.2654  -1.9201   1.4821 C.3            1 S1                 0.0000
     14 ****         3.9826  -0.5197   1.7709 N.am           1 S1                 0.0000
     15 ****         2.9398   0.2041   1.3364 C.2            1 S1                 0.0000
     16 ****         2.8344   1.3922   1.6410 O.2            1 S1                 0.0000
     17 ****        -3.4081   2.2763  -0.3927 N.pl3          1 S1                 0.0000
     18 ****        -2.9310   3.6452  -0.3669 C.3            1 S1                 0.0000
     19 ****        -4.7219   2.0206  -0.5739 N.2            1 S1                 0.0000
     20 ****        -6.1209  -1.0188  -0.5969 H              1 S1                 0.0000
     21 ****        -6.5778   0.2641  -1.7126 H              1 S1                 0.0000
     22 ****        -6.8866   0.4442   0.0134 H              1 S1                 0.0000
     23 ****        -3.3694  -1.0085  -0.2806 H              1 S1                 0.0000
     24 ****        -0.9191   1.9932  -0.0078 H              1 S1                 0.0000
     25 ****         0.9237   1.4080   0.2718 H              1 S1                 0.0000
     26 ****         1.5189  -1.3351   1.0009 H              1 S1                 0.0000
     27 ****         1.5815  -1.1311  -1.6006 H              1 S1                 0.0000
     28 ****         3.0150  -0.1717  -1.3898 H              1 S1                 0.0000
     29 ****         2.5895  -3.0578  -0.4561 H              1 S1                 0.0000
     30 ****         3.4865  -2.5629  -1.8610 H              1 S1                 0.0000
     31 ****         5.0392  -3.1266  -0.1157 H              1 S1                 0.0000
     32 ****         5.1817  -1.4196  -0.4248 H              1 S1                 0.0000
     33 ****         3.4674  -2.5571   1.8659 H              1 S1                 0.0000
     34 ****         5.1630  -2.1848   2.0415 H              1 S1                 0.0000
     35 ****         4.6550  -0.0443   2.3555 H              1 S1                 0.0000
     36 ****        -2.1920   3.7900  -1.1556 H              1 S1                 0.0000
     37 ****        -2.4680   3.8524   0.5981 H              1 S1                 0.0000
     38 ****        -3.7549   4.3434  -0.5219 H              1 S1                 0.0000
     39 ****        -1.8490  -1.3882  -0.1089 LP             1 S1                 0.0000
     40 ****        -0.2060  -1.8798   0.1336 LP             1 S1                 0.0000
     41 ****         2.0574   1.9267   1.3083 LP             1 S1                 0.0000
     42 ****         3.5258   1.8229   2.2210 LP             1 S1                 0.0000
     43 ****        -5.4579   2.6855  -0.7018 LP             1 S1                 0.0000
@<TRIPOS>BOND
    1    1    2 1     
    2    1   20 1     
    3    1   21 1     
    4    1   22 1     
    5    2   19 2     
    6    2    3 1     
    7    3    4 2     
    8    3   23 1     
    9    4    5 1     
   10    4   17 1     
   11    5    6 am    
   12    5   24 1     
   13    6    7 2     
   14    6    8 am    
   15    8    9 1     
   16    8   25 1     
   17    9   15 1     
   18    9   10 1     
   19    9   26 1     
   20   10   11 1     
   21   10   27 1     
   22   10   28 1     
   23   11   12 1     
   24   11   29 1     
   25   11   30 1     
   26   12   13 1     
   27   12   31 1     
   28   12   32 1     
   29   13   14 1     
   30   13   33 1     
   31   13   34 1     
   32   14   15 am    
   33   14   35 1     
   34   15   16 2     
   35   17   18 1     
   36   17   19 1     
   37   18   36 1     
   38   18   37 1     
   39   18   38 1     
   40    7   39 1     
   41    7   40 1     
   42   16   41 1     
   43   16   42 1     
   44   19   43 1     
@<TRIPOS>SUBSTRUCTURE
      1 S1             1
@<TRIPOS>SET
LONE_PAIRS      STATIC     ATOMS    <user>   **** ""
5 39 40 41 42 43
DONOR_HYDROGENS      STATIC     ATOMS    <user>   **** ""
3 24 25 35
ATOM$BLUE        STATIC     ATOMS    COLORGROUP SYSTEM
5 39 40 41 42 43
ATOM$RED        STATIC     ATOMS    COLORGROUP SYSTEM
3 24 25 35
