AV-unprocessed.smi:910|AV-procd|sdf|4121|dock7
  -GOLD-   22720 2 23D 1   1.00000     0.00000
 Structure written by MMmdl.
 46 47  0  0  0  0  0  0  0  0  1 V2000
  145.6129  136.8491  152.0341 C   0  0  0  0  0  0  0  0  0  0  0  0
  146.1992  137.7927  153.0608 C   0  0  0  0  0  0  0  0  0  0  0  0
  147.4462  138.3379  152.9178 N   0  0  0  0  0  0  0  0  0  0  0  0
  147.6933  139.1459  154.0166 C   0  0  0  0  0  0  0  0  0  0  0  0
  148.7564  139.8448  154.2680 N   0  0  0  0  0  0  0  0  0  0  0  0
  148.7849  140.5806  155.4405 C   0  0  0  0  0  0  0  0  0  0  0  0
  147.8198  140.9651  156.1089 O   0  0  0  0  0  0  0  0  0  0  0  0
  150.0456  140.9164  155.7557 N   0  0  0  0  0  0  0  0  0  0  0  0
  150.4325  141.8218  156.8338 C   0  0  0  0  0  0  0  0  0  0  0  0
  151.2552  141.0804  157.8967 C   0  0  0  0  0  0  0  0  0  0  0  0
  151.5538  141.9850  158.9493 O   0  0  0  0  0  0  0  0  0  0  0  0
  152.7205  142.7787  158.7718 C   0  0  1  0  0  0  0  0  0  0  0  0
  152.3689  144.1580  158.1695 C   0  0  0  0  0  0  0  0  0  0  0  0
  151.4672  144.9742  159.1097 C   0  0  0  0  0  0  0  0  0  0  0  0
  152.1167  145.1376  160.4911 C   0  0  0  0  0  0  0  0  0  0  0  0
  152.4820  143.7752  161.1021 C   0  0  0  0  0  0  0  0  0  0  0  0
  153.3833  142.9530  160.1571 C   0  0  1  0  0  0  0  0  0  0  0  0
  153.7840  141.6066  160.7798 C   0  0  0  0  0  0  0  0  0  0  0  0
  146.5700  139.0785  154.8094 O   0  0  0  0  0  0  0  0  0  0  0  0
  145.6836  138.2429  154.2018 C   0  0  0  0  0  0  0  0  0  0  0  0
  144.3551  137.9768  154.8728 C   0  0  0  0  0  0  0  0  0  0  0  0
  145.3966  135.8828  152.4904 H   0  0  0  0  0  0  0  0  0  0  0  0
  146.3049  136.6922  151.2061 H   0  0  0  0  0  0  0  0  0  0  0  0
  144.6844  137.2572  151.6341 H   0  0  0  0  0  0  0  0  0  0  0  0
  148.0500  138.1517  152.1302 H   0  0  0  0  0  0  0  0  0  0  0  0
  150.7865  140.5731  155.1619 H   0  0  0  0  0  0  0  0  0  0  0  0
  150.9857  142.6810  156.4510 H   0  0  0  0  0  0  0  0  0  0  0  0
  149.5229  142.2178  157.2856 H   0  0  0  0  0  0  0  0  0  0  0  0
  150.6890  140.2349  158.2893 H   0  0  0  0  0  0  0  0  0  0  0  0
  152.1607  140.6828  157.4398 H   0  0  0  0  0  0  0  0  0  0  0  0
  153.4153  142.2567  158.1119 H   0  0  0  0  0  0  0  0  0  0  0  0
  153.2908  144.7128  157.9903 H   0  0  0  0  0  0  0  0  0  0  0  0
  151.8949  144.0573  157.1943 H   0  0  0  0  0  0  0  0  0  0  0  0
  151.2669  145.9542  158.6761 H   0  0  0  0  0  0  0  0  0  0  0  0
  150.5006  144.4801  159.2140 H   0  0  0  0  0  0  0  0  0  0  0  0
  153.0152  145.7490  160.4010 H   0  0  0  0  0  0  0  0  0  0  0  0
  151.4426  145.6776  161.1554 H   0  0  0  0  0  0  0  0  0  0  0  0
  152.9843  143.9288  162.0576 H   0  0  0  0  0  0  0  0  0  0  0  0
  151.5700  143.2186  161.3225 H   0  0  0  0  0  0  0  0  0  0  0  0
  154.3043  143.5189  160.0093 H   0  0  0  0  0  0  0  0  0  0  0  0
  152.9111  140.9866  160.9872 H   0  0  0  0  0  0  0  0  0  0  0  0
  154.3154  141.7537  161.7203 H   0  0  0  0  0  0  0  0  0  0  0  0
  154.4408  141.0458  160.1144 H   0  0  0  0  0  0  0  0  0  0  0  0
  143.5359  138.1674  154.1793 H   0  0  0  0  0  0  0  0  0  0  0  0
  144.2290  138.6219  155.7427 H   0  0  0  0  0  0  0  0  0  0  0  0
  144.2990  136.9389  155.2009 H   0  0  0  0  0  0  0  0  0  0  0  0
  1 22  1  0  0  0  0
  1 23  1  0  0  0  0
  1 24  1  0  0  0  0
  1  2  1  0  0  0  0
  2  3  1  0  0  0  0
  2 20  2  0  0  0  0
  3 25  1  0  0  0  0
  3  4  1  0  0  0  0
  4 19  1  0  0  0  0
  4  5  2  0  0  0  0
  5  6  1  0  0  0  0
  6  8  1  0  0  0  0
  6  7  2  0  0  0  0
  8  9  1  0  0  0  0
  8 26  1  0  0  0  0
  9 10  1  0  0  0  0
  9 27  1  0  0  0  0
  9 28  1  0  0  0  0
 10 11  1  0  0  0  0
 10 29  1  0  0  0  0
 10 30  1  0  0  0  0
 11 12  1  0  0  0  0
 12 17  1  0  0  0  0
 12 13  1  0  0  0  0
 12 31  1  0  0  0  0
 13 14  1  0  0  0  0
 13 32  1  0  0  0  0
 13 33  1  0  0  0  0
 14 15  1  0  0  0  0
 14 34  1  0  0  0  0
 14 35  1  0  0  0  0
 15 16  1  0  0  0  0
 15 36  1  0  0  0  0
 15 37  1  0  0  0  0
 16 17  1  0  0  0  0
 16 38  1  0  0  0  0
 16 39  1  0  0  0  0
 17 18  1  0  0  0  0
 17 40  1  0  0  0  0
 18 41  1  0  0  0  0
 18 42  1  0  0  0  0
 18 43  1  0  0  0  0
 19 20  1  0  0  0  0
 20 21  1  0  0  0  0
 21 44  1  0  0  0  0
 21 45  1  0  0  0  0
 21 46  1  0  0  0  0
M  END
> <s_m_source_file>
AV-unprocessed.smi

> <i_m_source_file_index>
910

> <i_lp_mmshare_version>
43012

> <i_f3d_flags>
0

> <s_epik_input>
W0NIM11jMW5jKG9jMVtDSDNdKVtOSF1DKD1PKVtOSF1bQ0gyXVtDSDJdT1tDQEBIXTJbQ0gyXVtDSDJdW0NIMl1bQ0gyXVtDQEhdMltDSDNd

> <s_epik_cmdline>
J2VwaWtfcHl0aG9uJywgJy1waCcsICc3LjAnLCAnLXRuJywgJzgnLCAnLW1hJywgJzIwMCcsICctbWV0YWxfYmluZGluZycsICctaW1hZScsICc8aW5maWxlLm1hZT4nLCAnLW9tYWUnLCAnPG91dGZpbGUubWFlPic=

> <r_lp_tautomer_probability>
0.107061

> <r_epik_Ionization_Penalty>
0.727192

> <r_epik_Ionization_Penalty_Charging>
0.726719

> <r_epik_Ionization_Penalty_Neutral>
0.000473387

> <r_epik_State_Penalty>
2.53712

> <r_epik_Charging_Adjusted_Penalty>
3.26383

> <i_epik_Tot_Q>
0

> <i_epik_Tot_abs_Q>
0

> <r_epik_Metal_State_Penalty>
3.71015

> <b_epik_Metal_Only>
0

> <s_lp_Force_Field>
OPLS_2005

> <r_lp_Energy>
28.3743

> <b_lp_Chiralities_Consistent>
1

> <s_lp_Variant>
AV-unprocessed.smi:910-6

> <Gold.Version>
5.8.1

> <Gold.Id.Protein>
6NUR|6NUR_protein|mol2

> <Gold.PLP.Fitness>
41.8936

> <Gold.PLP.PLP>
-41.6849

> <Gold.PLP.part.hbond>
-1.2836

> <Gold.PLP.part.metal>
0.0000

> <Gold.PLP.part.buried>
-6.5135

> <Gold.PLP.part.nonpolar>
-35.2307

> <Gold.PLP.part.repulsive>
0.4513

> <Gold.PLP.ligand.clash>
0.0000

> <Gold.PLP.ligand.torsion>
0.7281

> <Gold.PLP.Chemscore.Hbond>
0.5440

> <Gold.PLP.Chemscore.CHOScore>
0.0000

> <Gold.PLP.Chemscore.Metal>
0.0000

> <Gold.Chemscore.Hbonds>
donor molecule, donor type, donor heavy atom, donor atom, acceptor molecule, acceptor atom, score
      L1  H     3    25       P1  7948  0.36

> <Gold.PLP.Chemscore.Internal.Correction>
0.0330

> <Gold.Rescore>
     Score         DG    S(hbond)    S(metal)    S(lipo)     H(rot)  DE(clash)    DE(int)     intcor
     14.39     -16.99       0.93        0.00     108.04       1.66       0.05       2.56       ----

> <Gold.Chemscore.Fitness>
14.3870

> <Gold.Chemscore.DG>
-16.9909

> <Gold.Chemscore.ZeroCoef>
-5.4800

> <Gold.Chemscore.Hbond>
0.9321

> <Gold.Chemscore.Metal>
0.0000

> <Gold.Chemscore.Lipo>
108.0448

> <Gold.Chemscore.Internal_Hbond>
0.0000

> <Gold.Chemscore.DEClash>
0.0478

> <Gold.Chemscore.DEInternal>
2.5561

> <Gold.Chemscore.Rot>
1.6576

> <Gold.Chemscore.Internal.Correction>
   9.000000E+99

> <Gold.Chemscore.Hbonds>
donor molecule, donor type, donor heavy atom, donor atom, acceptor molecule, acceptor atom, score
      L1  H     3    25       P1  7948  0.36

> <Gold.Chemscore.Hbond.Weighted>
-3.1133

> <Gold.Chemscore.Metal.Weighted>
-0.0000

> <Gold.Chemscore.Lipo.Weighted>
-12.6412

> <Gold.Chemscore.Internal_Hbond.Weighted>
0.0000

> <Gold.Chemscore.DEClash.Weighted>
0.0478

> <Gold.Chemscore.DEInternal.Weighted>
2.5561

> <Gold.Chemscore.Rot.Weighted>
4.2436

> <Gold.Chemscore.Internal.Correction.Weighted>
   9.000000E+99

> <Gold.Protein.RotatedTorsions>
[ 6907 6896 6895 6894 ] final    9.67 input  -60.11 | X-H torsion
[ 7974 7965 7964 7962 ] final  172.33 input  175.53 | X-H torsion
[ 8008 7997 7996 7995 ] final  -53.21 input   59.86 | X-H torsion
[ 10167 10162 10161 10158 ] final  -81.88 input  -65.29 | X-H torsion
[ 10718 10713 10712 10709 ] final   84.69 input   66.30 | X-H torsion
[ 10763 10752 10751 10750 ] final -163.39 input  -60.55 | X-H torsion
[ 11005 11000 10999 10996 ] final -146.87 input  -57.11 | X-H torsion

> <Gold.Protein.ActiveResidues>
 VAL166  LYS551  ARG553  GLY616  TRP617  ASP618  TYR619  PRO620  LYS621  CYS622 
 ASP623  PHE694  ASN695  SER759  ASP760  ASP761  ALA762  ILE779  LEU786  VAL792 
 PHE793  MET794  SER795  GLU796  ALA797  LYS798  CYS799  TRP800  GLU811  SER814 

> <Gold.Protein.RotatedAtoms>
  151.7260  135.0884  160.0291 H   0  0  0  0  0  0  0  0  0  0  0  0  # atno 6907 bound_to 6896
  152.3572  133.6247  159.5996 H   0  0  0  0  0  0  0  0  0  0  0  0  # atno 6908 bound_to 6896
  150.7579  133.9398  159.3494 H   0  0  0  0  0  0  0  0  0  0  0  0  # atno 6909 bound_to 6896
  144.7271  139.9482  143.6431 H   0  0  0  0  0  0  0  0  0  0  0  0  # atno 7974 bound_to 7965
  154.4127  140.1205  156.5116 H   0  0  0  0  0  0  0  0  0  0  0  0  # atno 8008 bound_to 7997
  155.6793  140.3496  155.4829 H   0  0  0  0  0  0  0  0  0  0  0  0  # atno 8009 bound_to 7997
  155.9565  140.1115  157.0922 H   0  0  0  0  0  0  0  0  0  0  0  0  # atno 8010 bound_to 7997
  140.4371  143.2527  151.8678 H   0  0  0  0  0  0  0  0  0  0  0  0  # atno 10167 bound_to 10162
  157.6902  131.0144  150.2711 H   0  0  0  0  0  0  0  0  0  0  0  0  # atno 10718 bound_to 10713
  154.7126  135.3009  154.9173 H   0  0  0  0  0  0  0  0  0  0  0  0  # atno 10763 bound_to 10752
  154.0070  135.6699  153.4767 H   0  0  0  0  0  0  0  0  0  0  0  0  # atno 10764 bound_to 10752
  153.0767  135.5031  154.8334 H   0  0  0  0  0  0  0  0  0  0  0  0  # atno 10765 bound_to 10752
  140.7775  134.3118  157.5056 H   0  0  0  0  0  0  0  0  0  0  0  0  # atno 11005 bound_to 11000
  146.0732  139.3720  143.0510 LP  0  0  0  0  0  0  0  0  0  0  0  0  # atno 17320 bound_to 7965
  145.7940  140.9801  143.1034 LP  0  0  0  0  0  0  0  0  0  0  0  0  # atno 17321 bound_to 7965
  139.4787  144.5270  151.8721 LP  0  0  0  0  0  0  0  0  0  0  0  0  # atno 17342 bound_to 10162
  140.4361  144.2050  150.5889 LP  0  0  0  0  0  0  0  0  0  0  0  0  # atno 17343 bound_to 10162
  156.3273  130.3795  149.7521 LP  0  0  0  0  0  0  0  0  0  0  0  0  # atno 17370 bound_to 10713
  156.5072  130.8156  151.3155 LP  0  0  0  0  0  0  0  0  0  0  0  0  # atno 17371 bound_to 10713
  139.8747  134.9298  156.3486 LP  0  0  0  0  0  0  0  0  0  0  0  0  # atno 17394 bound_to 11000
  140.9515  133.7448  156.0278 LP  0  0  0  0  0  0  0  0  0  0  0  0  # atno 17395 bound_to 11000

$$$$
