#       Name:                AV-unprocessed.smi:1346
#       Creating user name   scv26
#       Creation time:       Fri Mar 27 05:09:35 2020


#       File generated by GOLD software.
#

@<TRIPOS>MOLECULE
AV-unprocessed.smi:1346
    54    55     1
SMALL
NO_CHARGES


@<TRIPOS>ATOM
      1 ****        -3.2252   1.1563  -4.3326 C.3            1 S1                 0.0000
      2 ****        -3.2873  -0.2950  -3.9510 C.2            1 S1                 0.0000
      3 ****        -3.7063  -1.1818  -4.8377 N.2            1 S1                 0.0000
      4 ****        -3.6515  -2.4219  -4.1948 O.3            1 S1                 0.0000
      5 ****        -3.1994  -2.2309  -2.9296 C.2            1 S1                 0.0000
      6 ****        -3.0684  -3.4512  -2.0821 C.3            1 S1                 0.0000
      7 ****        -2.9487  -0.9039  -2.7080 C.2            1 S1                 0.0000
      8 ****        -2.4376  -0.2331  -1.4579 C.3            1 S1                 0.0000
      9 ****        -0.9200  -0.0627  -1.5352 C.2            1 S1                 0.0000
     10 ****        -0.4341   1.0608  -1.6629 O.2            1 S1                 0.0000
     11 ****        -0.1857  -1.1829  -1.4457 N.am           1 S1                 0.0000
     12 ****         1.2718  -1.2389  -1.4527 C.3            1 S1                 0.0000
     13 ****         1.8382  -1.1251  -0.0308 C.3            1 S1                 0.0000
     14 ****         1.6630   0.2035   0.4378 O.3            1 S1                 0.0000
     15 ****         1.9441   0.3814   1.8191 C.3            1 S1                 0.0000
     16 ****         0.6689   0.0676   2.6301 C.3            1 S1                 0.0000
     17 ****         0.8591   0.3735   4.1228 C.3            1 S1                 0.0000
     18 ****         1.2946   1.8302   4.3342 C.3            1 S1                 0.0000
     19 ****         2.5681   2.1464   3.5352 C.3            1 S1                 0.0000
     20 ****         2.3920   1.8451   2.0330 C.3            1 S1                 0.0000
     21 ****         3.6831   2.1634   1.2616 C.3            1 S1                 0.0000
     22 ****        -2.4715   1.6871  -3.7504 H              1 S1                 0.0000
     23 ****        -4.1838   1.6458  -4.1598 H              1 S1                 0.0000
     24 ****        -2.9715   1.2805  -5.3858 H              1 S1                 0.0000
     25 ****        -2.8581  -3.1907  -1.0450 H              1 S1                 0.0000
     26 ****        -2.2566  -4.0837  -2.4414 H              1 S1                 0.0000
     27 ****        -3.9878  -4.0364  -2.1020 H              1 S1                 0.0000
     28 ****        -2.8990   0.7455  -1.3206 H              1 S1                 0.0000
     29 ****        -2.6829  -0.8064  -0.5634 H              1 S1                 0.0000
     30 ****        -0.6745  -2.0607  -1.3472 H              1 S1                 0.0000
     31 ****         1.5601  -2.1988  -1.8816 H              1 S1                 0.0000
     32 ****         1.6954  -0.4712  -2.1022 H              1 S1                 0.0000
     33 ****         1.3507  -1.8499   0.6222 H              1 S1                 0.0000
     34 ****         2.9033  -1.3601  -0.0354 H              1 S1                 0.0000
     35 ****         2.7551  -0.2801   2.1313 H              1 S1                 0.0000
     36 ****        -0.1628   0.6580   2.2428 H              1 S1                 0.0000
     37 ****         0.3833  -0.9773   2.5095 H              1 S1                 0.0000
     38 ****        -0.0679   0.1799   4.6633 H              1 S1                 0.0000
     39 ****         1.6090  -0.2988   4.5418 H              1 S1                 0.0000
     40 ****         0.4920   2.5015   4.0259 H              1 S1                 0.0000
     41 ****         1.4646   2.0177   5.3948 H              1 S1                 0.0000
     42 ****         2.8345   3.1944   3.6770 H              1 S1                 0.0000
     43 ****         3.3988   1.5619   3.9333 H              1 S1                 0.0000
     44 ****         1.6071   2.4996   1.6504 H              1 S1                 0.0000
     45 ****         4.5064   1.5272   1.5877 H              1 S1                 0.0000
     46 ****         3.9840   3.2008   1.4116 H              1 S1                 0.0000
     47 ****         3.5522   2.0141   0.1894 H              1 S1                 0.0000
     48 ****        -4.0018  -1.0022  -5.7760 LP             1 S1                 0.0000
     49 ****        -3.0290  -3.0301  -4.6873 LP             1 S1                 0.0000
     50 ****        -4.5644  -2.8292  -4.1690 LP             1 S1                 0.0000
     51 ****        -1.0316   1.8609  -1.7160 LP             1 S1                 0.0000
     52 ****         0.5583   1.1736  -1.7136 LP             1 S1                 0.0000
     53 ****         0.7128   0.4695   0.2754 LP             1 S1                 0.0000
     54 ****         2.2706   0.8019  -0.0844 LP             1 S1                 0.0000
@<TRIPOS>BOND
    1    1    2 1     
    2    1   22 1     
    3    1   23 1     
    4    1   24 1     
    5    2    7 1     
    6    2    3 2     
    7    3    4 1     
    8    4    5 1     
    9    5    6 1     
   10    5    7 2     
   11    6   25 1     
   12    6   26 1     
   13    6   27 1     
   14    7    8 1     
   15    8    9 1     
   16    8   28 1     
   17    8   29 1     
   18    9   10 2     
   19    9   11 am    
   20   11   12 1     
   21   11   30 1     
   22   12   13 1     
   23   12   31 1     
   24   12   32 1     
   25   13   14 1     
   26   13   33 1     
   27   13   34 1     
   28   14   15 1     
   29   15   20 1     
   30   15   16 1     
   31   15   35 1     
   32   16   17 1     
   33   16   36 1     
   34   16   37 1     
   35   17   18 1     
   36   17   38 1     
   37   17   39 1     
   38   18   19 1     
   39   18   40 1     
   40   18   41 1     
   41   19   20 1     
   42   19   42 1     
   43   19   43 1     
   44   20   21 1     
   45   20   44 1     
   46   21   45 1     
   47   21   46 1     
   48   21   47 1     
   49    3   48 1     
   50    4   49 1     
   51    4   50 1     
   52   10   51 1     
   53   10   52 1     
   54   14   53 1     
   55   14   54 1     
@<TRIPOS>SUBSTRUCTURE
      1 S1             1
@<TRIPOS>SET
LONE_PAIRS      STATIC     ATOMS    <user>   **** ""
7 48 49 50 51 52 53 54
DONOR_HYDROGENS      STATIC     ATOMS    <user>   **** ""
1 30
ATOM$BLUE        STATIC     ATOMS    COLORGROUP SYSTEM
7 48 49 50 51 52 53 54
ATOM$RED        STATIC     ATOMS    COLORGROUP SYSTEM
1 30
