AV-unprocessed.smi:250|AV-procd|sdf|1932|dock4
  -GOLD-   2262021 53D 1   1.00000     0.00000
 Structure written by MMmdl.
 56 60  0  0  0  0  0  0  0  0  1 V2000
  152.1925  144.2030  161.0988 C   0  0  0  0  0  0  0  0  0  0  0  0
  151.7361  144.0458  159.7241 N   0  0  0  0  0  0  0  0  0  0  0  0
  151.2320  145.0003  158.9137 C   0  0  0  0  0  0  0  0  0  0  0  0
  151.0975  146.1918  159.1856 O   0  0  0  0  0  0  0  0  0  0  0  0
  150.8937  144.4276  157.7454 N   0  0  0  0  0  0  0  0  0  0  0  0
  151.4295  143.0875  157.6793 C   0  0  2  0  0  0  0  0  0  0  0  0
  150.6980  141.9714  156.9371 C   0  0  0  0  0  0  0  0  0  0  0  0
  151.4632  140.7297  157.1437 N   0  0  0  0  0  0  0  0  0  0  0  0
  151.1322  139.7096  156.3104 C   0  0  0  0  0  0  0  0  0  0  0  0
  150.5908  139.9837  155.0930 N   0  0  0  0  0  0  0  0  0  0  0  0
  150.2676  138.9932  154.2568 C   0  0  0  0  0  0  0  0  0  0  0  0
  150.3982  137.6777  154.4328 N   0  0  0  0  0  0  0  0  0  0  0  0
  150.9346  137.3925  155.6535 C   0  0  0  0  0  0  0  0  0  0  0  0
  151.3217  138.3380  156.6459 C   0  0  0  0  0  0  0  0  0  0  0  0
  151.8005  137.6714  157.7678 N   0  0  0  0  0  0  0  0  0  0  0  0
  151.7118  136.4085  157.4526 C   0  0  0  0  0  0  0  0  0  0  0  0
  151.2185  136.1497  156.1936 N   0  0  0  0  0  0  0  0  0  0  0  0
  151.0132  134.8401  155.5903 C   0  0  0  0  0  0  0  0  0  0  0  0
  149.5249  134.3902  155.4892 C   0  0  0  0  0  0  0  0  0  0  0  0
  148.9579  134.0253  156.8914 C   0  0  0  0  0  0  0  0  0  0  0  0
  149.8310  133.1856  157.6203 O   0  0  0  0  0  0  0  0  0  0  0  0
  148.7130  135.5361  154.8343 C   0  0  0  0  0  0  0  0  0  0  0  0
  147.2961  135.1066  154.4132 C   0  0  0  0  0  0  0  0  0  0  0  0
  147.3695  133.9930  153.5328 O   0  0  0  0  0  0  0  0  0  0  0  0
  147.9611  132.8505  154.1373 C   0  0  0  0  0  0  0  0  0  0  0  0
  149.4114  133.1620  154.5510 C   0  0  0  0  0  0  0  0  0  0  0  0
  151.8479  140.3774  158.5280 C   0  0  0  0  0  0  0  0  0  0  0  0
  152.4490  141.5701  159.3201 C   0  0  0  0  0  0  0  0  0  0  0  0
  151.4810  142.7408  159.1475 C   0  0  1  0  0  0  0  0  0  0  0  0
  152.4367  143.1820  157.2648 H   0  0  0  0  0  0  0  0  0  0  0  0
  150.4946  142.4354  159.5070 H   0  0  0  0  0  0  0  0  0  0  0  0
  152.2244  145.2502  161.4023 H   0  0  0  0  0  0  0  0  0  0  0  0
  153.1951  143.7902  161.2102 H   0  0  0  0  0  0  0  0  0  0  0  0
  151.5266  143.6722  161.7795 H   0  0  0  0  0  0  0  0  0  0  0  0
  150.5128  144.9183  156.9495 H   0  0  0  0  0  0  0  0  0  0  0  0
  149.6844  141.8458  157.3202 H   0  0  0  0  0  0  0  0  0  0  0  0
  150.6142  142.2289  155.8826 H   0  0  0  0  0  0  0  0  0  0  0  0
  149.8455  139.2985  153.3105 H   0  0  0  0  0  0  0  0  0  0  0  0
  152.0104  135.6247  158.1335 H   0  0  0  0  0  0  0  0  0  0  0  0
  151.4720  134.8527  154.6007 H   0  0  0  0  0  0  0  0  0  0  0  0
  151.5875  134.1134  156.1666 H   0  0  0  0  0  0  0  0  0  0  0  0
  148.7780  134.9125  157.4960 H   0  0  0  0  0  0  0  0  0  0  0  0
  147.9930  133.5264  156.8034 H   0  0  0  0  0  0  0  0  0  0  0  0
  149.7409  132.3031  157.2940 H   0  0  0  0  0  0  0  0  0  0  0  0
  148.6559  136.3989  155.4986 H   0  0  0  0  0  0  0  0  0  0  0  0
  149.2350  135.8846  153.9419 H   0  0  0  0  0  0  0  0  0  0  0  0
  146.6742  134.8675  155.2763 H   0  0  0  0  0  0  0  0  0  0  0  0
  146.8016  135.9269  153.8929 H   0  0  0  0  0  0  0  0  0  0  0  0
  147.3619  132.5203  154.9861 H   0  0  0  0  0  0  0  0  0  0  0  0
  147.9509  132.0336  153.4157 H   0  0  0  0  0  0  0  0  0  0  0  0
  149.9863  133.3457  153.6425 H   0  0  0  0  0  0  0  0  0  0  0  0
  149.8527  132.2797  155.0159 H   0  0  0  0  0  0  0  0  0  0  0  0
  150.9639  140.0111  159.0523 H   0  0  0  0  0  0  0  0  0  0  0  0
  152.5677  139.5579  158.5117 H   0  0  0  0  0  0  0  0  0  0  0  0
  152.5637  141.3076  160.3720 H   0  0  0  0  0  0  0  0  0  0  0  0
  153.4399  141.8250  158.9421 H   0  0  0  0  0  0  0  0  0  0  0  0
  1  2  1  0  0  0  0
  1 32  1  0  0  0  0
  1 33  1  0  0  0  0
  1 34  1  0  0  0  0
  2 29  1  0  0  0  0
  2  3  1  0  0  0  0
  3  4  2  0  0  0  0
  3  5  1  0  0  0  0
  5  6  1  0  0  0  0
  5 35  1  0  0  0  0
  6 30  1  0  0  0  0
  6 29  1  0  0  0  0
  6  7  1  0  0  0  0
  7  8  1  0  0  0  0
  7 36  1  0  0  0  0
  7 37  1  0  0  0  0
  8  9  1  0  0  0  0
  8 27  1  0  0  0  0
  9 14  1  0  0  0  0
  9 10  2  0  0  0  0
 10 11  1  0  0  0  0
 11 12  2  0  0  0  0
 11 38  1  0  0  0  0
 12 13  1  0  0  0  0
 13 17  1  0  0  0  0
 13 14  2  0  0  0  0
 14 15  1  0  0  0  0
 15 16  2  0  0  0  0
 16 17  1  0  0  0  0
 16 39  1  0  0  0  0
 17 18  1  0  0  0  0
 18 19  1  0  0  0  0
 18 40  1  0  0  0  0
 18 41  1  0  0  0  0
 19 26  1  0  0  0  0
 19 20  1  0  0  0  0
 19 22  1  0  0  0  0
 20 21  1  0  0  0  0
 20 42  1  0  0  0  0
 20 43  1  0  0  0  0
 21 44  1  0  0  0  0
 22 23  1  0  0  0  0
 22 45  1  0  0  0  0
 22 46  1  0  0  0  0
 23 24  1  0  0  0  0
 23 47  1  0  0  0  0
 23 48  1  0  0  0  0
 24 25  1  0  0  0  0
 25 26  1  0  0  0  0
 25 49  1  0  0  0  0
 25 50  1  0  0  0  0
 26 51  1  0  0  0  0
 26 52  1  0  0  0  0
 27 28  1  0  0  0  0
 27 53  1  0  0  0  0
 27 54  1  0  0  0  0
 28 29  1  0  0  0  0
 28 55  1  0  0  0  0
 28 56  1  0  0  0  0
 29 31  1  0  0  0  0
M  END
> <s_m_source_file>
AV-unprocessed.smi

> <i_m_source_file_index>
250

> <i_lp_mmshare_version>
43012

> <i_f3d_flags>
0

> <s_epik_input>
Tz1DKFtOSF0xKU4oW0NIM10pW0NASF0oW0NASF0xMilbQ0gyXVtDSDJdTihbQ0gyXTIpYyhuW2NIXW4zKWMoYzM0KW5bY0hdbjRbQ0gyXUM1KFtDSDJdW09IXSlbQ0gyXVtDSDJdT1tDSDJdW0NIMl01

> <s_epik_cmdline>
J2VwaWtfcHl0aG9uJywgJy1waCcsICc3LjAnLCAnLXRuJywgJzgnLCAnLW1hJywgJzIwMCcsICctbWV0YWxfYmluZGluZycsICctaW1hZScsICc8aW5maWxlLm1hZT4nLCAnLW9tYWUnLCAnPG91dGZpbGUubWFlPic=

> <r_lp_tautomer_probability>
1

> <r_epik_Ionization_Penalty>
0.00229024

> <r_epik_Ionization_Penalty_Charging>
0

> <r_epik_Ionization_Penalty_Neutral>
0.00229024

> <r_epik_State_Penalty>
0.0013961

> <r_epik_Charging_Adjusted_Penalty>
0.0013961

> <i_epik_Tot_Q>
0

> <i_epik_Tot_abs_Q>
0

> <r_epik_Metal_State_Penalty>
-0

> <b_epik_Metal_Only>
0

> <s_lp_Force_Field>
OPLS_2005

> <r_lp_Energy>
71.8921

> <b_lp_Chiralities_Consistent>
1

> <s_lp_Variant>
AV-unprocessed.smi:250-3

> <Gold.Version>
5.8.1

> <Gold.Id.Protein>
6NUR|6NUR_protein|mol2

> <Gold.PLP.Fitness>
50.7895

> <Gold.PLP.PLP>
-42.1743

> <Gold.PLP.part.hbond>
-4.5190

> <Gold.PLP.part.metal>
0.0000

> <Gold.PLP.part.buried>
-1.3225

> <Gold.PLP.part.nonpolar>
-36.5947

> <Gold.PLP.part.repulsive>
0.6700

> <Gold.PLP.ligand.clash>
0.0000

> <Gold.PLP.ligand.torsion>
0.5341

> <Gold.PLP.Chemscore.Hbond>
2.1250

> <Gold.PLP.Chemscore.CHOScore>
1.0000

> <Gold.PLP.Chemscore.Metal>
0.0000

> <Gold.Chemscore.Hbonds>
donor molecule, donor type, donor heavy atom, donor atom, acceptor molecule, acceptor atom, score
      L1  H     5    35       P1  8028  0.76
      P1  H  6896  6907       L1    21  1.00
      P1  H  7989  7998       L1    10  0.33
      L1  C    11    38       P1  7957  1.00

> <Gold.PLP.Chemscore.Internal.Correction>
0.3084

> <Gold.Rescore>
     Score         DG    S(hbond)    S(metal)    S(lipo)     H(rot)  DE(clash)    DE(int)     intcor
      9.60     -12.92       0.98        0.00      83.98       2.22       0.24       3.08       ----

> <Gold.Chemscore.Fitness>
9.5952

> <Gold.Chemscore.DG>
-12.9165

> <Gold.Chemscore.ZeroCoef>
-5.4800

> <Gold.Chemscore.Hbond>
0.9840

> <Gold.Chemscore.Metal>
0.0000

> <Gold.Chemscore.Lipo>
83.9787

> <Gold.Chemscore.Internal_Hbond>
0.0000

> <Gold.Chemscore.DEClash>
0.2436

> <Gold.Chemscore.DEInternal>
3.0777

> <Gold.Chemscore.Rot>
2.2170

> <Gold.Chemscore.Internal.Correction>
   9.000000E+99

> <Gold.Chemscore.Hbonds>
donor molecule, donor type, donor heavy atom, donor atom, acceptor molecule, acceptor atom, score
      L1  H     5    35       P1  8028  0.36
      P1  H  6896  6907       L1    21  0.89
      P1  H  7989  7998       L1    10  0.01

> <Gold.Chemscore.Hbond.Weighted>
-3.2866

> <Gold.Chemscore.Metal.Weighted>
-0.0000

> <Gold.Chemscore.Lipo.Weighted>
-9.8255

> <Gold.Chemscore.Internal_Hbond.Weighted>
0.0000

> <Gold.Chemscore.DEClash.Weighted>
0.2436

> <Gold.Chemscore.DEInternal.Weighted>
3.0777

> <Gold.Chemscore.Rot.Weighted>
5.6756

> <Gold.Chemscore.Internal.Correction.Weighted>
   9.000000E+99

> <Gold.Protein.RotatedTorsions>
[ 6907 6896 6895 6894 ] final -142.16 input  -60.11 | X-H torsion
[ 7974 7965 7964 7962 ] final -104.60 input  175.53 | X-H torsion
[ 8008 7997 7996 7995 ] final  -20.29 input   59.86 | X-H torsion
[ 10167 10162 10161 10158 ] final   62.26 input  -65.29 | X-H torsion
[ 10718 10713 10712 10709 ] final  -87.65 input   66.30 | X-H torsion
[ 10763 10752 10751 10750 ] final   82.69 input  -60.55 | X-H torsion
[ 11005 11000 10999 10996 ] final  -77.35 input  -57.11 | X-H torsion

> <Gold.Protein.ActiveResidues>
 VAL166  LYS551  ARG553  GLY616  TRP617  ASP618  TYR619  PRO620  LYS621  CYS622 
 ASP623  PHE694  ASN695  SER759  ASP760  ASP761  ALA762  ILE779  LEU786  VAL792 
 PHE793  MET794  SER795  GLU796  ALA797  LYS798  CYS799  TRP800  GLU811  SER814 

> <Gold.Protein.RotatedAtoms>
  151.0834  133.5372  159.2619 H   0  0  0  0  0  0  0  0  0  0  0  0  # atno 6907 bound_to 6896
  151.2267  135.0538  159.8981 H   0  0  0  0  0  0  0  0  0  0  0  0  # atno 6908 bound_to 6896
  152.5426  134.0628  159.8213 H   0  0  0  0  0  0  0  0  0  0  0  0  # atno 6909 bound_to 6896
  145.2411  140.9205  143.3149 H   0  0  0  0  0  0  0  0  0  0  0  0  # atno 7974 bound_to 7965
  154.4780  140.2066  155.9832 H   0  0  0  0  0  0  0  0  0  0  0  0  # atno 8008 bound_to 7997
  156.1119  140.3227  155.8055 H   0  0  0  0  0  0  0  0  0  0  0  0  # atno 8009 bound_to 7997
  155.4619  140.0524  157.2980 H   0  0  0  0  0  0  0  0  0  0  0  0  # atno 8010 bound_to 7997
  140.1459  144.4509  150.6785 H   0  0  0  0  0  0  0  0  0  0  0  0  # atno 10167 bound_to 10162
  155.9985  130.4807  150.4899 H   0  0  0  0  0  0  0  0  0  0  0  0  # atno 10718 bound_to 10713
  153.1224  135.4719  154.9218 H   0  0  0  0  0  0  0  0  0  0  0  0  # atno 10763 bound_to 10752
  154.7588  135.3126  154.8420 H   0  0  0  0  0  0  0  0  0  0  0  0  # atno 10764 bound_to 10752
  153.8981  135.6878  153.4810 H   0  0  0  0  0  0  0  0  0  0  0  0  # atno 10765 bound_to 10752
  141.1660  133.7019  156.7807 H   0  0  0  0  0  0  0  0  0  0  0  0  # atno 11005 bound_to 11000
  144.9588  139.4002  143.6366 LP  0  0  0  0  0  0  0  0  0  0  0  0  # atno 17320 bound_to 7965
  146.3328  139.8631  142.8853 LP  0  0  0  0  0  0  0  0  0  0  0  0  # atno 17321 bound_to 7965
  140.6732  143.2294  151.5572 LP  0  0  0  0  0  0  0  0  0  0  0  0  # atno 17342 bound_to 10162
  139.5449  144.2547  152.1423 LP  0  0  0  0  0  0  0  0  0  0  0  0  # atno 17343 bound_to 10162
  157.2895  131.0623  151.2143 LP  0  0  0  0  0  0  0  0  0  0  0  0  # atno 17370 bound_to 10713
  157.3161  130.6914  149.6243 LP  0  0  0  0  0  0  0  0  0  0  0  0  # atno 17371 bound_to 10713
  140.2397  134.8623  157.3560 LP  0  0  0  0  0  0  0  0  0  0  0  0  # atno 17394 bound_to 11000
  140.1808  134.4491  155.7773 LP  0  0  0  0  0  0  0  0  0  0  0  0  # atno 17395 bound_to 11000

$$$$
