AV-unprocessed.smi:250|AV-procd|sdf|1932|dock6
  -GOLD-   2262021 53D 1   1.00000     0.00000
 Structure written by MMmdl.
 56 60  0  0  0  0  0  0  0  0  1 V2000
  152.5130  143.8201  161.6047 C   0  0  0  0  0  0  0  0  0  0  0  0
  152.0893  143.9046  160.2133 N   0  0  0  0  0  0  0  0  0  0  0  0
  151.7457  145.0151  159.5272 C   0  0  0  0  0  0  0  0  0  0  0  0
  151.7609  146.1689  159.9519 O   0  0  0  0  0  0  0  0  0  0  0  0
  151.3765  144.6488  158.2875 N   0  0  0  0  0  0  0  0  0  0  0  0
  151.7318  143.2680  158.0544 C   0  0  2  0  0  0  0  0  0  0  0  0
  150.8858  142.3668  157.1581 C   0  0  0  0  0  0  0  0  0  0  0  0
  151.4715  141.0162  157.2125 N   0  0  0  0  0  0  0  0  0  0  0  0
  151.0382  140.1664  156.2457 C   0  0  0  0  0  0  0  0  0  0  0  0
  150.3090  140.6483  155.2034 N   0  0  0  0  0  0  0  0  0  0  0  0
  149.8822  139.8285  154.2388 C   0  0  0  0  0  0  0  0  0  0  0  0
  150.0676  138.5131  154.1203 N   0  0  0  0  0  0  0  0  0  0  0  0
  150.7925  138.0194  155.1643 C   0  0  0  0  0  0  0  0  0  0  0  0
  151.3076  138.7675  156.2615 C   0  0  0  0  0  0  0  0  0  0  0  0
  151.9687  137.9172  157.1401 N   0  0  0  0  0  0  0  0  0  0  0  0
  151.8602  136.7394  156.5893 C   0  0  0  0  0  0  0  0  0  0  0  0
  151.1840  136.7108  155.3905 N   0  0  0  0  0  0  0  0  0  0  0  0
  150.9167  135.5386  154.5685 C   0  0  0  0  0  0  0  0  0  0  0  0
  149.7437  134.6418  155.0660 C   0  0  0  0  0  0  0  0  0  0  0  0
  148.4763  135.4958  155.3582 C   0  0  0  0  0  0  0  0  0  0  0  0
  148.0401  136.2135  154.2210 O   0  0  0  0  0  0  0  0  0  0  0  0
  149.4614  133.5660  153.9871 C   0  0  0  0  0  0  0  0  0  0  0  0
  148.5291  132.4458  154.4824 C   0  0  0  0  0  0  0  0  0  0  0  0
  149.0758  131.8404  155.6465 O   0  0  0  0  0  0  0  0  0  0  0  0
  149.2055  132.7496  156.7315 C   0  0  0  0  0  0  0  0  0  0  0  0
  150.1680  133.8908  156.3534 C   0  0  0  0  0  0  0  0  0  0  0  0
  151.7562  140.4397  158.5448 C   0  0  0  0  0  0  0  0  0  0  0  0
  152.4815  141.4276  159.4984 C   0  0  0  0  0  0  0  0  0  0  0  0
  151.6842  142.7316  159.4646 C   0  0  1  0  0  0  0  0  0  0  0  0
  152.7569  143.2769  157.6745 H   0  0  0  0  0  0  0  0  0  0  0  0
  150.6538  142.5198  159.7627 H   0  0  0  0  0  0  0  0  0  0  0  0
  152.6727  144.8054  162.0446 H   0  0  0  0  0  0  0  0  0  0  0  0
  153.4474  143.2637  161.6788 H   0  0  0  0  0  0  0  0  0  0  0  0
  151.7587  143.3019  162.1971 H   0  0  0  0  0  0  0  0  0  0  0  0
  151.0929  145.2852  157.5567 H   0  0  0  0  0  0  0  0  0  0  0  0
  149.8514  142.3322  157.5028 H   0  0  0  0  0  0  0  0  0  0  0  0
  150.8747  142.7667  156.1455 H   0  0  0  0  0  0  0  0  0  0  0  0
  149.3123  140.2933  153.4477 H   0  0  0  0  0  0  0  0  0  0  0  0
  152.2778  135.8528  157.0437 H   0  0  0  0  0  0  0  0  0  0  0  0
  150.7249  135.8811  153.5508 H   0  0  0  0  0  0  0  0  0  0  0  0
  151.8369  134.9557  154.5094 H   0  0  0  0  0  0  0  0  0  0  0  0
  147.6443  134.8793  155.6939 H   0  0  0  0  0  0  0  0  0  0  0  0
  148.6625  136.2059  156.1637 H   0  0  0  0  0  0  0  0  0  0  0  0
  148.6141  136.0090  153.4984 H   0  0  0  0  0  0  0  0  0  0  0  0
  149.0476  134.0203  153.0863 H   0  0  0  0  0  0  0  0  0  0  0  0
  150.4020  133.1061  153.6806 H   0  0  0  0  0  0  0  0  0  0  0  0
  147.5242  132.8176  154.6845 H   0  0  0  0  0  0  0  0  0  0  0  0
  148.4276  131.6826  153.7108 H   0  0  0  0  0  0  0  0  0  0  0  0
  148.2263  133.1288  157.0247 H   0  0  0  0  0  0  0  0  0  0  0  0
  149.5969  132.2071  157.5921 H   0  0  0  0  0  0  0  0  0  0  0  0
  151.1593  133.4589  156.2108 H   0  0  0  0  0  0  0  0  0  0  0  0
  150.2564  134.5826  157.1919 H   0  0  0  0  0  0  0  0  0  0  0  0
  150.8132  140.1330  158.9999 H   0  0  0  0  0  0  0  0  0  0  0  0
  152.3611  139.5388  158.4333 H   0  0  0  0  0  0  0  0  0  0  0  0
  152.5226  141.0188  160.5083 H   0  0  0  0  0  0  0  0  0  0  0  0
  153.5103  141.5916  159.1754 H   0  0  0  0  0  0  0  0  0  0  0  0
  1  2  1  0  0  0  0
  1 32  1  0  0  0  0
  1 33  1  0  0  0  0
  1 34  1  0  0  0  0
  2 29  1  0  0  0  0
  2  3  1  0  0  0  0
  3  4  2  0  0  0  0
  3  5  1  0  0  0  0
  5  6  1  0  0  0  0
  5 35  1  0  0  0  0
  6 30  1  0  0  0  0
  6 29  1  0  0  0  0
  6  7  1  0  0  0  0
  7  8  1  0  0  0  0
  7 36  1  0  0  0  0
  7 37  1  0  0  0  0
  8  9  1  0  0  0  0
  8 27  1  0  0  0  0
  9 14  1  0  0  0  0
  9 10  2  0  0  0  0
 10 11  1  0  0  0  0
 11 12  2  0  0  0  0
 11 38  1  0  0  0  0
 12 13  1  0  0  0  0
 13 17  1  0  0  0  0
 13 14  2  0  0  0  0
 14 15  1  0  0  0  0
 15 16  2  0  0  0  0
 16 17  1  0  0  0  0
 16 39  1  0  0  0  0
 17 18  1  0  0  0  0
 18 19  1  0  0  0  0
 18 40  1  0  0  0  0
 18 41  1  0  0  0  0
 19 26  1  0  0  0  0
 19 20  1  0  0  0  0
 19 22  1  0  0  0  0
 20 21  1  0  0  0  0
 20 42  1  0  0  0  0
 20 43  1  0  0  0  0
 21 44  1  0  0  0  0
 22 23  1  0  0  0  0
 22 45  1  0  0  0  0
 22 46  1  0  0  0  0
 23 24  1  0  0  0  0
 23 47  1  0  0  0  0
 23 48  1  0  0  0  0
 24 25  1  0  0  0  0
 25 26  1  0  0  0  0
 25 49  1  0  0  0  0
 25 50  1  0  0  0  0
 26 51  1  0  0  0  0
 26 52  1  0  0  0  0
 27 28  1  0  0  0  0
 27 53  1  0  0  0  0
 27 54  1  0  0  0  0
 28 29  1  0  0  0  0
 28 55  1  0  0  0  0
 28 56  1  0  0  0  0
 29 31  1  0  0  0  0
M  END
> <s_m_source_file>
AV-unprocessed.smi

> <i_m_source_file_index>
250

> <i_lp_mmshare_version>
43012

> <i_f3d_flags>
0

> <s_epik_input>
Tz1DKFtOSF0xKU4oW0NIM10pW0NASF0oW0NASF0xMilbQ0gyXVtDSDJdTihbQ0gyXTIpYyhuW2NIXW4zKWMoYzM0KW5bY0hdbjRbQ0gyXUM1KFtDSDJdW09IXSlbQ0gyXVtDSDJdT1tDSDJdW0NIMl01

> <s_epik_cmdline>
J2VwaWtfcHl0aG9uJywgJy1waCcsICc3LjAnLCAnLXRuJywgJzgnLCAnLW1hJywgJzIwMCcsICctbWV0YWxfYmluZGluZycsICctaW1hZScsICc8aW5maWxlLm1hZT4nLCAnLW9tYWUnLCAnPG91dGZpbGUubWFlPic=

> <r_lp_tautomer_probability>
1

> <r_epik_Ionization_Penalty>
0.00229024

> <r_epik_Ionization_Penalty_Charging>
0

> <r_epik_Ionization_Penalty_Neutral>
0.00229024

> <r_epik_State_Penalty>
0.0013961

> <r_epik_Charging_Adjusted_Penalty>
0.0013961

> <i_epik_Tot_Q>
0

> <i_epik_Tot_abs_Q>
0

> <r_epik_Metal_State_Penalty>
-0

> <b_epik_Metal_Only>
0

> <s_lp_Force_Field>
OPLS_2005

> <r_lp_Energy>
71.8921

> <b_lp_Chiralities_Consistent>
1

> <s_lp_Variant>
AV-unprocessed.smi:250-3

> <Gold.Version>
5.8.1

> <Gold.Id.Protein>
6NUR|6NUR_protein|mol2

> <Gold.PLP.Fitness>
53.4010

> <Gold.PLP.PLP>
-48.1150

> <Gold.PLP.part.hbond>
-3.3110

> <Gold.PLP.part.metal>
0.0000

> <Gold.PLP.part.buried>
-5.1786

> <Gold.PLP.part.nonpolar>
-40.0115

> <Gold.PLP.part.repulsive>
0.6010

> <Gold.PLP.ligand.clash>
0.0000

> <Gold.PLP.ligand.torsion>
0.4962

> <Gold.PLP.Chemscore.Hbond>
0.9920

> <Gold.PLP.Chemscore.CHOScore>
1.0000

> <Gold.PLP.Chemscore.Metal>
0.0000

> <Gold.Chemscore.Hbonds>
donor molecule, donor type, donor heavy atom, donor atom, acceptor molecule, acceptor atom, score
      L1  H    21    44       P1  7948  0.96
      L1  C    11    38       P1  7957  0.95

> <Gold.PLP.Chemscore.Internal.Correction>
0.3024

> <Gold.Rescore>
     Score         DG    S(hbond)    S(metal)    S(lipo)     H(rot)  DE(clash)    DE(int)     intcor
     11.72     -13.77       0.98        0.00      91.26       2.22       0.31       1.74       ----

> <Gold.Chemscore.Fitness>
11.7185

> <Gold.Chemscore.DG>
-13.7711

> <Gold.Chemscore.ZeroCoef>
-5.4800

> <Gold.Chemscore.Hbond>
0.9848

> <Gold.Chemscore.Metal>
0.0000

> <Gold.Chemscore.Lipo>
91.2609

> <Gold.Chemscore.Internal_Hbond>
0.0000

> <Gold.Chemscore.DEClash>
0.3115

> <Gold.Chemscore.DEInternal>
1.7410

> <Gold.Chemscore.Rot>
2.2170

> <Gold.Chemscore.Internal.Correction>
   9.000000E+99

> <Gold.Chemscore.Hbonds>
donor molecule, donor type, donor heavy atom, donor atom, acceptor molecule, acceptor atom, score
      L1  H    21    44       P1  7948  0.92

> <Gold.Chemscore.Hbond.Weighted>
-3.2891

> <Gold.Chemscore.Metal.Weighted>
-0.0000

> <Gold.Chemscore.Lipo.Weighted>
-10.6775

> <Gold.Chemscore.Internal_Hbond.Weighted>
0.0000

> <Gold.Chemscore.DEClash.Weighted>
0.3115

> <Gold.Chemscore.DEInternal.Weighted>
1.7410

> <Gold.Chemscore.Rot.Weighted>
5.6756

> <Gold.Chemscore.Internal.Correction.Weighted>
   9.000000E+99

> <Gold.Protein.RotatedTorsions>
[ 6907 6896 6895 6894 ] final  -54.41 input  -60.11 | X-H torsion
[ 7974 7965 7964 7962 ] final  115.30 input  175.53 | X-H torsion
[ 8008 7997 7996 7995 ] final -165.16 input   59.86 | X-H torsion
[ 10167 10162 10161 10158 ] final  114.68 input  -65.29 | X-H torsion
[ 10718 10713 10712 10709 ] final  -88.01 input   66.30 | X-H torsion
[ 10763 10752 10751 10750 ] final -156.41 input  -60.55 | X-H torsion
[ 11005 11000 10999 10996 ] final -160.25 input  -57.11 | X-H torsion

> <Gold.Protein.ActiveResidues>
 VAL166  LYS551  ARG553  GLY616  TRP617  ASP618  TYR619  PRO620  LYS621  CYS622 
 ASP623  PHE694  ASN695  SER759  ASP760  ASP761  ALA762  ILE779  LEU786  VAL792 
 PHE793  MET794  SER795  GLU796  ALA797  LYS798  CYS799  TRP800  GLU811  SER814 

> <Gold.Protein.RotatedAtoms>
  150.8340  134.7606  159.6877 H   0  0  0  0  0  0  0  0  0  0  0  0  # atno 6907 bound_to 6896
  152.4440  134.5529  159.9882 H   0  0  0  0  0  0  0  0  0  0  0  0  # atno 6908 bound_to 6896
  151.5684  133.3355  159.3020 H   0  0  0  0  0  0  0  0  0  0  0  0  # atno 6909 bound_to 6896
  145.1937  139.2987  143.4354 H   0  0  0  0  0  0  0  0  0  0  0  0  # atno 7974 bound_to 7965
  155.8459  140.0955  157.1705 H   0  0  0  0  0  0  0  0  0  0  0  0  # atno 8008 bound_to 7997
  154.3983  140.1392  156.3847 H   0  0  0  0  0  0  0  0  0  0  0  0  # atno 8009 bound_to 7997
  155.8014  140.3452  155.5407 H   0  0  0  0  0  0  0  0  0  0  0  0  # atno 8010 bound_to 7997
  139.6371  144.7121  151.2312 H   0  0  0  0  0  0  0  0  0  0  0  0  # atno 10167 bound_to 10162
  155.9984  130.4820  150.4955 H   0  0  0  0  0  0  0  0  0  0  0  0  # atno 10718 bound_to 10713
  154.7715  135.3146  154.8180 H   0  0  0  0  0  0  0  0  0  0  0  0  # atno 10763 bound_to 10752
  153.8914  135.6825  153.4764 H   0  0  0  0  0  0  0  0  0  0  0  0  # atno 10764 bound_to 10752
  153.1329  135.4772  154.9312 H   0  0  0  0  0  0  0  0  0  0  0  0  # atno 10765 bound_to 10752
  140.6336  134.4625  157.5230 H   0  0  0  0  0  0  0  0  0  0  0  0  # atno 11005 bound_to 11000
  146.3431  140.2159  142.8590 LP  0  0  0  0  0  0  0  0  0  0  0  0  # atno 17320 bound_to 7965
  145.0015  140.8636  143.5278 LP  0  0  0  0  0  0  0  0  0  0  0  0  # atno 17321 bound_to 7965
  140.7471  143.6377  150.8364 LP  0  0  0  0  0  0  0  0  0  0  0  0  # atno 17342 bound_to 10162
  140.0009  143.5745  152.2875 LP  0  0  0  0  0  0  0  0  0  0  0  0  # atno 17343 bound_to 10162
  157.2945  131.0633  151.2111 LP  0  0  0  0  0  0  0  0  0  0  0  0  # atno 17370 bound_to 10713
  157.3112  130.6890  149.6216 LP  0  0  0  0  0  0  0  0  0  0  0  0  # atno 17371 bound_to 10713
  139.9106  134.8352  156.1541 LP  0  0  0  0  0  0  0  0  0  0  0  0  # atno 17394 bound_to 11000
  141.0657  133.6820  156.2040 LP  0  0  0  0  0  0  0  0  0  0  0  0  # atno 17395 bound_to 11000

$$$$
