AV-unprocessed.smi:2243|AV-procd|sdf|9071|dock3
  -GOLD-   2272012273D 1   1.00000     0.00000
 Structure written by MMmdl.
 33 34  0  0  0  0  0  0  0  0  2 V2000
  151.3788  135.7156  157.4471 C   0  0  0  0  0  0  0  0  0  0  0  0
  150.3685  135.9625  156.3134 C   0  0  1  0  0  0  0  0  0  0  0  0
  149.0834  136.3040  156.9276 N   0  0  0  0  0  0  0  0  0  0  0  0
  148.4257  135.6054  157.8663 C   0  0  0  0  0  0  0  0  0  0  0  0
  148.8899  134.5435  158.2877 O   0  0  0  0  0  0  0  0  0  0  0  0
  147.2639  136.1788  158.2530 N   0  5  0  0  0  0  0  0  0  0  0  0
  146.7190  135.8524  159.4361 C   0  0  0  0  0  0  0  0  0  0  0  0
  146.8303  134.6794  160.0621 N   0  0  0  0  0  0  0  0  0  0  0  0
  146.1110  134.8088  161.2401 C   0  0  0  0  0  0  0  0  0  0  0  0
  145.5953  136.0753  161.2802 C   0  0  0  0  0  0  0  0  0  0  0  0
  145.9756  136.7446  160.1501 O   0  0  0  0  0  0  0  0  0  0  0  0
  150.8180  137.0712  155.3232 C   0  0  0  0  0  0  0  0  0  0  0  0
  151.5688  138.2267  156.0192 C   0  0  0  0  0  0  0  0  0  0  0  0
  151.9366  139.3365  155.0219 C   0  0  0  0  0  0  0  0  0  0  0  0
  150.7648  139.8216  154.3782 O   0  0  0  0  0  0  0  0  0  0  0  0
  150.1047  138.8183  153.6170 C   0  0  0  0  0  0  0  0  0  0  0  0
  149.6380  137.6772  154.5359 C   0  0  0  0  0  0  0  0  0  0  0  0
  152.3212  135.3186  157.0714 H   0  0  0  0  0  0  0  0  0  0  0  0
  150.9923  134.9872  158.1608 H   0  0  0  0  0  0  0  0  0  0  0  0
  151.5939  136.6337  157.9948 H   0  0  0  0  0  0  0  0  0  0  0  0
  150.2756  135.0277  155.7583 H   0  0  0  0  0  0  0  0  0  0  0  0
  148.6539  137.1634  156.6181 H   0  0  0  0  0  0  0  0  0  0  0  0
  146.0247  133.9988  161.9490 H   0  0  0  0  0  0  0  0  0  0  0  0
  144.9850  136.6182  161.9860 H   0  0  0  0  0  0  0  0  0  0  0  0
  151.5023  136.6200  154.6028 H   0  0  0  0  0  0  0  0  0  0  0  0
  150.9487  138.6442  156.8135 H   0  0  0  0  0  0  0  0  0  0  0  0
  152.4813  137.8665  156.4943 H   0  0  0  0  0  0  0  0  0  0  0  0
  152.4184  140.1635  155.5439 H   0  0  0  0  0  0  0  0  0  0  0  0
  152.6488  138.9720  154.2800 H   0  0  0  0  0  0  0  0  0  0  0  0
  149.2479  139.2671  153.1144 H   0  0  0  0  0  0  0  0  0  0  0  0
  150.7684  138.4421  152.8368 H   0  0  0  0  0  0  0  0  0  0  0  0
  149.1484  136.9181  153.9267 H   0  0  0  0  0  0  0  0  0  0  0  0
  148.8860  138.0557  155.2295 H   0  0  0  0  0  0  0  0  0  0  0  0
  1  2  1  0  0  0  0
  1 18  1  0  0  0  0
  1 19  1  0  0  0  0
  1 20  1  0  0  0  0
  2  3  1  0  0  0  0
  2 12  1  0  0  0  0
  2 21  1  0  0  0  0
  3 22  1  0  0  0  0
  3  4  1  0  0  0  0
  4  6  1  0  0  0  0
  4  5  2  0  0  0  0
  6  7  1  0  0  0  0
  7 11  1  0  0  0  0
  7  8  2  0  0  0  0
  8  9  1  0  0  0  0
  9 23  1  0  0  0  0
  9 10  2  0  0  0  0
 10 24  1  0  0  0  0
 10 11  1  0  0  0  0
 12 17  1  0  0  0  0
 12 13  1  0  0  0  0
 12 25  1  0  0  0  0
 13 14  1  0  0  0  0
 13 26  1  0  0  0  0
 13 27  1  0  0  0  0
 14 15  1  0  0  0  0
 14 28  1  0  0  0  0
 14 29  1  0  0  0  0
 15 16  1  0  0  0  0
 16 17  1  0  0  0  0
 16 30  1  0  0  0  0
 16 31  1  0  0  0  0
 17 32  1  0  0  0  0
 17 33  1  0  0  0  0
M  CHG  1   6  -1
M  END
> <s_m_source_file>
AV-unprocessed.smi

> <i_m_source_file_index>
2243

> <i_lp_mmshare_version>
43012

> <i_f3d_flags>
0

> <s_epik_input>
W0NIMl0xW0NIMl1PW0NIMl1bQ0gyXVtDSF0xW0NASF0oW0NIM10pW05IXUMoPU8pW05IXWMybltjSF1bY0hdbzI=

> <s_epik_cmdline>
J2VwaWtfcHl0aG9uJywgJy1waCcsICc3LjAnLCAnLXRuJywgJzgnLCAnLW1hJywgJzIwMCcsICctbWV0YWxfYmluZGluZycsICctaW1hZScsICc8aW5maWxlLm1hZT4nLCAnLW9tYWUnLCAnPG91dGZpbGUubWFlPic=

> <r_lp_tautomer_probability>
0.107061

> <r_epik_Ionization_Penalty>
11.1403

> <r_epik_Ionization_Penalty_Charging>
7.81312

> <r_epik_Ionization_Penalty_Neutral>
3.32719

> <r_epik_State_Penalty>
5.94317

> <r_epik_Charging_Adjusted_Penalty>
13.7563

> <i_epik_Tot_Q>
-1

> <i_epik_Tot_abs_Q>
1

> <r_epik_Metal_State_Penalty>
1.86619

> <b_epik_Metal_Only>
1

> <s_lp_Force_Field>
OPLS_2005

> <r_lp_Energy>
6.4903

> <b_lp_Chiralities_Consistent>
1

> <s_lp_Variant>
AV-unprocessed.smi:2243-10

> <Gold.Version>
5.8.1

> <Gold.Id.Protein>
6NUR|6NUR_protein|mol2

> <Gold.PLP.Fitness>
36.5993

> <Gold.PLP.PLP>
-26.7179

> <Gold.PLP.part.hbond>
-4.0000

> <Gold.PLP.part.metal>
0.0000

> <Gold.PLP.part.buried>
-1.3816

> <Gold.PLP.part.nonpolar>
-21.1014

> <Gold.PLP.part.repulsive>
0.1218

> <Gold.PLP.ligand.clash>
0.0000

> <Gold.PLP.ligand.torsion>
0.8038

> <Gold.PLP.Chemscore.Hbond>
3.8240

> <Gold.PLP.Chemscore.CHOScore>
0.0000

> <Gold.PLP.Chemscore.Metal>
0.0000

> <Gold.Chemscore.Hbonds>
donor molecule, donor type, donor heavy atom, donor atom, acceptor molecule, acceptor atom, score
      P1  H  6896  6908       L1     5  0.78
      P1  H  7989  7998       L1    15  0.60

> <Gold.PLP.Chemscore.Internal.Correction>
0.0171

> <Gold.Rescore>
     Score         DG    S(hbond)    S(metal)    S(lipo)     H(rot)  DE(clash)    DE(int)     intcor
     14.31     -18.97       2.96        0.00      59.51       1.31       1.59       3.07       ----

> <Gold.Chemscore.Fitness>
14.3069

> <Gold.Chemscore.DG>
-18.9749

> <Gold.Chemscore.ZeroCoef>
-5.4800

> <Gold.Chemscore.Hbond>
2.9570

> <Gold.Chemscore.Metal>
0.0000

> <Gold.Chemscore.Lipo>
59.5116

> <Gold.Chemscore.Internal_Hbond>
0.0000

> <Gold.Chemscore.DEClash>
1.5947

> <Gold.Chemscore.DEInternal>
3.0733

> <Gold.Chemscore.Rot>
1.3063

> <Gold.Chemscore.Internal.Correction>
   9.000000E+99

> <Gold.Chemscore.Hbonds>
donor molecule, donor type, donor heavy atom, donor atom, acceptor molecule, acceptor atom, score
      P1  H  6896  6908       L1     5  0.78
      P1  H  7989  7998       L1    15  0.04

> <Gold.Chemscore.Hbond.Weighted>
-9.8763

> <Gold.Chemscore.Metal.Weighted>
-0.0000

> <Gold.Chemscore.Lipo.Weighted>
-6.9629

> <Gold.Chemscore.Internal_Hbond.Weighted>
0.0000

> <Gold.Chemscore.DEClash.Weighted>
1.5947

> <Gold.Chemscore.DEInternal.Weighted>
3.0733

> <Gold.Chemscore.Rot.Weighted>
3.3443

> <Gold.Chemscore.Internal.Correction.Weighted>
   9.000000E+99

> <Gold.Protein.RotatedTorsions>
[ 6907 6896 6895 6894 ] final  159.58 input  -60.11 | X-H torsion
[ 7974 7965 7964 7962 ] final  117.23 input  175.53 | X-H torsion
[ 8008 7997 7996 7995 ] final -102.68 input   59.86 | X-H torsion
[ 10167 10162 10161 10158 ] final  -70.42 input  -65.29 | X-H torsion
[ 10718 10713 10712 10709 ] final  -25.83 input   66.30 | X-H torsion
[ 10763 10752 10751 10750 ] final -154.56 input  -60.55 | X-H torsion
[ 11005 11000 10999 10996 ] final   73.29 input  -57.11 | X-H torsion

> <Gold.Protein.ActiveResidues>
 VAL166  LYS551  ARG553  GLY616  TRP617  ASP618  TYR619  PRO620  LYS621  CYS622 
 ASP623  PHE694  ASN695  SER759  ASP760  ASP761  ALA762  ILE779  LEU786  VAL792 
 PHE793  MET794  SER795  GLU796  ALA797  LYS798  CYS799  TRP800  GLU811  SER814 

> <Gold.Protein.RotatedAtoms>
  151.9834  133.3765  159.4116 H   0  0  0  0  0  0  0  0  0  0  0  0  # atno 6907 bound_to 6896
  150.6931  134.4014  159.5130 H   0  0  0  0  0  0  0  0  0  0  0  0  # atno 6908 bound_to 6896
  152.1736  134.8813  160.0583 H   0  0  0  0  0  0  0  0  0  0  0  0  # atno 6909 bound_to 6896
  145.1699  139.3107  143.4473 H   0  0  0  0  0  0  0  0  0  0  0  0  # atno 7974 bound_to 7965
  154.8601  140.0427  157.1660 H   0  0  0  0  0  0  0  0  0  0  0  0  # atno 8008 bound_to 7997
  154.8849  140.2978  155.5383 H   0  0  0  0  0  0  0  0  0  0  0  0  # atno 8009 bound_to 7997
  156.2998  140.2404  156.3857 H   0  0  0  0  0  0  0  0  0  0  0  0  # atno 8010 bound_to 7997
  140.5354  143.2318  151.7186 H   0  0  0  0  0  0  0  0  0  0  0  0  # atno 10167 bound_to 10162
  156.4592  130.4500  149.6940 H   0  0  0  0  0  0  0  0  0  0  0  0  # atno 10718 bound_to 10713
  154.7850  135.3187  154.7907 H   0  0  0  0  0  0  0  0  0  0  0  0  # atno 10763 bound_to 10752
  153.8609  135.6853  153.4787 H   0  0  0  0  0  0  0  0  0  0  0  0  # atno 10764 bound_to 10752
  153.1498  135.4704  154.9559 H   0  0  0  0  0  0  0  0  0  0  0  0  # atno 10765 bound_to 10752
  139.9448  134.7334  156.1008 H   0  0  0  0  0  0  0  0  0  0  0  0  # atno 11005 bound_to 11000
  146.3470  140.1841  142.8589 LP  0  0  0  0  0  0  0  0  0  0  0  0  # atno 17320 bound_to 7965
  145.0243  140.8819  143.5148 LP  0  0  0  0  0  0  0  0  0  0  0  0  # atno 17321 bound_to 7965
  139.4969  144.4051  152.0141 LP  0  0  0  0  0  0  0  0  0  0  0  0  # atno 17342 bound_to 10162
  140.3156  144.3488  150.6022 LP  0  0  0  0  0  0  0  0  0  0  0  0  # atno 17343 bound_to 10162
  156.3734  130.7542  151.2528 LP  0  0  0  0  0  0  0  0  0  0  0  0  # atno 17370 bound_to 10713
  157.7499  131.0316  150.4190 LP  0  0  0  0  0  0  0  0  0  0  0  0  # atno 17371 bound_to 10713
  141.1094  133.6648  156.2943 LP  0  0  0  0  0  0  0  0  0  0  0  0  # atno 17394 bound_to 11000
  140.5863  134.5696  157.5490 LP  0  0  0  0  0  0  0  0  0  0  0  0  # atno 17395 bound_to 11000

$$$$
