AV-unprocessed.smi:1071|AV-procd|sdf|4679|dock9
  -GOLD-   22720 3193D 1   1.00000     0.00000
 Structure written by MMmdl.
 47 48  0  0  0  0  0  0  0  0  2 V2000
  151.1285  138.5380  154.4429 C   0  0  0  0  0  0  0  0  0  0  0  0
  151.9984  139.6161  154.7507 O   0  0  0  0  0  0  0  0  0  0  0  0
  151.6234  140.3474  155.9097 C   0  0  0  0  0  0  0  0  0  0  0  0
  150.3418  141.1624  155.6830 C   0  0  0  0  0  0  0  0  0  0  0  0
  149.2725  140.5303  156.3797 O   0  0  0  0  0  0  0  0  0  0  0  0
  148.3858  139.7542  155.6616 C   0  0  0  0  0  0  0  0  0  0  0  0
  147.3282  139.1277  156.3506 C   0  0  0  0  0  0  0  0  0  0  0  0
  146.4175  138.3350  155.6260 C   0  0  0  0  0  0  0  0  0  0  0  0
  146.5899  138.2010  154.2277 C   0  0  0  0  0  0  0  0  0  0  0  0
  145.7534  137.4144  153.3907 N   0  0  0  0  0  0  0  0  0  0  0  0
  145.1066  136.2684  153.6828 C   0  0  0  0  0  0  0  0  0  0  0  0
  145.0835  135.7877  154.8160 O   0  0  0  0  0  0  0  0  0  0  0  0
  144.4049  135.7372  152.6438 N   0  0  0  0  0  0  0  0  0  0  0  0
  144.4451  136.2362  151.2518 C   0  0  0  0  0  0  0  0  0  0  0  0
  144.7858  135.1135  150.2606 C   0  0  0  0  0  0  0  0  0  0  0  0
  143.8513  133.9767  150.4057 N   0  3  1  0  0  0  0  0  0  0  0  0
  144.0863  132.9178  149.4008 C   0  0  0  0  0  0  0  0  0  0  0  0
  143.8315  133.4509  151.7890 C   0  0  0  0  0  0  0  0  0  0  0  0
  143.5396  134.5514  152.8315 C   0  0  2  0  0  0  0  0  0  0  0  0
  142.0567  134.9582  152.8899 C   0  0  0  0  0  0  0  0  0  0  0  0
  147.6901  138.8555  153.6364 C   0  0  0  0  0  0  0  0  0  0  0  0
  148.5659  139.6170  154.3247 N   0  0  0  0  0  0  0  0  0  0  0  0
  151.5056  138.0065  153.5692 H   0  0  0  0  0  0  0  0  0  0  0  0
  150.1209  138.8818  154.2102 H   0  0  0  0  0  0  0  0  0  0  0  0
  151.0742  137.8268  155.2681 H   0  0  0  0  0  0  0  0  0  0  0  0
  151.5270  139.6910  156.7760 H   0  0  0  0  0  0  0  0  0  0  0  0
  152.4408  141.0339  156.1318 H   0  0  0  0  0  0  0  0  0  0  0  0
  150.4838  142.1762  156.0610 H   0  0  0  0  0  0  0  0  0  0  0  0
  150.1134  141.2252  154.6186 H   0  0  0  0  0  0  0  0  0  0  0  0
  147.2197  139.2490  157.4182 H   0  0  0  0  0  0  0  0  0  0  0  0
  145.6198  137.8381  156.1559 H   0  0  0  0  0  0  0  0  0  0  0  0
  145.5928  137.7893  152.4672 H   0  0  0  0  0  0  0  0  0  0  0  0
  143.4721  136.6636  151.0076 H   0  0  0  0  0  0  0  0  0  0  0  0
  145.1639  137.0391  151.0890 H   0  0  0  0  0  0  0  0  0  0  0  0
  144.7372  135.4988  149.2415 H   0  0  0  0  0  0  0  0  0  0  0  0
  145.8086  134.7693  150.4230 H   0  0  0  0  0  0  0  0  0  0  0  0
  145.0727  132.4695  149.5273 H   0  0  0  0  0  0  0  0  0  0  0  0
  144.0221  133.3239  148.3907 H   0  0  0  0  0  0  0  0  0  0  0  0
  143.3385  132.1290  149.4896 H   0  0  0  0  0  0  0  0  0  0  0  0
  143.0939  132.6512  151.8714 H   0  0  0  0  0  0  0  0  0  0  0  0
  144.8023  133.0006  152.0034 H   0  0  0  0  0  0  0  0  0  0  0  0
  143.7429  134.0784  153.7931 H   0  0  0  0  0  0  0  0  0  0  0  0
  141.4256  134.0987  153.1165 H   0  0  0  0  0  0  0  0  0  0  0  0
  141.7120  135.3775  151.9447 H   0  0  0  0  0  0  0  0  0  0  0  0
  141.8847  135.7033  153.6674 H   0  0  0  0  0  0  0  0  0  0  0  0
  147.8726  138.7706  152.5750 H   0  0  0  0  0  0  0  0  0  0  0  0
  142.9270  134.3428  150.2275 H   0  0  0  0  0  0  0  0  0  0  0  0
  1  2  1  0  0  0  0
  1 23  1  0  0  0  0
  1 24  1  0  0  0  0
  1 25  1  0  0  0  0
  2  3  1  0  0  0  0
  3  4  1  0  0  0  0
  3 26  1  0  0  0  0
  3 27  1  0  0  0  0
  4  5  1  0  0  0  0
  4 28  1  0  0  0  0
  4 29  1  0  0  0  0
  5  6  1  0  0  0  0
  6 22  1  0  0  0  0
  6  7  2  0  0  0  0
  7  8  1  0  0  0  0
  7 30  1  0  0  0  0
  8  9  2  0  0  0  0
  8 31  1  0  0  0  0
  9 10  1  0  0  0  0
  9 21  1  0  0  0  0
 10 11  1  0  0  0  0
 10 32  1  0  0  0  0
 11 12  2  0  0  0  0
 11 13  1  0  0  0  0
 13 19  1  0  0  0  0
 13 14  1  0  0  0  0
 14 15  1  0  0  0  0
 14 33  1  0  0  0  0
 14 34  1  0  0  0  0
 15 16  1  0  0  0  0
 15 35  1  0  0  0  0
 15 36  1  0  0  0  0
 16 17  1  0  0  0  0
 16 18  1  0  0  0  0
 16 47  1  0  0  0  0
 17 37  1  0  0  0  0
 17 38  1  0  0  0  0
 17 39  1  0  0  0  0
 18 19  1  0  0  0  0
 18 40  1  0  0  0  0
 18 41  1  0  0  0  0
 19 20  1  0  0  0  0
 19 42  1  0  0  0  0
 20 43  1  0  0  0  0
 20 44  1  0  0  0  0
 20 45  1  0  0  0  0
 21 22  2  0  0  0  0
 21 46  1  0  0  0  0
M  CHG  1  16   1
M  END
> <s_m_source_file>
AV-unprocessed.smi

> <i_m_source_file_index>
1071

> <i_lp_mmshare_version>
43012

> <i_f3d_flags>
0

> <s_epik_input>
W0NIM11PW0NIMl1bQ0gyXU9jMVtjSF1bY0hdYyhbY0hdbjEpW05IXUMoPU8pTjJbQ0gyXVtDSDJdTihbQ0gzXSlbQ0gyXVtDQEhdMltDSDNd

> <s_epik_cmdline>
J2VwaWtfcHl0aG9uJywgJy1waCcsICc3LjAnLCAnLXRuJywgJzgnLCAnLW1hJywgJzIwMCcsICctbWV0YWxfYmluZGluZycsICctaW1hZScsICc8aW5maWxlLm1hZT4nLCAnLW9tYWUnLCAnPG91dGZpbGUubWFlPic=

> <r_lp_tautomer_probability>
1

> <r_epik_Ionization_Penalty>
0.25455

> <r_epik_Ionization_Penalty_Charging>
0.254506

> <r_epik_Ionization_Penalty_Neutral>
4.43365e-05

> <r_epik_State_Penalty>
0.245983

> <r_epik_Charging_Adjusted_Penalty>
0.500488

> <i_epik_Tot_Q>
1

> <i_epik_Tot_abs_Q>
1

> <r_epik_Metal_State_Penalty>
0.245987

> <b_epik_Metal_Only>
0

> <s_lp_Force_Field>
OPLS_2005

> <r_lp_Energy>
58.5188

> <b_lp_Chiralities_Consistent>
1

> <s_lp_Variant>
AV-unprocessed.smi:1071-3

> <Gold.Version>
5.8.1

> <Gold.Id.Protein>
6NUR|6NUR_protein|mol2

> <Gold.PLP.Fitness>
38.7183

> <Gold.PLP.PLP>
-28.4622

> <Gold.PLP.part.hbond>
-2.0000

> <Gold.PLP.part.metal>
0.0000

> <Gold.PLP.part.buried>
-1.1033

> <Gold.PLP.part.nonpolar>
-24.2107

> <Gold.PLP.part.repulsive>
0.2463

> <Gold.PLP.ligand.clash>
0.0000

> <Gold.PLP.ligand.torsion>
0.8859

> <Gold.PLP.Chemscore.Hbond>
2.8785

> <Gold.PLP.Chemscore.CHOScore>
1.1155

> <Gold.PLP.Chemscore.Metal>
0.0000

> <Gold.Chemscore.Hbonds>
donor molecule, donor type, donor heavy atom, donor atom, acceptor molecule, acceptor atom, score
      L1  H    16    47       P1 10186  1.98
      P1  H  7989  7998       L1     2  0.91
      L1  C    21    46       P1  7948  0.18
      L1  C    21    46       P1  7957  0.93

> <Gold.PLP.Chemscore.Internal.Correction>
0.0460

> <Gold.Rescore>
     Score         DG    S(hbond)    S(metal)    S(lipo)     H(rot)  DE(clash)    DE(int)     intcor
     10.99     -13.36       1.15        0.00      69.61       1.60       0.28       2.09       ----

> <Gold.Chemscore.Fitness>
10.9914

> <Gold.Chemscore.DG>
-13.3616

> <Gold.Chemscore.ZeroCoef>
-5.4800

> <Gold.Chemscore.Hbond>
1.1511

> <Gold.Chemscore.Metal>
0.0000

> <Gold.Chemscore.Lipo>
69.6114

> <Gold.Chemscore.Internal_Hbond>
0.0000

> <Gold.Chemscore.DEClash>
0.2800

> <Gold.Chemscore.DEInternal>
2.0902

> <Gold.Chemscore.Rot>
1.6045

> <Gold.Chemscore.Internal.Correction>
   9.000000E+99

> <Gold.Chemscore.Hbonds>
donor molecule, donor type, donor heavy atom, donor atom, acceptor molecule, acceptor atom, score
      L1  H    16    47       P1 10186  0.79
      P1  H  7989  7998       L1     2  0.11

> <Gold.Chemscore.Hbond.Weighted>
-3.8446

> <Gold.Chemscore.Metal.Weighted>
-0.0000

> <Gold.Chemscore.Lipo.Weighted>
-8.1445

> <Gold.Chemscore.Internal_Hbond.Weighted>
0.0000

> <Gold.Chemscore.DEClash.Weighted>
0.2800

> <Gold.Chemscore.DEInternal.Weighted>
2.0902

> <Gold.Chemscore.Rot.Weighted>
4.1075

> <Gold.Chemscore.Internal.Correction.Weighted>
   9.000000E+99

> <Gold.Protein.RotatedTorsions>
[ 6907 6896 6895 6894 ] final -148.14 input  -60.11 | X-H torsion
[ 7974 7965 7964 7962 ] final -107.25 input  175.53 | X-H torsion
[ 8008 7997 7996 7995 ] final  176.09 input   59.86 | X-H torsion
[ 10167 10162 10161 10158 ] final -121.64 input  -65.29 | X-H torsion
[ 10718 10713 10712 10709 ] final   79.71 input   66.30 | X-H torsion
[ 10763 10752 10751 10750 ] final  -33.28 input  -60.55 | X-H torsion
[ 11005 11000 10999 10996 ] final   99.10 input  -57.11 | X-H torsion

> <Gold.Protein.ActiveResidues>
 VAL166  LYS551  ARG553  GLY616  TRP617  ASP618  TYR619  PRO620  LYS621  CYS622 
 ASP623  PHE694  ASN695  SER759  ASP760  ASP761  ALA762  ILE779  LEU786  VAL792 
 PHE793  MET794  SER795  GLU796  ALA797  LYS798  CYS799  TRP800  GLU811  SER814 

> <Gold.Protein.RotatedAtoms>
  151.1656  133.4817  159.2593 H   0  0  0  0  0  0  0  0  0  0  0  0  # atno 6907 bound_to 6896
  151.1409  135.0179  159.8635 H   0  0  0  0  0  0  0  0  0  0  0  0  # atno 6908 bound_to 6896
  152.5462  134.1550  159.8587 H   0  0  0  0  0  0  0  0  0  0  0  0  # atno 6909 bound_to 6896
  145.2077  140.9083  143.3332 H   0  0  0  0  0  0  0  0  0  0  0  0  # atno 7974 bound_to 7965
  156.0801  140.1392  156.9723 H   0  0  0  0  0  0  0  0  0  0  0  0  # atno 8008 bound_to 7997
  154.4580  140.0954  156.6862 H   0  0  0  0  0  0  0  0  0  0  0  0  # atno 8009 bound_to 7997
  155.5089  140.3453  155.4387 H   0  0  0  0  0  0  0  0  0  0  0  0  # atno 8010 bound_to 7997
  140.0229  143.5326  152.2212 H   0  0  0  0  0  0  0  0  0  0  0  0  # atno 10167 bound_to 10162
  157.6785  130.9926  150.1972 H   0  0  0  0  0  0  0  0  0  0  0  0  # atno 10718 bound_to 10713
  153.8276  135.6869  153.4818 H   0  0  0  0  0  0  0  0  0  0  0  0  # atno 10763 bound_to 10752
  153.1530  135.4610  154.9662 H   0  0  0  0  0  0  0  0  0  0  0  0  # atno 10764 bound_to 10752
  154.7900  135.3298  154.7743 H   0  0  0  0  0  0  0  0  0  0  0  0  # atno 10765 bound_to 10752
  139.8771  134.9080  156.4555 H   0  0  0  0  0  0  0  0  0  0  0  0  # atno 11005 bound_to 11000
  144.9886  139.3712  143.6226 LP  0  0  0  0  0  0  0  0  0  0  0  0  # atno 17320 bound_to 7965
  146.3404  139.9058  142.8787 LP  0  0  0  0  0  0  0  0  0  0  0  0  # atno 17321 bound_to 7965
  139.6128  144.7612  151.2914 LP  0  0  0  0  0  0  0  0  0  0  0  0  # atno 17342 bound_to 10162
  140.7335  143.6793  150.8014 LP  0  0  0  0  0  0  0  0  0  0  0  0  # atno 17343 bound_to 10162
  156.2670  130.3717  149.8071 LP  0  0  0  0  0  0  0  0  0  0  0  0  # atno 17370 bound_to 10713
  156.5799  130.8461  151.3380 LP  0  0  0  0  0  0  0  0  0  0  0  0  # atno 17371 bound_to 10713
  140.8901  133.7854  155.9563 LP  0  0  0  0  0  0  0  0  0  0  0  0  # atno 17394 bound_to 11000
  140.8762  134.2667  157.5167 LP  0  0  0  0  0  0  0  0  0  0  0  0  # atno 17395 bound_to 11000

$$$$
