AV-unprocessed.smi:3165|AV-procd|sdf|12092|dock3
  -GOLD-   2272017523D 1   1.00000     0.00000
 Structure written by MMmdl.
 37 38  0  0  0  0  0  0  0  0  1 V2000
  150.4524  144.9072  159.2148 C   0  0  0  0  0  0  0  0  0  0  0  0
  151.2943  144.3712  158.0459 C   0  0  1  0  0  0  0  0  0  0  0  0
  152.7466  144.0334  158.4700 C   0  0  0  0  0  0  0  0  0  0  0  0
  152.8392  143.2799  159.7107 N   0  0  0  0  0  0  0  0  0  0  0  0
  153.3417  142.0103  159.9076 C   0  0  0  0  0  0  0  0  0  0  0  0
  153.2162  141.7236  161.2365 C   0  0  0  0  0  0  0  0  0  0  0  0
  152.6125  142.8926  161.7781 C   0  0  0  0  0  0  0  0  0  0  0  0
  152.3839  143.8196  160.8624 N   0  0  0  0  0  0  0  0  0  0  0  0
  150.5958  143.2398  157.4261 N   0  0  0  0  0  0  0  0  0  0  0  0
  151.3674  142.4796  156.4428 C   0  0  0  0  0  0  0  0  0  0  0  0
  150.6260  141.2004  156.0269 C   0  0  1  0  0  0  0  0  0  0  0  0
  149.4743  141.4757  155.0378 C   0  0  0  0  0  0  0  0  0  0  0  0
  148.8265  140.1618  154.5864 C   0  0  0  0  0  0  0  0  0  0  0  0
  149.9021  139.2144  154.0454 C   0  0  0  0  0  0  0  0  0  0  0  0
  151.0392  139.0583  155.0676 C   0  0  0  0  0  0  0  0  0  0  0  0
  151.5724  140.3367  155.4012 O   0  0  0  0  0  0  0  0  0  0  0  0
  150.9428  145.7538  159.6957 H   0  0  0  0  0  0  0  0  0  0  0  0
  150.2826  144.1439  159.9750 H   0  0  0  0  0  0  0  0  0  0  0  0
  149.4759  145.2476  158.8686 H   0  0  0  0  0  0  0  0  0  0  0  0
  151.3563  145.1739  157.3101 H   0  0  0  0  0  0  0  0  0  0  0  0
  153.2808  143.4948  157.6869 H   0  0  0  0  0  0  0  0  0  0  0  0
  153.3007  144.9626  158.6078 H   0  0  0  0  0  0  0  0  0  0  0  0
  153.7460  141.4251  159.0948 H   0  0  0  0  0  0  0  0  0  0  0  0
  153.5106  140.8174  161.7445 H   0  0  0  0  0  0  0  0  0  0  0  0
  152.3342  143.0934  162.8022 H   0  0  0  0  0  0  0  0  0  0  0  0
  149.7335  143.5651  157.0011 H   0  0  0  0  0  0  0  0  0  0  0  0
  151.5767  143.0901  155.5635 H   0  0  0  0  0  0  0  0  0  0  0  0
  152.3311  142.1973  156.8661 H   0  0  0  0  0  0  0  0  0  0  0  0
  150.2428  140.7054  156.9215 H   0  0  0  0  0  0  0  0  0  0  0  0
  148.7223  142.1193  155.4953 H   0  0  0  0  0  0  0  0  0  0  0  0
  149.8560  142.0112  154.1674 H   0  0  0  0  0  0  0  0  0  0  0  0
  148.3168  139.6954  155.4304 H   0  0  0  0  0  0  0  0  0  0  0  0
  148.0683  140.3515  153.8263 H   0  0  0  0  0  0  0  0  0  0  0  0
  149.4668  138.2424  153.8117 H   0  0  0  0  0  0  0  0  0  0  0  0
  150.3038  139.6110  153.1123 H   0  0  0  0  0  0  0  0  0  0  0  0
  150.6868  138.5528  155.9680 H   0  0  0  0  0  0  0  0  0  0  0  0
  151.8360  138.4429  154.6498 H   0  0  0  0  0  0  0  0  0  0  0  0
  1  2  1  0  0  0  0
  1 17  1  0  0  0  0
  1 18  1  0  0  0  0
  1 19  1  0  0  0  0
  2  3  1  0  0  0  0
  2  9  1  0  0  0  0
  2 20  1  0  0  0  0
  3  4  1  0  0  0  0
  3 21  1  0  0  0  0
  3 22  1  0  0  0  0
  4  8  1  0  0  0  0
  4  5  1  0  0  0  0
  5  6  2  0  0  0  0
  5 23  1  0  0  0  0
  6  7  1  0  0  0  0
  6 24  1  0  0  0  0
  7  8  2  0  0  0  0
  7 25  1  0  0  0  0
  9 10  1  0  0  0  0
  9 26  1  0  0  0  0
 10 11  1  0  0  0  0
 10 27  1  0  0  0  0
 10 28  1  0  0  0  0
 11 16  1  0  0  0  0
 11 12  1  0  0  0  0
 11 29  1  0  0  0  0
 12 13  1  0  0  0  0
 12 30  1  0  0  0  0
 12 31  1  0  0  0  0
 13 14  1  0  0  0  0
 13 32  1  0  0  0  0
 13 33  1  0  0  0  0
 14 15  1  0  0  0  0
 14 34  1  0  0  0  0
 14 35  1  0  0  0  0
 15 16  1  0  0  0  0
 15 36  1  0  0  0  0
 15 37  1  0  0  0  0
M  END
> <s_m_source_file>
AV-unprocessed.smi

> <i_m_source_file_index>
3165

> <i_lp_mmshare_version>
43012

> <i_f3d_flags>
0

> <s_epik_input>
bjFbY0hdW2NIXVtjSF1uMVtDSDJdW0NAQEhdKFtDSDNdKVtOSF1bQ0gyXVtDQEBIXTJbQ0gyXVtDSDJdW0NIMl1bQ0gyXU8y

> <s_epik_cmdline>
J2VwaWtfcHl0aG9uJywgJy1waCcsICc3LjAnLCAnLXRuJywgJzgnLCAnLW1hJywgJzIwMCcsICctbWV0YWxfYmluZGluZycsICctaW1hZScsICc8aW5maWxlLm1hZT4nLCAnLW9tYWUnLCAnPG91dGZpbGUubWFlPic=

> <r_lp_tautomer_probability>
1

> <r_epik_Ionization_Penalty>
2.51982

> <r_epik_Ionization_Penalty_Charging>
0

> <r_epik_Ionization_Penalty_Neutral>
2.51982

> <r_epik_State_Penalty>
2.68614

> <r_epik_Charging_Adjusted_Penalty>
2.68614

> <i_epik_Tot_Q>
0

> <i_epik_Tot_abs_Q>
0

> <r_epik_Metal_State_Penalty>
2.6861

> <b_epik_Metal_Only>
0

> <s_lp_Force_Field>
OPLS_2005

> <r_lp_Energy>
14.4807

> <b_lp_Chiralities_Consistent>
1

> <s_lp_Variant>
AV-unprocessed.smi:3165-8

> <Gold.Version>
5.8.1

> <Gold.Id.Protein>
6NUR|6NUR_protein|mol2

> <Gold.PLP.Fitness>
47.3461

> <Gold.PLP.PLP>
-43.6155

> <Gold.PLP.part.hbond>
-2.0000

> <Gold.PLP.part.metal>
0.0000

> <Gold.PLP.part.buried>
-5.6527

> <Gold.PLP.part.nonpolar>
-37.3610

> <Gold.PLP.part.repulsive>
0.1056

> <Gold.PLP.ligand.clash>
0.0000

> <Gold.PLP.ligand.torsion>
0.3795

> <Gold.PLP.Chemscore.Hbond>
1.4848

> <Gold.PLP.Chemscore.CHOScore>
0.0000

> <Gold.PLP.Chemscore.Metal>
0.0000

> <Gold.Chemscore.Hbonds>
donor molecule, donor type, donor heavy atom, donor atom, acceptor molecule, acceptor atom, score
      L1  H     9    26       P1  8028  0.94
      P1  H  7989  7998       L1    16  0.53

> <Gold.PLP.Chemscore.Internal.Correction>
0.0352

> <Gold.Rescore>
     Score         DG    S(hbond)    S(metal)    S(lipo)     H(rot)  DE(clash)    DE(int)     intcor
     15.89     -18.36       1.10        0.00     113.09       1.57       0.72       1.75       ----

> <Gold.Chemscore.Fitness>
15.8904

> <Gold.Chemscore.DG>
-18.3600

> <Gold.Chemscore.ZeroCoef>
-5.4800

> <Gold.Chemscore.Hbond>
1.1005

> <Gold.Chemscore.Metal>
0.0000

> <Gold.Chemscore.Lipo>
113.0913

> <Gold.Chemscore.Internal_Hbond>
0.0000

> <Gold.Chemscore.DEClash>
0.7213

> <Gold.Chemscore.DEInternal>
1.7483

> <Gold.Chemscore.Rot>
1.5731

> <Gold.Chemscore.Internal.Correction>
   9.000000E+99

> <Gold.Chemscore.Hbonds>
donor molecule, donor type, donor heavy atom, donor atom, acceptor molecule, acceptor atom, score
      L1  H     9    26       P1  8028  0.87
      P1  H  7989  7998       L1    16  0.02

> <Gold.Chemscore.Hbond.Weighted>
-3.6755

> <Gold.Chemscore.Metal.Weighted>
-0.0000

> <Gold.Chemscore.Lipo.Weighted>
-13.2317

> <Gold.Chemscore.Internal_Hbond.Weighted>
0.0000

> <Gold.Chemscore.DEClash.Weighted>
0.7213

> <Gold.Chemscore.DEInternal.Weighted>
1.7483

> <Gold.Chemscore.Rot.Weighted>
4.0273

> <Gold.Chemscore.Internal.Correction.Weighted>
   9.000000E+99

> <Gold.Protein.RotatedTorsions>
[ 6907 6896 6895 6894 ] final  136.11 input  -60.11 | X-H torsion
[ 7974 7965 7964 7962 ] final  153.51 input  175.53 | X-H torsion
[ 8008 7997 7996 7995 ] final   85.42 input   59.86 | X-H torsion
[ 10167 10162 10161 10158 ] final -136.18 input  -65.29 | X-H torsion
[ 10718 10713 10712 10709 ] final  -56.56 input   66.30 | X-H torsion
[ 10763 10752 10751 10750 ] final  145.17 input  -60.55 | X-H torsion
[ 11005 11000 10999 10996 ] final  179.42 input  -57.11 | X-H torsion

> <Gold.Protein.ActiveResidues>
 VAL166  LYS551  ARG553  GLY616  TRP617  ASP618  TYR619  PRO620  LYS621  CYS622 
 ASP623  PHE694  ASN695  SER759  ASP760  ASP761  ALA762  ILE779  LEU786  VAL792 
 PHE793  MET794  SER795  GLU796  ALA797  LYS798  CYS799  TRP800  GLU811  SER814 

> <Gold.Protein.RotatedAtoms>
  152.2930  133.5580  159.5569 H   0  0  0  0  0  0  0  0  0  0  0  0  # atno 6907 bound_to 6896
  150.7244  134.0401  159.3771 H   0  0  0  0  0  0  0  0  0  0  0  0  # atno 6908 bound_to 6896
  151.8305  135.0623  160.0487 H   0  0  0  0  0  0  0  0  0  0  0  0  # atno 6909 bound_to 6896
  144.8150  139.6810  143.6125 H   0  0  0  0  0  0  0  0  0  0  0  0  # atno 7974 bound_to 7965
  155.9498  140.3402  155.6398 H   0  0  0  0  0  0  0  0  0  0  0  0  # atno 8008 bound_to 7997
  155.6934  140.0751  157.2457 H   0  0  0  0  0  0  0  0  0  0  0  0  # atno 8009 bound_to 7997
  154.4119  140.1653  156.2099 H   0  0  0  0  0  0  0  0  0  0  0  0  # atno 8010 bound_to 7997
  139.8703  143.6965  152.2640 H   0  0  0  0  0  0  0  0  0  0  0  0  # atno 10167 bound_to 10162
  156.1279  130.4161  150.0322 H   0  0  0  0  0  0  0  0  0  0  0  0  # atno 10718 bound_to 10713
  154.0010  135.2923  155.3402 H   0  0  0  0  0  0  0  0  0  0  0  0  # atno 10763 bound_to 10752
  154.7159  135.5129  153.8741 H   0  0  0  0  0  0  0  0  0  0  0  0  # atno 10764 bound_to 10752
  153.0766  135.6665  154.0251 H   0  0  0  0  0  0  0  0  0  0  0  0  # atno 10765 bound_to 10752
  140.4059  134.6735  157.4587 H   0  0  0  0  0  0  0  0  0  0  0  0  # atno 11005 bound_to 11000
  146.2452  139.6083  142.9464 LP  0  0  0  0  0  0  0  0  0  0  0  0  # atno 17320 bound_to 7965
  145.5236  141.0431  143.2422 LP  0  0  0  0  0  0  0  0  0  0  0  0  # atno 17321 bound_to 7965
  139.7290  144.7586  151.0833 LP  0  0  0  0  0  0  0  0  0  0  0  0  # atno 17342 bound_to 10162
  140.7761  143.5112  150.9650 LP  0  0  0  0  0  0  0  0  0  0  0  0  # atno 17343 bound_to 10162
  156.8242  130.9369  151.3640 LP  0  0  0  0  0  0  0  0  0  0  0  0  # atno 17370 bound_to 10713
  157.6459  130.8844  149.9538 LP  0  0  0  0  0  0  0  0  0  0  0  0  # atno 17371 bound_to 10713
  140.0302  134.6417  155.9117 LP  0  0  0  0  0  0  0  0  0  0  0  0  # atno 17394 bound_to 11000
  141.1839  133.6552  156.5136 LP  0  0  0  0  0  0  0  0  0  0  0  0  # atno 17395 bound_to 11000

$$$$
