AV-unprocessed.smi:52|AV-procd|sdf|511|dock5
  -GOLD-   2262016383D 1   1.00000     0.00000
 Structure written by MMmdl.
 26 27  0  0  0  0  0  0  0  0  2 V2000
  151.9222  137.7276  153.8684 O   0  0  0  0  0  0  0  0  0  0  0  0
  152.5715  138.6449  154.4179 C   0  0  0  0  0  0  0  0  0  0  0  0
  153.5579  139.1780  153.8635 O   0  5  0  0  0  0  0  0  0  0  0  0
  152.1585  139.1136  155.7664 C   0  0  0  0  0  0  0  0  0  0  0  0
  150.9949  138.8019  156.4230 C   0  0  0  0  0  0  0  0  0  0  0  0
  150.9836  139.4264  157.6409 O   0  0  0  0  0  0  0  0  0  0  0  0
  152.1610  140.1074  157.6785 C   0  0  0  0  0  0  0  0  0  0  0  0
  152.4864  140.9281  158.8829 C   0  0  0  0  0  0  0  0  0  0  0  0
  152.6027  142.3526  158.5897 N   0  0  0  0  0  0  0  0  0  0  0  0
  152.6458  143.1945  159.7745 C   0  0  0  0  0  0  0  0  0  0  0  0
  152.2591  144.6087  159.3192 C   0  0  0  0  0  0  0  0  0  0  0  0
  151.6149  144.3932  157.9398 C   0  0  2  0  0  0  0  0  0  0  0  0
  150.3683  145.0431  157.8088 O   0  0  0  0  0  0  0  0  0  0  0  0
  151.4788  142.8734  157.8403 C   0  0  0  0  0  0  0  0  0  0  0  0
  152.9027  139.9556  156.5838 N   0  0  0  0  0  0  0  0  0  0  0  0
  152.2893  144.7514  157.1609 H   0  0  0  0  0  0  0  0  0  0  0  0
  150.1366  138.1945  156.1770 H   0  0  0  0  0  0  0  0  0  0  0  0
  151.6965  140.7692  159.6175 H   0  0  0  0  0  0  0  0  0  0  0  0
  153.4090  140.5533  159.3284 H   0  0  0  0  0  0  0  0  0  0  0  0
  151.9149  142.8451  160.5059 H   0  0  0  0  0  0  0  0  0  0  0  0
  153.6266  143.1659  160.2500 H   0  0  0  0  0  0  0  0  0  0  0  0
  151.5762  145.0681  160.0351 H   0  0  0  0  0  0  0  0  0  0  0  0
  153.1366  145.2505  159.2350 H   0  0  0  0  0  0  0  0  0  0  0  0
  149.9426  144.7200  157.0295 H   0  0  0  0  0  0  0  0  0  0  0  0
  151.4819  142.5214  156.8082 H   0  0  0  0  0  0  0  0  0  0  0  0
  150.5435  142.5517  158.3027 H   0  0  0  0  0  0  0  0  0  0  0  0
  1  2  2  0  0  0  0
  2  3  1  0  0  0  0
  2  4  1  0  0  0  0
  4 15  1  0  0  0  0
  4  5  2  0  0  0  0
  5  6  1  0  0  0  0
  5 17  1  0  0  0  0
  6  7  1  0  0  0  0
  7  8  1  0  0  0  0
  7 15  2  0  0  0  0
  8  9  1  0  0  0  0
  8 18  1  0  0  0  0
  8 19  1  0  0  0  0
  9 14  1  0  0  0  0
  9 10  1  0  0  0  0
 10 11  1  0  0  0  0
 10 20  1  0  0  0  0
 10 21  1  0  0  0  0
 11 12  1  0  0  0  0
 11 22  1  0  0  0  0
 11 23  1  0  0  0  0
 12 16  1  0  0  0  0
 12 13  1  0  0  0  0
 12 14  1  0  0  0  0
 13 24  1  0  0  0  0
 14 25  1  0  0  0  0
 14 26  1  0  0  0  0
M  CHG  1   3  -1
M  END
> <s_m_source_file>
AV-unprocessed.smi

> <i_m_source_file_index>
52

> <i_lp_mmshare_version>
43012

> <i_f3d_flags>
0

> <s_epik_input>
Tz1DKFtPSF0pYzFbY0hdb2MobjEpW0NIMl1OMltDSDJdW0NIMl1bQ0BIXShbT0hdKVtDSDJdMg==

> <s_epik_cmdline>
J2VwaWtfcHl0aG9uJywgJy1waCcsICc3LjAnLCAnLXRuJywgJzgnLCAnLW1hJywgJzIwMCcsICctbWV0YWxfYmluZGluZycsICctaW1hZScsICc8aW5maWxlLm1hZT4nLCAnLW9tYWUnLCAnPG91dGZpbGUubWFlPic=

> <r_epik_Ionization_Penalty>
1.6537

> <r_epik_Ionization_Penalty_Charging>
0.000221913

> <r_epik_Ionization_Penalty_Neutral>
1.65348

> <r_epik_State_Penalty>
1.75577

> <r_epik_Charging_Adjusted_Penalty>
1.75599

> <i_epik_Tot_Q>
-1

> <i_epik_Tot_abs_Q>
1

> <r_epik_Metal_State_Penalty>
1.75577

> <b_epik_Metal_Only>
0

> <s_lp_Force_Field>
OPLS_2005

> <r_lp_Energy>
35.4981

> <b_lp_Chiralities_Consistent>
1

> <s_lp_Variant>
AV-unprocessed.smi:52-5

> <Gold.Version>
5.8.1

> <Gold.Id.Protein>
6NUR|6NUR_protein|mol2

> <Gold.PLP.Fitness>
44.3102

> <Gold.PLP.PLP>
-29.7055

> <Gold.PLP.part.hbond>
-4.6570

> <Gold.PLP.part.metal>
0.0000

> <Gold.PLP.part.buried>
-1.7332

> <Gold.PLP.part.nonpolar>
-21.8788

> <Gold.PLP.part.repulsive>
0.1514

> <Gold.PLP.ligand.clash>
0.0000

> <Gold.PLP.ligand.torsion>
0.1263

> <Gold.PLP.Chemscore.Hbond>
4.9520

> <Gold.PLP.Chemscore.CHOScore>
0.0000

> <Gold.PLP.Chemscore.Metal>
0.0000

> <Gold.Chemscore.Hbonds>
donor molecule, donor type, donor heavy atom, donor atom, acceptor molecule, acceptor atom, score
      L1  H    13    24       P1  8028  1.00
      P1  H  7997  8008       L1    15  0.06
      P1  H  7997  8009       L1     3  0.46
      P1  H 10752 10763       L1     1  0.39

> <Gold.PLP.Chemscore.Internal.Correction>
0.0012

> <Gold.Rescore>
     Score         DG    S(hbond)    S(metal)    S(lipo)     H(rot)  DE(clash)    DE(int)     intcor
     16.57     -16.86       2.55        0.00      67.17       1.95       0.13       0.16       ----

> <Gold.Chemscore.Fitness>
16.5695

> <Gold.Chemscore.DG>
-16.8642

> <Gold.Chemscore.ZeroCoef>
-5.4800

> <Gold.Chemscore.Hbond>
2.5499

> <Gold.Chemscore.Metal>
0.0000

> <Gold.Chemscore.Lipo>
67.1676

> <Gold.Chemscore.Internal_Hbond>
0.0000

> <Gold.Chemscore.DEClash>
0.1334

> <Gold.Chemscore.DEInternal>
0.1613

> <Gold.Chemscore.Rot>
1.9497

> <Gold.Chemscore.Internal.Correction>
   9.000000E+99

> <Gold.Chemscore.Hbonds>
donor molecule, donor type, donor heavy atom, donor atom, acceptor molecule, acceptor atom, score
      L1  H    13    24       P1  8028  0.25
      P1  H  7997  8008       L1    15  0.05
      P1  H  7997  8009       L1     3  0.15
      P1  H 10752 10763       L1     1  0.16

> <Gold.Chemscore.Hbond.Weighted>
-8.5168

> <Gold.Chemscore.Metal.Weighted>
-0.0000

> <Gold.Chemscore.Lipo.Weighted>
-7.8586

> <Gold.Chemscore.Internal_Hbond.Weighted>
0.0000

> <Gold.Chemscore.DEClash.Weighted>
0.1334

> <Gold.Chemscore.DEInternal.Weighted>
0.1613

> <Gold.Chemscore.Rot.Weighted>
4.9912

> <Gold.Chemscore.Internal.Correction.Weighted>
   9.000000E+99

> <Gold.Protein.RotatedTorsions>
[ 6907 6896 6895 6894 ] final   67.35 input  -60.11 | X-H torsion
[ 7974 7965 7964 7962 ] final -157.00 input  175.53 | X-H torsion
[ 8008 7997 7996 7995 ] final -103.98 input   59.86 | X-H torsion
[ 10167 10162 10161 10158 ] final   27.41 input  -65.29 | X-H torsion
[ 10718 10713 10712 10709 ] final   11.01 input   66.30 | X-H torsion
[ 10763 10752 10751 10750 ] final   42.54 input  -60.55 | X-H torsion
[ 11005 11000 10999 10996 ] final   14.97 input  -57.11 | X-H torsion

> <Gold.Protein.ActiveResidues>
 VAL166  LYS551  ARG553  GLY616  TRP617  ASP618  TYR619  PRO620  LYS621  CYS622 
 ASP623  PHE694  ASN695  SER759  ASP760  ASP761  ALA762  ILE779  LEU786  VAL792 
 PHE793  MET794  SER795  GLU796  ALA797  LYS798  CYS799  TRP800  GLU811  SER814 

> <Gold.Protein.RotatedAtoms>
  152.4546  134.5320  159.9813 H   0  0  0  0  0  0  0  0  0  0  0  0  # atno 6907 bound_to 6896
  151.5384  133.3431  159.2939 H   0  0  0  0  0  0  0  0  0  0  0  0  # atno 6908 bound_to 6896
  150.8486  134.7834  159.7053 H   0  0  0  0  0  0  0  0  0  0  0  0  # atno 6909 bound_to 6896
  144.7567  140.4030  143.6007 H   0  0  0  0  0  0  0  0  0  0  0  0  # atno 7974 bound_to 7965
  154.8787  140.0420  157.1769 H   0  0  0  0  0  0  0  0  0  0  0  0  # atno 8008 bound_to 7997
  154.8662  140.2951  155.5488 H   0  0  0  0  0  0  0  0  0  0  0  0  # atno 8009 bound_to 7997
  156.2999  140.2437  156.3643 H   0  0  0  0  0  0  0  0  0  0  0  0  # atno 8010 bound_to 7997
  140.4940  144.0421  150.6307 H   0  0  0  0  0  0  0  0  0  0  0  0  # atno 10167 bound_to 10162
  156.9893  130.6036  149.5684 H   0  0  0  0  0  0  0  0  0  0  0  0  # atno 10718 bound_to 10713
  152.9881  135.6129  154.2966 H   0  0  0  0  0  0  0  0  0  0  0  0  # atno 10763 bound_to 10752
  154.2688  135.2780  155.2749 H   0  0  0  0  0  0  0  0  0  0  0  0  # atno 10764 bound_to 10752
  154.5140  135.5833  153.6685 H   0  0  0  0  0  0  0  0  0  0  0  0  # atno 10765 bound_to 10752
  140.4636  134.1103  155.7720 H   0  0  0  0  0  0  0  0  0  0  0  0  # atno 11005 bound_to 11000
  145.6754  139.1607  143.2731 LP  0  0  0  0  0  0  0  0  0  0  0  0  # atno 17320 bound_to 7965
  146.1586  140.6821  142.9288 LP  0  0  0  0  0  0  0  0  0  0  0  0  # atno 17321 bound_to 7965
  140.3698  143.2861  152.0290 LP  0  0  0  0  0  0  0  0  0  0  0  0  # atno 17342 bound_to 10162
  139.4857  144.6238  151.7203 LP  0  0  0  0  0  0  0  0  0  0  0  0  # atno 17343 bound_to 10162
  156.0213  130.5308  150.8284 LP  0  0  0  0  0  0  0  0  0  0  0  0  # atno 17370 bound_to 10713
  157.5470  131.0942  150.9749 LP  0  0  0  0  0  0  0  0  0  0  0  0  # atno 17371 bound_to 10713
  141.1610  133.8793  157.1848 LP  0  0  0  0  0  0  0  0  0  0  0  0  # atno 17394 bound_to 11000
  139.9930  135.0057  157.0018 LP  0  0  0  0  0  0  0  0  0  0  0  0  # atno 17395 bound_to 11000

$$$$
