AV-unprocessed.smi:1108|AV-procd|sdf|4788|dock9
  -GOLD-   22720 3333D 1   1.00000     0.00000
 Structure written by MMmdl.
 31 32  0  0  0  0  0  0  0  0  1 V2000
  151.4832  140.9247  157.9816 C   0  0  0  0  0  0  0  0  0  0  0  0
  150.4923  142.0169  158.4068 C   0  0  1  0  0  0  0  0  0  0  0  0
  151.2255  143.2341  159.0114 C   0  0  0  0  0  0  0  0  0  0  0  0
  152.0226  142.8902  160.1755 N   0  0  0  0  0  0  0  0  0  0  0  0
  153.1821  142.1454  160.2302 C   0  0  0  0  0  0  0  0  0  0  0  0
  153.5776  142.1054  161.5363 C   0  0  0  0  0  0  0  0  0  0  0  0
  152.5796  142.8595  162.2146 C   0  0  0  0  0  0  0  0  0  0  0  0
  151.6472  143.3235  161.3983 N   0  0  0  0  0  0  0  0  0  0  0  0
  149.6950  142.4130  157.2461 N   0  0  0  0  0  0  0  0  0  0  0  0
  148.9531  141.5901  156.4899 C   0  0  0  0  0  0  0  0  0  0  0  0
  148.8662  140.3753  156.6699 O   0  0  0  0  0  0  0  0  0  0  0  0
  148.3048  142.2547  155.5245 N   0  0  0  0  0  0  0  0  0  0  0  0
  147.4177  141.6686  154.5726 C   0  0  0  0  0  0  0  0  0  0  0  0
  146.5953  142.6020  153.7106 C   0  0  0  0  0  0  0  0  0  0  0  0
  145.9310  141.8204  154.8103 C   0  0  0  0  0  0  0  0  0  0  0  0
  152.0738  140.5797  158.8309 H   0  0  0  0  0  0  0  0  0  0  0  0
  152.1754  141.2883  157.2213 H   0  0  0  0  0  0  0  0  0  0  0  0
  150.9617  140.0590  157.5720 H   0  0  0  0  0  0  0  0  0  0  0  0
  149.8444  141.5822  159.1705 H   0  0  0  0  0  0  0  0  0  0  0  0
  151.8901  143.6790  158.2693 H   0  0  0  0  0  0  0  0  0  0  0  0
  150.5118  144.0097  159.2931 H   0  0  0  0  0  0  0  0  0  0  0  0
  153.6276  141.7178  159.3441 H   0  0  0  0  0  0  0  0  0  0  0  0
  154.4479  141.6137  161.9447 H   0  0  0  0  0  0  0  0  0  0  0  0
  152.5046  143.0815  163.2689 H   0  0  0  0  0  0  0  0  0  0  0  0
  149.6981  143.3946  157.0110 H   0  0  0  0  0  0  0  0  0  0  0  0
  148.4434  143.2525  155.4606 H   0  0  0  0  0  0  0  0  0  0  0  0
  147.7341  140.7395  154.1007 H   0  0  0  0  0  0  0  0  0  0  0  0
  146.7169  143.6734  153.8592 H   0  0  0  0  0  0  0  0  0  0  0  0
  146.3988  142.2940  152.6856 H   0  0  0  0  0  0  0  0  0  0  0  0
  145.2908  140.9895  154.5207 H   0  0  0  0  0  0  0  0  0  0  0  0
  145.6100  142.3686  155.6941 H   0  0  0  0  0  0  0  0  0  0  0  0
  1  2  1  0  0  0  0
  1 16  1  0  0  0  0
  1 17  1  0  0  0  0
  1 18  1  0  0  0  0
  2  3  1  0  0  0  0
  2  9  1  0  0  0  0
  2 19  1  0  0  0  0
  3  4  1  0  0  0  0
  3 20  1  0  0  0  0
  3 21  1  0  0  0  0
  4  8  1  0  0  0  0
  4  5  1  0  0  0  0
  5  6  2  0  0  0  0
  5 22  1  0  0  0  0
  6  7  1  0  0  0  0
  6 23  1  0  0  0  0
  7  8  2  0  0  0  0
  7 24  1  0  0  0  0
  9 10  1  0  0  0  0
  9 25  1  0  0  0  0
 10 11  2  0  0  0  0
 10 12  1  0  0  0  0
 12 13  1  0  0  0  0
 12 26  1  0  0  0  0
 13 15  1  0  0  0  0
 13 14  1  0  0  0  0
 13 27  1  0  0  0  0
 14 15  1  0  0  0  0
 14 28  1  0  0  0  0
 14 29  1  0  0  0  0
 15 30  1  0  0  0  0
 15 31  1  0  0  0  0
M  END
> <s_m_source_file>
AV-unprocessed.smi

> <i_m_source_file_index>
1108

> <i_lp_mmshare_version>
43012

> <i_f3d_flags>
0

> <s_epik_input>
W0NIMl0xW0NIMl1bQ0hdMVtOSF1DKD1PKVtOSF1bQ0BIXShbQ0gzXSlbQ0gyXW4yW2NIXVtjSF1bY0hdbjI=

> <s_epik_cmdline>
J2VwaWtfcHl0aG9uJywgJy1waCcsICc3LjAnLCAnLXRuJywgJzgnLCAnLW1hJywgJzIwMCcsICctbWV0YWxfYmluZGluZycsICctaW1hZScsICc8aW5maWxlLm1hZT4nLCAnLW9tYWUnLCAnPG91dGZpbGUubWFlPic=

> <r_lp_tautomer_probability>
1

> <r_epik_Ionization_Penalty>
7.55353e-05

> <r_epik_Ionization_Penalty_Charging>
0

> <r_epik_Ionization_Penalty_Neutral>
7.55353e-05

> <r_epik_State_Penalty>
-0

> <r_epik_Charging_Adjusted_Penalty>
0

> <i_epik_Tot_Q>
0

> <i_epik_Tot_abs_Q>
0

> <r_epik_Metal_State_Penalty>
-0

> <b_epik_Metal_Only>
0

> <s_lp_Force_Field>
OPLS_2005

> <r_lp_Energy>
13.7301

> <b_lp_Chiralities_Consistent>
1

> <s_lp_Variant>
AV-unprocessed.smi:1108-2

> <Gold.Version>
5.8.1

> <Gold.Id.Protein>
6NUR|6NUR_protein|mol2

> <Gold.PLP.Fitness>
39.4043

> <Gold.PLP.PLP>
-34.6563

> <Gold.PLP.part.hbond>
-1.9753

> <Gold.PLP.part.metal>
0.0000

> <Gold.PLP.part.buried>
-5.6916

> <Gold.PLP.part.nonpolar>
-26.6614

> <Gold.PLP.part.repulsive>
0.2777

> <Gold.PLP.ligand.clash>
0.0000

> <Gold.PLP.ligand.torsion>
0.2690

> <Gold.PLP.Chemscore.Hbond>
1.7471

> <Gold.PLP.Chemscore.CHOScore>
0.0000

> <Gold.PLP.Chemscore.Metal>
0.0000

> <Gold.Chemscore.Hbonds>
donor molecule, donor type, donor heavy atom, donor atom, acceptor molecule, acceptor atom, score
      L1  H     9    25       P1  8028  0.78
      L1  H    12    26       P1  8028  0.99
      P1  H  6933  6945       L1     8  0.04

> <Gold.PLP.Chemscore.Internal.Correction>
0.0449

> <Gold.Rescore>
     Score         DG    S(hbond)    S(metal)    S(lipo)     H(rot)  DE(clash)    DE(int)     intcor
     14.69     -15.88       1.85        0.00      73.50       1.71       0.01       1.18       ----

> <Gold.Chemscore.Fitness>
14.6948

> <Gold.Chemscore.DG>
-15.8825

> <Gold.Chemscore.ZeroCoef>
-5.4800

> <Gold.Chemscore.Hbond>
1.8487

> <Gold.Chemscore.Metal>
0.0000

> <Gold.Chemscore.Lipo>
73.4958

> <Gold.Chemscore.Internal_Hbond>
0.0000

> <Gold.Chemscore.DEClash>
0.0098

> <Gold.Chemscore.DEInternal>
1.1779

> <Gold.Chemscore.Rot>
1.7075

> <Gold.Chemscore.Internal.Correction>
   9.000000E+99

> <Gold.Chemscore.Hbonds>
donor molecule, donor type, donor heavy atom, donor atom, acceptor molecule, acceptor atom, score
      L1  H     9    25       P1  8028  0.74
      L1  H    12    26       P1  8028  0.92

> <Gold.Chemscore.Hbond.Weighted>
-6.1747

> <Gold.Chemscore.Metal.Weighted>
-0.0000

> <Gold.Chemscore.Lipo.Weighted>
-8.5990

> <Gold.Chemscore.Internal_Hbond.Weighted>
0.0000

> <Gold.Chemscore.DEClash.Weighted>
0.0098

> <Gold.Chemscore.DEInternal.Weighted>
1.1779

> <Gold.Chemscore.Rot.Weighted>
4.3713

> <Gold.Chemscore.Internal.Correction.Weighted>
   9.000000E+99

> <Gold.Protein.RotatedTorsions>
[ 6907 6896 6895 6894 ] final  -18.79 input  -60.11 | X-H torsion
[ 7974 7965 7964 7962 ] final  106.64 input  175.53 | X-H torsion
[ 8008 7997 7996 7995 ] final   19.47 input   59.86 | X-H torsion
[ 10167 10162 10161 10158 ] final   55.35 input  -65.29 | X-H torsion
[ 10718 10713 10712 10709 ] final  126.59 input   66.30 | X-H torsion
[ 10763 10752 10751 10750 ] final   67.89 input  -60.55 | X-H torsion
[ 11005 11000 10999 10996 ] final  -88.29 input  -57.11 | X-H torsion

> <Gold.Protein.ActiveResidues>
 VAL166  LYS551  ARG553  GLY616  TRP617  ASP618  TYR619  PRO620  LYS621  CYS622 
 ASP623  PHE694  ASN695  SER759  ASP760  ASP761  ALA762  ILE779  LEU786  VAL792 
 PHE793  MET794  SER795  GLU796  ALA797  LYS798  CYS799  TRP800  GLU811  SER814 

> <Gold.Protein.RotatedAtoms>
  151.2728  135.0690  159.9140 H   0  0  0  0  0  0  0  0  0  0  0  0  # atno 6907 bound_to 6896
  152.5347  134.0112  159.7949 H   0  0  0  0  0  0  0  0  0  0  0  0  # atno 6908 bound_to 6896
  151.0353  133.5703  159.2687 H   0  0  0  0  0  0  0  0  0  0  0  0  # atno 6909 bound_to 6896
  145.3040  139.2560  143.3798 H   0  0  0  0  0  0  0  0  0  0  0  0  # atno 7974 bound_to 7965
  154.9213  140.3027  155.5215 H   0  0  0  0  0  0  0  0  0  0  0  0  # atno 8008 bound_to 7997
  156.3009  140.2371  156.4199 H   0  0  0  0  0  0  0  0  0  0  0  0  # atno 8009 bound_to 7997
  154.8328  140.0417  157.1477 H   0  0  0  0  0  0  0  0  0  0  0  0  # atno 8010 bound_to 7997
  140.2204  144.3794  150.6453 H   0  0  0  0  0  0  0  0  0  0  0  0  # atno 10167 bound_to 10162
  157.5406  131.1097  150.8865 H   0  0  0  0  0  0  0  0  0  0  0  0  # atno 10718 bound_to 10713
  153.0208  135.5267  154.7049 H   0  0  0  0  0  0  0  0  0  0  0  0  # atno 10763 bound_to 10752
  154.6147  135.2882  155.0395 H   0  0  0  0  0  0  0  0  0  0  0  0  # atno 10764 bound_to 10752
  154.1403  135.6579  153.4993 H   0  0  0  0  0  0  0  0  0  0  0  0  # atno 10765 bound_to 10752
  141.1604  133.7561  156.9430 H   0  0  0  0  0  0  0  0  0  0  0  0  # atno 11005 bound_to 11000
  146.3142  140.3561  142.8660 LP  0  0  0  0  0  0  0  0  0  0  0  0  # atno 17320 bound_to 7965
  144.9070  140.7711  143.5831 LP  0  0  0  0  0  0  0  0  0  0  0  0  # atno 17321 bound_to 7965
  140.6259  143.2181  151.6598 LP  0  0  0  0  0  0  0  0  0  0  0  0  # atno 17342 bound_to 10162
  139.5146  144.3405  152.0745 LP  0  0  0  0  0  0  0  0  0  0  0  0  # atno 17343 bound_to 10162
  156.9419  130.5387  149.5280 LP  0  0  0  0  0  0  0  0  0  0  0  0  # atno 17370 bound_to 10713
  156.0494  130.5565  150.8954 LP  0  0  0  0  0  0  0  0  0  0  0  0  # atno 17371 bound_to 10713
  140.1308  134.9357  157.2335 LP  0  0  0  0  0  0  0  0  0  0  0  0  # atno 17394 bound_to 11000
  140.2955  134.3191  155.7303 LP  0  0  0  0  0  0  0  0  0  0  0  0  # atno 17395 bound_to 11000

$$$$
