AV-unprocessed.smi:1728|AV-procd|sdf|6968|dock6
  -GOLD-   22720 8183D 1   1.00000     0.00000
 Structure written by MMmdl.
 47 48  0  0  0  0  0  0  0  0  2 V2000
  151.0734  145.3579  159.5509 C   0  0  0  0  0  0  0  0  0  0  0  0
  150.7358  144.3171  158.6403 O   0  0  0  0  0  0  0  0  0  0  0  0
  151.4519  143.1362  158.6929 C   0  0  0  0  0  0  0  0  0  0  0  0
  152.4435  143.0244  159.6118 N   0  0  0  0  0  0  0  0  0  0  0  0
  153.1401  141.8710  159.6685 C   0  0  0  0  0  0  0  0  0  0  0  0
  152.8846  140.7748  158.8248 C   0  0  0  0  0  0  0  0  0  0  0  0
  151.8564  140.8878  157.8708 C   0  0  0  0  0  0  0  0  0  0  0  0
  151.1244  142.0979  157.7892 C   0  0  0  0  0  0  0  0  0  0  0  0
  150.0551  142.3217  156.8776 N   0  0  0  0  0  0  0  0  0  0  0  0
  149.4712  141.4604  156.0278 C   0  0  0  0  0  0  0  0  0  0  0  0
  149.7764  140.2768  155.8850 O   0  0  0  0  0  0  0  0  0  0  0  0
  148.5068  142.0648  155.3194 N   0  0  0  0  0  0  0  0  0  0  0  0
  147.6662  141.4273  154.3068 C   0  0  0  0  0  0  0  0  0  0  0  0
  146.4649  140.6324  154.9035 C   0  0  0  0  0  0  0  0  0  0  0  0
  146.9120  139.9013  156.1939 C   0  0  0  0  0  0  0  0  0  0  0  0
  145.3316  141.5990  155.3312 C   0  0  0  0  0  0  0  0  0  0  0  0
  145.9244  139.6322  153.9131 N   0  3  0  0  0  0  0  0  0  0  0  0
  146.8983  139.1272  152.9039 C   0  0  0  0  0  0  0  0  0  0  0  0
  146.1863  138.2655  151.8480 C   0  0  0  0  0  0  0  0  0  0  0  0
  145.5174  137.1855  152.4830 O   0  0  0  0  0  0  0  0  0  0  0  0
  144.5193  137.6448  153.3831 C   0  0  0  0  0  0  0  0  0  0  0  0
  145.1699  138.4853  154.4943 C   0  0  0  0  0  0  0  0  0  0  0  0
  150.4185  146.2123  159.3805 H   0  0  0  0  0  0  0  0  0  0  0  0
  152.1008  145.6956  159.4088 H   0  0  0  0  0  0  0  0  0  0  0  0
  150.9405  145.0404  160.5863 H   0  0  0  0  0  0  0  0  0  0  0  0
  153.9201  141.8189  160.4136 H   0  0  0  0  0  0  0  0  0  0  0  0
  153.4607  139.8655  158.9110 H   0  0  0  0  0  0  0  0  0  0  0  0
  151.6458  140.0412  157.2368 H   0  0  0  0  0  0  0  0  0  0  0  0
  149.7331  143.2772  156.8276 H   0  0  0  0  0  0  0  0  0  0  0  0
  148.3319  143.0425  155.5020 H   0  0  0  0  0  0  0  0  0  0  0  0
  147.3257  142.1757  153.5909 H   0  0  0  0  0  0  0  0  0  0  0  0
  148.3228  140.7611  153.7485 H   0  0  0  0  0  0  0  0  0  0  0  0
  147.1190  140.6017  157.0038 H   0  0  0  0  0  0  0  0  0  0  0  0
  147.8274  139.3279  156.0502 H   0  0  0  0  0  0  0  0  0  0  0  0
  146.1400  139.2192  156.5517 H   0  0  0  0  0  0  0  0  0  0  0  0
  145.6158  142.1986  156.1967 H   0  0  0  0  0  0  0  0  0  0  0  0
  144.4267  141.0557  155.6060 H   0  0  0  0  0  0  0  0  0  0  0  0
  145.0729  142.3082  154.5454 H   0  0  0  0  0  0  0  0  0  0  0  0
  147.3965  139.9424  152.3828 H   0  0  0  0  0  0  0  0  0  0  0  0
  147.6729  138.5328  153.3884 H   0  0  0  0  0  0  0  0  0  0  0  0
  145.4780  138.8621  151.2708 H   0  0  0  0  0  0  0  0  0  0  0  0
  146.9124  137.8626  151.1418 H   0  0  0  0  0  0  0  0  0  0  0  0
  143.7644  138.2228  152.8479 H   0  0  0  0  0  0  0  0  0  0  0  0
  144.0117  136.7817  153.8144 H   0  0  0  0  0  0  0  0  0  0  0  0
  145.8367  137.8506  155.0783 H   0  0  0  0  0  0  0  0  0  0  0  0
  144.3783  138.8222  155.1609 H   0  0  0  0  0  0  0  0  0  0  0  0
  145.2415  140.1506  153.3790 H   0  0  0  0  0  0  0  0  0  0  0  0
  1  2  1  0  0  0  0
  1 23  1  0  0  0  0
  1 24  1  0  0  0  0
  1 25  1  0  0  0  0
  2  3  1  0  0  0  0
  3  8  1  0  0  0  0
  3  4  2  0  0  0  0
  4  5  1  0  0  0  0
  5  6  2  0  0  0  0
  5 26  1  0  0  0  0
  6  7  1  0  0  0  0
  6 27  1  0  0  0  0
  7  8  2  0  0  0  0
  7 28  1  0  0  0  0
  8  9  1  0  0  0  0
  9 10  1  0  0  0  0
  9 29  1  0  0  0  0
 10 11  2  0  0  0  0
 10 12  1  0  0  0  0
 12 13  1  0  0  0  0
 12 30  1  0  0  0  0
 13 14  1  0  0  0  0
 13 31  1  0  0  0  0
 13 32  1  0  0  0  0
 14 15  1  0  0  0  0
 14 16  1  0  0  0  0
 14 17  1  0  0  0  0
 15 33  1  0  0  0  0
 15 34  1  0  0  0  0
 15 35  1  0  0  0  0
 16 36  1  0  0  0  0
 16 37  1  0  0  0  0
 16 38  1  0  0  0  0
 17 22  1  0  0  0  0
 17 18  1  0  0  0  0
 17 47  1  0  0  0  0
 18 19  1  0  0  0  0
 18 39  1  0  0  0  0
 18 40  1  0  0  0  0
 19 20  1  0  0  0  0
 19 41  1  0  0  0  0
 19 42  1  0  0  0  0
 20 21  1  0  0  0  0
 21 22  1  0  0  0  0
 21 43  1  0  0  0  0
 21 44  1  0  0  0  0
 22 45  1  0  0  0  0
 22 46  1  0  0  0  0
M  CHG  1  17   1
M  END
> <s_m_source_file>
AV-unprocessed.smi

> <i_m_source_file_index>
1728

> <i_lp_mmshare_version>
43012

> <i_f3d_flags>
0

> <s_epik_input>
W0NIM11PYzFuW2NIXVtjSF1bY0hdYzFbTkhdQyg9TylbTkhdW0NIMl1DKFtDSDNdKShbQ0gzXSlOMltDSDJdW0NIMl1PW0NIMl1bQ0gyXTI=

> <s_epik_cmdline>
J2VwaWtfcHl0aG9uJywgJy1waCcsICc3LjAnLCAnLXRuJywgJzgnLCAnLW1hJywgJzIwMCcsICctbWV0YWxfYmluZGluZycsICctaW1hZScsICc8aW5maWxlLm1hZT4nLCAnLW9tYWUnLCAnPG91dGZpbGUubWFlPic=

> <r_lp_tautomer_probability>
1

> <r_epik_Ionization_Penalty>
0.602608

> <r_epik_Ionization_Penalty_Charging>
0.602531

> <r_epik_Ionization_Penalty_Neutral>
7.74611e-05

> <r_epik_State_Penalty>
0.617039

> <r_epik_Charging_Adjusted_Penalty>
1.21957

> <i_epik_Tot_Q>
1

> <i_epik_Tot_abs_Q>
1

> <r_epik_Metal_State_Penalty>
0.617043

> <b_epik_Metal_Only>
0

> <s_lp_Force_Field>
OPLS_2005

> <r_lp_Energy>
27.5646

> <b_lp_Chiralities_Consistent>
1

> <s_lp_Variant>
AV-unprocessed.smi:1728-2

> <Gold.Version>
5.8.1

> <Gold.Id.Protein>
6NUR|6NUR_protein|mol2

> <Gold.PLP.Fitness>
42.6717

> <Gold.PLP.PLP>
-33.4217

> <Gold.PLP.part.hbond>
-3.0000

> <Gold.PLP.part.metal>
0.0000

> <Gold.PLP.part.buried>
-4.2579

> <Gold.PLP.part.nonpolar>
-28.0200

> <Gold.PLP.part.repulsive>
0.5972

> <Gold.PLP.ligand.clash>
0.0000

> <Gold.PLP.ligand.torsion>
1.4210

> <Gold.PLP.Chemscore.Hbond>
3.9833

> <Gold.PLP.Chemscore.CHOScore>
0.0000

> <Gold.PLP.Chemscore.Metal>
0.0000

> <Gold.Chemscore.Hbonds>
donor molecule, donor type, donor heavy atom, donor atom, acceptor molecule, acceptor atom, score
      L1  H     9    29       P1  8028  0.94
      L1  H    12    30       P1  8028  1.00
      L1  H    17    47       P1 10175  2.00

> <Gold.PLP.Chemscore.Internal.Correction>
0.1420

> <Gold.Rescore>
     Score         DG    S(hbond)    S(metal)    S(lipo)     H(rot)  DE(clash)    DE(int)     intcor
     16.30     -19.82       2.76        0.00      82.18       1.76       0.24       3.27       ----

> <Gold.Chemscore.Fitness>
16.3050

> <Gold.Chemscore.DG>
-19.8169

> <Gold.Chemscore.ZeroCoef>
-5.4800

> <Gold.Chemscore.Hbond>
2.7608

> <Gold.Chemscore.Metal>
0.0000

> <Gold.Chemscore.Lipo>
82.1846

> <Gold.Chemscore.Internal_Hbond>
0.0000

> <Gold.Chemscore.DEClash>
0.2389

> <Gold.Chemscore.DEInternal>
3.2731

> <Gold.Chemscore.Rot>
1.7577

> <Gold.Chemscore.Internal.Correction>
   9.000000E+99

> <Gold.Chemscore.Hbonds>
donor molecule, donor type, donor heavy atom, donor atom, acceptor molecule, acceptor atom, score
      L1  H     9    29       P1  8028  0.84
      L1  H    12    30       P1  8028  0.94
      L1  H    17    47       P1 10175  0.99

> <Gold.Chemscore.Hbond.Weighted>
-9.2211

> <Gold.Chemscore.Metal.Weighted>
-0.0000

> <Gold.Chemscore.Lipo.Weighted>
-9.6156

> <Gold.Chemscore.Internal_Hbond.Weighted>
0.0000

> <Gold.Chemscore.DEClash.Weighted>
0.2389

> <Gold.Chemscore.DEInternal.Weighted>
3.2731

> <Gold.Chemscore.Rot.Weighted>
4.4997

> <Gold.Chemscore.Internal.Correction.Weighted>
   9.000000E+99

> <Gold.Protein.RotatedTorsions>
[ 6907 6896 6895 6894 ] final   -9.71 input  -60.11 | X-H torsion
[ 7974 7965 7964 7962 ] final -149.35 input  175.53 | X-H torsion
[ 8008 7997 7996 7995 ] final  -27.46 input   59.86 | X-H torsion
[ 10167 10162 10161 10158 ] final   53.89 input  -65.29 | X-H torsion
[ 10718 10713 10712 10709 ] final  -95.38 input   66.30 | X-H torsion
[ 10763 10752 10751 10750 ] final  102.43 input  -60.55 | X-H torsion
[ 11005 11000 10999 10996 ] final  122.77 input  -57.11 | X-H torsion

> <Gold.Protein.ActiveResidues>
 VAL166  LYS551  ARG553  GLY616  TRP617  ASP618  TYR619  PRO620  LYS621  CYS622 
 ASP623  PHE694  ASN695  SER759  ASP760  ASP761  ALA762  ILE779  LEU786  VAL792 
 PHE793  MET794  SER795  GLU796  ALA797  LYS798  CYS799  TRP800  GLU811  SER814 

> <Gold.Protein.RotatedAtoms>
  151.4135  135.0988  159.9591 H   0  0  0  0  0  0  0  0  0  0  0  0  # atno 6907 bound_to 6896
  152.5012  133.8775  159.7340 H   0  0  0  0  0  0  0  0  0  0  0  0  # atno 6908 bound_to 6896
  150.9275  133.6749  159.2846 H   0  0  0  0  0  0  0  0  0  0  0  0  # atno 6909 bound_to 6896
  144.7973  140.5076  143.5731 H   0  0  0  0  0  0  0  0  0  0  0  0  # atno 7974 bound_to 7965
  154.4376  140.1872  156.0935 H   0  0  0  0  0  0  0  0  0  0  0  0  # atno 8008 bound_to 7997
  156.0347  140.3326  155.7152 H   0  0  0  0  0  0  0  0  0  0  0  0  # atno 8009 bound_to 7997
  155.5787  140.0619  157.2779 H   0  0  0  0  0  0  0  0  0  0  0  0  # atno 8010 bound_to 7997
  140.2360  144.3635  150.6397 H   0  0  0  0  0  0  0  0  0  0  0  0  # atno 10167 bound_to 10162
  156.0042  130.5107  150.6068 H   0  0  0  0  0  0  0  0  0  0  0  0  # atno 10718 bound_to 10713
  153.3394  135.4011  155.1560 H   0  0  0  0  0  0  0  0  0  0  0  0  # atno 10763 bound_to 10752
  154.8640  135.3630  154.5365 H   0  0  0  0  0  0  0  0  0  0  0  0  # atno 10764 bound_to 10752
  153.5809  135.7076  153.5523 H   0  0  0  0  0  0  0  0  0  0  0  0  # atno 10765 bound_to 10752
  139.9283  134.9641  156.8159 H   0  0  0  0  0  0  0  0  0  0  0  0  # atno 11005 bound_to 11000
  145.5641  139.1480  143.3325 LP  0  0  0  0  0  0  0  0  0  0  0  0  # atno 17320 bound_to 7965
  146.2245  140.5776  142.9002 LP  0  0  0  0  0  0  0  0  0  0  0  0  # atno 17321 bound_to 7965
  140.6149  143.2172  151.6811 LP  0  0  0  0  0  0  0  0  0  0  0  0  # atno 17342 bound_to 10162
  139.5093  144.3580  152.0589 LP  0  0  0  0  0  0  0  0  0  0  0  0  # atno 17343 bound_to 10162
  157.3907  131.0795  151.1396 LP  0  0  0  0  0  0  0  0  0  0  0  0  # atno 17370 bound_to 10713
  157.2089  130.6428  149.5766 LP  0  0  0  0  0  0  0  0  0  0  0  0  # atno 17371 bound_to 10713
  140.6274  133.9937  155.7646 LP  0  0  0  0  0  0  0  0  0  0  0  0  # atno 17394 bound_to 11000
  141.0855  133.9997  157.3320 LP  0  0  0  0  0  0  0  0  0  0  0  0  # atno 17395 bound_to 11000

$$$$
