AV-unprocessed.smi:2960|AV-procd|sdf|11311|dock5
  -GOLD-   2272016213D 1   1.00000     0.00000
 Structure written by MMmdl.
 48 50  0  0  0  0  0  0  0  0  1 V2000
  154.8690  136.2569  157.8681 C   0  0  0  0  0  0  0  0  0  0  0  0
  153.3512  136.3823  157.8037 C   0  0  0  0  0  0  0  0  0  0  0  0
  152.6786  135.4940  157.2813 O   0  0  0  0  0  0  0  0  0  0  0  0
  152.8258  137.4984  158.3293 N   0  0  0  0  0  0  0  0  0  0  0  0
  151.4020  137.8172  158.3642 C   0  0  0  0  0  0  0  0  0  0  0  0
  151.0094  138.9178  157.3595 C   0  0  0  0  0  0  0  0  0  0  0  0
  151.3421  140.3083  157.8226 C   0  0  0  0  0  0  0  0  0  0  0  0
  152.0070  140.5175  158.9598 N   0  0  0  0  0  0  0  0  0  0  0  0
  152.0955  141.8944  159.0143 C   0  0  0  0  0  0  0  0  0  0  0  0
  152.6880  142.7387  159.9804 C   0  0  0  0  0  0  0  0  0  0  0  0
  152.6492  144.1397  159.8238 C   0  0  0  0  0  0  0  0  0  0  0  0
  152.0179  144.7151  158.7021 C   0  0  0  0  0  0  0  0  0  0  0  0
  151.4232  143.8916  157.7271 C   0  0  0  0  0  0  0  0  0  0  0  0
  151.4669  142.4932  157.8866 C   0  0  0  0  0  0  0  0  0  0  0  0
  150.9901  141.4245  157.1330 N   0  0  0  0  0  0  0  0  0  0  0  0
  150.2575  141.5274  155.8786 C   0  0  0  0  0  0  0  0  0  0  0  0
  148.9426  140.7362  155.9104 C   0  0  0  0  0  0  0  0  0  0  0  0
  148.1921  141.0221  154.7372 O   0  0  0  0  0  0  0  0  0  0  0  0
  147.1475  141.9155  154.8312 C   0  0  0  0  0  0  0  0  0  0  0  0
  146.7462  142.5566  153.6414 C   0  0  0  0  0  0  0  0  0  0  0  0
  145.6861  143.4833  153.6438 C   0  0  0  0  0  0  0  0  0  0  0  0
  145.0104  143.7812  154.8433 C   0  0  0  0  0  0  0  0  0  0  0  0
  143.8681  144.7762  154.8406 C   0  0  0  0  0  0  0  0  0  0  0  0
  145.4019  143.1450  156.0384 C   0  0  0  0  0  0  0  0  0  0  0  0
  146.4629  142.2188  156.0352 C   0  0  0  0  0  0  0  0  0  0  0  0
  155.2163  136.3433  158.8981 H   0  0  0  0  0  0  0  0  0  0  0  0
  155.3387  137.0431  157.2764 H   0  0  0  0  0  0  0  0  0  0  0  0
  155.1956  135.2927  157.4771 H   0  0  0  0  0  0  0  0  0  0  0  0
  153.4556  138.1764  158.7338 H   0  0  0  0  0  0  0  0  0  0  0  0
  150.8074  136.9189  158.1915 H   0  0  0  0  0  0  0  0  0  0  0  0
  151.1655  138.1490  159.3756 H   0  0  0  0  0  0  0  0  0  0  0  0
  151.4712  138.7175  156.3940 H   0  0  0  0  0  0  0  0  0  0  0  0
  149.9348  138.8697  157.1804 H   0  0  0  0  0  0  0  0  0  0  0  0
  153.1719  142.3078  160.8443 H   0  0  0  0  0  0  0  0  0  0  0  0
  153.1045  144.7757  160.5688 H   0  0  0  0  0  0  0  0  0  0  0  0
  151.9901  145.7891  158.5906 H   0  0  0  0  0  0  0  0  0  0  0  0
  150.9362  144.3299  156.8687 H   0  0  0  0  0  0  0  0  0  0  0  0
  150.0503  142.5797  155.6833 H   0  0  0  0  0  0  0  0  0  0  0  0
  150.8872  141.1896  155.0577 H   0  0  0  0  0  0  0  0  0  0  0  0
  149.1639  139.6695  155.9675 H   0  0  0  0  0  0  0  0  0  0  0  0
  148.3696  141.0094  156.7975 H   0  0  0  0  0  0  0  0  0  0  0  0
  147.2582  142.3359  152.7160 H   0  0  0  0  0  0  0  0  0  0  0  0
  145.3929  143.9644  152.7221 H   0  0  0  0  0  0  0  0  0  0  0  0
  143.5577  145.0275  155.8552 H   0  0  0  0  0  0  0  0  0  0  0  0
  143.0089  144.3609  154.3132 H   0  0  0  0  0  0  0  0  0  0  0  0
  144.1670  145.6972  154.3395 H   0  0  0  0  0  0  0  0  0  0  0  0
  144.8897  143.3634  156.9641 H   0  0  0  0  0  0  0  0  0  0  0  0
  146.7310  141.7521  156.9708 H   0  0  0  0  0  0  0  0  0  0  0  0
  1  2  1  0  0  0  0
  1 26  1  0  0  0  0
  1 27  1  0  0  0  0
  1 28  1  0  0  0  0
  2  3  2  0  0  0  0
  2  4  1  0  0  0  0
  4  5  1  0  0  0  0
  4 29  1  0  0  0  0
  5  6  1  0  0  0  0
  5 30  1  0  0  0  0
  5 31  1  0  0  0  0
  6  7  1  0  0  0  0
  6 32  1  0  0  0  0
  6 33  1  0  0  0  0
  7 15  1  0  0  0  0
  7  8  2  0  0  0  0
  8  9  1  0  0  0  0
  9 14  2  0  0  0  0
  9 10  1  0  0  0  0
 10 11  2  0  0  0  0
 10 34  1  0  0  0  0
 11 12  1  0  0  0  0
 11 35  1  0  0  0  0
 12 13  2  0  0  0  0
 12 36  1  0  0  0  0
 13 14  1  0  0  0  0
 13 37  1  0  0  0  0
 14 15  1  0  0  0  0
 15 16  1  0  0  0  0
 16 17  1  0  0  0  0
 16 38  1  0  0  0  0
 16 39  1  0  0  0  0
 17 18  1  0  0  0  0
 17 40  1  0  0  0  0
 17 41  1  0  0  0  0
 18 19  1  0  0  0  0
 19 25  1  0  0  0  0
 19 20  2  0  0  0  0
 20 21  1  0  0  0  0
 20 42  1  0  0  0  0
 21 22  2  0  0  0  0
 21 43  1  0  0  0  0
 22 23  1  0  0  0  0
 22 24  1  0  0  0  0
 23 44  1  0  0  0  0
 23 45  1  0  0  0  0
 23 46  1  0  0  0  0
 24 25  2  0  0  0  0
 24 47  1  0  0  0  0
 25 48  1  0  0  0  0
M  END
> <s_m_source_file>
AV-unprocessed.smi

> <i_m_source_file_index>
2960

> <i_lp_mmshare_version>
43012

> <i_f3d_flags>
0

> <s_epik_input>
W0NIM11DKD1PKVtOSF1bQ0gyXVtDSDJdYyhuMSluKGMoYzEyKVtjSF1bY0hdW2NIXVtjSF0yKVtDSDJdW0NIMl1PYzNbY0hdW2NIXWMoW0NIM10pW2NIXVtjSF0z

> <s_epik_cmdline>
J2VwaWtfcHl0aG9uJywgJy1waCcsICc3LjAnLCAnLXRuJywgJzgnLCAnLW1hJywgJzIwMCcsICctbWV0YWxfYmluZGluZycsICctaW1hZScsICc8aW5maWxlLm1hZT4nLCAnLW9tYWUnLCAnPG91dGZpbGUubWFlPic=

> <r_lp_tautomer_probability>
1

> <r_epik_Ionization_Penalty>
0.0990099

> <r_epik_Ionization_Penalty_Charging>
0

> <r_epik_Ionization_Penalty_Neutral>
0.0990099

> <r_epik_State_Penalty>
0.0890759

> <r_epik_Charging_Adjusted_Penalty>
0.0890759

> <i_epik_Tot_Q>
0

> <i_epik_Tot_abs_Q>
0

> <r_epik_Metal_State_Penalty>
0.0762215

> <b_epik_Metal_Only>
0

> <s_lp_Force_Field>
OPLS_2005

> <r_lp_Energy>
13.2598

> <b_lp_Chiralities_Consistent>
1

> <s_lp_Variant>
AV-unprocessed.smi:2960-1

> <Gold.Version>
5.8.1

> <Gold.Id.Protein>
6NUR|6NUR_protein|mol2

> <Gold.PLP.Fitness>
50.2484

> <Gold.PLP.PLP>
-48.8326

> <Gold.PLP.part.hbond>
-1.0528

> <Gold.PLP.part.metal>
0.0000

> <Gold.PLP.part.buried>
-9.0031

> <Gold.PLP.part.nonpolar>
-39.6092

> <Gold.PLP.part.repulsive>
0.2252

> <Gold.PLP.ligand.clash>
0.0000

> <Gold.PLP.ligand.torsion>
0.8817

> <Gold.PLP.Chemscore.Hbond>
1.0000

> <Gold.PLP.Chemscore.CHOScore>
0.0000

> <Gold.PLP.Chemscore.Metal>
0.0000

> <Gold.Chemscore.Hbonds>
donor molecule, donor type, donor heavy atom, donor atom, acceptor molecule, acceptor atom, score
      P1  H 10752 10764       L1     3  0.76

> <Gold.PLP.Chemscore.Internal.Correction>
0.1791

> <Gold.Rescore>
     Score         DG    S(hbond)    S(metal)    S(lipo)     H(rot)  DE(clash)    DE(int)     intcor
     17.74     -18.42       1.00        0.00     128.25       2.11       0.02       0.66       ----

> <Gold.Chemscore.Fitness>
17.7353

> <Gold.Chemscore.DG>
-18.4183

> <Gold.Chemscore.ZeroCoef>
-5.4800

> <Gold.Chemscore.Hbond>
0.9967

> <Gold.Chemscore.Metal>
0.0000

> <Gold.Chemscore.Lipo>
128.2495

> <Gold.Chemscore.Internal_Hbond>
0.0000

> <Gold.Chemscore.DEClash>
0.0189

> <Gold.Chemscore.DEInternal>
0.6641

> <Gold.Chemscore.Rot>
2.1078

> <Gold.Chemscore.Internal.Correction>
   9.000000E+99

> <Gold.Chemscore.Hbonds>
donor molecule, donor type, donor heavy atom, donor atom, acceptor molecule, acceptor atom, score
      P1  H 10752 10764       L1     3  0.27

> <Gold.Chemscore.Hbond.Weighted>
-3.3291

> <Gold.Chemscore.Metal.Weighted>
-0.0000

> <Gold.Chemscore.Lipo.Weighted>
-15.0052

> <Gold.Chemscore.Internal_Hbond.Weighted>
0.0000

> <Gold.Chemscore.DEClash.Weighted>
0.0189

> <Gold.Chemscore.DEInternal.Weighted>
0.6641

> <Gold.Chemscore.Rot.Weighted>
5.3961

> <Gold.Chemscore.Internal.Correction.Weighted>
   9.000000E+99

> <Gold.Protein.RotatedTorsions>
[ 6907 6896 6895 6894 ] final -161.94 input  -60.11 | X-H torsion
[ 7974 7965 7964 7962 ] final  145.44 input  175.53 | X-H torsion
[ 8008 7997 7996 7995 ] final  166.50 input   59.86 | X-H torsion
[ 10167 10162 10161 10158 ] final  -20.28 input  -65.29 | X-H torsion
[ 10718 10713 10712 10709 ] final  -98.64 input   66.30 | X-H torsion
[ 10763 10752 10751 10750 ] final   -1.27 input  -60.55 | X-H torsion
[ 11005 11000 10999 10996 ] final  -34.41 input  -57.11 | X-H torsion

> <Gold.Protein.ActiveResidues>
 VAL166  LYS551  ARG553  GLY616  TRP617  ASP618  TYR619  PRO620  LYS621  CYS622 
 ASP623  PHE694  ASN695  SER759  ASP760  ASP761  ALA762  ILE779  LEU786  VAL792 
 PHE793  MET794  SER795  GLU796  ALA797  LYS798  CYS799  TRP800  GLU811  SER814 

> <Gold.Protein.RotatedAtoms>
  151.3725  133.3849  159.2700 H   0  0  0  0  0  0  0  0  0  0  0  0  # atno 6907 bound_to 6896
  150.9639  134.9024  159.7758 H   0  0  0  0  0  0  0  0  0  0  0  0  # atno 6908 bound_to 6896
  152.5160  134.3685  159.9362 H   0  0  0  0  0  0  0  0  0  0  0  0  # atno 6909 bound_to 6896
  144.8752  139.5783  143.5868 H   0  0  0  0  0  0  0  0  0  0  0  0  # atno 7974 bound_to 7965
  156.1713  140.1642  156.8442 H   0  0  0  0  0  0  0  0  0  0  0  0  # atno 8008 bound_to 7997
  154.5260  140.0767  156.8293 H   0  0  0  0  0  0  0  0  0  0  0  0  # atno 8009 bound_to 7997
  155.3506  140.3390  155.4241 H   0  0  0  0  0  0  0  0  0  0  0  0  # atno 8010 bound_to 7997
  140.7275  143.4737  151.0211 H   0  0  0  0  0  0  0  0  0  0  0  0  # atno 10167 bound_to 10162
  156.0113  130.5247  150.6552 H   0  0  0  0  0  0  0  0  0  0  0  0  # atno 10718 bound_to 10713
  153.3427  135.6981  153.6853 H   0  0  0  0  0  0  0  0  0  0  0  0  # atno 10763 bound_to 10752
  153.5612  135.3534  155.2800 H   0  0  0  0  0  0  0  0  0  0  0  0  # atno 10764 bound_to 10752
  154.8639  135.4249  154.2644 H   0  0  0  0  0  0  0  0  0  0  0  0  # atno 10765 bound_to 10752
  140.9714  133.7107  156.1530 H   0  0  0  0  0  0  0  0  0  0  0  0  # atno 11005 bound_to 11000
  146.2958  139.7273  142.9128 LP  0  0  0  0  0  0  0  0  0  0  0  0  # atno 17320 bound_to 7965
  145.4056  141.0390  143.3046 LP  0  0  0  0  0  0  0  0  0  0  0  0  # atno 17321 bound_to 7965
  139.8431  143.7537  152.3180 LP  0  0  0  0  0  0  0  0  0  0  0  0  # atno 17342 bound_to 10162
  139.7693  144.7482  151.0248 LP  0  0  0  0  0  0  0  0  0  0  0  0  # atno 17343 bound_to 10162
  157.4306  131.0848  151.1043 LP  0  0  0  0  0  0  0  0  0  0  0  0  # atno 17370 bound_to 10713
  157.1617  130.6228  149.5613 LP  0  0  0  0  0  0  0  0  0  0  0  0  # atno 17371 bound_to 10713
  140.7324  134.4240  157.5564 LP  0  0  0  0  0  0  0  0  0  0  0  0  # atno 17394 bound_to 11000
  139.8913  134.8782  156.2324 LP  0  0  0  0  0  0  0  0  0  0  0  0  # atno 17395 bound_to 11000

$$$$
