AV-unprocessed.smi:3266|AV-procd|sdf|12503|dock7
  -GOLD-   2272018413D 1   1.00000     0.00000
 Structure written by MMmdl.
 39 40  0  0  0  0  0  0  0  0  2 V2000
  150.8465  137.0364  157.3902 O   0  0  0  0  0  0  0  0  0  0  0  0
  150.0960  137.5984  158.1879 C   0  0  0  0  0  0  0  0  0  0  0  0
  149.4214  136.8186  159.3201 C   0  0  0  0  0  0  0  0  0  0  0  0
  147.8844  136.8010  159.2270 C   0  0  0  0  0  0  0  0  0  0  0  0
  147.2296  136.1735  160.4663 C   0  0  1  0  0  0  0  0  0  0  0  0
  147.7548  134.7797  160.8063 C   0  0  0  0  0  0  0  0  0  0  0  0
  147.4463  134.6944  162.2835 C   0  0  0  0  0  0  0  0  0  0  0  0
  147.7601  136.1143  162.7455 C   0  0  0  0  0  0  0  0  0  0  0  0
  147.4884  136.9582  161.6289 O   0  0  0  0  0  0  0  0  0  0  0  0
  149.8301  138.9125  158.1436 N   0  0  0  0  0  0  0  0  0  0  0  0
  150.3671  139.8492  157.1606 C   0  0  0  0  0  0  0  0  0  0  0  0
  149.8300  141.2876  157.3177 C   0  0  0  0  0  0  0  0  0  0  0  0
  150.8276  142.2565  157.9300 C   0  0  0  0  0  0  0  0  0  0  0  0
  151.6530  141.8949  159.0167 C   0  0  0  0  0  0  0  0  0  0  0  0
  152.5666  142.8382  159.5319 C   0  0  0  0  0  0  0  0  0  0  0  0
  152.6369  144.1211  158.9498 C   0  0  0  0  0  0  0  0  0  0  0  0
  151.7907  144.4286  157.8652 C   0  0  0  0  0  0  0  0  0  0  0  0
  150.9282  143.4981  157.4012 N   0  3  0  0  0  0  0  0  0  0  0  0
  149.8064  135.7983  159.3059 H   0  0  0  0  0  0  0  0  0  0  0  0
  149.7224  137.2543  160.2740 H   0  0  0  0  0  0  0  0  0  0  0  0
  147.5175  137.8220  159.1112 H   0  0  0  0  0  0  0  0  0  0  0  0
  147.5687  136.2550  158.3369 H   0  0  0  0  0  0  0  0  0  0  0  0
  146.1479  136.1193  160.3332 H   0  0  0  0  0  0  0  0  0  0  0  0
  147.2799  133.9912  160.2220 H   0  0  0  0  0  0  0  0  0  0  0  0
  148.8328  134.7224  160.6476 H   0  0  0  0  0  0  0  0  0  0  0  0
  146.3881  134.4747  162.4330 H   0  0  0  0  0  0  0  0  0  0  0  0
  148.0317  133.9362  162.8040 H   0  0  0  0  0  0  0  0  0  0  0  0
  147.1766  136.4065  163.6186 H   0  0  0  0  0  0  0  0  0  0  0  0
  148.8169  136.2068  162.9982 H   0  0  0  0  0  0  0  0  0  0  0  0
  149.2001  139.2905  158.8366 H   0  0  0  0  0  0  0  0  0  0  0  0
  151.4574  139.8462  157.1999 H   0  0  0  0  0  0  0  0  0  0  0  0
  150.0953  139.4708  156.1747 H   0  0  0  0  0  0  0  0  0  0  0  0
  149.5208  141.6744  156.3456 H   0  0  0  0  0  0  0  0  0  0  0  0
  148.9285  141.2737  157.9310 H   0  0  0  0  0  0  0  0  0  0  0  0
  151.5897  140.9069  159.4492 H   0  0  0  0  0  0  0  0  0  0  0  0
  153.2065  142.5804  160.3630 H   0  0  0  0  0  0  0  0  0  0  0  0
  153.3297  144.8577  159.3298 H   0  0  0  0  0  0  0  0  0  0  0  0
  151.7770  145.3825  157.3585 H   0  0  0  0  0  0  0  0  0  0  0  0
  150.3255  143.7412  156.6142 H   0  0  0  0  0  0  0  0  0  0  0  0
  1  2  2  0  0  0  0
  2  3  1  0  0  0  0
  2 10  1  0  0  0  0
  3  4  1  0  0  0  0
  3 19  1  0  0  0  0
  3 20  1  0  0  0  0
  4  5  1  0  0  0  0
  4 21  1  0  0  0  0
  4 22  1  0  0  0  0
  5  9  1  0  0  0  0
  5  6  1  0  0  0  0
  5 23  1  0  0  0  0
  6  7  1  0  0  0  0
  6 24  1  0  0  0  0
  6 25  1  0  0  0  0
  7  8  1  0  0  0  0
  7 26  1  0  0  0  0
  7 27  1  0  0  0  0
  8  9  1  0  0  0  0
  8 28  1  0  0  0  0
  8 29  1  0  0  0  0
 10 11  1  0  0  0  0
 10 30  1  0  0  0  0
 11 12  1  0  0  0  0
 11 31  1  0  0  0  0
 11 32  1  0  0  0  0
 12 13  1  0  0  0  0
 12 33  1  0  0  0  0
 12 34  1  0  0  0  0
 13 18  1  0  0  0  0
 13 14  2  0  0  0  0
 14 15  1  0  0  0  0
 14 35  1  0  0  0  0
 15 16  2  0  0  0  0
 15 36  1  0  0  0  0
 16 17  1  0  0  0  0
 16 37  1  0  0  0  0
 17 18  2  0  0  0  0
 17 38  1  0  0  0  0
 18 39  1  0  0  0  0
M  CHG  1  18   1
M  END
> <s_m_source_file>
AV-unprocessed.smi

> <i_m_source_file_index>
3266

> <i_lp_mmshare_version>
43012

> <i_f3d_flags>
0

> <s_epik_input>
TzFbQ0gyXVtDSDJdW0NIMl1bQ0BIXTFbQ0gyXVtDSDJdQyg9TylbTkhdW0NIMl1bQ0gyXWMyW2NIXVtjSF1bY0hdW2NIXW4y

> <s_epik_cmdline>
J2VwaWtfcHl0aG9uJywgJy1waCcsICc3LjAnLCAnLXRuJywgJzgnLCAnLW1hJywgJzIwMCcsICctbWV0YWxfYmluZGluZycsICctaW1hZScsICc8aW5maWxlLm1hZT4nLCAnLW9tYWUnLCAnPG91dGZpbGUubWFlPic=

> <r_epik_Ionization_Penalty>
1.8495

> <r_epik_Ionization_Penalty_Charging>
1.8495

> <r_epik_Ionization_Penalty_Neutral>
1.53068e-08

> <r_epik_State_Penalty>
1.96688

> <r_epik_Charging_Adjusted_Penalty>
3.81638

> <i_epik_Tot_Q>
1

> <i_epik_Tot_abs_Q>
1

> <r_epik_Metal_State_Penalty>
1.99263

> <b_epik_Metal_Only>
0

> <s_lp_Force_Field>
OPLS_2005

> <r_lp_Energy>
22.1722

> <b_lp_Chiralities_Consistent>
1

> <s_lp_Variant>
AV-unprocessed.smi:3266-4

> <Gold.Version>
5.8.1

> <Gold.Id.Protein>
6NUR|6NUR_protein|mol2

> <Gold.PLP.Fitness>
51.1526

> <Gold.PLP.PLP>
-41.6621

> <Gold.PLP.part.hbond>
-3.0000

> <Gold.PLP.part.metal>
0.0000

> <Gold.PLP.part.buried>
-5.6655

> <Gold.PLP.part.nonpolar>
-32.7850

> <Gold.PLP.part.repulsive>
0.1626

> <Gold.PLP.ligand.clash>
0.0000

> <Gold.PLP.ligand.torsion>
0.6118

> <Gold.PLP.Chemscore.Hbond>
3.5501

> <Gold.PLP.Chemscore.CHOScore>
0.0000

> <Gold.PLP.Chemscore.Metal>
0.0000

> <Gold.Chemscore.Hbonds>
donor molecule, donor type, donor heavy atom, donor atom, acceptor molecule, acceptor atom, score
      L1  H    18    39       P1  8028  2.00
      P1  H  6931  6943       L1     9  0.85
      P1  H  6934  6947       L1     9  0.51

> <Gold.PLP.Chemscore.Internal.Correction>
0.0638

> <Gold.Rescore>
     Score         DG    S(hbond)    S(metal)    S(lipo)     H(rot)  DE(clash)    DE(int)     intcor
     18.58     -19.38       1.95        0.00     103.28       1.84       0.07       0.73       ----

> <Gold.Chemscore.Fitness>
18.5843

> <Gold.Chemscore.DG>
-19.3775

> <Gold.Chemscore.ZeroCoef>
-5.4800

> <Gold.Chemscore.Hbond>
1.9520

> <Gold.Chemscore.Metal>
0.0000

> <Gold.Chemscore.Lipo>
103.2791

> <Gold.Chemscore.Internal_Hbond>
0.0000

> <Gold.Chemscore.DEClash>
0.0658

> <Gold.Chemscore.DEInternal>
0.7274

> <Gold.Chemscore.Rot>
1.8382

> <Gold.Chemscore.Internal.Correction>
   9.000000E+99

> <Gold.Chemscore.Hbonds>
donor molecule, donor type, donor heavy atom, donor atom, acceptor molecule, acceptor atom, score
      L1  H    18    39       P1  8028  0.96
      P1  H  6931  6943       L1     9  0.13
      P1  H  6934  6947       L1     9  0.22

> <Gold.Chemscore.Hbond.Weighted>
-6.5196

> <Gold.Chemscore.Metal.Weighted>
-0.0000

> <Gold.Chemscore.Lipo.Weighted>
-12.0837

> <Gold.Chemscore.Internal_Hbond.Weighted>
0.0000

> <Gold.Chemscore.DEClash.Weighted>
0.0658

> <Gold.Chemscore.DEInternal.Weighted>
0.7274

> <Gold.Chemscore.Rot.Weighted>
4.7058

> <Gold.Chemscore.Internal.Correction.Weighted>
   9.000000E+99

> <Gold.Protein.RotatedTorsions>
[ 6907 6896 6895 6894 ] final  169.38 input  -60.11 | X-H torsion
[ 7974 7965 7964 7962 ] final   92.37 input  175.53 | X-H torsion
[ 8008 7997 7996 7995 ] final  155.16 input   59.86 | X-H torsion
[ 10167 10162 10161 10158 ] final  175.74 input  -65.29 | X-H torsion
[ 10718 10713 10712 10709 ] final -143.80 input   66.30 | X-H torsion
[ 10763 10752 10751 10750 ] final   23.59 input  -60.55 | X-H torsion
[ 11005 11000 10999 10996 ] final -163.22 input  -57.11 | X-H torsion

> <Gold.Protein.ActiveResidues>
 VAL166  LYS551  ARG553  GLY616  TRP617  ASP618  TYR619  PRO620  LYS621  CYS622 
 ASP623  PHE694  ASN695  SER759  ASP760  ASP761  ALA762  ILE779  LEU786  VAL792 
 PHE793  MET794  SER795  GLU796  ALA797  LYS798  CYS799  TRP800  GLU811  SER814 

> <Gold.Protein.RotatedAtoms>
  151.8328  133.3411  159.3618 H   0  0  0  0  0  0  0  0  0  0  0  0  # atno 6907 bound_to 6896
  150.7259  134.5466  159.5783 H   0  0  0  0  0  0  0  0  0  0  0  0  # atno 6908 bound_to 6896
  152.2923  134.7708  160.0426 H   0  0  0  0  0  0  0  0  0  0  0  0  # atno 6909 bound_to 6896
  145.4931  139.2276  143.2818 H   0  0  0  0  0  0  0  0  0  0  0  0  # atno 7974 bound_to 7965
  156.2493  140.1947  156.6758 H   0  0  0  0  0  0  0  0  0  0  0  0  # atno 8008 bound_to 7997
  154.6359  140.0590  156.9813 H   0  0  0  0  0  0  0  0  0  0  0  0  # atno 8009 bound_to 7997
  155.1638  140.3262  155.4408 H   0  0  0  0  0  0  0  0  0  0  0  0  # atno 8010 bound_to 7997
  139.5188  144.2997  152.0390 H   0  0  0  0  0  0  0  0  0  0  0  0  # atno 10167 bound_to 10162
  156.3624  130.7745  151.1914 H   0  0  0  0  0  0  0  0  0  0  0  0  # atno 10718 bound_to 10713
  153.0827  135.6624  154.0012 H   0  0  0  0  0  0  0  0  0  0  0  0  # atno 10763 bound_to 10752
  153.9630  135.2972  155.3434 H   0  0  0  0  0  0  0  0  0  0  0  0  # atno 10764 bound_to 10752
  154.7229  135.5156  153.8913 H   0  0  0  0  0  0  0  0  0  0  0  0  # atno 10765 bound_to 10752
  140.6005  134.4952  157.5204 H   0  0  0  0  0  0  0  0  0  0  0  0  # atno 11005 bound_to 11000
  146.2272  140.5727  142.8991 LP  0  0  0  0  0  0  0  0  0  0  0  0  # atno 17320 bound_to 7965
  144.7822  140.5864  143.6598 LP  0  0  0  0  0  0  0  0  0  0  0  0  # atno 17321 bound_to 7965
  140.2445  144.4235  150.6246 LP  0  0  0  0  0  0  0  0  0  0  0  0  # atno 17342 bound_to 10162
  140.6268  143.2182  151.6580 LP  0  0  0  0  0  0  0  0  0  0  0  0  # atno 17343 bound_to 10162
  157.7475  131.0396  150.4559 LP  0  0  0  0  0  0  0  0  0  0  0  0  # atno 17370 bound_to 10713
  156.4772  130.4065  149.6483 LP  0  0  0  0  0  0  0  0  0  0  0  0  # atno 17371 bound_to 10713
  139.9234  134.8103  156.1140 LP  0  0  0  0  0  0  0  0  0  0  0  0  # atno 17394 bound_to 11000
  141.0875  133.6728  156.2469 LP  0  0  0  0  0  0  0  0  0  0  0  0  # atno 17395 bound_to 11000

$$$$
