AV-unprocessed.smi:3113|AV-procd|sdf|11852|dock5
  -GOLD-   2272017233D 1   1.00000     0.00000
 Structure written by MMmdl.
 35 36  0  0  0  0  0  0  0  0  2 V2000
  151.5306  137.6455  154.4325 C   0  0  0  0  0  0  0  0  0  0  0  0
  150.6759  138.5412  153.7307 C   0  0  0  0  0  0  0  0  0  0  0  0
  150.4964  139.6840  154.3736 N   0  0  0  0  0  0  0  0  0  0  0  0
  151.2312  139.5580  155.4998 N   0  0  0  0  0  0  0  0  0  0  0  0
  151.2647  140.6431  156.4616 C   0  0  0  0  0  0  0  0  0  0  0  0
  150.3400  141.7988  156.0518 C   0  0  0  0  0  0  0  0  0  0  0  0
  150.6371  143.0167  156.8298 N   0  3  0  0  0  0  0  0  0  0  0  0
  152.0742  143.3463  156.9040 C   0  0  0  0  0  0  0  0  0  0  0  0
  152.4412  143.9116  158.2837 C   0  0  2  0  0  0  0  0  0  0  0  0
  152.4542  142.8166  159.3682 C   0  0  0  0  0  0  0  0  0  0  0  0
  152.7220  143.4260  160.7492 C   0  0  0  0  0  0  0  0  0  0  0  0
  151.7260  144.5594  161.0150 C   0  0  0  0  0  0  0  0  0  0  0  0
  151.7416  145.5653  159.8536 C   0  0  0  0  0  0  0  0  0  0  0  0
  151.4661  144.8948  158.6271 O   0  0  0  0  0  0  0  0  0  0  0  0
  151.8634  138.3338  155.5639 C   0  0  0  0  0  0  0  0  0  0  0  0
  151.8477  136.6526  154.1497 H   0  0  0  0  0  0  0  0  0  0  0  0
  150.1834  138.3951  152.7805 H   0  0  0  0  0  0  0  0  0  0  0  0
  150.9764  140.2490  157.4371 H   0  0  0  0  0  0  0  0  0  0  0  0
  152.2937  140.9937  156.5522 H   0  0  0  0  0  0  0  0  0  0  0  0
  150.4614  142.0145  154.9893 H   0  0  0  0  0  0  0  0  0  0  0  0
  149.2968  141.5209  156.2082 H   0  0  0  0  0  0  0  0  0  0  0  0
  150.1497  143.7957  156.4105 H   0  0  0  0  0  0  0  0  0  0  0  0
  152.6695  142.4572  156.6905 H   0  0  0  0  0  0  0  0  0  0  0  0
  152.3013  144.0797  156.1291 H   0  0  0  0  0  0  0  0  0  0  0  0
  153.4267  144.3787  158.2293 H   0  0  0  0  0  0  0  0  0  0  0  0
  151.4946  142.2974  159.3797 H   0  0  0  0  0  0  0  0  0  0  0  0
  153.2126  142.0667  159.1405 H   0  0  0  0  0  0  0  0  0  0  0  0
  152.6463  142.6629  161.5243 H   0  0  0  0  0  0  0  0  0  0  0  0
  153.7403  143.8148  160.7890 H   0  0  0  0  0  0  0  0  0  0  0  0
  150.7222  144.1475  161.1267 H   0  0  0  0  0  0  0  0  0  0  0  0
  151.9651  145.0610  161.9532 H   0  0  0  0  0  0  0  0  0  0  0  0
  150.9839  146.3327  160.0130 H   0  0  0  0  0  0  0  0  0  0  0  0
  152.7039  146.0763  159.7935 H   0  0  0  0  0  0  0  0  0  0  0  0
  152.4911  138.0564  156.3982 H   0  0  0  0  0  0  0  0  0  0  0  0
  150.2922  142.8879  157.7707 H   0  0  0  0  0  0  0  0  0  0  0  0
  1 15  2  0  0  0  0
  1  2  1  0  0  0  0
  1 16  1  0  0  0  0
  2  3  2  0  0  0  0
  2 17  1  0  0  0  0
  3  4  1  0  0  0  0
  4  5  1  0  0  0  0
  4 15  1  0  0  0  0
  5  6  1  0  0  0  0
  5 18  1  0  0  0  0
  5 19  1  0  0  0  0
  6  7  1  0  0  0  0
  6 20  1  0  0  0  0
  6 21  1  0  0  0  0
  7  8  1  0  0  0  0
  7 22  1  0  0  0  0
  7 35  1  0  0  0  0
  8  9  1  0  0  0  0
  8 23  1  0  0  0  0
  8 24  1  0  0  0  0
  9 14  1  0  0  0  0
  9 10  1  0  0  0  0
  9 25  1  0  0  0  0
 10 11  1  0  0  0  0
 10 26  1  0  0  0  0
 10 27  1  0  0  0  0
 11 12  1  0  0  0  0
 11 28  1  0  0  0  0
 11 29  1  0  0  0  0
 12 13  1  0  0  0  0
 12 30  1  0  0  0  0
 12 31  1  0  0  0  0
 13 14  1  0  0  0  0
 13 32  1  0  0  0  0
 13 33  1  0  0  0  0
 15 34  1  0  0  0  0
M  CHG  1   7   1
M  END
> <s_m_source_file>
AV-unprocessed.smi

> <i_m_source_file_index>
3113

> <i_lp_mmshare_version>
43012

> <i_f3d_flags>
0

> <s_epik_input>
W2NIXTFbY0hdW2NIXW5uMVtDSDJdW0NIMl1bTkhdW0NIMl1bQ0BASF0yW0NIMl1bQ0gyXVtDSDJdW0NIMl1PMg==

> <s_epik_cmdline>
J2VwaWtfcHl0aG9uJywgJy1waCcsICc3LjAnLCAnLXRuJywgJzgnLCAnLW1hJywgJzIwMCcsICctbWV0YWxfYmluZGluZycsICctaW1hZScsICc8aW5maWxlLm1hZT4nLCAnLW9tYWUnLCAnPG91dGZpbGUubWFlPic=

> <r_lp_tautomer_probability>
1

> <r_epik_Ionization_Penalty>
0.00849054

> <r_epik_Ionization_Penalty_Charging>
0.00848754

> <r_epik_Ionization_Penalty_Neutral>
3.00382e-06

> <r_epik_State_Penalty>
0.00639836

> <r_epik_Charging_Adjusted_Penalty>
0.0148859

> <i_epik_Tot_Q>
1

> <i_epik_Tot_abs_Q>
1

> <r_epik_Metal_State_Penalty>
0.00641155

> <b_epik_Metal_Only>
0

> <s_lp_Force_Field>
OPLS_2005

> <r_lp_Energy>
10.9258

> <b_lp_Chiralities_Consistent>
1

> <s_lp_Variant>
AV-unprocessed.smi:3113-1

> <Gold.Version>
5.8.1

> <Gold.Id.Protein>
6NUR|6NUR_protein|mol2

> <Gold.PLP.Fitness>
49.2680

> <Gold.PLP.PLP>
-35.7560

> <Gold.PLP.part.hbond>
-2.0000

> <Gold.PLP.part.metal>
0.0000

> <Gold.PLP.part.buried>
-5.7633

> <Gold.PLP.part.nonpolar>
-29.4077

> <Gold.PLP.part.repulsive>
0.2621

> <Gold.PLP.ligand.clash>
0.0000

> <Gold.PLP.ligand.torsion>
0.4499

> <Gold.PLP.Chemscore.Hbond>
2.8500

> <Gold.PLP.Chemscore.CHOScore>
1.9507

> <Gold.PLP.Chemscore.Metal>
0.0000

> <Gold.Chemscore.Hbonds>
donor molecule, donor type, donor heavy atom, donor atom, acceptor molecule, acceptor atom, score
      L1  H     7    22       P1  8028  2.00
      P1  H  7989  7998       L1     3  0.85
      L1  C     2    17       P1  7948  0.75
      L1  C     2    17       P1  7949  0.01
      L1  C     2    17       P1  7957  0.93

> <Gold.PLP.Chemscore.Internal.Correction>
0.0099

> <Gold.Rescore>
     Score         DG    S(hbond)    S(metal)    S(lipo)     H(rot)  DE(clash)    DE(int)     intcor
     15.58     -17.40       1.00        0.00     110.47       1.70       1.40       0.42       ----

> <Gold.Chemscore.Fitness>
15.5845

> <Gold.Chemscore.DG>
-17.3987

> <Gold.Chemscore.ZeroCoef>
-5.4800

> <Gold.Chemscore.Hbond>
1.0006

> <Gold.Chemscore.Metal>
0.0000

> <Gold.Chemscore.Lipo>
110.4699

> <Gold.Chemscore.Internal_Hbond>
0.0000

> <Gold.Chemscore.DEClash>
1.3963

> <Gold.Chemscore.DEInternal>
0.4179

> <Gold.Chemscore.Rot>
1.6985

> <Gold.Chemscore.Internal.Correction>
   9.000000E+99

> <Gold.Chemscore.Hbonds>
donor molecule, donor type, donor heavy atom, donor atom, acceptor molecule, acceptor atom, score
      L1  H     7    22       P1  8028  1.00
      P1  H  7989  7998       L1     3  0.06

> <Gold.Chemscore.Hbond.Weighted>
-3.3419

> <Gold.Chemscore.Metal.Weighted>
-0.0000

> <Gold.Chemscore.Lipo.Weighted>
-12.9250

> <Gold.Chemscore.Internal_Hbond.Weighted>
0.0000

> <Gold.Chemscore.DEClash.Weighted>
1.3963

> <Gold.Chemscore.DEInternal.Weighted>
0.4179

> <Gold.Chemscore.Rot.Weighted>
4.3482

> <Gold.Chemscore.Internal.Correction.Weighted>
   9.000000E+99

> <Gold.Protein.RotatedTorsions>
[ 6907 6896 6895 6894 ] final  -99.00 input  -60.11 | X-H torsion
[ 7974 7965 7964 7962 ] final  -73.24 input  175.53 | X-H torsion
[ 8008 7997 7996 7995 ] final -161.61 input   59.86 | X-H torsion
[ 10167 10162 10161 10158 ] final  127.12 input  -65.29 | X-H torsion
[ 10718 10713 10712 10709 ] final  -33.58 input   66.30 | X-H torsion
[ 10763 10752 10751 10750 ] final   10.70 input  -60.55 | X-H torsion
[ 11005 11000 10999 10996 ] final  -44.58 input  -57.11 | X-H torsion

> <Gold.Protein.ActiveResidues>
 VAL166  LYS551  ARG553  GLY616  TRP617  ASP618  TYR619  PRO620  LYS621  CYS622 
 ASP623  PHE694  ASN695  SER759  ASP760  ASP761  ALA762  ILE779  LEU786  VAL792 
 PHE793  MET794  SER795  GLU796  ALA797  LYS798  CYS799  TRP800  GLU811  SER814 

> <Gold.Protein.RotatedAtoms>
  150.7065  134.1108  159.3999 H   0  0  0  0  0  0  0  0  0  0  0  0  # atno 6907 bound_to 6896
  151.9095  135.0342  160.0522 H   0  0  0  0  0  0  0  0  0  0  0  0  # atno 6908 bound_to 6896
  152.2348  133.5052  159.5273 H   0  0  0  0  0  0  0  0  0  0  0  0  # atno 6909 bound_to 6896
  145.6548  140.9271  143.0965 H   0  0  0  0  0  0  0  0  0  0  0  0  # atno 7974 bound_to 7965
  155.7947  140.0883  157.1990 H   0  0  0  0  0  0  0  0  0  0  0  0  # atno 8008 bound_to 7997
  154.3984  140.1483  156.3262 H   0  0  0  0  0  0  0  0  0  0  0  0  # atno 8009 bound_to 7997
  155.8523  140.3434  155.5704 H   0  0  0  0  0  0  0  0  0  0  0  0  # atno 8010 bound_to 7997
  139.5595  144.6872  151.4085 H   0  0  0  0  0  0  0  0  0  0  0  0  # atno 10167 bound_to 10162
  156.3610  130.4323  149.7624 H   0  0  0  0  0  0  0  0  0  0  0  0  # atno 10718 bound_to 10713
  153.2004  135.6855  153.8238 H   0  0  0  0  0  0  0  0  0  0  0  0  # atno 10763 bound_to 10752
  153.7507  135.3224  155.3321 H   0  0  0  0  0  0  0  0  0  0  0  0  # atno 10764 bound_to 10752
  154.8168  135.4680  154.0767 H   0  0  0  0  0  0  0  0  0  0  0  0  # atno 10765 bound_to 10752
  141.0460  133.6761  156.2892 H   0  0  0  0  0  0  0  0  0  0  0  0  # atno 11005 bound_to 11000
  144.7110  139.8372  143.7414 LP  0  0  0  0  0  0  0  0  0  0  0  0  # atno 17320 bound_to 7965
  146.1174  139.4187  143.0249 LP  0  0  0  0  0  0  0  0  0  0  0  0  # atno 17321 bound_to 7965
  140.6872  143.7945  150.7204 LP  0  0  0  0  0  0  0  0  0  0  0  0  # atno 17342 bound_to 10162
  140.1416  143.4436  152.2189 LP  0  0  0  0  0  0  0  0  0  0  0  0  # atno 17343 bound_to 10162
  156.4788  130.8031  151.3046 LP  0  0  0  0  0  0  0  0  0  0  0  0  # atno 17370 bound_to 10713
  157.7473  131.0012  150.2955 LP  0  0  0  0  0  0  0  0  0  0  0  0  # atno 17371 bound_to 10713
  140.6146  134.5423  157.5539 LP  0  0  0  0  0  0  0  0  0  0  0  0  # atno 17394 bound_to 11000
  139.9312  134.7960  156.0926 LP  0  0  0  0  0  0  0  0  0  0  0  0  # atno 17395 bound_to 11000

$$$$
