#       Name:                AV-unprocessed.smi:921
#       Creating user name   scv26
#       Creation time:       Fri Mar 27 02:08:05 2020


#       File generated by GOLD software.
#

@<TRIPOS>MOLECULE
AV-unprocessed.smi:921
    44    46     1
SMALL
NO_CHARGES


@<TRIPOS>ATOM
      1 ****        -2.2010   3.9441   2.4249 N.am           1 S1                 0.0000
      2 ****        -1.3676   2.9938   1.9929 C.2            1 S1                 0.0000
      3 ****        -0.5175   2.4877   2.7225 O.2            1 S1                 0.0000
      4 ****        -1.5091   2.5466   0.5361 C.3            1 S1                 0.0000
      5 ****        -1.8568   1.0921   0.4597 C.2            1 S1                 0.0000
      6 ****        -3.1186   0.5735   0.4699 N.pl3          1 S1                 1.0000
      7 ****        -3.0598  -0.8177   0.3795 C.ar           1 S1                 0.0000
      8 ****        -4.0708  -1.7736   0.3555 C.ar           1 S1                 0.0000
      9 ****        -3.6656  -3.1207   0.2525 C.ar           1 S1                 0.0000
     10 ****        -2.3024  -3.4740   0.1777 C.ar           1 S1                 0.0000
     11 ****        -1.2863  -2.4959   0.2045 C.ar           1 S1                 0.0000
     12 ****        -1.6962  -1.1670   0.3075 C.ar           1 S1                 0.0000
     13 ****        -0.9916   0.0402   0.3613 N.pl3          1 S1                 0.0000
     14 ****         0.4785   0.0089   0.3129 C.3            1 S1                 0.0000
     15 ****         1.0298  -0.1407  -1.1185 C.3            1 S1                 0.0000
     16 ****         0.5683   0.9301  -1.9207 O.3            1 S1                 0.0000
     17 ****         2.5478  -0.2608  -1.1108 C.ar           1 S1                 0.0000
     18 ****         3.3624   0.8942  -1.1290 C.ar           1 S1                 0.0000
     19 ****         4.7657   0.7761  -1.1115 C.ar           1 S1                 0.0000
     20 ****         5.5391   1.8873  -1.1324 F              1 S1                 0.0000
     21 ****         5.3651  -0.4968  -1.0703 C.ar           1 S1                 0.0000
     22 ****         4.5603  -1.6514  -1.0432 C.ar           1 S1                 0.0000
     23 ****         3.1566  -1.5356  -1.0613 C.ar           1 S1                 0.0000
     24 ****         2.3968  -2.6570  -1.0256 F              1 S1                 0.0000
     25 ****        -2.1326   4.2721   3.3778 H              1 S1                 0.0000
     26 ****        -2.8896   4.3392   1.8011 H              1 S1                 0.0000
     27 ****        -2.2788   3.1284   0.0270 H              1 S1                 0.0000
     28 ****        -0.5733   2.7330   0.0091 H              1 S1                 0.0000
     29 ****        -5.1156  -1.5055   0.4121 H              1 S1                 0.0000
     30 ****        -4.4153  -3.8982   0.2298 H              1 S1                 0.0000
     31 ****        -2.0300  -4.5164   0.0985 H              1 S1                 0.0000
     32 ****        -0.2449  -2.7763   0.1459 H              1 S1                 0.0000
     33 ****         0.8511   0.9258   0.7704 H              1 S1                 0.0000
     34 ****         0.8225  -0.8076   0.9491 H              1 S1                 0.0000
     35 ****         0.6198  -1.0469  -1.5649 H              1 S1                 0.0000
     36 ****         0.8401   0.7746  -2.8125 H              1 S1                 0.0000
     37 ****         2.9156   1.8775  -1.1532 H              1 S1                 0.0000
     38 ****         6.4411  -0.5878  -1.0557 H              1 S1                 0.0000
     39 ****         5.0204  -2.6279  -1.0060 H              1 S1                 0.0000
     40 ****        -3.9586   1.1336   0.5360 H              1 S1                 0.0000
     41 ****        -0.4333   2.7854   3.6735 LP             1 S1                 0.0000
     42 ****         0.0899   1.7782   2.3651 LP             1 S1                 0.0000
     43 ****         0.9600   1.7901  -1.5935 LP             1 S1                 0.0000
     44 ****        -0.4294   0.9798  -1.8757 LP             1 S1                 0.0000
@<TRIPOS>BOND
    1    1    2 am    
    2    1   25 1     
    3    1   26 1     
    4    2    3 2     
    5    2    4 1     
    6    4    5 1     
    7    4   27 1     
    8    4   28 1     
    9    5   13 1     
   10    5    6 2     
   11    6    7 1     
   12    6   40 1     
   13    7   12 ar    
   14    7    8 ar    
   15    8    9 ar    
   16    8   29 1     
   17    9   10 ar    
   18    9   30 1     
   19   10   11 ar    
   20   10   31 1     
   21   11   12 ar    
   22   11   32 1     
   23   12   13 1     
   24   13   14 1     
   25   14   15 1     
   26   14   33 1     
   27   14   34 1     
   28   15   16 1     
   29   15   17 1     
   30   15   35 1     
   31   16   36 1     
   32   17   23 ar    
   33   17   18 ar    
   34   18   19 ar    
   35   18   37 1     
   36   19   20 1     
   37   19   21 ar    
   38   21   22 ar    
   39   21   38 1     
   40   22   23 ar    
   41   22   39 1     
   42   23   24 1     
   43    3   41 1     
   44    3   42 1     
   45   16   43 1     
   46   16   44 1     
@<TRIPOS>SUBSTRUCTURE
      1 S1             1
@<TRIPOS>SET
LONE_PAIRS      STATIC     ATOMS    <user>   **** ""
4 41 42 43 44
DONOR_HYDROGENS      STATIC     ATOMS    <user>   **** ""
4 25 26 40 36
ATOM$BLUE        STATIC     ATOMS    COLORGROUP SYSTEM
4 41 42 43 44
ATOM$RED        STATIC     ATOMS    COLORGROUP SYSTEM
4 25 26 40 36
