AV-unprocessed.smi:3031|AV-procd|sdf|11551|dock10
  -GOLD-   2272016513D 1   1.00000     0.00000
 Structure written by MMmdl.
 48 49  0  0  0  0  0  0  0  0  3 V2000
  152.7499  143.1645  162.2253 C   0  0  0  0  0  0  0  0  0  0  0  0
  152.3247  143.2725  160.7890 C   0  0  0  0  0  0  0  0  0  0  0  0
  151.8321  144.4230  160.1115 C   0  0  0  0  0  0  0  0  0  0  0  0
  151.5377  144.1849  158.8441 N   0  0  0  0  0  0  0  0  0  0  0  0
  151.8403  142.8802  158.6627 N   0  0  0  0  0  0  0  0  0  0  0  0
  151.6121  142.2425  157.3739 C   0  0  0  0  0  0  0  0  0  0  0  0
  150.5199  141.1525  157.4103 C   0  0  2  0  0  0  0  0  0  0  0  0
  150.8624  140.0604  158.4353 C   0  0  0  0  0  0  0  0  0  0  0  0
  150.3409  140.5662  156.0630 N   0  3  0  0  0  0  0  0  0  0  0  0
  148.9473  140.2214  155.7123 C   0  0  0  0  0  0  0  0  0  0  0  0
  148.4257  141.1071  154.5659 C   0  0  1  0  0  0  0  0  0  0  0  0
  149.3976  141.1098  153.5399 O   0  0  0  0  0  0  0  0  0  0  0  0
  147.1038  140.5880  153.9600 C   0  0  0  0  0  0  0  0  0  0  0  0
  145.9426  141.4731  154.2393 N   0  3  0  0  0  0  0  0  0  0  0  0
  145.4550  141.3957  155.6394 C   0  0  0  0  0  0  0  0  0  0  0  0
  144.2391  142.3167  155.8392 C   0  0  0  0  0  0  0  0  0  0  0  0
  144.5854  143.6494  155.4853 O   0  0  0  0  0  0  0  0  0  0  0  0
  144.9664  143.7546  154.1198 C   0  0  0  0  0  0  0  0  0  0  0  0
  146.2072  142.8826  153.8625 C   0  0  0  0  0  0  0  0  0  0  0  0
  152.3038  142.3032  159.8263 C   0  0  0  0  0  0  0  0  0  0  0  0
  152.0033  143.5875  162.8976 H   0  0  0  0  0  0  0  0  0  0  0  0
  153.6848  143.6942  162.4084 H   0  0  0  0  0  0  0  0  0  0  0  0
  152.9022  142.1282  162.5278 H   0  0  0  0  0  0  0  0  0  0  0  0
  151.6772  145.4179  160.5029 H   0  0  0  0  0  0  0  0  0  0  0  0
  151.3477  143.0149  156.6498 H   0  0  0  0  0  0  0  0  0  0  0  0
  152.5590  141.8150  157.0416 H   0  0  0  0  0  0  0  0  0  0  0  0
  149.5836  141.6210  157.7177 H   0  0  0  0  0  0  0  0  0  0  0  0
  150.9927  140.4870  159.4303 H   0  0  0  0  0  0  0  0  0  0  0  0
  151.7872  139.5451  158.1734 H   0  0  0  0  0  0  0  0  0  0  0  0
  150.0729  139.3120  158.5049 H   0  0  0  0  0  0  0  0  0  0  0  0
  150.6563  141.2518  155.3916 H   0  0  0  0  0  0  0  0  0  0  0  0
  148.8729  139.1660  155.4470 H   0  0  0  0  0  0  0  0  0  0  0  0
  148.3317  140.3706  156.6000 H   0  0  0  0  0  0  0  0  0  0  0  0
  148.3094  142.1351  154.9084 H   0  0  0  0  0  0  0  0  0  0  0  0
  149.1884  140.4287  152.9178 H   0  0  0  0  0  0  0  0  0  0  0  0
  147.1995  140.4631  152.8800 H   0  0  0  0  0  0  0  0  0  0  0  0
  146.9064  139.5934  154.3640 H   0  0  0  0  0  0  0  0  0  0  0  0
  145.1729  140.3746  155.8930 H   0  0  0  0  0  0  0  0  0  0  0  0
  146.2550  141.6855  156.3224 H   0  0  0  0  0  0  0  0  0  0  0  0
  143.3906  141.9770  155.2430 H   0  0  0  0  0  0  0  0  0  0  0  0
  143.9224  142.2996  156.8821 H   0  0  0  0  0  0  0  0  0  0  0  0
  144.1390  143.4571  153.4735 H   0  0  0  0  0  0  0  0  0  0  0  0
  145.1870  144.7984  153.8946 H   0  0  0  0  0  0  0  0  0  0  0  0
  147.0549  143.2626  154.4351 H   0  0  0  0  0  0  0  0  0  0  0  0
  146.4806  142.9402  152.8081 H   0  0  0  0  0  0  0  0  0  0  0  0
  152.5779  141.2592  159.8743 H   0  0  0  0  0  0  0  0  0  0  0  0
  150.9235  139.7451  155.9788 H   0  0  0  0  0  0  0  0  0  0  0  0
  145.1872  141.1630  153.6450 H   0  0  0  0  0  0  0  0  0  0  0  0
  1  2  1  0  0  0  0
  1 21  1  0  0  0  0
  1 22  1  0  0  0  0
  1 23  1  0  0  0  0
  2 20  2  0  0  0  0
  2  3  1  0  0  0  0
  3  4  2  0  0  0  0
  3 24  1  0  0  0  0
  4  5  1  0  0  0  0
  5  6  1  0  0  0  0
  5 20  1  0  0  0  0
  6  7  1  0  0  0  0
  6 25  1  0  0  0  0
  6 26  1  0  0  0  0
  7  8  1  0  0  0  0
  7  9  1  0  0  0  0
  7 27  1  0  0  0  0
  8 28  1  0  0  0  0
  8 29  1  0  0  0  0
  8 30  1  0  0  0  0
  9 10  1  0  0  0  0
  9 31  1  0  0  0  0
  9 47  1  0  0  0  0
 10 11  1  0  0  0  0
 10 32  1  0  0  0  0
 10 33  1  0  0  0  0
 11 12  1  0  0  0  0
 11 13  1  0  0  0  0
 11 34  1  0  0  0  0
 12 35  1  0  0  0  0
 13 14  1  0  0  0  0
 13 36  1  0  0  0  0
 13 37  1  0  0  0  0
 14 19  1  0  0  0  0
 14 15  1  0  0  0  0
 14 48  1  0  0  0  0
 15 16  1  0  0  0  0
 15 38  1  0  0  0  0
 15 39  1  0  0  0  0
 16 17  1  0  0  0  0
 16 40  1  0  0  0  0
 16 41  1  0  0  0  0
 17 18  1  0  0  0  0
 18 19  1  0  0  0  0
 18 42  1  0  0  0  0
 18 43  1  0  0  0  0
 19 44  1  0  0  0  0
 19 45  1  0  0  0  0
 20 46  1  0  0  0  0
M  CHG  1   9   1
M  CHG  1  14   1
M  END
> <s_m_source_file>
AV-unprocessed.smi

> <i_m_source_file_index>
3031

> <i_lp_mmshare_version>
43012

> <i_f3d_flags>
0

> <s_epik_input>
W0NIM11jMVtjSF1ubihbY0hdMSlbQ0gyXVtDQEhdKFtDSDNdKVtOSF1bQ0gyXVtDQEhdKFtPSF0pW0NIMl1OMltDSDJdW0NIMl1PW0NIMl1bQ0gyXTI=

> <s_epik_cmdline>
J2VwaWtfcHl0aG9uJywgJy1waCcsICc3LjAnLCAnLXRuJywgJzgnLCAnLW1hJywgJzIwMCcsICctbWV0YWxfYmluZGluZycsICctaW1hZScsICc8aW5maWxlLm1hZT4nLCAnLW9tYWUnLCAnPG91dGZpbGUubWFlPic=

> <r_lp_tautomer_probability>
1

> <r_epik_Ionization_Penalty>
1.76542

> <r_epik_Ionization_Penalty_Charging>
1.76348

> <r_epik_Ionization_Penalty_Neutral>
0.00194017

> <r_epik_State_Penalty>
1.49348

> <r_epik_Charging_Adjusted_Penalty>
3.25696

> <i_epik_Tot_Q>
2

> <i_epik_Tot_abs_Q>
2

> <r_epik_Metal_State_Penalty>
1.49349

> <b_epik_Metal_Only>
0

> <s_lp_Force_Field>
OPLS_2005

> <r_lp_Energy>
28.4562

> <b_lp_Chiralities_Consistent>
1

> <s_lp_Variant>
AV-unprocessed.smi:3031-11

> <Gold.Version>
5.8.1

> <Gold.Id.Protein>
6NUR|6NUR_protein|mol2

> <Gold.PLP.Fitness>
49.8589

> <Gold.PLP.PLP>
-41.6860

> <Gold.PLP.part.hbond>
-3.9628

> <Gold.PLP.part.metal>
0.0000

> <Gold.PLP.part.buried>
-8.5214

> <Gold.PLP.part.nonpolar>
-30.0081

> <Gold.PLP.part.repulsive>
0.3101

> <Gold.PLP.ligand.clash>
0.0000

> <Gold.PLP.ligand.torsion>
1.7178

> <Gold.PLP.Chemscore.Hbond>
3.8207

> <Gold.PLP.Chemscore.CHOScore>
0.0000

> <Gold.PLP.Chemscore.Metal>
0.0000

> <Gold.Chemscore.Hbonds>
donor molecule, donor type, donor heavy atom, donor atom, acceptor molecule, acceptor atom, score
      L1  H    12    35       P1  7957  0.72
      L1  H    14    48       P1 10175  2.00
      P1  H  7989  7998       L1    12  0.11
      P1  H  8011  8017       L1    12  0.85

> <Gold.PLP.Chemscore.Internal.Correction>
0.1465

> <Gold.Rescore>
     Score         DG    S(hbond)    S(metal)    S(lipo)     H(rot)  DE(clash)    DE(int)     intcor
     14.55     -16.83       2.09        0.00      97.26       2.74       0.59       1.69       ----

> <Gold.Chemscore.Fitness>
14.5528

> <Gold.Chemscore.DG>
-16.8336

> <Gold.Chemscore.ZeroCoef>
-5.4800

> <Gold.Chemscore.Hbond>
2.0949

> <Gold.Chemscore.Metal>
0.0000

> <Gold.Chemscore.Lipo>
97.2631

> <Gold.Chemscore.Internal_Hbond>
0.0000

> <Gold.Chemscore.DEClash>
0.5884

> <Gold.Chemscore.DEInternal>
1.6924

> <Gold.Chemscore.Rot>
2.7434

> <Gold.Chemscore.Internal.Correction>
   9.000000E+99

> <Gold.Chemscore.Hbonds>
donor molecule, donor type, donor heavy atom, donor atom, acceptor molecule, acceptor atom, score
      L1  H    12    35       P1  7957  0.72
      L1  H    14    48       P1 10175  0.53
      P1  H  7989  7998       L1    12  0.02
      P1  H  8011  8017       L1    12  0.14

> <Gold.Chemscore.Hbond.Weighted>
-6.9969

> <Gold.Chemscore.Metal.Weighted>
-0.0000

> <Gold.Chemscore.Lipo.Weighted>
-11.3798

> <Gold.Chemscore.Internal_Hbond.Weighted>
0.0000

> <Gold.Chemscore.DEClash.Weighted>
0.5884

> <Gold.Chemscore.DEInternal.Weighted>
1.6924

> <Gold.Chemscore.Rot.Weighted>
7.0231

> <Gold.Chemscore.Internal.Correction.Weighted>
   9.000000E+99

> <Gold.Protein.RotatedTorsions>
[ 6907 6896 6895 6894 ] final  128.11 input  -60.11 | X-H torsion
[ 7974 7965 7964 7962 ] final -155.63 input  175.53 | X-H torsion
[ 8008 7997 7996 7995 ] final -135.20 input   59.86 | X-H torsion
[ 10167 10162 10161 10158 ] final   46.34 input  -65.29 | X-H torsion
[ 10718 10713 10712 10709 ] final  -18.87 input   66.30 | X-H torsion
[ 10763 10752 10751 10750 ] final -155.30 input  -60.55 | X-H torsion
[ 11005 11000 10999 10996 ] final  -78.25 input  -57.11 | X-H torsion

> <Gold.Protein.ActiveResidues>
 VAL166  LYS551  ARG553  GLY616  TRP617  ASP618  TYR619  PRO620  LYS621  CYS622 
 ASP623  PHE694  ASN695  SER759  ASP760  ASP761  ALA762  ILE779  LEU786  VAL792 
 PHE793  MET794  SER795  GLU796  ALA797  LYS798  CYS799  TRP800  GLU811  SER814 

> <Gold.Protein.RotatedAtoms>
  152.3750  133.6468  159.6115 H   0  0  0  0  0  0  0  0  0  0  0  0  # atno 6907 bound_to 6896
  150.7697  133.9209  159.3406 H   0  0  0  0  0  0  0  0  0  0  0  0  # atno 6908 bound_to 6896
  151.7025  135.0929  160.0304 H   0  0  0  0  0  0  0  0  0  0  0  0  # atno 6909 bound_to 6896
  144.7631  140.4223  143.5962 H   0  0  0  0  0  0  0  0  0  0  0  0  # atno 7974 bound_to 7965
  155.3748  140.0490  157.3045 H   0  0  0  0  0  0  0  0  0  0  0  0  # atno 8008 bound_to 7997
  154.5112  140.2192  155.9115 H   0  0  0  0  0  0  0  0  0  0  0  0  # atno 8009 bound_to 7997
  156.1584  140.3121  155.8771 H   0  0  0  0  0  0  0  0  0  0  0  0  # atno 8010 bound_to 7997
  140.3149  144.2776  150.6193 H   0  0  0  0  0  0  0  0  0  0  0  0  # atno 10167 bound_to 10162
  156.5536  130.4708  149.6440 H   0  0  0  0  0  0  0  0  0  0  0  0  # atno 10718 bound_to 10713
  154.7797  135.3171  154.8016 H   0  0  0  0  0  0  0  0  0  0  0  0  # atno 10763 bound_to 10752
  153.8731  135.6842  153.4777 H   0  0  0  0  0  0  0  0  0  0  0  0  # atno 10764 bound_to 10752
  153.1430  135.4731  154.9461 H   0  0  0  0  0  0  0  0  0  0  0  0  # atno 10765 bound_to 10752
  141.1664  133.7055  156.7944 H   0  0  0  0  0  0  0  0  0  0  0  0  # atno 11005 bound_to 11000
  145.6556  139.1572  143.2837 LP  0  0  0  0  0  0  0  0  0  0  0  0  # atno 17320 bound_to 7965
  146.1713  140.6641  142.9232 LP  0  0  0  0  0  0  0  0  0  0  0  0  # atno 17321 bound_to 7965
  140.5535  143.2202  151.7886 LP  0  0  0  0  0  0  0  0  0  0  0  0  # atno 17342 bound_to 10162
  139.4886  144.4444  151.9727 LP  0  0  0  0  0  0  0  0  0  0  0  0  # atno 17343 bound_to 10162
  156.2862  130.7099  151.1936 LP  0  0  0  0  0  0  0  0  0  0  0  0  # atno 17370 bound_to 10713
  157.7383  131.0543  150.5305 LP  0  0  0  0  0  0  0  0  0  0  0  0  # atno 17371 bound_to 10713
  140.2302  134.8691  157.3469 LP  0  0  0  0  0  0  0  0  0  0  0  0  # atno 17394 bound_to 11000
  140.1899  134.4385  155.7722 LP  0  0  0  0  0  0  0  0  0  0  0  0  # atno 17395 bound_to 11000

$$$$
