AV-unprocessed.smi:2040|AV-procd|sdf|8288|dock1
  -GOLD-   2272010553D 1   1.00000     0.00000
 Structure written by MMmdl.
 38 39  0  0  0  0  0  0  0  0  1 V2000
  153.7854  141.7171  160.5138 C   0  0  0  0  0  0  0  0  0  0  0  0
  152.7323  142.3539  159.6556 C   0  0  0  0  0  0  0  0  0  0  0  0
  151.8457  141.7184  158.7383 C   0  0  0  0  0  0  0  0  0  0  0  0
  151.1188  142.7679  158.2461 C   0  0  0  0  0  0  0  0  0  0  0  0
  150.1123  142.7566  157.3321 N   0  0  0  0  0  0  0  0  0  0  0  0
  149.5420  141.7013  156.7249 C   0  0  0  0  0  0  0  0  0  0  0  0
  149.8556  140.5231  156.8971 O   0  0  0  0  0  0  0  0  0  0  0  0
  148.5740  142.0927  155.8838 N   0  0  0  0  0  0  0  0  0  0  0  0
  147.7479  141.2025  155.0719 C   0  0  2  0  0  0  0  0  0  0  0  0
  148.5495  140.7280  153.8471 C   0  0  0  0  0  0  0  0  0  0  0  0
  146.4549  141.9385  154.6719 C   0  0  1  0  0  0  0  0  0  0  0  0
  145.7222  142.6239  155.8292 C   0  0  0  0  0  0  0  0  0  0  0  0
  145.0199  143.8069  155.1774 C   0  0  0  0  0  0  0  0  0  0  0  0
  145.5787  143.8370  153.7538 C   0  0  0  0  0  0  0  0  0  0  0  0
  146.7448  143.0305  153.8118 O   0  0  0  0  0  0  0  0  0  0  0  0
  151.5539  143.9296  158.8439 N   0  0  0  0  0  0  0  0  0  0  0  0
  151.0934  145.2913  158.6542 C   0  0  0  0  0  0  0  0  0  0  0  0
  152.5543  143.6690  159.7132 N   0  0  0  0  0  0  0  0  0  0  0  0
  153.7578  140.6305  160.4298 H   0  0  0  0  0  0  0  0  0  0  0  0
  153.6443  141.9714  161.5646 H   0  0  0  0  0  0  0  0  0  0  0  0
  154.7823  142.0471  160.2206 H   0  0  0  0  0  0  0  0  0  0  0  0
  151.7712  140.6685  158.4991 H   0  0  0  0  0  0  0  0  0  0  0  0
  149.7591  143.6648  157.0694 H   0  0  0  0  0  0  0  0  0  0  0  0
  148.3801  143.0806  155.8090 H   0  0  0  0  0  0  0  0  0  0  0  0
  147.4723  140.3304  155.6680 H   0  0  0  0  0  0  0  0  0  0  0  0
  147.9723  140.0306  153.2402 H   0  0  0  0  0  0  0  0  0  0  0  0
  149.4626  140.2132  154.1475 H   0  0  0  0  0  0  0  0  0  0  0  0
  148.8344  141.5664  153.2107 H   0  0  0  0  0  0  0  0  0  0  0  0
  145.7735  141.2590  154.1554 H   0  0  0  0  0  0  0  0  0  0  0  0
  145.0298  141.9515  156.3365 H   0  0  0  0  0  0  0  0  0  0  0  0
  146.4352  142.9894  156.5696 H   0  0  0  0  0  0  0  0  0  0  0  0
  143.9358  143.6887  155.1715 H   0  0  0  0  0  0  0  0  0  0  0  0
  145.2541  144.7283  155.7117 H   0  0  0  0  0  0  0  0  0  0  0  0
  144.8703  143.3924  153.0530 H   0  0  0  0  0  0  0  0  0  0  0  0
  145.8081  144.8467  153.4125 H   0  0  0  0  0  0  0  0  0  0  0  0
  151.2397  145.5857  157.6148 H   0  0  0  0  0  0  0  0  0  0  0  0
  151.6463  145.9775  159.2972 H   0  0  0  0  0  0  0  0  0  0  0  0
  150.0329  145.3562  158.8980 H   0  0  0  0  0  0  0  0  0  0  0  0
  1  2  1  0  0  0  0
  1 19  1  0  0  0  0
  1 20  1  0  0  0  0
  1 21  1  0  0  0  0
  2 18  2  0  0  0  0
  2  3  1  0  0  0  0
  3  4  2  0  0  0  0
  3 22  1  0  0  0  0
  4  5  1  0  0  0  0
  4 16  1  0  0  0  0
  5  6  1  0  0  0  0
  5 23  1  0  0  0  0
  6  7  2  0  0  0  0
  6  8  1  0  0  0  0
  8  9  1  0  0  0  0
  8 24  1  0  0  0  0
  9 10  1  0  0  0  0
  9 11  1  0  0  0  0
  9 25  1  0  0  0  0
 10 26  1  0  0  0  0
 10 27  1  0  0  0  0
 10 28  1  0  0  0  0
 11 15  1  0  0  0  0
 11 12  1  0  0  0  0
 11 29  1  0  0  0  0
 12 13  1  0  0  0  0
 12 30  1  0  0  0  0
 12 31  1  0  0  0  0
 13 14  1  0  0  0  0
 13 32  1  0  0  0  0
 13 33  1  0  0  0  0
 14 15  1  0  0  0  0
 14 34  1  0  0  0  0
 14 35  1  0  0  0  0
 16 17  1  0  0  0  0
 16 18  1  0  0  0  0
 17 36  1  0  0  0  0
 17 37  1  0  0  0  0
 17 38  1  0  0  0  0
M  END
> <s_m_source_file>
AV-unprocessed.smi

> <i_m_source_file_index>
2040

> <i_lp_mmshare_version>
43012

> <i_f3d_flags>
0

> <s_epik_input>
W0NIM11jMVtjSF1jKG4objEpW0NIM10pW05IXUMoPU8pW05IXVtDQEhdKFtDSDNdKVtDQEBIXTJbQ0gyXVtDSDJdW0NIMl1PMg==

> <s_epik_cmdline>
J2VwaWtfcHl0aG9uJywgJy1waCcsICc3LjAnLCAnLXRuJywgJzgnLCAnLW1hJywgJzIwMCcsICctbWV0YWxfYmluZGluZycsICctaW1hZScsICc8aW5maWxlLm1hZT4nLCAnLW9tYWUnLCAnPG91dGZpbGUubWFlPic=

> <r_lp_tautomer_probability>
1

> <r_epik_Ionization_Penalty>
9.09088e-05

> <r_epik_Ionization_Penalty_Charging>
0

> <r_epik_Ionization_Penalty_Neutral>
9.09088e-05

> <r_epik_State_Penalty>
-0

> <r_epik_Charging_Adjusted_Penalty>
0

> <i_epik_Tot_Q>
0

> <i_epik_Tot_abs_Q>
0

> <r_epik_Metal_State_Penalty>
-0

> <b_epik_Metal_Only>
0

> <s_lp_Force_Field>
OPLS_2005

> <r_lp_Energy>
19.5885

> <b_lp_Chiralities_Consistent>
1

> <s_lp_Variant>
AV-unprocessed.smi:2040-3

> <Gold.Version>
5.8.1

> <Gold.Id.Protein>
6NUR|6NUR_protein|mol2

> <Gold.PLP.Fitness>
41.4653

> <Gold.PLP.PLP>
-36.2844

> <Gold.PLP.part.hbond>
-2.7406

> <Gold.PLP.part.metal>
0.0000

> <Gold.PLP.part.buried>
-3.4916

> <Gold.PLP.part.nonpolar>
-29.7113

> <Gold.PLP.part.repulsive>
0.3182

> <Gold.PLP.ligand.clash>
0.0000

> <Gold.PLP.ligand.torsion>
0.3354

> <Gold.PLP.Chemscore.Hbond>
1.9440

> <Gold.PLP.Chemscore.CHOScore>
0.0000

> <Gold.PLP.Chemscore.Metal>
0.0000

> <Gold.Chemscore.Hbonds>
donor molecule, donor type, donor heavy atom, donor atom, acceptor molecule, acceptor atom, score
      L1  H     5    23       P1  8028  0.93
      L1  H     8    24       P1  8028  1.00

> <Gold.PLP.Chemscore.Internal.Correction>
0.0198

> <Gold.Rescore>
     Score         DG    S(hbond)    S(metal)    S(lipo)     H(rot)  DE(clash)    DE(int)     intcor
     14.77     -17.06       1.85        0.00      73.25       1.23       0.71       1.58       ----

> <Gold.Chemscore.Fitness>
14.7674

> <Gold.Chemscore.DG>
-17.0606

> <Gold.Chemscore.ZeroCoef>
-5.4800

> <Gold.Chemscore.Hbond>
1.8470

> <Gold.Chemscore.Metal>
0.0000

> <Gold.Chemscore.Lipo>
73.2483

> <Gold.Chemscore.Internal_Hbond>
0.0000

> <Gold.Chemscore.DEClash>
0.7088

> <Gold.Chemscore.DEInternal>
1.5843

> <Gold.Chemscore.Rot>
1.2338

> <Gold.Chemscore.Internal.Correction>
   9.000000E+99

> <Gold.Chemscore.Hbonds>
donor molecule, donor type, donor heavy atom, donor atom, acceptor molecule, acceptor atom, score
      L1  H     5    23       P1  8028  0.85
      L1  H     8    24       P1  8028  0.93

> <Gold.Chemscore.Hbond.Weighted>
-6.1689

> <Gold.Chemscore.Metal.Weighted>
-0.0000

> <Gold.Chemscore.Lipo.Weighted>
-8.5700

> <Gold.Chemscore.Internal_Hbond.Weighted>
0.0000

> <Gold.Chemscore.DEClash.Weighted>
0.7088

> <Gold.Chemscore.DEInternal.Weighted>
1.5843

> <Gold.Chemscore.Rot.Weighted>
3.1584

> <Gold.Chemscore.Internal.Correction.Weighted>
   9.000000E+99

> <Gold.Protein.RotatedTorsions>
[ 6907 6896 6895 6894 ] final  -17.80 input  -60.11 | X-H torsion
[ 7974 7965 7964 7962 ] final   41.29 input  175.53 | X-H torsion
[ 8008 7997 7996 7995 ] final  111.28 input   59.86 | X-H torsion
[ 10167 10162 10161 10158 ] final -143.68 input  -65.29 | X-H torsion
[ 10718 10713 10712 10709 ] final    0.75 input   66.30 | X-H torsion
[ 10763 10752 10751 10750 ] final -138.49 input  -60.55 | X-H torsion
[ 11005 11000 10999 10996 ] final  -85.98 input  -57.11 | X-H torsion

> <Gold.Protein.ActiveResidues>
 VAL166  LYS551  ARG553  GLY616  TRP617  ASP618  TYR619  PRO620  LYS621  CYS622 
 ASP623  PHE694  ASN695  SER759  ASP760  ASP761  ALA762  ILE779  LEU786  VAL792 
 PHE793  MET794  SER795  GLU796  ALA797  LYS798  CYS799  TRP800  GLU811  SER814 

> <Gold.Protein.RotatedAtoms>
  151.2878  135.0733  159.9192 H   0  0  0  0  0  0  0  0  0  0  0  0  # atno 6907 bound_to 6896
  152.5322  133.9964  159.7884 H   0  0  0  0  0  0  0  0  0  0  0  0  # atno 6908 bound_to 6896
  151.0228  133.5810  159.2700 H   0  0  0  0  0  0  0  0  0  0  0  0  # atno 6909 bound_to 6896
  146.0835  139.5433  142.9521 H   0  0  0  0  0  0  0  0  0  0  0  0  # atno 7974 bound_to 7965
  156.2113  140.3022  155.9738 H   0  0  0  0  0  0  0  0  0  0  0  0  # atno 8008 bound_to 7997
  155.2717  140.0434  157.3024 H   0  0  0  0  0  0  0  0  0  0  0  0  # atno 8009 bound_to 7997
  154.5703  140.2346  155.8210 H   0  0  0  0  0  0  0  0  0  0  0  0  # atno 8010 bound_to 7997
  139.7971  143.7885  152.2655 H   0  0  0  0  0  0  0  0  0  0  0  0  # atno 10167 bound_to 10162
  156.8380  130.5511  149.5680 H   0  0  0  0  0  0  0  0  0  0  0  0  # atno 10718 bound_to 10713
  154.8635  135.3610  154.5394 H   0  0  0  0  0  0  0  0  0  0  0  0  # atno 10763 bound_to 10752
  153.6016  135.7012  153.5387 H   0  0  0  0  0  0  0  0  0  0  0  0  # atno 10764 bound_to 10752
  153.3286  135.4131  155.1437 H   0  0  0  0  0  0  0  0  0  0  0  0  # atno 10765 bound_to 10752
  141.1635  133.7429  156.9095 H   0  0  0  0  0  0  0  0  0  0  0  0  # atno 11005 bound_to 11000
  145.6173  141.0329  143.1934 LP  0  0  0  0  0  0  0  0  0  0  0  0  # atno 17320 bound_to 7965
  144.7309  139.7727  143.7347 LP  0  0  0  0  0  0  0  0  0  0  0  0  # atno 17321 bound_to 7965
  139.7994  144.7380  150.9845 LP  0  0  0  0  0  0  0  0  0  0  0  0  # atno 17342 bound_to 10162
  140.7820  143.4360  151.0622 LP  0  0  0  0  0  0  0  0  0  0  0  0  # atno 17343 bound_to 10162
  156.0897  130.5886  150.9710 LP  0  0  0  0  0  0  0  0  0  0  0  0  # atno 17370 bound_to 10713
  157.6371  131.0914  150.8326 LP  0  0  0  0  0  0  0  0  0  0  0  0  # atno 17371 bound_to 10713
  140.1527  134.9219  157.2613 LP  0  0  0  0  0  0  0  0  0  0  0  0  # atno 17394 bound_to 11000
  140.2704  134.3467  155.7375 LP  0  0  0  0  0  0  0  0  0  0  0  0  # atno 17395 bound_to 11000

$$$$
