AV-unprocessed.smi:1254|AV-procd|sdf|5275|dock3
  -GOLD-   22720 4393D 1   1.00000     0.00000
 Structure written by MMmdl.
 45 46  0  0  0  0  0  0  0  0  3 V2000
  149.3072  140.8806  154.6810 C   0  0  0  0  0  0  0  0  0  0  0  0
  150.0898  139.6132  154.6345 C   0  0  0  0  0  0  0  0  0  0  0  0
  149.7249  138.2989  154.5591 C   0  0  0  0  0  0  0  0  0  0  0  0
  150.9714  137.6153  154.5565 C   0  0  0  0  0  0  0  0  0  0  0  0
  151.1412  136.2863  154.4802 N   0  5  0  0  0  0  0  0  0  0  0  0
  150.3322  135.4545  155.1748 C   0  0  0  0  0  0  0  0  0  0  0  0
  149.8333  135.6731  156.2814 O   0  0  0  0  0  0  0  0  0  0  0  0
  150.0779  134.2994  154.5441 N   0  0  0  0  0  0  0  0  0  0  0  0
  149.2182  133.2297  155.0389 C   0  0  0  0  0  0  0  0  0  0  0  0
  148.7511  132.3042  153.9017 C   0  0  2  0  0  0  0  0  0  0  0  0
  147.7302  132.9937  152.9773 C   0  0  0  0  0  0  0  0  0  0  0  0
  147.2715  132.0545  151.9238 N   0  3  2  0  0  0  0  0  0  0  0  0
  146.3233  132.6585  150.9526 C   0  0  0  0  0  0  0  0  0  0  0  0
  144.8598  132.6618  151.4462 C   0  0  0  0  0  0  0  0  0  0  0  0
  143.8904  132.6620  150.2549 C   0  0  0  0  0  0  0  0  0  0  0  0
  144.5675  133.8521  152.3753 C   0  0  0  0  0  0  0  0  0  0  0  0
  146.7378  130.8143  152.5356 C   0  0  0  0  0  0  0  0  0  0  0  0
  147.7714  130.1960  153.4912 C   0  0  0  0  0  0  0  0  0  0  0  0
  148.1378  131.1540  154.4752 O   0  0  0  0  0  0  0  0  0  0  0  0
  152.0021  138.4425  154.6090 N   0  0  0  0  0  0  0  0  0  0  0  0
  151.4450  139.7257  154.6650 O   0  0  0  0  0  0  0  0  0  0  0  0
  149.0357  141.2016  153.6753 H   0  0  0  0  0  0  0  0  0  0  0  0
  149.8831  141.6799  155.1479 H   0  0  0  0  0  0  0  0  0  0  0  0
  148.3891  140.7479  155.2539 H   0  0  0  0  0  0  0  0  0  0  0  0
  148.7266  137.8904  154.5156 H   0  0  0  0  0  0  0  0  0  0  0  0
  150.5087  134.1598  153.6418 H   0  0  0  0  0  0  0  0  0  0  0  0
  149.7724  132.6595  155.7847 H   0  0  0  0  0  0  0  0  0  0  0  0
  148.3602  133.6635  155.5551 H   0  0  0  0  0  0  0  0  0  0  0  0
  149.6148  131.9971  153.3088 H   0  0  0  0  0  0  0  0  0  0  0  0
  146.8738  133.3447  153.5553 H   0  0  0  0  0  0  0  0  0  0  0  0
  148.1939  133.8707  152.5276 H   0  0  0  0  0  0  0  0  0  0  0  0
  146.6196  133.6905  150.7574 H   0  0  0  0  0  0  0  0  0  0  0  0
  146.4057  132.1338  149.9995 H   0  0  0  0  0  0  0  0  0  0  0  0
  144.6670  131.7457  152.0037 H   0  0  0  0  0  0  0  0  0  0  0  0
  144.0120  133.5570  149.6438 H   0  0  0  0  0  0  0  0  0  0  0  0
  142.8536  132.6278  150.5912 H   0  0  0  0  0  0  0  0  0  0  0  0
  144.0545  131.7959  149.6130 H   0  0  0  0  0  0  0  0  0  0  0  0
  144.7428  134.8025  151.8703 H   0  0  0  0  0  0  0  0  0  0  0  0
  145.1946  133.8275  153.2669 H   0  0  0  0  0  0  0  0  0  0  0  0
  143.5300  133.8416  152.7109 H   0  0  0  0  0  0  0  0  0  0  0  0
  145.8177  131.0405  153.0768 H   0  0  0  0  0  0  0  0  0  0  0  0
  146.4840  130.0942  151.7568 H   0  0  0  0  0  0  0  0  0  0  0  0
  147.3486  129.3231  153.9887 H   0  0  0  0  0  0  0  0  0  0  0  0
  148.6544  129.8562  152.9475 H   0  0  0  0  0  0  0  0  0  0  0  0
  148.0888  131.7805  151.3971 H   0  0  0  0  0  0  0  0  0  0  0  0
  1  2  1  0  0  0  0
  1 22  1  0  0  0  0
  1 23  1  0  0  0  0
  1 24  1  0  0  0  0
  2 21  1  0  0  0  0
  2  3  2  0  0  0  0
  3  4  1  0  0  0  0
  3 25  1  0  0  0  0
  4  5  1  0  0  0  0
  4 20  2  0  0  0  0
  5  6  1  0  0  0  0
  6  7  2  0  0  0  0
  6  8  1  0  0  0  0
  8  9  1  0  0  0  0
  8 26  1  0  0  0  0
  9 10  1  0  0  0  0
  9 27  1  0  0  0  0
  9 28  1  0  0  0  0
 10 19  1  0  0  0  0
 10 11  1  0  0  0  0
 10 29  1  0  0  0  0
 11 12  1  0  0  0  0
 11 30  1  0  0  0  0
 11 31  1  0  0  0  0
 12 13  1  0  0  0  0
 12 17  1  0  0  0  0
 12 45  1  0  0  0  0
 13 14  1  0  0  0  0
 13 32  1  0  0  0  0
 13 33  1  0  0  0  0
 14 15  1  0  0  0  0
 14 16  1  0  0  0  0
 14 34  1  0  0  0  0
 15 35  1  0  0  0  0
 15 36  1  0  0  0  0
 15 37  1  0  0  0  0
 16 38  1  0  0  0  0
 16 39  1  0  0  0  0
 16 40  1  0  0  0  0
 17 18  1  0  0  0  0
 17 41  1  0  0  0  0
 17 42  1  0  0  0  0
 18 19  1  0  0  0  0
 18 43  1  0  0  0  0
 18 44  1  0  0  0  0
 20 21  1  0  0  0  0
M  CHG  1   5  -1
M  CHG  1  12   1
M  END
> <s_m_source_file>
AV-unprocessed.smi

> <i_m_source_file_index>
1254

> <i_lp_mmshare_version>
43012

> <i_f3d_flags>
0

> <s_epik_input>
W0NIM11jMVtjSF1jKG5vMSlbTkhdQyg9TylbTkhdW0NIMl1bQ0BASF0yW0NIMl1OKFtDSDJdW0NIMl1PMilbQ0gyXVtDSF0oW0NIM10pW0NIM10=

> <s_epik_cmdline>
J2VwaWtfcHl0aG9uJywgJy1waCcsICc3LjAnLCAnLXRuJywgJzgnLCAnLW1hJywgJzIwMCcsICctbWV0YWxfYmluZGluZycsICctaW1hZScsICc8aW5maWxlLm1hZT4nLCAnLW9tYWUnLCAnPG91dGZpbGUubWFlPic=

> <r_epik_Ionization_Penalty>
6.33139

> <r_epik_Ionization_Penalty_Charging>
6.33128

> <r_epik_Ionization_Penalty_Neutral>
0.000104968

> <r_epik_State_Penalty>
6.32522

> <r_epik_Charging_Adjusted_Penalty>
12.6565

> <i_epik_Tot_Q>
0

> <i_epik_Tot_abs_Q>
2

> <r_epik_Metal_State_Penalty>
2.26285

> <b_epik_Metal_Only>
1

> <s_lp_Force_Field>
OPLS_2005

> <r_lp_Energy>
5.65212

> <b_lp_Chiralities_Consistent>
1

> <s_lp_Variant>
AV-unprocessed.smi:1254-7

> <Gold.Version>
5.8.1

> <Gold.Id.Protein>
6NUR|6NUR_protein|mol2

> <Gold.PLP.Fitness>
46.4293

> <Gold.PLP.PLP>
-36.5997

> <Gold.PLP.part.hbond>
-3.0000

> <Gold.PLP.part.metal>
0.0000

> <Gold.PLP.part.buried>
-6.3308

> <Gold.PLP.part.nonpolar>
-29.4069

> <Gold.PLP.part.repulsive>
1.1554

> <Gold.PLP.ligand.clash>
0.0000

> <Gold.PLP.ligand.torsion>
1.2135

> <Gold.PLP.Chemscore.Hbond>
4.0000

> <Gold.PLP.Chemscore.CHOScore>
0.0000

> <Gold.PLP.Chemscore.Metal>
0.0000

> <Gold.Chemscore.Hbonds>
donor molecule, donor type, donor heavy atom, donor atom, acceptor molecule, acceptor atom, score
      L1  H    12    45       P1 10747  1.00
      P1  H  7989  7998       L1    21  1.00
      P1  H 10752 10764       L1     5  2.00

> <Gold.PLP.Chemscore.Internal.Correction>
0.2565

> <Gold.Rescore>
     Score         DG    S(hbond)    S(metal)    S(lipo)     H(rot)  DE(clash)    DE(int)     intcor
     18.11     -19.47       2.79        0.00      76.91       1.69       0.16       1.19       ----

> <Gold.Chemscore.Fitness>
18.1146

> <Gold.Chemscore.DG>
-19.4655

> <Gold.Chemscore.ZeroCoef>
-5.4800

> <Gold.Chemscore.Hbond>
2.7904

> <Gold.Chemscore.Metal>
0.0000

> <Gold.Chemscore.Lipo>
76.9101

> <Gold.Chemscore.Internal_Hbond>
0.0000

> <Gold.Chemscore.DEClash>
0.1563

> <Gold.Chemscore.DEInternal>
1.1946

> <Gold.Chemscore.Rot>
1.6926

> <Gold.Chemscore.Internal.Correction>
   9.000000E+99

> <Gold.Chemscore.Hbonds>
donor molecule, donor type, donor heavy atom, donor atom, acceptor molecule, acceptor atom, score
      L1  H    12    45       P1 10747  0.99
      P1  H  7989  7998       L1    21  0.25
      P1  H 10752 10764       L1     5  0.71

> <Gold.Chemscore.Hbond.Weighted>
-9.3200

> <Gold.Chemscore.Metal.Weighted>
-0.0000

> <Gold.Chemscore.Lipo.Weighted>
-8.9985

> <Gold.Chemscore.Internal_Hbond.Weighted>
0.0000

> <Gold.Chemscore.DEClash.Weighted>
0.1563

> <Gold.Chemscore.DEInternal.Weighted>
1.1946

> <Gold.Chemscore.Rot.Weighted>
4.3330

> <Gold.Chemscore.Internal.Correction.Weighted>
   9.000000E+99

> <Gold.Protein.RotatedTorsions>
[ 6907 6896 6895 6894 ] final -157.20 input  -60.11 | X-H torsion
[ 7974 7965 7964 7962 ] final -156.14 input  175.53 | X-H torsion
[ 8008 7997 7996 7995 ] final  108.38 input   59.86 | X-H torsion
[ 10167 10162 10161 10158 ] final -155.12 input  -65.29 | X-H torsion
[ 10718 10713 10712 10709 ] final  -23.59 input   66.30 | X-H torsion
[ 10763 10752 10751 10750 ] final  -67.12 input  -60.55 | X-H torsion
[ 11005 11000 10999 10996 ] final  -25.72 input  -57.11 | X-H torsion

> <Gold.Protein.ActiveResidues>
 VAL166  LYS551  ARG553  GLY616  TRP617  ASP618  TYR619  PRO620  LYS621  CYS622 
 ASP623  PHE694  ASN695  SER759  ASP760  ASP761  ALA762  ILE779  LEU786  VAL792 
 PHE793  MET794  SER795  GLU796  ALA797  LYS798  CYS799  TRP800  GLU811  SER814 

> <Gold.Protein.RotatedAtoms>
  151.2993  133.4129  159.2638 H   0  0  0  0  0  0  0  0  0  0  0  0  # atno 6907 bound_to 6896
  151.0209  134.9469  159.8069 H   0  0  0  0  0  0  0  0  0  0  0  0  # atno 6908 bound_to 6896
  152.5324  134.2956  159.9112 H   0  0  0  0  0  0  0  0  0  0  0  0  # atno 6909 bound_to 6896
  144.7607  140.4152  143.5979 H   0  0  0  0  0  0  0  0  0  0  0  0  # atno 7974 bound_to 7965
  156.1898  140.3077  155.9310 H   0  0  0  0  0  0  0  0  0  0  0  0  # atno 8008 bound_to 7997
  155.3199  140.0455  157.3056 H   0  0  0  0  0  0  0  0  0  0  0  0  # atno 8009 bound_to 7997
  154.5439  140.2270  155.8605 H   0  0  0  0  0  0  0  0  0  0  0  0  # atno 8010 bound_to 7997
  139.6957  143.9347  152.2406 H   0  0  0  0  0  0  0  0  0  0  0  0  # atno 10167 bound_to 10162
  156.4890  130.4562  149.6767 H   0  0  0  0  0  0  0  0  0  0  0  0  # atno 10718 bound_to 10713
  154.3699  135.6097  153.5734 H   0  0  0  0  0  0  0  0  0  0  0  0  # atno 10763 bound_to 10752
  152.9790  135.5835  154.4535 H   0  0  0  0  0  0  0  0  0  0  0  0  # atno 10764 bound_to 10752
  154.4286  135.2847  155.1905 H   0  0  0  0  0  0  0  0  0  0  0  0  # atno 10765 bound_to 10752
  140.8963  133.7554  156.0486 H   0  0  0  0  0  0  0  0  0  0  0  0  # atno 11005 bound_to 11000
  145.6629  139.1585  143.2798 LP  0  0  0  0  0  0  0  0  0  0  0  0  # atno 17320 bound_to 7965
  146.1666  140.6708  142.9252 LP  0  0  0  0  0  0  0  0  0  0  0  0  # atno 17321 bound_to 7965
  139.9175  144.6820  150.8497 LP  0  0  0  0  0  0  0  0  0  0  0  0  # atno 17342 bound_to 10162
  140.7695  143.3399  151.2231 LP  0  0  0  0  0  0  0  0  0  0  0  0  # atno 17343 bound_to 10162
  156.3445  130.7400  151.2350 LP  0  0  0  0  0  0  0  0  0  0  0  0  # atno 17370 bound_to 10713
  157.7476  131.0394  150.4549 LP  0  0  0  0  0  0  0  0  0  0  0  0  # atno 17371 bound_to 10713
  140.8285  134.3206  157.5357 LP  0  0  0  0  0  0  0  0  0  0  0  0  # atno 17394 bound_to 11000
  139.8736  134.9350  156.3621 LP  0  0  0  0  0  0  0  0  0  0  0  0  # atno 17395 bound_to 11000

$$$$
