AV-unprocessed.smi:22|AV-procd|sdf|172|dock10
  -GOLD-   2262015423D 1   1.00000     0.00000
 Structure written by MMmdl.
 56 59  0  0  0  0  0  0  0  0  2 V2000
  146.1971  131.8608  149.3925 C   0  0  0  0  0  0  0  0  0  0  0  0
  145.3110  133.0310  149.6283 N   0  3  1  0  0  0  0  0  0  0  0  0
  143.8661  132.6856  149.4719 C   0  0  0  0  0  0  0  0  0  0  0  0
  143.3639  132.7137  148.0152 C   0  0  0  0  0  0  0  0  0  0  0  0
  143.5198  134.0066  147.4684 O   0  0  0  0  0  0  0  0  0  0  0  0
  145.6761  133.7423  150.8975 C   0  0  0  0  0  0  0  0  0  0  0  0
  145.7242  132.8482  152.1632 C   0  0  0  0  0  0  0  0  0  0  0  0
  146.0689  133.6617  153.4215 C   0  0  0  0  0  0  0  0  0  0  0  0
  145.1408  134.7759  153.5965 N   0  0  0  0  0  0  0  0  0  0  0  0
  145.1601  135.3388  154.8325 C   0  0  0  0  0  0  0  0  0  0  0  0
  145.0448  136.6878  154.9650 N   0  0  0  0  0  0  0  0  0  0  0  0
  145.0748  137.2537  156.1750 C   0  0  0  0  0  0  0  0  0  0  0  0
  145.2074  136.6683  157.3662 N   0  0  0  0  0  0  0  0  0  0  0  0
  145.3122  135.3143  157.2434 C   0  0  0  0  0  0  0  0  0  0  0  0
  145.3004  134.5750  156.0265 C   0  0  0  0  0  0  0  0  0  0  0  0
  145.4252  133.2176  156.2988 N   0  0  0  0  0  0  0  0  0  0  0  0
  145.5174  133.1596  157.5995 C   0  0  0  0  0  0  0  0  0  0  0  0
  145.4487  134.3720  158.2481 N   0  0  0  0  0  0  0  0  0  0  0  0
  145.5197  134.6038  159.6833 C   0  0  0  0  0  0  0  0  0  0  0  0
  146.9057  135.0951  160.1681 C   0  0  2  0  0  0  0  0  0  0  0  0
  147.9151  134.3453  159.5171 O   0  0  0  0  0  0  0  0  0  0  0  0
  147.0790  134.9520  161.6822 C   0  0  0  0  0  0  0  0  0  0  0  0
  147.0528  136.3898  162.1866 C   0  0  0  0  0  0  0  0  0  0  0  0
  147.6823  137.0995  161.1353 O   0  0  0  0  0  0  0  0  0  0  0  0
  147.1508  136.5966  159.9182 C   0  0  0  0  0  0  0  0  0  0  0  0
  145.0431  135.6730  152.4456 C   0  0  0  0  0  0  0  0  0  0  0  0
  144.6819  134.8955  151.1703 C   0  0  0  0  0  0  0  0  0  0  0  0
  145.9251  131.0309  150.0458 H   0  0  0  0  0  0  0  0  0  0  0  0
  147.2444  132.0945  149.5763 H   0  0  0  0  0  0  0  0  0  0  0  0
  146.1415  131.5193  148.3597 H   0  0  0  0  0  0  0  0  0  0  0  0
  143.6836  131.7008  149.9047 H   0  0  0  0  0  0  0  0  0  0  0  0
  143.2472  133.3944  150.0207 H   0  0  0  0  0  0  0  0  0  0  0  0
  143.8609  131.9758  147.3866 H   0  0  0  0  0  0  0  0  0  0  0  0
  142.3026  132.4646  147.9935 H   0  0  0  0  0  0  0  0  0  0  0  0
  144.4374  134.1507  147.2904 H   0  0  0  0  0  0  0  0  0  0  0  0
  146.6760  134.1613  150.7682 H   0  0  0  0  0  0  0  0  0  0  0  0
  144.7625  132.3546  152.3112 H   0  0  0  0  0  0  0  0  0  0  0  0
  146.4749  132.0646  152.0600 H   0  0  0  0  0  0  0  0  0  0  0  0
  146.0643  132.9992  154.2863 H   0  0  0  0  0  0  0  0  0  0  0  0
  147.0814  134.0594  153.3413 H   0  0  0  0  0  0  0  0  0  0  0  0
  144.9780  138.3292  156.1912 H   0  0  0  0  0  0  0  0  0  0  0  0
  145.6360  132.2225  158.1237 H   0  0  0  0  0  0  0  0  0  0  0  0
  144.7500  135.3295  159.9494 H   0  0  0  0  0  0  0  0  0  0  0  0
  145.2510  133.6768  160.1917 H   0  0  0  0  0  0  0  0  0  0  0  0
  148.4580  134.9400  159.0223 H   0  0  0  0  0  0  0  0  0  0  0  0
  146.3120  134.3353  162.1519 H   0  0  0  0  0  0  0  0  0  0  0  0
  148.0464  134.5092  161.9260 H   0  0  0  0  0  0  0  0  0  0  0  0
  146.0280  136.7439  162.3106 H   0  0  0  0  0  0  0  0  0  0  0  0
  147.5802  136.5150  163.1325 H   0  0  0  0  0  0  0  0  0  0  0  0
  147.8144  136.7991  159.0763 H   0  0  0  0  0  0  0  0  0  0  0  0
  146.2135  137.1215  159.7317 H   0  0  0  0  0  0  0  0  0  0  0  0
  144.2836  136.4342  152.6299 H   0  0  0  0  0  0  0  0  0  0  0  0
  145.9934  136.1911  152.3081 H   0  0  0  0  0  0  0  0  0  0  0  0
  144.6458  135.5977  150.3387 H   0  0  0  0  0  0  0  0  0  0  0  0
  143.6731  134.4914  151.2694 H   0  0  0  0  0  0  0  0  0  0  0  0
  145.5026  133.6898  148.8864 H   0  0  0  0  0  0  0  0  0  0  0  0
  1  2  1  0  0  0  0
  1 28  1  0  0  0  0
  1 29  1  0  0  0  0
  1 30  1  0  0  0  0
  2  3  1  0  0  0  0
  2  6  1  0  0  0  0
  2 56  1  0  0  0  0
  3  4  1  0  0  0  0
  3 31  1  0  0  0  0
  3 32  1  0  0  0  0
  4  5  1  0  0  0  0
  4 33  1  0  0  0  0
  4 34  1  0  0  0  0
  5 35  1  0  0  0  0
  6 27  1  0  0  0  0
  6  7  1  0  0  0  0
  6 36  1  0  0  0  0
  7  8  1  0  0  0  0
  7 37  1  0  0  0  0
  7 38  1  0  0  0  0
  8  9  1  0  0  0  0
  8 39  1  0  0  0  0
  8 40  1  0  0  0  0
  9 10  1  0  0  0  0
  9 26  1  0  0  0  0
 10 15  1  0  0  0  0
 10 11  2  0  0  0  0
 11 12  1  0  0  0  0
 12 13  2  0  0  0  0
 12 41  1  0  0  0  0
 13 14  1  0  0  0  0
 14 18  1  0  0  0  0
 14 15  2  0  0  0  0
 15 16  1  0  0  0  0
 16 17  2  0  0  0  0
 17 18  1  0  0  0  0
 17 42  1  0  0  0  0
 18 19  1  0  0  0  0
 19 20  1  0  0  0  0
 19 43  1  0  0  0  0
 19 44  1  0  0  0  0
 20 25  1  0  0  0  0
 20 21  1  0  0  0  0
 20 22  1  0  0  0  0
 21 45  1  0  0  0  0
 22 23  1  0  0  0  0
 22 46  1  0  0  0  0
 22 47  1  0  0  0  0
 23 24  1  0  0  0  0
 23 48  1  0  0  0  0
 23 49  1  0  0  0  0
 24 25  1  0  0  0  0
 25 50  1  0  0  0  0
 25 51  1  0  0  0  0
 26 27  1  0  0  0  0
 26 52  1  0  0  0  0
 26 53  1  0  0  0  0
 27 54  1  0  0  0  0
 27 55  1  0  0  0  0
M  CHG  1   2   1
M  END
> <s_m_source_file>
AV-unprocessed.smi

> <i_m_source_file_index>
22

> <i_lp_mmshare_version>
43012

> <i_f3d_flags>
0

> <s_epik_input>
W09IXVtDSDJdW0NIMl1OKFtDSDNdKVtDSF0xW0NIMl1bQ0gyXU4oW0NIMl1bQ0gyXTEpYyhuW2NIXW4yKWMoYzIzKW5bY0hdbjNbQ0gyXVtDQEBdNChbT0hdKVtDSDJdW0NIMl1PW0NIMl00

> <s_epik_cmdline>
J2VwaWtfcHl0aG9uJywgJy1waCcsICc3LjAnLCAnLXRuJywgJzgnLCAnLW1hJywgJzIwMCcsICctbWV0YWxfYmluZGluZycsICctaW1hZScsICc8aW5maWxlLm1hZT4nLCAnLW9tYWUnLCAnPG91dGZpbGUubWFlPic=

> <r_lp_tautomer_probability>
1

> <r_epik_Ionization_Penalty>
0.00317524

> <r_epik_Ionization_Penalty_Charging>
0.00191487

> <r_epik_Ionization_Penalty_Neutral>
0.00126037

> <r_epik_State_Penalty>
-0

> <r_epik_Charging_Adjusted_Penalty>
0.00191487

> <i_epik_Tot_Q>
1

> <i_epik_Tot_abs_Q>
1

> <r_epik_Metal_State_Penalty>
-0

> <b_epik_Metal_Only>
0

> <s_lp_Force_Field>
OPLS_2005

> <r_lp_Energy>
50.3895

> <b_lp_Chiralities_Consistent>
1

> <s_lp_Variant>
AV-unprocessed.smi:22-4

> <Gold.Version>
5.8.1

> <Gold.Id.Protein>
6NUR|6NUR_protein|mol2

> <Gold.PLP.Fitness>
47.8871

> <Gold.PLP.PLP>
-35.3397

> <Gold.PLP.part.hbond>
-6.6271

> <Gold.PLP.part.metal>
0.0000

> <Gold.PLP.part.buried>
-3.1522

> <Gold.PLP.part.nonpolar>
-25.9293

> <Gold.PLP.part.repulsive>
0.3513

> <Gold.PLP.ligand.clash>
0.0000

> <Gold.PLP.ligand.torsion>
1.2419

> <Gold.PLP.Chemscore.Hbond>
4.8400

> <Gold.PLP.Chemscore.CHOScore>
0.0000

> <Gold.PLP.Chemscore.Metal>
0.0000

> <Gold.Chemscore.Hbonds>
donor molecule, donor type, donor heavy atom, donor atom, acceptor molecule, acceptor atom, score
      L1  H     2    56       P1  7921  1.00
      L1  H     5    35       P1  7921  1.00
      P1  H  6931  6943       L1    24  0.98
      P1  H  6934  6947       L1    24  0.88
      P1  H 10192 10197       L1     5  1.00

> <Gold.PLP.Chemscore.Internal.Correction>
0.5111

> <Gold.Rescore>
     Score         DG    S(hbond)    S(metal)    S(lipo)     H(rot)  DE(clash)    DE(int)     intcor
     16.71     -19.11       3.84        0.00      88.99       3.76       0.15       2.25       ----

> <Gold.Chemscore.Fitness>
16.7146

> <Gold.Chemscore.DG>
-19.1100

> <Gold.Chemscore.ZeroCoef>
-5.4800

> <Gold.Chemscore.Hbond>
3.8440

> <Gold.Chemscore.Metal>
0.0000

> <Gold.Chemscore.Lipo>
88.9938

> <Gold.Chemscore.Internal_Hbond>
0.0000

> <Gold.Chemscore.DEClash>
0.1485

> <Gold.Chemscore.DEInternal>
2.2469

> <Gold.Chemscore.Rot>
3.7583

> <Gold.Chemscore.Internal.Correction>
   9.000000E+99

> <Gold.Chemscore.Hbonds>
donor molecule, donor type, donor heavy atom, donor atom, acceptor molecule, acceptor atom, score
      L1  H     2    56       P1  7921  0.45
      L1  H     5    35       P1  7921  0.99
      P1  H  6931  6943       L1    24  0.60
      P1  H  6934  6947       L1    24  0.20
      P1  H 10192 10197       L1     5  0.99

> <Gold.Chemscore.Hbond.Weighted>
-12.8390

> <Gold.Chemscore.Metal.Weighted>
-0.0000

> <Gold.Chemscore.Lipo.Weighted>
-10.4123

> <Gold.Chemscore.Internal_Hbond.Weighted>
0.0000

> <Gold.Chemscore.DEClash.Weighted>
0.1485

> <Gold.Chemscore.DEInternal.Weighted>
2.2469

> <Gold.Chemscore.Rot.Weighted>
9.6213

> <Gold.Chemscore.Internal.Correction.Weighted>
   9.000000E+99

> <Gold.Protein.RotatedTorsions>
[ 6907 6896 6895 6894 ] final -167.35 input  -60.11 | X-H torsion
[ 7974 7965 7964 7962 ] final   53.49 input  175.53 | X-H torsion
[ 8008 7997 7996 7995 ] final   -0.43 input   59.86 | X-H torsion
[ 10167 10162 10161 10158 ] final  179.60 input  -65.29 | X-H torsion
[ 10718 10713 10712 10709 ] final  -96.97 input   66.30 | X-H torsion
[ 10763 10752 10751 10750 ] final   78.24 input  -60.55 | X-H torsion
[ 11005 11000 10999 10996 ] final   88.74 input  -57.11 | X-H torsion

> <Gold.Protein.ActiveResidues>
 VAL166  LYS551  ARG553  GLY616  TRP617  ASP618  TYR619  PRO620  LYS621  CYS622 
 ASP623  PHE694  ASN695  SER759  ASP760  ASP761  ALA762  ILE779  LEU786  VAL792 
 PHE793  MET794  SER795  GLU796  ALA797  LYS798  CYS799  TRP800  GLU811  SER814 

> <Gold.Protein.RotatedAtoms>
  151.4581  133.3600  159.2804 H   0  0  0  0  0  0  0  0  0  0  0  0  # atno 6907 bound_to 6896
  150.9044  134.8460  159.7393 H   0  0  0  0  0  0  0  0  0  0  0  0  # atno 6908 bound_to 6896
  152.4898  134.4505  159.9625 H   0  0  0  0  0  0  0  0  0  0  0  0  # atno 6909 bound_to 6896
  145.9706  139.4145  143.0192 H   0  0  0  0  0  0  0  0  0  0  0  0  # atno 7974 bound_to 7965
  154.6582  140.2584  155.7138 H   0  0  0  0  0  0  0  0  0  0  0  0  # atno 8008 bound_to 7997
  156.2606  140.2854  156.0964 H   0  0  0  0  0  0  0  0  0  0  0  0  # atno 8009 bound_to 7997
  155.1349  140.0379  157.2774 H   0  0  0  0  0  0  0  0  0  0  0  0  # atno 8010 bound_to 7997
  139.5344  144.2541  152.0761 H   0  0  0  0  0  0  0  0  0  0  0  0  # atno 10167 bound_to 10162
  156.0073  130.5174  150.6306 H   0  0  0  0  0  0  0  0  0  0  0  0  # atno 10718 bound_to 10713
  153.0859  135.4884  154.8595 H   0  0  0  0  0  0  0  0  0  0  0  0  # atno 10763 bound_to 10752
  154.7210  135.3039  154.9050 H   0  0  0  0  0  0  0  0  0  0  0  0  # atno 10764 bound_to 10752
  153.9715  135.6800  153.4800 H   0  0  0  0  0  0  0  0  0  0  0  0  # atno 10765 bound_to 10752
  139.8890  134.8507  156.3043 H   0  0  0  0  0  0  0  0  0  0  0  0  # atno 11005 bound_to 11000
  145.7911  140.9814  143.1048 LP  0  0  0  0  0  0  0  0  0  0  0  0  # atno 17320 bound_to 7965
  144.6836  139.9684  143.7481 LP  0  0  0  0  0  0  0  0  0  0  0  0  # atno 17321 bound_to 7965
  140.2009  144.4659  150.6432 LP  0  0  0  0  0  0  0  0  0  0  0  0  # atno 17342 bound_to 10162
  140.6541  143.2233  151.6009 LP  0  0  0  0  0  0  0  0  0  0  0  0  # atno 17343 bound_to 10162
  157.4104  131.0823  151.1226 LP  0  0  0  0  0  0  0  0  0  0  0  0  # atno 17370 bound_to 10713
  157.1859  130.6330  149.5687 LP  0  0  0  0  0  0  0  0  0  0  0  0  # atno 17371 bound_to 10713
  140.9892  133.7219  156.0788 LP  0  0  0  0  0  0  0  0  0  0  0  0  # atno 17394 bound_to 11000
  140.7647  134.3900  157.5519 LP  0  0  0  0  0  0  0  0  0  0  0  0  # atno 17395 bound_to 11000

$$$$
