AV-unprocessed.smi:3218|AV-procd|sdf|12294|dock10
  -GOLD-   2272018133D 1   1.00000     0.00000
 Structure written by MMmdl.
 37 38  0  0  0  0  0  0  0  0  1 V2000
  150.6163  136.0448  154.7188 C   0  0  0  0  0  0  0  0  0  0  0  0
  150.5375  137.5443  154.7242 C   0  0  0  0  0  0  0  0  0  0  0  0
  151.6152  138.4751  154.7049 C   0  0  0  0  0  0  0  0  0  0  0  0
  151.2085  139.7339  154.7211 N   0  0  0  0  0  0  0  0  0  0  0  0
  149.8615  139.6518  154.7483 N   0  0  0  0  0  0  0  0  0  0  0  0
  149.0664  140.8635  154.7805 C   0  0  0  0  0  0  0  0  0  0  0  0
  149.0201  141.4634  156.1920 C   0  0  0  0  0  0  0  0  0  0  0  0
  150.2324  142.2254  156.4412 N   0  0  0  0  0  0  0  0  0  0  0  0
  150.4962  142.2789  157.8691 C   0  0  0  0  0  0  0  0  0  0  0  0
  151.9660  142.6552  158.1087 C   0  0  0  0  0  0  0  0  0  0  0  0
  152.2040  142.9807  159.5114 N   0  0  0  0  0  0  0  0  0  0  0  0
  152.9986  142.1030  160.3541 C   0  0  0  0  0  0  0  0  0  0  0  0
  152.8208  142.6528  161.7766 C   0  0  0  0  0  0  0  0  0  0  0  0
  152.2292  144.0565  161.6074 C   0  0  0  0  0  0  0  0  0  0  0  0
  151.7773  144.0725  160.1569 C   0  0  0  0  0  0  0  0  0  0  0  0
  151.1079  144.9856  159.6756 O   0  0  0  0  0  0  0  0  0  0  0  0
  149.4291  138.3428  154.7522 C   0  0  0  0  0  0  0  0  0  0  0  0
  151.4401  135.6865  154.1012 H   0  0  0  0  0  0  0  0  0  0  0  0
  149.7037  135.5924  154.3300 H   0  0  0  0  0  0  0  0  0  0  0  0
  150.7704  135.6483  155.7223 H   0  0  0  0  0  0  0  0  0  0  0  0
  152.6761  138.2738  154.6815 H   0  0  0  0  0  0  0  0  0  0  0  0
  149.4875  141.5781  154.0712 H   0  0  0  0  0  0  0  0  0  0  0  0
  148.0602  140.6252  154.4324 H   0  0  0  0  0  0  0  0  0  0  0  0
  148.1493  142.1128  156.2934 H   0  0  0  0  0  0  0  0  0  0  0  0
  148.9270  140.6701  156.9350 H   0  0  0  0  0  0  0  0  0  0  0  0
  150.1274  143.1629  156.0800 H   0  0  0  0  0  0  0  0  0  0  0  0
  149.8353  143.0115  158.3345 H   0  0  0  0  0  0  0  0  0  0  0  0
  150.2814  141.3087  158.3196 H   0  0  0  0  0  0  0  0  0  0  0  0
  152.6173  141.8305  157.8153 H   0  0  0  0  0  0  0  0  0  0  0  0
  152.2474  143.5073  157.4873 H   0  0  0  0  0  0  0  0  0  0  0  0
  152.6665  141.0670  160.2757 H   0  0  0  0  0  0  0  0  0  0  0  0
  154.0428  142.1531  160.0427 H   0  0  0  0  0  0  0  0  0  0  0  0
  152.1255  142.0246  162.3352 H   0  0  0  0  0  0  0  0  0  0  0  0
  153.7629  142.6678  162.3256 H   0  0  0  0  0  0  0  0  0  0  0  0
  151.3974  144.2398  162.2884 H   0  0  0  0  0  0  0  0  0  0  0  0
  152.9849  144.8278  161.7596 H   0  0  0  0  0  0  0  0  0  0  0  0
  148.3790  138.0907  154.7770 H   0  0  0  0  0  0  0  0  0  0  0  0
  1  2  1  0  0  0  0
  1 18  1  0  0  0  0
  1 19  1  0  0  0  0
  1 20  1  0  0  0  0
  2 17  2  0  0  0  0
  2  3  1  0  0  0  0
  3  4  2  0  0  0  0
  3 21  1  0  0  0  0
  4  5  1  0  0  0  0
  5  6  1  0  0  0  0
  5 17  1  0  0  0  0
  6  7  1  0  0  0  0
  6 22  1  0  0  0  0
  6 23  1  0  0  0  0
  7  8  1  0  0  0  0
  7 24  1  0  0  0  0
  7 25  1  0  0  0  0
  8  9  1  0  0  0  0
  8 26  1  0  0  0  0
  9 10  1  0  0  0  0
  9 27  1  0  0  0  0
  9 28  1  0  0  0  0
 10 11  1  0  0  0  0
 10 29  1  0  0  0  0
 10 30  1  0  0  0  0
 11 15  1  0  0  0  0
 11 12  1  0  0  0  0
 12 13  1  0  0  0  0
 12 31  1  0  0  0  0
 12 32  1  0  0  0  0
 13 14  1  0  0  0  0
 13 33  1  0  0  0  0
 13 34  1  0  0  0  0
 14 15  1  0  0  0  0
 14 35  1  0  0  0  0
 14 36  1  0  0  0  0
 15 16  2  0  0  0  0
 17 37  1  0  0  0  0
M  END
> <s_m_source_file>
AV-unprocessed.smi

> <i_m_source_file_index>
3218

> <i_lp_mmshare_version>
43012

> <i_f3d_flags>
0

> <s_epik_input>
W0NIM11jMVtjSF1ubihbY0hdMSlbQ0gyXVtDSDJdW05IXVtDSDJdW0NIMl1OMltDSDJdW0NIMl1bQ0gyXUMyPU8=

> <s_epik_cmdline>
J2VwaWtfcHl0aG9uJywgJy1waCcsICc3LjAnLCAnLXRuJywgJzgnLCAnLW1hJywgJzIwMCcsICctbWV0YWxfYmluZGluZycsICctaW1hZScsICc8aW5maWxlLm1hZT4nLCAnLW9tYWUnLCAnPG91dGZpbGUubWFlPic=

> <r_lp_tautomer_probability>
1

> <r_epik_Ionization_Penalty>
2.53806

> <r_epik_Ionization_Penalty_Charging>
0

> <r_epik_Ionization_Penalty_Neutral>
2.53806

> <r_epik_State_Penalty>
2.70334

> <r_epik_Charging_Adjusted_Penalty>
2.70334

> <i_epik_Tot_Q>
0

> <i_epik_Tot_abs_Q>
0

> <r_epik_Metal_State_Penalty>
2.70114

> <b_epik_Metal_Only>
0

> <s_lp_Force_Field>
OPLS_2005

> <r_lp_Energy>
17.5506

> <b_lp_Chiralities_Consistent>
1

> <s_lp_Variant>
AV-unprocessed.smi:3218-2

> <Gold.Version>
5.8.1

> <Gold.Id.Protein>
6NUR|6NUR_protein|mol2

> <Gold.PLP.Fitness>
46.9208

> <Gold.PLP.PLP>
-42.3756

> <Gold.PLP.part.hbond>
-2.0000

> <Gold.PLP.part.metal>
0.0000

> <Gold.PLP.part.buried>
-6.2170

> <Gold.PLP.part.nonpolar>
-34.6071

> <Gold.PLP.part.repulsive>
0.2043

> <Gold.PLP.ligand.clash>
0.0000

> <Gold.PLP.ligand.torsion>
0.7286

> <Gold.PLP.Chemscore.Hbond>
1.9760

> <Gold.PLP.Chemscore.CHOScore>
0.0000

> <Gold.PLP.Chemscore.Metal>
0.0000

> <Gold.Chemscore.Hbonds>
donor molecule, donor type, donor heavy atom, donor atom, acceptor molecule, acceptor atom, score
      L1  H     8    26       P1  8028  0.97
      P1  H  7989  7998       L1     4  1.00

> <Gold.PLP.Chemscore.Internal.Correction>
0.0742

> <Gold.Rescore>
     Score         DG    S(hbond)    S(metal)    S(lipo)     H(rot)  DE(clash)    DE(int)     intcor
     16.73     -17.49       1.95        0.00      89.47       1.95       0.03       0.74       ----

> <Gold.Chemscore.Fitness>
16.7262

> <Gold.Chemscore.DG>
-17.4917

> <Gold.Chemscore.ZeroCoef>
-5.4800

> <Gold.Chemscore.Hbond>
1.9541

> <Gold.Chemscore.Metal>
0.0000

> <Gold.Chemscore.Lipo>
89.4663

> <Gold.Chemscore.Internal_Hbond>
0.0000

> <Gold.Chemscore.DEClash>
0.0285

> <Gold.Chemscore.DEInternal>
0.7371

> <Gold.Chemscore.Rot>
1.9463

> <Gold.Chemscore.Internal.Correction>
   9.000000E+99

> <Gold.Chemscore.Hbonds>
donor molecule, donor type, donor heavy atom, donor atom, acceptor molecule, acceptor atom, score
      L1  H     8    26       P1  8028  0.86
      P1  H  7989  7998       L1     4  0.65

> <Gold.Chemscore.Hbond.Weighted>
-6.5266

> <Gold.Chemscore.Metal.Weighted>
-0.0000

> <Gold.Chemscore.Lipo.Weighted>
-10.4676

> <Gold.Chemscore.Internal_Hbond.Weighted>
0.0000

> <Gold.Chemscore.DEClash.Weighted>
0.0285

> <Gold.Chemscore.DEInternal.Weighted>
0.7371

> <Gold.Chemscore.Rot.Weighted>
4.9824

> <Gold.Chemscore.Internal.Correction.Weighted>
   9.000000E+99

> <Gold.Protein.RotatedTorsions>
[ 6907 6896 6895 6894 ] final    1.12 input  -60.11 | X-H torsion
[ 7974 7965 7964 7962 ] final -173.18 input  175.53 | X-H torsion
[ 8008 7997 7996 7995 ] final   49.56 input   59.86 | X-H torsion
[ 10167 10162 10161 10158 ] final   62.92 input  -65.29 | X-H torsion
[ 10718 10713 10712 10709 ] final  112.24 input   66.30 | X-H torsion
[ 10763 10752 10751 10750 ] final  -42.02 input  -60.55 | X-H torsion
[ 11005 11000 10999 10996 ] final   86.90 input  -57.11 | X-H torsion

> <Gold.Protein.ActiveResidues>
 VAL166  LYS551  ARG553  GLY616  TRP617  ASP618  TYR619  PRO620  LYS621  CYS622 
 ASP623  PHE694  ASN695  SER759  ASP760  ASP761  ALA762  ILE779  LEU786  VAL792 
 PHE793  MET794  SER795  GLU796  ALA797  LYS798  CYS799  TRP800  GLU811  SER814 

> <Gold.Protein.RotatedAtoms>
  151.5874  135.1055  160.0030 H   0  0  0  0  0  0  0  0  0  0  0  0  # atno 6907 bound_to 6896
  152.4323  133.7296  159.6590 H   0  0  0  0  0  0  0  0  0  0  0  0  # atno 6908 bound_to 6896
  150.8217  133.8171  159.3159 H   0  0  0  0  0  0  0  0  0  0  0  0  # atno 6909 bound_to 6896
  144.7140  140.1661  143.6372 H   0  0  0  0  0  0  0  0  0  0  0  0  # atno 7974 bound_to 7965
  155.4042  140.3439  155.4259 H   0  0  0  0  0  0  0  0  0  0  0  0  # atno 8008 bound_to 7997
  156.1486  140.1564  156.8838 H   0  0  0  0  0  0  0  0  0  0  0  0  # atno 8009 bound_to 7997
  154.5032  140.0809  156.7822 H   0  0  0  0  0  0  0  0  0  0  0  0  # atno 8010 bound_to 7997
  140.1387  144.4574  150.6823 H   0  0  0  0  0  0  0  0  0  0  0  0  # atno 10167 bound_to 10162
  157.6403  131.0964  150.6867 H   0  0  0  0  0  0  0  0  0  0  0  0  # atno 10718 bound_to 10713
  153.9721  135.6727  153.4747 H   0  0  0  0  0  0  0  0  0  0  0  0  # atno 10763 bound_to 10752
  153.0788  135.4934  154.8456 H   0  0  0  0  0  0  0  0  0  0  0  0  # atno 10764 bound_to 10752
  154.7213  135.3118  154.9004 H   0  0  0  0  0  0  0  0  0  0  0  0  # atno 10765 bound_to 10752
  139.8933  134.8386  156.2785 H   0  0  0  0  0  0  0  0  0  0  0  0  # atno 11005 bound_to 11000
  145.8986  139.2417  143.1507 LP  0  0  0  0  0  0  0  0  0  0  0  0  # atno 17320 bound_to 7965
  145.9832  140.8665  143.0103 LP  0  0  0  0  0  0  0  0  0  0  0  0  # atno 17321 bound_to 7965
  140.6773  143.2311  151.5473 LP  0  0  0  0  0  0  0  0  0  0  0  0  # atno 17342 bound_to 10162
  139.5483  144.2463  152.1483 LP  0  0  0  0  0  0  0  0  0  0  0  0  # atno 17343 bound_to 10162
  156.7192  130.4675  149.5527 LP  0  0  0  0  0  0  0  0  0  0  0  0  # atno 17370 bound_to 10713
  156.1677  130.6416  151.0799 LP  0  0  0  0  0  0  0  0  0  0  0  0  # atno 17371 bound_to 10713
  141.0054  133.7126  156.1027 LP  0  0  0  0  0  0  0  0  0  0  0  0  # atno 17394 bound_to 11000
  140.7440  134.4118  157.5551 LP  0  0  0  0  0  0  0  0  0  0  0  0  # atno 17395 bound_to 11000

$$$$
