AV-unprocessed.smi:1878|AV-procd|sdf|7628|dock2
  -GOLD-   22720 9353D 1   1.00000     0.00000
 Structure written by MMmdl.
 34 35  0  0  0  0  0  0  0  0  2 V2000
  153.6455  137.9170  162.5417 O   0  0  0  0  0  0  0  0  0  0  0  0
  154.7859  137.8586  162.0764 C   0  0  0  0  0  0  0  0  0  0  0  0
  155.5032  136.7361  162.2095 N   0  0  0  0  0  0  0  0  0  0  0  0
  155.0471  135.5257  162.8821 C   0  0  0  0  0  0  0  0  0  0  0  0
  155.1258  135.6742  164.4080 C   0  0  0  0  0  0  0  0  0  0  0  0
  154.3296  136.6701  164.7951 F   0  0  0  0  0  0  0  0  0  0  0  0
  154.7266  134.5510  165.0052 F   0  0  0  0  0  0  0  0  0  0  0  0
  156.3738  135.9533  164.7848 F   0  0  0  0  0  0  0  0  0  0  0  0
  155.4331  138.8449  161.4134 N   0  5  0  0  0  0  0  0  0  0  0  0
  154.7965  139.9894  161.1197 C   0  0  0  0  0  0  0  0  0  0  0  0
  154.6377  141.0156  162.0755 C   0  0  0  0  0  0  0  0  0  0  0  0
  153.9669  142.2026  161.7255 C   0  0  0  0  0  0  0  0  0  0  0  0
  153.4694  142.3452  160.4098 C   0  0  0  0  0  0  0  0  0  0  0  0
  152.7872  143.5131  160.0141 N   0  0  0  0  0  0  0  0  0  0  0  0
  152.1488  144.3935  160.9799 C   0  0  0  0  0  0  0  0  0  0  0  0
  151.4300  145.4407  160.1306 C   0  0  0  0  0  0  0  0  0  0  0  0
  151.0351  144.6589  158.8776 C   0  0  0  0  0  0  0  0  0  0  0  0
  152.1619  143.6336  158.7046 C   0  0  0  0  0  0  0  0  0  0  0  0
  153.6158  141.3669  159.4864 N   0  0  0  0  0  0  0  0  0  0  0  0
  154.2599  140.2332  159.8360 C   0  0  0  0  0  0  0  0  0  0  0  0
  156.4331  136.7226  161.8168 H   0  0  0  0  0  0  0  0  0  0  0  0
  154.0200  135.3146  162.5808 H   0  0  0  0  0  0  0  0  0  0  0  0
  155.6568  134.6797  162.5608 H   0  0  0  0  0  0  0  0  0  0  0  0
  155.0233  140.8932  163.0773 H   0  0  0  0  0  0  0  0  0  0  0  0
  153.8388  142.9754  162.4682 H   0  0  0  0  0  0  0  0  0  0  0  0
  151.4343  143.8235  161.5755 H   0  0  0  0  0  0  0  0  0  0  0  0
  152.8757  144.8494  161.6530 H   0  0  0  0  0  0  0  0  0  0  0  0
  150.5784  145.8900  160.6417 H   0  0  0  0  0  0  0  0  0  0  0  0
  152.1239  146.2386  159.8630 H   0  0  0  0  0  0  0  0  0  0  0  0
  150.0932  144.1388  159.0570 H   0  0  0  0  0  0  0  0  0  0  0  0
  150.9044  145.2954  158.0021 H   0  0  0  0  0  0  0  0  0  0  0  0
  152.9055  143.9919  157.9923 H   0  0  0  0  0  0  0  0  0  0  0  0
  151.7702  142.6820  158.3441 H   0  0  0  0  0  0  0  0  0  0  0  0
  154.3484  139.4893  159.0575 H   0  0  0  0  0  0  0  0  0  0  0  0
  1  2  2  0  0  0  0
  2  3  1  0  0  0  0
  2  9  1  0  0  0  0
  3  4  1  0  0  0  0
  3 21  1  0  0  0  0
  4  5  1  0  0  0  0
  4 22  1  0  0  0  0
  4 23  1  0  0  0  0
  5  6  1  0  0  0  0
  5  7  1  0  0  0  0
  5  8  1  0  0  0  0
  9 10  1  0  0  0  0
 10 20  1  0  0  0  0
 10 11  2  0  0  0  0
 11 12  1  0  0  0  0
 11 24  1  0  0  0  0
 12 13  2  0  0  0  0
 12 25  1  0  0  0  0
 13 14  1  0  0  0  0
 13 19  1  0  0  0  0
 14 18  1  0  0  0  0
 14 15  1  0  0  0  0
 15 16  1  0  0  0  0
 15 26  1  0  0  0  0
 15 27  1  0  0  0  0
 16 17  1  0  0  0  0
 16 28  1  0  0  0  0
 16 29  1  0  0  0  0
 17 18  1  0  0  0  0
 17 30  1  0  0  0  0
 17 31  1  0  0  0  0
 18 32  1  0  0  0  0
 18 33  1  0  0  0  0
 19 20  2  0  0  0  0
 20 34  1  0  0  0  0
M  CHG  1   9  -1
M  END
> <s_m_source_file>
AV-unprocessed.smi

> <i_m_source_file_index>
1878

> <i_lp_mmshare_version>
43012

> <i_f3d_flags>
0

> <s_epik_input>
RkMoRikoRilbQ0gyXVtOSF1DKD1PKVtOSF1jMVtjSF1bY0hdYyhuW2NIXTEpTjJbQ0gyXVtDSDJdW0NIMl1bQ0gyXTI=

> <s_epik_cmdline>
J2VwaWtfcHl0aG9uJywgJy1waCcsICc3LjAnLCAnLXRuJywgJzgnLCAnLW1hJywgJzIwMCcsICctbWV0YWxfYmluZGluZycsICctaW1hZScsICc8aW5maWxlLm1hZT4nLCAnLW9tYWUnLCAnPG91dGZpbGUubWFlPic=

> <r_lp_tautomer_probability>
1

> <r_epik_Ionization_Penalty>
8.41125

> <r_epik_Ionization_Penalty_Charging>
6.79601

> <r_epik_Ionization_Penalty_Neutral>
1.61524

> <r_epik_State_Penalty>
6.86553

> <r_epik_Charging_Adjusted_Penalty>
13.6615

> <i_epik_Tot_Q>
-1

> <i_epik_Tot_abs_Q>
1

> <r_epik_Metal_State_Penalty>
2.85642

> <b_epik_Metal_Only>
1

> <s_lp_Force_Field>
OPLS_2005

> <r_lp_Energy>
22.1987

> <b_lp_Chiralities_Consistent>
1

> <s_lp_Variant>
AV-unprocessed.smi:1878-3

> <Gold.Version>
5.8.1

> <Gold.Id.Protein>
6NUR|6NUR_protein|mol2

> <Gold.PLP.Fitness>
45.3826

> <Gold.PLP.PLP>
-46.5682

> <Gold.PLP.part.hbond>
0.0000

> <Gold.PLP.part.metal>
0.0000

> <Gold.PLP.part.buried>
-2.5804

> <Gold.PLP.part.nonpolar>
-43.4295

> <Gold.PLP.part.repulsive>
0.0000

> <Gold.PLP.ligand.clash>
0.0000

> <Gold.PLP.ligand.torsion>
0.9740

> <Gold.PLP.Chemscore.Hbond>
0.0000

> <Gold.PLP.Chemscore.CHOScore>
0.0000

> <Gold.PLP.Chemscore.Metal>
0.0000

> <Gold.PLP.Chemscore.Internal.Correction>
0.7625

> <Gold.Rescore>
     Score         DG    S(hbond)    S(metal)    S(lipo)     H(rot)  DE(clash)    DE(int)     intcor
     11.68     -14.27       0.00        0.00      97.02       1.00       0.19       2.40       ----

> <Gold.Chemscore.Fitness>
11.6816

> <Gold.Chemscore.DG>
-14.2717

> <Gold.Chemscore.ZeroCoef>
-5.4800

> <Gold.Chemscore.Hbond>
0.0000

> <Gold.Chemscore.Metal>
0.0000

> <Gold.Chemscore.Lipo>
97.0227

> <Gold.Chemscore.Internal_Hbond>
0.0000

> <Gold.Chemscore.DEClash>
0.1921

> <Gold.Chemscore.DEInternal>
2.3980

> <Gold.Chemscore.Rot>
1.0000

> <Gold.Chemscore.Internal.Correction>
   9.000000E+99

> <Gold.Chemscore.Hbond.Weighted>
-0.0000

> <Gold.Chemscore.Metal.Weighted>
-0.0000

> <Gold.Chemscore.Lipo.Weighted>
-11.3517

> <Gold.Chemscore.Internal_Hbond.Weighted>
0.0000

> <Gold.Chemscore.DEClash.Weighted>
0.1921

> <Gold.Chemscore.DEInternal.Weighted>
2.3980

> <Gold.Chemscore.Rot.Weighted>
2.5600

> <Gold.Chemscore.Internal.Correction.Weighted>
   9.000000E+99

> <Gold.Protein.RotatedTorsions>
[ 6907 6896 6895 6894 ] final  -49.43 input  -60.11 | X-H torsion
[ 7974 7965 7964 7962 ] final  -94.93 input  175.53 | X-H torsion
[ 8008 7997 7996 7995 ] final  178.00 input   59.86 | X-H torsion
[ 10167 10162 10161 10158 ] final  146.42 input  -65.29 | X-H torsion
[ 10718 10713 10712 10709 ] final -132.28 input   66.30 | X-H torsion
[ 10763 10752 10751 10750 ] final -165.50 input  -60.55 | X-H torsion
[ 11005 11000 10999 10996 ] final   37.91 input  -57.11 | X-H torsion

> <Gold.Protein.ActiveResidues>
 VAL166  LYS551  ARG553  GLY616  TRP617  ASP618  TYR619  PRO620  LYS621  CYS622 
 ASP623  PHE694  ASN695  SER759  ASP760  ASP761  ALA762  ILE779  LEU786  VAL792 
 PHE793  MET794  SER795  GLU796  ALA797  LYS798  CYS799  TRP800  GLU811  SER814 

> <Gold.Protein.RotatedAtoms>
  150.8806  134.8196  159.7221 H   0  0  0  0  0  0  0  0  0  0  0  0  # atno 6907 bound_to 6896
  152.4775  134.4802  159.9673 H   0  0  0  0  0  0  0  0  0  0  0  0  # atno 6908 bound_to 6896
  151.4877  133.3493  159.2884 H   0  0  0  0  0  0  0  0  0  0  0  0  # atno 6909 bound_to 6896
  145.3668  140.9500  143.2470 H   0  0  0  0  0  0  0  0  0  0  0  0  # atno 7974 bound_to 7965
  156.0595  140.1344  156.9958 H   0  0  0  0  0  0  0  0  0  0  0  0  # atno 8008 bound_to 7997
  154.4474  140.0994  156.6566 H   0  0  0  0  0  0  0  0  0  0  0  0  # atno 8009 bound_to 7997
  155.5400  140.3460  155.4447 H   0  0  0  0  0  0  0  0  0  0  0  0  # atno 8010 bound_to 7997
  139.4907  144.5830  151.6833 H   0  0  0  0  0  0  0  0  0  0  0  0  # atno 10167 bound_to 10162
  156.2330  130.7049  151.0878 H   0  0  0  0  0  0  0  0  0  0  0  0  # atno 10718 bound_to 10713
  154.6925  135.2973  154.9458 H   0  0  0  0  0  0  0  0  0  0  0  0  # atno 10763 bound_to 10752
  154.0417  135.6656  153.4795 H   0  0  0  0  0  0  0  0  0  0  0  0  # atno 10764 bound_to 10752
  153.0622  135.5109  154.8025 H   0  0  0  0  0  0  0  0  0  0  0  0  # atno 10765 bound_to 10752
  140.2178  134.3677  155.8019 H   0  0  0  0  0  0  0  0  0  0  0  0  # atno 11005 bound_to 11000
  144.8606  139.5183  143.6814 LP  0  0  0  0  0  0  0  0  0  0  0  0  # atno 17320 bound_to 7965
  146.2903  139.7120  142.9166 LP  0  0  0  0  0  0  0  0  0  0  0  0  # atno 17321 bound_to 7965
  140.5441  144.0532  150.6100 LP  0  0  0  0  0  0  0  0  0  0  0  0  # atno 17342 bound_to 10162
  140.3564  143.2933  152.0431 LP  0  0  0  0  0  0  0  0  0  0  0  0  # atno 17343 bound_to 10162
  157.7142  131.0719  150.6390 LP  0  0  0  0  0  0  0  0  0  0  0  0  # atno 17370 bound_to 10713
  156.6459  130.4471  149.5736 LP  0  0  0  0  0  0  0  0  0  0  0  0  # atno 17371 bound_to 10713
  141.2224  133.7177  156.8526 LP  0  0  0  0  0  0  0  0  0  0  0  0  # atno 17394 bound_to 11000
  140.1882  134.8985  157.3029 LP  0  0  0  0  0  0  0  0  0  0  0  0  # atno 17395 bound_to 11000

$$$$
