AV-unprocessed.smi:2793|AV-procd|sdf|10775|dock3
  -GOLD-   2272015213D 1   1.00000     0.00000
 Structure written by MMmdl.
 28 29  0  0  0  0  0  0  0  0  1 V2000
  153.2287  140.3803  157.6944 O   0  0  0  0  0  0  0  0  0  0  0  0
  152.1454  140.9495  157.5530 C   0  0  0  0  0  0  0  0  0  0  0  0
  151.2111  140.5844  156.6544 N   0  0  0  0  0  0  0  0  0  0  0  0
  151.2705  139.5323  155.7028 C   0  0  0  0  0  0  0  0  0  0  0  0
  152.1810  138.4893  155.9949 C   0  0  0  0  0  0  0  0  0  0  0  0
  152.3519  137.4214  155.1841 N   0  0  0  0  0  0  0  0  0  0  0  0
  151.6019  137.3890  154.0620 C   0  0  0  0  0  0  0  0  0  0  0  0
  150.6880  138.4171  153.7558 C   0  0  0  0  0  0  0  0  0  0  0  0
  150.5233  139.4822  154.5701 N   0  0  0  0  0  0  0  0  0  0  0  0
  151.7738  142.1393  158.4517 C   0  0  1  0  0  0  0  0  0  0  0  0
  152.9342  142.5902  159.3694 C   0  0  0  0  0  0  0  0  0  0  0  0
  152.5334  143.8266  160.1822 C   0  0  0  0  0  0  0  0  0  0  0  0
  152.0097  144.9178  159.2436 C   0  0  0  0  0  0  0  0  0  0  0  0
  150.8961  144.3574  158.3459 C   0  0  0  0  0  0  0  0  0  0  0  0
  151.3779  143.2308  157.6195 O   0  0  0  0  0  0  0  0  0  0  0  0
  150.3605  141.1288  156.6519 H   0  0  0  0  0  0  0  0  0  0  0  0
  152.7845  138.5102  156.8908 H   0  0  0  0  0  0  0  0  0  0  0  0
  151.7308  136.5407  153.4060 H   0  0  0  0  0  0  0  0  0  0  0  0
  150.0897  138.3858  152.8573 H   0  0  0  0  0  0  0  0  0  0  0  0
  150.9234  141.8313  159.0627 H   0  0  0  0  0  0  0  0  0  0  0  0
  153.2202  141.7863  160.0491 H   0  0  0  0  0  0  0  0  0  0  0  0
  153.8157  142.8220  158.7693 H   0  0  0  0  0  0  0  0  0  0  0  0
  151.7592  143.5578  160.9019 H   0  0  0  0  0  0  0  0  0  0  0  0
  153.3828  144.1952  160.7579 H   0  0  0  0  0  0  0  0  0  0  0  0
  151.6401  145.7665  159.8199 H   0  0  0  0  0  0  0  0  0  0  0  0
  152.8251  145.2912  158.6227 H   0  0  0  0  0  0  0  0  0  0  0  0
  150.0233  144.0759  158.9372 H   0  0  0  0  0  0  0  0  0  0  0  0
  150.5677  145.1180  157.6374 H   0  0  0  0  0  0  0  0  0  0  0  0
  1  2  2  0  0  0  0
  2  3  1  0  0  0  0
  2 10  1  0  0  0  0
  3  4  1  0  0  0  0
  3 16  1  0  0  0  0
  4  9  1  0  0  0  0
  4  5  2  0  0  0  0
  5  6  1  0  0  0  0
  5 17  1  0  0  0  0
  6  7  2  0  0  0  0
  7  8  1  0  0  0  0
  7 18  1  0  0  0  0
  8  9  2  0  0  0  0
  8 19  1  0  0  0  0
 10 15  1  0  0  0  0
 10 11  1  0  0  0  0
 10 20  1  0  0  0  0
 11 12  1  0  0  0  0
 11 21  1  0  0  0  0
 11 22  1  0  0  0  0
 12 13  1  0  0  0  0
 12 23  1  0  0  0  0
 12 24  1  0  0  0  0
 13 14  1  0  0  0  0
 13 25  1  0  0  0  0
 13 26  1  0  0  0  0
 14 15  1  0  0  0  0
 14 27  1  0  0  0  0
 14 28  1  0  0  0  0
M  END
> <s_m_source_file>
AV-unprocessed.smi

> <i_m_source_file_index>
2793

> <i_lp_mmshare_version>
43012

> <i_f3d_flags>
0

> <s_epik_input>
TzFbQ0gyXVtDSDJdW0NIMl1bQ0gyXVtDQEhdMUMoPU8pW05IXWMyW2NIXW5bY0hdW2NIXW4y

> <s_epik_cmdline>
J2VwaWtfcHl0aG9uJywgJy1waCcsICc3LjAnLCAnLXRuJywgJzgnLCAnLW1hJywgJzIwMCcsICctbWV0YWxfYmluZGluZycsICctaW1hZScsICc8aW5maWxlLm1hZT4nLCAnLW9tYWUnLCAnPG91dGZpbGUubWFlPic=

> <r_lp_tautomer_probability>
1

> <r_epik_Ionization_Penalty>
2.82919e-06

> <r_epik_Ionization_Penalty_Charging>
0

> <r_epik_Ionization_Penalty_Neutral>
2.82919e-06

> <r_epik_State_Penalty>
-0

> <r_epik_Charging_Adjusted_Penalty>
0

> <i_epik_Tot_Q>
0

> <i_epik_Tot_abs_Q>
0

> <r_epik_Metal_State_Penalty>
-0

> <b_epik_Metal_Only>
0

> <s_lp_Force_Field>
OPLS_2005

> <r_lp_Energy>
18.1635

> <b_lp_Chiralities_Consistent>
1

> <s_lp_Variant>
AV-unprocessed.smi:2793-2

> <Gold.Version>
5.8.1

> <Gold.Id.Protein>
6NUR|6NUR_protein|mol2

> <Gold.PLP.Fitness>
43.8577

> <Gold.PLP.PLP>
-29.1365

> <Gold.PLP.part.hbond>
-2.9622

> <Gold.PLP.part.metal>
0.0000

> <Gold.PLP.part.buried>
-1.2403

> <Gold.PLP.part.nonpolar>
-25.3362

> <Gold.PLP.part.repulsive>
0.3465

> <Gold.PLP.ligand.clash>
0.0039

> <Gold.PLP.ligand.torsion>
0.1950

> <Gold.PLP.Chemscore.Hbond>
2.4577

> <Gold.PLP.Chemscore.CHOScore>
2.5794

> <Gold.PLP.Chemscore.Metal>
0.0000

> <Gold.Chemscore.Hbonds>
donor molecule, donor type, donor heavy atom, donor atom, acceptor molecule, acceptor atom, score
      P1  H  7989  7998       L1     9  0.68
      P1  H  7997  8008       L1     1  0.83
      P1  H 10752 10763       L1     6  0.41
      L1  C     7    18       P1  7949  1.00
      L1  C     8    19       P1  7948  0.81
      L1  C     8    19       P1  7957  1.00

> <Gold.PLP.Chemscore.Internal.Correction>
0.0039

> <Gold.Rescore>
     Score         DG    S(hbond)    S(metal)    S(lipo)     H(rot)  DE(clash)    DE(int)     intcor
     15.24     -17.41       1.47        0.00      81.91       1.00       0.13       2.04       ----

> <Gold.Chemscore.Fitness>
15.2414

> <Gold.Chemscore.DG>
-17.4105

> <Gold.Chemscore.ZeroCoef>
-5.4800

> <Gold.Chemscore.Hbond>
1.4692

> <Gold.Chemscore.Metal>
0.0000

> <Gold.Chemscore.Lipo>
81.9086

> <Gold.Chemscore.Internal_Hbond>
0.0000

> <Gold.Chemscore.DEClash>
0.1325

> <Gold.Chemscore.DEInternal>
2.0366

> <Gold.Chemscore.Rot>
1.0000

> <Gold.Chemscore.Internal.Correction>
   9.000000E+99

> <Gold.Chemscore.Hbonds>
donor molecule, donor type, donor heavy atom, donor atom, acceptor molecule, acceptor atom, score
      P1  H  7989  7998       L1     9  0.02
      P1  H  7997  8008       L1     1  0.76
      P1  H 10752 10763       L1     6  0.05

> <Gold.Chemscore.Hbond.Weighted>
-4.9072

> <Gold.Chemscore.Metal.Weighted>
-0.0000

> <Gold.Chemscore.Lipo.Weighted>
-9.5833

> <Gold.Chemscore.Internal_Hbond.Weighted>
0.0000

> <Gold.Chemscore.DEClash.Weighted>
0.1325

> <Gold.Chemscore.DEInternal.Weighted>
2.0366

> <Gold.Chemscore.Rot.Weighted>
2.5600

> <Gold.Chemscore.Internal.Correction.Weighted>
   9.000000E+99

> <Gold.Protein.RotatedTorsions>
[ 6907 6896 6895 6894 ] final -171.11 input  -60.11 | X-H torsion
[ 7974 7965 7964 7962 ] final -102.56 input  175.53 | X-H torsion
[ 8008 7997 7996 7995 ] final  -76.30 input   59.86 | X-H torsion
[ 10167 10162 10161 10158 ] final   96.66 input  -65.29 | X-H torsion
[ 10718 10713 10712 10709 ] final   19.48 input   66.30 | X-H torsion
[ 10763 10752 10751 10750 ] final   83.08 input  -60.55 | X-H torsion
[ 11005 11000 10999 10996 ] final  167.02 input  -57.11 | X-H torsion

> <Gold.Protein.ActiveResidues>
 VAL166  LYS551  ARG553  GLY616  TRP617  ASP618  TYR619  PRO620  LYS621  CYS622 
 ASP623  PHE694  ASN695  SER759  ASP760  ASP761  ALA762  ILE779  LEU786  VAL792 
 PHE793  MET794  SER795  GLU796  ALA797  LYS798  CYS799  TRP800  GLU811  SER814 

> <Gold.Protein.RotatedAtoms>
  151.5186  133.3471  159.2897 H   0  0  0  0  0  0  0  0  0  0  0  0  # atno 6907 bound_to 6896
  150.8667  134.8034  159.7135 H   0  0  0  0  0  0  0  0  0  0  0  0  # atno 6908 bound_to 6896
  152.4669  134.5063  159.9792 H   0  0  0  0  0  0  0  0  0  0  0  0  # atno 6909 bound_to 6896
  145.2672  140.9287  143.3007 H   0  0  0  0  0  0  0  0  0  0  0  0  # atno 7974 bound_to 7965
  154.5493  140.0729  156.8641 H   0  0  0  0  0  0  0  0  0  0  0  0  # atno 8008 bound_to 7997
  155.3024  140.3385  155.4229 H   0  0  0  0  0  0  0  0  0  0  0  0  # atno 8009 bound_to 7997
  156.1947  140.1699  156.8008 H   0  0  0  0  0  0  0  0  0  0  0  0  # atno 8010 bound_to 7997
  139.7873  144.6865  150.9940 H   0  0  0  0  0  0  0  0  0  0  0  0  # atno 10167 bound_to 10162
  157.1110  130.6509  149.5897 H   0  0  0  0  0  0  0  0  0  0  0  0  # atno 10718 bound_to 10713
  153.1259  135.4704  154.9271 H   0  0  0  0  0  0  0  0  0  0  0  0  # atno 10763 bound_to 10752
  154.7619  135.3134  154.8363 H   0  0  0  0  0  0  0  0  0  0  0  0  # atno 10764 bound_to 10752
  153.8916  135.6884  153.4814 H   0  0  0  0  0  0  0  0  0  0  0  0  # atno 10765 bound_to 10752
  140.2725  134.7815  157.3688 H   0  0  0  0  0  0  0  0  0  0  0  0  # atno 11005 bound_to 11000
  144.9367  139.4236  143.6469 LP  0  0  0  0  0  0  0  0  0  0  0  0  # atno 17320 bound_to 7965
  146.3257  139.8305  142.8909 LP  0  0  0  0  0  0  0  0  0  0  0  0  # atno 17321 bound_to 7965
  140.7820  143.4418  151.0541 LP  0  0  0  0  0  0  0  0  0  0  0  0  # atno 17342 bound_to 10162
  139.8096  143.7969  152.3170 LP  0  0  0  0  0  0  0  0  0  0  0  0  # atno 17343 bound_to 10162
  155.9850  130.4878  150.7012 LP  0  0  0  0  0  0  0  0  0  0  0  0  # atno 17370 bound_to 10713
  157.4559  131.0878  151.0797 LP  0  0  0  0  0  0  0  0  0  0  0  0  # atno 17371 bound_to 10713
  140.1360  134.5034  155.8068 LP  0  0  0  0  0  0  0  0  0  0  0  0  # atno 17394 bound_to 11000
  141.2175  133.6807  156.7124 LP  0  0  0  0  0  0  0  0  0  0  0  0  # atno 17395 bound_to 11000

$$$$
