AV-unprocessed.smi:3116|AV-procd|sdf|11867|dock8
  -GOLD-   2272017253D 1   1.00000     0.00000
 Structure written by MMmdl.
 34 34  0  0  0  0  0  0  0  0  2 V2000
  148.6553  141.3124  155.8675 C   0  0  0  0  0  0  0  0  0  0  0  0
  150.1027  141.5474  155.4116 C   0  0  1  0  0  0  0  0  0  0  0  0
  150.7086  142.6363  156.2143 N   0  3  0  0  0  0  0  0  0  0  0  0
  150.9674  142.3248  157.6423 C   0  0  2  0  0  0  0  0  0  0  0  0
  149.6581  142.5124  158.4274 C   0  0  0  0  0  0  0  0  0  0  0  0
  152.1218  143.2073  158.1914 C   0  0  1  0  0  0  0  0  0  0  0  0
  151.7326  144.6904  158.3453 C   0  0  0  0  0  0  0  0  0  0  0  0
  152.6359  142.6967  159.4575 N   0  0  0  0  0  0  0  0  0  0  0  0
  152.6567  143.3267  160.6851 C   0  0  0  0  0  0  0  0  0  0  0  0
  153.2430  142.4720  161.5737 C   0  0  0  0  0  0  0  0  0  0  0  0
  153.5480  141.3253  160.7893 C   0  0  0  0  0  0  0  0  0  0  0  0
  153.1853  141.4629  159.5243 N   0  0  0  0  0  0  0  0  0  0  0  0
  150.9107  140.2469  155.5217 C   0  0  0  0  0  0  0  0  0  0  0  0
  150.7312  139.5100  156.6209 N   0  0  0  0  0  0  0  0  0  0  0  0
  151.6955  139.9171  154.6343 O   0  0  0  0  0  0  0  0  0  0  0  0
  148.1748  140.5315  155.2766 H   0  0  0  0  0  0  0  0  0  0  0  0
  148.0596  142.2188  155.7526 H   0  0  0  0  0  0  0  0  0  0  0  0
  148.6069  141.0143  156.9158 H   0  0  0  0  0  0  0  0  0  0  0  0
  150.0734  141.8575  154.3667 H   0  0  0  0  0  0  0  0  0  0  0  0
  151.5924  142.8831  155.7932 H   0  0  0  0  0  0  0  0  0  0  0  0
  151.2525  141.2756  157.7376 H   0  0  0  0  0  0  0  0  0  0  0  0
  149.7562  142.1819  159.4611 H   0  0  0  0  0  0  0  0  0  0  0  0
  148.8492  141.9289  157.9865 H   0  0  0  0  0  0  0  0  0  0  0  0
  149.3455  143.5570  158.4362 H   0  0  0  0  0  0  0  0  0  0  0  0
  152.9469  143.1626  157.4784 H   0  0  0  0  0  0  0  0  0  0  0  0
  151.5246  145.1546  157.3819 H   0  0  0  0  0  0  0  0  0  0  0  0
  152.5418  145.2609  158.8026 H   0  0  0  0  0  0  0  0  0  0  0  0
  150.8479  144.8102  158.9715 H   0  0  0  0  0  0  0  0  0  0  0  0
  152.2582  144.3210  160.8239 H   0  0  0  0  0  0  0  0  0  0  0  0
  153.4234  142.6388  162.6255 H   0  0  0  0  0  0  0  0  0  0  0  0
  154.0199  140.4043  161.0986 H   0  0  0  0  0  0  0  0  0  0  0  0
  151.2362  138.6439  156.7418 H   0  0  0  0  0  0  0  0  0  0  0  0
  150.0843  139.8224  157.3312 H   0  0  0  0  0  0  0  0  0  0  0  0
  150.0950  143.4371  156.1620 H   0  0  0  0  0  0  0  0  0  0  0  0
  1  2  1  0  0  0  0
  1 16  1  0  0  0  0
  1 17  1  0  0  0  0
  1 18  1  0  0  0  0
  2  3  1  0  0  0  0
  2 13  1  0  0  0  0
  2 19  1  0  0  0  0
  3  4  1  0  0  0  0
  3 20  1  0  0  0  0
  3 34  1  0  0  0  0
  4  5  1  0  0  0  0
  4  6  1  0  0  0  0
  4 21  1  0  0  0  0
  5 22  1  0  0  0  0
  5 23  1  0  0  0  0
  5 24  1  0  0  0  0
  6  7  1  0  0  0  0
  6  8  1  0  0  0  0
  6 25  1  0  0  0  0
  7 26  1  0  0  0  0
  7 27  1  0  0  0  0
  7 28  1  0  0  0  0
  8 12  1  0  0  0  0
  8  9  1  0  0  0  0
  9 10  2  0  0  0  0
  9 29  1  0  0  0  0
 10 11  1  0  0  0  0
 10 30  1  0  0  0  0
 11 12  2  0  0  0  0
 11 31  1  0  0  0  0
 13 14  1  0  0  0  0
 13 15  2  0  0  0  0
 14 32  1  0  0  0  0
 14 33  1  0  0  0  0
M  CHG  1   3   1
M  END
> <s_m_source_file>
AV-unprocessed.smi

> <i_m_source_file_index>
3116

> <i_lp_mmshare_version>
43012

> <i_f3d_flags>
0

> <s_epik_input>
W05IMl1DKD1PKVtDQEhdKFtDSDNdKVtOSF1bQ0BIXShbQ0gzXSlbQ0BIXShbQ0gzXSluMVtjSF1bY0hdW2NIXW4x

> <s_epik_cmdline>
J2VwaWtfcHl0aG9uJywgJy1waCcsICc3LjAnLCAnLXRuJywgJzgnLCAnLW1hJywgJzIwMCcsICctbWV0YWxfYmluZGluZycsICctaW1hZScsICc8aW5maWxlLm1hZT4nLCAnLW9tYWUnLCAnPG91dGZpbGUubWFlPic=

> <r_lp_tautomer_probability>
1

> <r_epik_Ionization_Penalty>
0.15658

> <r_epik_Ionization_Penalty_Charging>
0.156568

> <r_epik_Ionization_Penalty_Neutral>
1.19778e-05

> <r_epik_State_Penalty>
0.145866

> <r_epik_Charging_Adjusted_Penalty>
0.302434

> <i_epik_Tot_Q>
1

> <i_epik_Tot_abs_Q>
1

> <r_epik_Metal_State_Penalty>
0.146064

> <b_epik_Metal_Only>
0

> <s_lp_Force_Field>
OPLS_2005

> <r_lp_Energy>
9.77371

> <b_lp_Chiralities_Consistent>
1

> <s_lp_Variant>
AV-unprocessed.smi:3116-6

> <Gold.Version>
5.8.1

> <Gold.Id.Protein>
6NUR|6NUR_protein|mol2

> <Gold.PLP.Fitness>
43.7191

> <Gold.PLP.PLP>
-36.6471

> <Gold.PLP.part.hbond>
-1.9353

> <Gold.PLP.part.metal>
0.0000

> <Gold.PLP.part.buried>
-4.5824

> <Gold.PLP.part.nonpolar>
-29.4816

> <Gold.PLP.part.repulsive>
0.2058

> <Gold.PLP.ligand.clash>
0.0060

> <Gold.PLP.ligand.torsion>
1.0006

> <Gold.PLP.Chemscore.Hbond>
3.0000

> <Gold.PLP.Chemscore.CHOScore>
0.0000

> <Gold.PLP.Chemscore.Metal>
0.0000

> <Gold.Chemscore.Hbonds>
donor molecule, donor type, donor heavy atom, donor atom, acceptor molecule, acceptor atom, score
      L1  H     3    34       P1  8028  2.00
      P1  H  7989  7998       L1    15  0.86

> <Gold.PLP.Chemscore.Internal.Correction>
0.0792

> <Gold.Rescore>
     Score         DG    S(hbond)    S(metal)    S(lipo)     H(rot)  DE(clash)    DE(int)     intcor
     14.24     -15.54       1.97        0.00      83.26       2.45       0.10       1.19       ----

> <Gold.Chemscore.Fitness>
14.2434

> <Gold.Chemscore.DG>
-15.5352

> <Gold.Chemscore.ZeroCoef>
-5.4800

> <Gold.Chemscore.Hbond>
1.9690

> <Gold.Chemscore.Metal>
0.0000

> <Gold.Chemscore.Lipo>
83.2643

> <Gold.Chemscore.Internal_Hbond>
0.0000

> <Gold.Chemscore.DEClash>
0.1027

> <Gold.Chemscore.DEInternal>
1.1891

> <Gold.Chemscore.Rot>
2.4465

> <Gold.Chemscore.Internal.Correction>
   9.000000E+99

> <Gold.Chemscore.Hbonds>
donor molecule, donor type, donor heavy atom, donor atom, acceptor molecule, acceptor atom, score
      L1  H     3    34       P1  8028  1.00
      P1  H  7989  7998       L1    15  0.67

> <Gold.Chemscore.Hbond.Weighted>
-6.5764

> <Gold.Chemscore.Metal.Weighted>
-0.0000

> <Gold.Chemscore.Lipo.Weighted>
-9.7419

> <Gold.Chemscore.Internal_Hbond.Weighted>
0.0000

> <Gold.Chemscore.DEClash.Weighted>
0.1027

> <Gold.Chemscore.DEInternal.Weighted>
1.1891

> <Gold.Chemscore.Rot.Weighted>
6.2631

> <Gold.Chemscore.Internal.Correction.Weighted>
   9.000000E+99

> <Gold.Protein.RotatedTorsions>
[ 6907 6896 6895 6894 ] final   64.22 input  -60.11 | X-H torsion
[ 7974 7965 7964 7962 ] final -141.74 input  175.53 | X-H torsion
[ 8008 7997 7996 7995 ] final -123.45 input   59.86 | X-H torsion
[ 10167 10162 10161 10158 ] final  -65.71 input  -65.29 | X-H torsion
[ 10718 10713 10712 10709 ] final   -7.06 input   66.30 | X-H torsion
[ 10763 10752 10751 10750 ] final -105.37 input  -60.55 | X-H torsion
[ 11005 11000 10999 10996 ] final -170.14 input  -57.11 | X-H torsion

> <Gold.Protein.ActiveResidues>
 VAL166  LYS551  ARG553  GLY616  TRP617  ASP618  TYR619  PRO620  LYS621  CYS622 
 ASP623  PHE694  ASN695  SER759  ASP760  ASP761  ALA762  ILE779  LEU786  VAL792 
 PHE793  MET794  SER795  GLU796  ALA797  LYS798  CYS799  TRP800  GLU811  SER814 

> <Gold.Protein.RotatedAtoms>
  152.4314  134.5770  159.9936 H   0  0  0  0  0  0  0  0  0  0  0  0  # atno 6907 bound_to 6896
  151.5892  133.3363  159.3032 H   0  0  0  0  0  0  0  0  0  0  0  0  # atno 6908 bound_to 6896
  150.8208  134.7450  159.6835 H   0  0  0  0  0  0  0  0  0  0  0  0  # atno 6909 bound_to 6896
  144.8497  140.6044  143.5398 H   0  0  0  0  0  0  0  0  0  0  0  0  # atno 7974 bound_to 7965
  155.1808  140.0410  157.2882 H   0  0  0  0  0  0  0  0  0  0  0  0  # atno 8008 bound_to 7997
  154.6205  140.2499  155.7528 H   0  0  0  0  0  0  0  0  0  0  0  0  # atno 8009 bound_to 7997
  156.2431  140.2896  156.0510 H   0  0  0  0  0  0  0  0  0  0  0  0  # atno 8010 bound_to 7997
  140.5710  143.2318  151.6539 H   0  0  0  0  0  0  0  0  0  0  0  0  # atno 10167 bound_to 10162
  156.7227  130.5156  149.5864 H   0  0  0  0  0  0  0  0  0  0  0  0  # atno 10718 bound_to 10713
  154.7942  135.4752  154.0121 H   0  0  0  0  0  0  0  0  0  0  0  0  # atno 10763 bound_to 10752
  153.1677  135.6819  153.8659 H   0  0  0  0  0  0  0  0  0  0  0  0  # atno 10764 bound_to 10752
  153.8252  135.3199  155.3392 H   0  0  0  0  0  0  0  0  0  0  0  0  # atno 10765 bound_to 10752
  140.5228  134.5692  157.5053 H   0  0  0  0  0  0  0  0  0  0  0  0  # atno 11005 bound_to 11000
  145.4526  139.1522  143.3910 LP  0  0  0  0  0  0  0  0  0  0  0  0  # atno 17320 bound_to 7965
  146.2774  140.4652  142.8790 LP  0  0  0  0  0  0  0  0  0  0  0  0  # atno 17321 bound_to 7965
  139.5117  144.3500  152.0661 LP  0  0  0  0  0  0  0  0  0  0  0  0  # atno 17342 bound_to 10162
  140.2637  144.4039  150.6176 LP  0  0  0  0  0  0  0  0  0  0  0  0  # atno 17343 bound_to 10162
  156.1583  130.6357  151.0686 LP  0  0  0  0  0  0  0  0  0  0  0  0  # atno 17370 bound_to 10713
  157.6891  131.0815  150.7158 LP  0  0  0  0  0  0  0  0  0  0  0  0  # atno 17371 bound_to 10713
  139.9596  134.7475  156.0265 LP  0  0  0  0  0  0  0  0  0  0  0  0  # atno 17394 bound_to 11000
  141.1325  133.6583  156.3502 LP  0  0  0  0  0  0  0  0  0  0  0  0  # atno 17395 bound_to 11000

$$$$
