AV-unprocessed.smi:1436|AV-procd|sdf|5861|dock7
  -GOLD-   22720 5533D 1   1.00000     0.00000
 Structure written by MMmdl.
 44 45  0  0  0  0  0  0  0  0  2 V2000
  147.7536  142.1841  154.2649 C   0  0  0  0  0  0  0  0  0  0  0  0
  148.8787  141.1967  154.3850 C   0  0  0  0  0  0  0  0  0  0  0  0
  150.0356  141.5892  154.8893 N   0  0  0  0  0  0  0  0  0  0  0  0
  150.8581  140.4588  154.8864 O   0  0  0  0  0  0  0  0  0  0  0  0
  150.1535  139.4150  154.3815 C   0  0  0  0  0  0  0  0  0  0  0  0
  150.8621  138.1044  154.3186 C   0  0  0  0  0  0  0  0  0  0  0  0
  148.8890  139.8133  154.0424 C   0  0  0  0  0  0  0  0  0  0  0  0
  147.7637  138.9885  153.4696 C   0  0  0  0  0  0  0  0  0  0  0  0
  147.3695  137.9327  154.4983 C   0  0  0  0  0  0  0  0  0  0  0  0
  146.8834  138.2742  155.5756 O   0  0  0  0  0  0  0  0  0  0  0  0
  147.5215  136.6534  154.1201 N   0  0  0  0  0  0  0  0  0  0  0  0
  147.0185  135.4819  154.8356 C   0  0  2  0  0  0  0  0  0  0  0  0
  147.6006  135.4638  156.2552 C   0  0  0  0  0  0  0  0  0  0  0  0
  147.3646  134.1882  154.0621 C   0  0  0  0  0  0  0  0  0  0  0  0
  146.8622  134.1968  152.6636 N   0  3  0  0  0  0  0  0  0  0  0  0
  146.7248  132.8409  152.0830 C   0  0  0  0  0  0  0  0  0  0  0  0
  146.2746  132.9328  150.6143 C   0  0  0  0  0  0  0  0  0  0  0  0
  145.0608  133.6691  150.5269 O   0  0  0  0  0  0  0  0  0  0  0  0
  145.2094  134.9999  151.0059 C   0  0  0  0  0  0  0  0  0  0  0  0
  145.6075  134.9672  152.4901 C   0  0  0  0  0  0  0  0  0  0  0  0
  147.0761  142.1056  155.1156 H   0  0  0  0  0  0  0  0  0  0  0  0
  147.1723  142.0104  153.3594 H   0  0  0  0  0  0  0  0  0  0  0  0
  148.1215  143.2101  154.2264 H   0  0  0  0  0  0  0  0  0  0  0  0
  150.9967  137.6917  155.3184 H   0  0  0  0  0  0  0  0  0  0  0  0
  151.8459  138.2174  153.8627 H   0  0  0  0  0  0  0  0  0  0  0  0
  150.2997  137.3807  153.7290 H   0  0  0  0  0  0  0  0  0  0  0  0
  146.8968  139.6026  153.2231 H   0  0  0  0  0  0  0  0  0  0  0  0
  148.0577  138.4940  152.5431 H   0  0  0  0  0  0  0  0  0  0  0  0
  147.9487  136.4818  153.2212 H   0  0  0  0  0  0  0  0  0  0  0  0
  145.9347  135.5535  154.9385 H   0  0  0  0  0  0  0  0  0  0  0  0
  147.2252  134.6107  156.8214 H   0  0  0  0  0  0  0  0  0  0  0  0
  147.3281  136.3664  156.8032 H   0  0  0  0  0  0  0  0  0  0  0  0
  148.6894  135.3994  156.2398 H   0  0  0  0  0  0  0  0  0  0  0  0
  148.4512  134.0892  154.0420 H   0  0  0  0  0  0  0  0  0  0  0  0
  146.9899  133.3084  154.5873 H   0  0  0  0  0  0  0  0  0  0  0  0
  147.6786  132.3149  152.1386 H   0  0  0  0  0  0  0  0  0  0  0  0
  146.0023  132.2648  152.6631 H   0  0  0  0  0  0  0  0  0  0  0  0
  147.0405  133.4073  150.0005 H   0  0  0  0  0  0  0  0  0  0  0  0
  146.1146  131.9348  150.2063 H   0  0  0  0  0  0  0  0  0  0  0  0
  145.9551  135.5341  150.4143 H   0  0  0  0  0  0  0  0  0  0  0  0
  144.2643  135.5289  150.8811 H   0  0  0  0  0  0  0  0  0  0  0  0
  144.8111  134.5125  153.0811 H   0  0  0  0  0  0  0  0  0  0  0  0
  145.7329  135.9862  152.8547 H   0  0  0  0  0  0  0  0  0  0  0  0
  147.5692  134.6642  152.1136 H   0  0  0  0  0  0  0  0  0  0  0  0
  1  2  1  0  0  0  0
  1 21  1  0  0  0  0
  1 22  1  0  0  0  0
  1 23  1  0  0  0  0
  2  7  1  0  0  0  0
  2  3  2  0  0  0  0
  3  4  1  0  0  0  0
  4  5  1  0  0  0  0
  5  6  1  0  0  0  0
  5  7  2  0  0  0  0
  6 24  1  0  0  0  0
  6 25  1  0  0  0  0
  6 26  1  0  0  0  0
  7  8  1  0  0  0  0
  8  9  1  0  0  0  0
  8 27  1  0  0  0  0
  8 28  1  0  0  0  0
  9 10  2  0  0  0  0
  9 11  1  0  0  0  0
 11 12  1  0  0  0  0
 11 29  1  0  0  0  0
 12 13  1  0  0  0  0
 12 14  1  0  0  0  0
 12 30  1  0  0  0  0
 13 31  1  0  0  0  0
 13 32  1  0  0  0  0
 13 33  1  0  0  0  0
 14 15  1  0  0  0  0
 14 34  1  0  0  0  0
 14 35  1  0  0  0  0
 15 20  1  0  0  0  0
 15 16  1  0  0  0  0
 15 44  1  0  0  0  0
 16 17  1  0  0  0  0
 16 36  1  0  0  0  0
 16 37  1  0  0  0  0
 17 18  1  0  0  0  0
 17 38  1  0  0  0  0
 17 39  1  0  0  0  0
 18 19  1  0  0  0  0
 19 20  1  0  0  0  0
 19 40  1  0  0  0  0
 19 41  1  0  0  0  0
 20 42  1  0  0  0  0
 20 43  1  0  0  0  0
M  CHG  1  15   1
M  END
> <s_m_source_file>
AV-unprocessed.smi

> <i_m_source_file_index>
1436

> <i_lp_mmshare_version>
43012

> <i_f3d_flags>
0

> <s_epik_input>
W0NIM11jMW5vYyhbQ0gzXSljMVtDSDJdQyg9TylbTkhdW0NASF0oW0NIM10pW0NIMl1OMltDSDJdW0NIMl1PW0NIMl1bQ0gyXTI=

> <s_epik_cmdline>
J2VwaWtfcHl0aG9uJywgJy1waCcsICc3LjAnLCAnLXRuJywgJzgnLCAnLW1hJywgJzIwMCcsICctbWV0YWxfYmluZGluZycsICctaW1hZScsICc8aW5maWxlLm1hZT4nLCAnLW9tYWUnLCAnPG91dGZpbGUubWFlPic=

> <r_epik_Ionization_Penalty>
0.663207

> <r_epik_Ionization_Penalty_Charging>
0.663207

> <r_epik_Ionization_Penalty_Neutral>
1.07515e-07

> <r_epik_State_Penalty>
0.682743

> <r_epik_Charging_Adjusted_Penalty>
1.34595

> <i_epik_Tot_Q>
1

> <i_epik_Tot_abs_Q>
1

> <r_epik_Metal_State_Penalty>
0.682743

> <b_epik_Metal_Only>
0

> <s_lp_Force_Field>
OPLS_2005

> <r_lp_Energy>
13.3689

> <b_lp_Chiralities_Consistent>
1

> <s_lp_Variant>
AV-unprocessed.smi:1436-3

> <Gold.Version>
5.8.1

> <Gold.Id.Protein>
6NUR|6NUR_protein|mol2

> <Gold.PLP.Fitness>
40.8410

> <Gold.PLP.PLP>
-30.2304

> <Gold.PLP.part.hbond>
-3.9867

> <Gold.PLP.part.metal>
0.0000

> <Gold.PLP.part.buried>
-0.5240

> <Gold.PLP.part.nonpolar>
-25.7802

> <Gold.PLP.part.repulsive>
0.4041

> <Gold.PLP.ligand.clash>
0.0000

> <Gold.PLP.ligand.torsion>
0.3250

> <Gold.PLP.Chemscore.Hbond>
3.7320

> <Gold.PLP.Chemscore.CHOScore>
0.0000

> <Gold.PLP.Chemscore.Metal>
0.0000

> <Gold.Chemscore.Hbonds>
donor molecule, donor type, donor heavy atom, donor atom, acceptor molecule, acceptor atom, score
      L1  H    11    29       P1  7948  1.00
      L1  H    15    44       P1  7948  1.85
      P1  H  7989  7998       L1     4  0.63

> <Gold.PLP.Chemscore.Internal.Correction>
0.0645

> <Gold.Rescore>
     Score         DG    S(hbond)    S(metal)    S(lipo)     H(rot)  DE(clash)    DE(int)     intcor
     14.58     -15.34       1.91        0.00      69.09       1.79       0.40       0.36       ----

> <Gold.Chemscore.Fitness>
14.5834

> <Gold.Chemscore.DG>
-15.3383

> <Gold.Chemscore.ZeroCoef>
-5.4800

> <Gold.Chemscore.Hbond>
1.9059

> <Gold.Chemscore.Metal>
0.0000

> <Gold.Chemscore.Lipo>
69.0949

> <Gold.Chemscore.Internal_Hbond>
0.0000

> <Gold.Chemscore.DEClash>
0.3954

> <Gold.Chemscore.DEInternal>
0.3595

> <Gold.Chemscore.Rot>
1.7936

> <Gold.Chemscore.Internal.Correction>
   9.000000E+99

> <Gold.Chemscore.Hbonds>
donor molecule, donor type, donor heavy atom, donor atom, acceptor molecule, acceptor atom, score
      L1  H    11    29       P1  7948  1.00
      L1  H    15    44       P1  7948  0.60
      P1  H  7989  7998       L1     4  0.01

> <Gold.Chemscore.Hbond.Weighted>
-6.3658

> <Gold.Chemscore.Metal.Weighted>
-0.0000

> <Gold.Chemscore.Lipo.Weighted>
-8.0841

> <Gold.Chemscore.Internal_Hbond.Weighted>
0.0000

> <Gold.Chemscore.DEClash.Weighted>
0.3954

> <Gold.Chemscore.DEInternal.Weighted>
0.3595

> <Gold.Chemscore.Rot.Weighted>
4.5916

> <Gold.Chemscore.Internal.Correction.Weighted>
   9.000000E+99

> <Gold.Protein.RotatedTorsions>
[ 6907 6896 6895 6894 ] final  115.93 input  -60.11 | X-H torsion
[ 7974 7965 7964 7962 ] final  120.03 input  175.53 | X-H torsion
[ 8008 7997 7996 7995 ] final   70.91 input   59.86 | X-H torsion
[ 10167 10162 10161 10158 ] final -178.37 input  -65.29 | X-H torsion
[ 10718 10713 10712 10709 ] final   31.88 input   66.30 | X-H torsion
[ 10763 10752 10751 10750 ] final  -75.85 input  -60.55 | X-H torsion
[ 11005 11000 10999 10996 ] final  129.47 input  -57.11 | X-H torsion

> <Gold.Protein.ActiveResidues>
 VAL166  LYS551  ARG553  GLY616  TRP617  ASP618  TYR619  PRO620  LYS621  CYS622 
 ASP623  PHE694  ASN695  SER759  ASP760  ASP761  ALA762  ILE779  LEU786  VAL792 
 PHE793  MET794  SER795  GLU796  ALA797  LYS798  CYS799  TRP800  GLU811  SER814 

> <Gold.Protein.RotatedAtoms>
  152.4710  133.8031  159.6962 H   0  0  0  0  0  0  0  0  0  0  0  0  # atno 6907 bound_to 6896
  150.8700  133.7510  159.2971 H   0  0  0  0  0  0  0  0  0  0  0  0  # atno 6908 bound_to 6896
  151.5048  135.1066  159.9890 H   0  0  0  0  0  0  0  0  0  0  0  0  # atno 6909 bound_to 6896
  145.1361  139.3297  143.4640 H   0  0  0  0  0  0  0  0  0  0  0  0  # atno 7974 bound_to 7965
  155.7459  140.3489  155.5126 H   0  0  0  0  0  0  0  0  0  0  0  0  # atno 8008 bound_to 7997
  155.9051  140.1040  157.1343 H   0  0  0  0  0  0  0  0  0  0  0  0  # atno 8009 bound_to 7997
  154.4048  140.1279  156.4472 H   0  0  0  0  0  0  0  0  0  0  0  0  # atno 8010 bound_to 7997
  139.5436  144.2297  152.0944 H   0  0  0  0  0  0  0  0  0  0  0  0  # atno 10167 bound_to 10162
  157.2781  130.7241  149.6541 H   0  0  0  0  0  0  0  0  0  0  0  0  # atno 10718 bound_to 10713
  154.4920  135.5817  153.6466 H   0  0  0  0  0  0  0  0  0  0  0  0  # atno 10763 bound_to 10752
  152.9864  135.6115  154.3112 H   0  0  0  0  0  0  0  0  0  0  0  0  # atno 10764 bound_to 10752
  154.3013  135.2846  155.2589 H   0  0  0  0  0  0  0  0  0  0  0  0  # atno 10765 bound_to 10752
  139.9617  134.9600  156.9153 H   0  0  0  0  0  0  0  0  0  0  0  0  # atno 11005 bound_to 11000
  146.3509  140.1379  142.8595 LP  0  0  0  0  0  0  0  0  0  0  0  0  # atno 17320 bound_to 7965
  145.0583  140.9069  143.4954 LP  0  0  0  0  0  0  0  0  0  0  0  0  # atno 17321 bound_to 7965
  140.1779  144.4873  150.6544 LP  0  0  0  0  0  0  0  0  0  0  0  0  # atno 17342 bound_to 10162
  140.6675  143.2273  151.5706 LP  0  0  0  0  0  0  0  0  0  0  0  0  # atno 17343 bound_to 10162
  155.9664  130.4346  150.5058 LP  0  0  0  0  0  0  0  0  0  0  0  0  # atno 17370 bound_to 10713
  157.2996  131.0642  151.2077 LP  0  0  0  0  0  0  0  0  0  0  0  0  # atno 17371 bound_to 10713
  140.5485  134.0650  155.7362 LP  0  0  0  0  0  0  0  0  0  0  0  0  # atno 17394 bound_to 11000
  141.1295  133.9327  157.2566 LP  0  0  0  0  0  0  0  0  0  0  0  0  # atno 17395 bound_to 11000

$$$$
