AV-unprocessed.smi:189|AV-procd|sdf|1483|dock3
  -GOLD-   2262019303D 1   1.00000     0.00000
 Structure written by MMmdl.
 53 57  0  0  0  0  0  0  0  0  1 V2000
  153.7308  139.6271  159.8916 C   0  0  0  0  0  0  0  0  0  0  0  0
  153.4989  141.0792  159.4393 C   0  0  2  0  0  0  0  0  0  0  0  0
  153.6342  142.0800  160.6034 C   0  0  0  0  0  0  0  0  0  0  0  0
  152.2004  142.5507  160.8597 C   0  0  1  0  0  0  0  0  0  0  0  0
  152.0376  143.9060  161.5774 C   0  0  0  0  0  0  0  0  0  0  0  0
  152.3484  145.1089  160.6738 C   0  0  0  0  0  0  0  0  0  0  0  0
  151.5504  145.0332  159.3654 C   0  0  0  0  0  0  0  0  0  0  0  0
  151.8728  143.7357  158.6137 C   0  0  0  0  0  0  0  0  0  0  0  0
  151.5600  142.4812  159.4663 C   0  0  1  0  0  0  0  0  0  0  0  0
  152.1482  141.2726  158.8987 N   0  0  0  0  0  0  0  0  0  0  0  0
  151.8051  140.8488  157.6496 C   0  0  0  0  0  0  0  0  0  0  0  0
  152.5608  139.8913  157.0481 N   0  0  0  0  0  0  0  0  0  0  0  0
  152.2593  139.4498  155.8247 C   0  0  0  0  0  0  0  0  0  0  0  0
  151.2571  139.8223  155.0290 N   0  0  0  0  0  0  0  0  0  0  0  0
  150.4891  140.7813  155.6197 C   0  0  0  0  0  0  0  0  0  0  0  0
  150.6857  141.3436  156.9149 C   0  0  0  0  0  0  0  0  0  0  0  0
  149.6869  142.2774  157.1694 N   0  0  0  0  0  0  0  0  0  0  0  0
  148.9542  142.2743  156.0903 C   0  0  0  0  0  0  0  0  0  0  0  0
  149.3684  141.4090  155.1043 N   0  0  0  0  0  0  0  0  0  0  0  0
  148.7365  141.1959  153.8105 C   0  0  0  0  0  0  0  0  0  0  0  0
  147.1894  141.1936  153.8639 C   0  0  2  0  0  0  0  0  0  0  0  0
  146.6933  140.5290  152.7157 O   0  0  0  0  0  0  0  0  0  0  0  0
  146.6075  142.6083  153.9119 C   0  0  0  0  0  0  0  0  0  0  0  0
  146.0785  142.7305  155.3357 C   0  0  0  0  0  0  0  0  0  0  0  0
  145.6194  141.4189  155.6079 O   0  0  0  0  0  0  0  0  0  0  0  0
  146.6110  140.5232  155.1268 C   0  0  0  0  0  0  0  0  0  0  0  0
  154.7288  139.5063  160.3133 H   0  0  0  0  0  0  0  0  0  0  0  0
  153.6410  138.9250  159.0633 H   0  0  0  0  0  0  0  0  0  0  0  0
  153.0095  139.3329  160.6548 H   0  0  0  0  0  0  0  0  0  0  0  0
  154.2401  141.3356  158.6812 H   0  0  0  0  0  0  0  0  0  0  0  0
  154.0929  141.6480  161.4935 H   0  0  0  0  0  0  0  0  0  0  0  0
  154.2604  142.9155  160.2902 H   0  0  0  0  0  0  0  0  0  0  0  0
  151.7264  141.7894  161.4820 H   0  0  0  0  0  0  0  0  0  0  0  0
  151.0074  143.9928  161.9251 H   0  0  0  0  0  0  0  0  0  0  0  0
  152.6616  143.9346  162.4711 H   0  0  0  0  0  0  0  0  0  0  0  0
  152.1138  146.0350  161.1992 H   0  0  0  0  0  0  0  0  0  0  0  0
  153.4156  145.1440  160.4526 H   0  0  0  0  0  0  0  0  0  0  0  0
  150.4816  145.0837  159.5769 H   0  0  0  0  0  0  0  0  0  0  0  0
  151.7856  145.8931  158.7378 H   0  0  0  0  0  0  0  0  0  0  0  0
  151.3073  143.7053  157.6822 H   0  0  0  0  0  0  0  0  0  0  0  0
  152.9255  143.7459  158.3275 H   0  0  0  0  0  0  0  0  0  0  0  0
  150.4835  142.3749  159.5917 H   0  0  0  0  0  0  0  0  0  0  0  0
  152.9156  138.6904  155.4265 H   0  0  0  0  0  0  0  0  0  0  0  0
  148.0855  142.9075  155.9830 H   0  0  0  0  0  0  0  0  0  0  0  0
  149.0840  141.9719  153.1272 H   0  0  0  0  0  0  0  0  0  0  0  0
  149.1018  140.2507  153.4064 H   0  0  0  0  0  0  0  0  0  0  0  0
  145.8137  140.8340  152.5518 H   0  0  0  0  0  0  0  0  0  0  0  0
  147.3336  143.3863  153.6732 H   0  0  0  0  0  0  0  0  0  0  0  0
  145.7751  142.7148  153.2142 H   0  0  0  0  0  0  0  0  0  0  0  0
  146.8778  142.9938  156.0304 H   0  0  0  0  0  0  0  0  0  0  0  0
  145.2803  143.4672  155.4286 H   0  0  0  0  0  0  0  0  0  0  0  0
  146.1978  139.5300  154.9464 H   0  0  0  0  0  0  0  0  0  0  0  0
  147.3682  140.4278  155.9049 H   0  0  0  0  0  0  0  0  0  0  0  0
  1  2  1  0  0  0  0
  1 27  1  0  0  0  0
  1 28  1  0  0  0  0
  1 29  1  0  0  0  0
  2 10  1  0  0  0  0
  2  3  1  0  0  0  0
  2 30  1  0  0  0  0
  3  4  1  0  0  0  0
  3 31  1  0  0  0  0
  3 32  1  0  0  0  0
  4  9  1  0  0  0  0
  4  5  1  0  0  0  0
  4 33  1  0  0  0  0
  5  6  1  0  0  0  0
  5 34  1  0  0  0  0
  5 35  1  0  0  0  0
  6  7  1  0  0  0  0
  6 36  1  0  0  0  0
  6 37  1  0  0  0  0
  7  8  1  0  0  0  0
  7 38  1  0  0  0  0
  7 39  1  0  0  0  0
  8  9  1  0  0  0  0
  8 40  1  0  0  0  0
  8 41  1  0  0  0  0
  9 10  1  0  0  0  0
  9 42  1  0  0  0  0
 10 11  1  0  0  0  0
 11 16  1  0  0  0  0
 11 12  2  0  0  0  0
 12 13  1  0  0  0  0
 13 14  2  0  0  0  0
 13 43  1  0  0  0  0
 14 15  1  0  0  0  0
 15 19  1  0  0  0  0
 15 16  2  0  0  0  0
 16 17  1  0  0  0  0
 17 18  2  0  0  0  0
 18 19  1  0  0  0  0
 18 44  1  0  0  0  0
 19 20  1  0  0  0  0
 20 21  1  0  0  0  0
 20 45  1  0  0  0  0
 20 46  1  0  0  0  0
 21 26  1  0  0  0  0
 21 22  1  0  0  0  0
 21 23  1  0  0  0  0
 22 47  1  0  0  0  0
 23 24  1  0  0  0  0
 23 48  1  0  0  0  0
 23 49  1  0  0  0  0
 24 25  1  0  0  0  0
 24 50  1  0  0  0  0
 24 51  1  0  0  0  0
 25 26  1  0  0  0  0
 26 52  1  0  0  0  0
 26 53  1  0  0  0  0
M  END
> <s_m_source_file>
AV-unprocessed.smi

> <i_m_source_file_index>
189

> <i_lp_mmshare_version>
43012

> <i_f3d_flags>
0

> <s_epik_input>
W0NIMl0xW0NIMl1bQ0gyXVtDSDJdW0NASF0oW0NASF0xMilOKFtDQEhdKFtDSDNdKVtDSDJdMiljKG5bY0hdbjMpYyhjMzQpbltjSF1uNFtDSDJdW0NAQF01KFtPSF0pW0NIMl1bQ0gyXU9bQ0gyXTU=

> <s_epik_cmdline>
J2VwaWtfcHl0aG9uJywgJy1waCcsICc3LjAnLCAnLXRuJywgJzgnLCAnLW1hJywgJzIwMCcsICctbWV0YWxfYmluZGluZycsICctaW1hZScsICc8aW5maWxlLm1hZT4nLCAnLW9tYWUnLCAnPG91dGZpbGUubWFlPic=

> <r_lp_tautomer_probability>
1

> <r_epik_Ionization_Penalty>
0.00594261

> <r_epik_Ionization_Penalty_Charging>
0

> <r_epik_Ionization_Penalty_Neutral>
0.00594261

> <r_epik_State_Penalty>
0.00429776

> <r_epik_Charging_Adjusted_Penalty>
0.00429776

> <i_epik_Tot_Q>
0

> <i_epik_Tot_abs_Q>
0

> <r_epik_Metal_State_Penalty>
-0

> <b_epik_Metal_Only>
0

> <s_lp_Force_Field>
OPLS_2005

> <r_lp_Energy>
57.6623

> <b_lp_Chiralities_Consistent>
1

> <s_lp_Variant>
AV-unprocessed.smi:189-9

> <Gold.Version>
5.8.1

> <Gold.Id.Protein>
6NUR|6NUR_protein|mol2

> <Gold.PLP.Fitness>
61.1106

> <Gold.PLP.PLP>
-52.2241

> <Gold.PLP.part.hbond>
-3.0000

> <Gold.PLP.part.metal>
0.0000

> <Gold.PLP.part.buried>
-1.8369

> <Gold.PLP.part.nonpolar>
-48.4537

> <Gold.PLP.part.repulsive>
1.0866

> <Gold.PLP.ligand.clash>
0.0000

> <Gold.PLP.ligand.torsion>
0.7140

> <Gold.PLP.Chemscore.Hbond>
2.9500

> <Gold.PLP.Chemscore.CHOScore>
0.4010

> <Gold.PLP.Chemscore.Metal>
0.0000

> <Gold.Chemscore.Hbonds>
donor molecule, donor type, donor heavy atom, donor atom, acceptor molecule, acceptor atom, score
      L1  H    22    47       P1 10175  0.68
      P1  H  7989  7998       L1    14  0.75
      P1  H  7997  8009       L1    12  0.75
      L1  C    18    44       P1  8028  0.44

> <Gold.PLP.Chemscore.Internal.Correction>
0.2614

> <Gold.Rescore>
     Score         DG    S(hbond)    S(metal)    S(lipo)     H(rot)  DE(clash)    DE(int)     intcor
     17.18     -20.64       1.78        0.00     116.99       1.74       1.99       1.47       ----

> <Gold.Chemscore.Fitness>
17.1827

> <Gold.Chemscore.DG>
-20.6446

> <Gold.Chemscore.ZeroCoef>
-5.4800

> <Gold.Chemscore.Hbond>
1.7772

> <Gold.Chemscore.Metal>
0.0000

> <Gold.Chemscore.Lipo>
116.9940

> <Gold.Chemscore.Internal_Hbond>
0.0000

> <Gold.Chemscore.DEClash>
1.9927

> <Gold.Chemscore.DEInternal>
1.4692

> <Gold.Chemscore.Rot>
1.7420

> <Gold.Chemscore.Internal.Correction>
   9.000000E+99

> <Gold.Chemscore.Hbonds>
donor molecule, donor type, donor heavy atom, donor atom, acceptor molecule, acceptor atom, score
      L1  H    22    47       P1 10175  0.15
      P1  H  7989  7998       L1    14  0.09
      P1  H  7997  8009       L1    12  0.09

> <Gold.Chemscore.Hbond.Weighted>
-5.9357

> <Gold.Chemscore.Metal.Weighted>
-0.0000

> <Gold.Chemscore.Lipo.Weighted>
-13.6883

> <Gold.Chemscore.Internal_Hbond.Weighted>
0.0000

> <Gold.Chemscore.DEClash.Weighted>
1.9927

> <Gold.Chemscore.DEInternal.Weighted>
1.4692

> <Gold.Chemscore.Rot.Weighted>
4.4594

> <Gold.Chemscore.Internal.Correction.Weighted>
   9.000000E+99

> <Gold.Protein.RotatedTorsions>
[ 6907 6896 6895 6894 ] final   74.80 input  -60.11 | X-H torsion
[ 7974 7965 7964 7962 ] final -154.08 input  175.53 | X-H torsion
[ 8008 7997 7996 7995 ] final  176.73 input   59.86 | X-H torsion
[ 10167 10162 10161 10158 ] final   38.78 input  -65.29 | X-H torsion
[ 10718 10713 10712 10709 ] final  152.90 input   66.30 | X-H torsion
[ 10763 10752 10751 10750 ] final  105.11 input  -60.55 | X-H torsion
[ 11005 11000 10999 10996 ] final  146.58 input  -57.11 | X-H torsion

> <Gold.Protein.ActiveResidues>
 VAL166  LYS551  ARG553  GLY616  TRP617  ASP618  TYR619  PRO620  LYS621  CYS622 
 ASP623  PHE694  ASN695  SER759  ASP760  ASP761  ALA762  ILE779  LEU786  VAL792 
 PHE793  MET794  SER795  GLU796  ALA797  LYS798  CYS799  TRP800  GLU811  SER814 

> <Gold.Protein.RotatedAtoms>
  152.4994  134.4216  159.9482 H   0  0  0  0  0  0  0  0  0  0  0  0  # atno 6907 bound_to 6896
  151.4189  133.3698  159.2761 H   0  0  0  0  0  0  0  0  0  0  0  0  # atno 6908 bound_to 6896
  150.9237  134.8676  159.7565 H   0  0  0  0  0  0  0  0  0  0  0  0  # atno 6909 bound_to 6896
  144.7708  140.4438  143.5909 H   0  0  0  0  0  0  0  0  0  0  0  0  # atno 7974 bound_to 7965
  156.0733  140.1376  156.9802 H   0  0  0  0  0  0  0  0  0  0  0  0  # atno 8008 bound_to 7997
  154.4543  140.0967  156.6763 H   0  0  0  0  0  0  0  0  0  0  0  0  # atno 8009 bound_to 7997
  155.5194  140.3456  155.4406 H   0  0  0  0  0  0  0  0  0  0  0  0  # atno 8010 bound_to 7997
  140.3903  144.1861  150.6131 H   0  0  0  0  0  0  0  0  0  0  0  0  # atno 10167 bound_to 10162
  157.2518  131.0780  151.1725 H   0  0  0  0  0  0  0  0  0  0  0  0  # atno 10718 bound_to 10713
  153.3749  135.3921  155.1815 H   0  0  0  0  0  0  0  0  0  0  0  0  # atno 10763 bound_to 10752
  154.8699  135.3711  154.4930 H   0  0  0  0  0  0  0  0  0  0  0  0  # atno 10764 bound_to 10752
  153.5401  135.7084  153.5701 H   0  0  0  0  0  0  0  0  0  0  0  0  # atno 10765 bound_to 10752
  140.0805  134.9100  157.1492 H   0  0  0  0  0  0  0  0  0  0  0  0  # atno 11005 bound_to 11000
  145.6331  139.1539  143.2958 LP  0  0  0  0  0  0  0  0  0  0  0  0  # atno 17320 bound_to 7965
  146.1852  140.6433  142.9171 LP  0  0  0  0  0  0  0  0  0  0  0  0  # atno 17321 bound_to 7965
  140.4846  143.2367  151.8906 LP  0  0  0  0  0  0  0  0  0  0  0  0  # atno 17342 bound_to 10162
  139.4789  144.5232  151.8772 LP  0  0  0  0  0  0  0  0  0  0  0  0  # atno 17343 bound_to 10162
  157.3270  130.6965  149.6302 LP  0  0  0  0  0  0  0  0  0  0  0  0  # atno 17370 bound_to 10713
  155.9666  130.4319  150.4938 LP  0  0  0  0  0  0  0  0  0  0  0  0  # atno 17371 bound_to 10713
  140.3495  134.2614  155.7200 LP  0  0  0  0  0  0  0  0  0  0  0  0  # atno 17394 bound_to 11000
  141.2045  133.7885  157.0285 LP  0  0  0  0  0  0  0  0  0  0  0  0  # atno 17395 bound_to 11000

$$$$
