AV-unprocessed.smi:227|AV-procd|sdf|1734|dock4
  -GOLD-   2262020233D 1   1.00000     0.00000
 Structure written by MMmdl.
 54 58  0  0  0  0  0  0  0  0  1 V2000
  151.1920  142.9653  161.4521 O   0  0  0  0  0  0  0  0  0  0  0  0
  152.4894  143.3965  161.0962 C   0  0  0  0  0  0  0  0  0  0  0  0
  152.9055  142.8624  159.7011 C   0  0  1  0  0  0  0  0  0  0  0  0
  152.6208  141.3357  159.5782 C   0  0  0  0  0  0  0  0  0  0  0  0
  153.3325  140.5145  160.5475 N   0  0  0  0  0  0  0  0  0  0  0  0
  154.1815  140.9587  161.5345 C   0  0  0  0  0  0  0  0  0  0  0  0
  154.6978  140.0255  162.2848 N   0  0  0  0  0  0  0  0  0  0  0  0
  154.1807  138.8406  161.7733 C   0  0  0  0  0  0  0  0  0  0  0  0
  154.3172  137.4591  162.1061 C   0  0  0  0  0  0  0  0  0  0  0  0
  155.0733  136.9752  163.1315 N   0  0  0  0  0  0  0  0  0  0  0  0
  154.9030  137.4579  164.4947 C   0  0  1  0  0  0  0  0  0  0  0  0
  153.5715  136.8278  164.9482 C   0  0  0  0  0  0  0  0  0  0  0  0
  153.6189  135.4764  164.2189 C   0  0  0  0  0  0  0  0  0  0  0  0
  154.9839  135.5669  163.4972 C   0  0  2  0  0  0  0  0  0  0  0  0
  156.1647  135.4335  164.4856 C   0  0  2  0  0  0  0  0  0  0  0  0
  156.2018  134.1831  165.3849 C   0  0  0  0  0  0  0  0  0  0  0  0
  157.2536  134.2812  166.3212 O   0  0  0  0  0  0  0  0  0  0  0  0
  156.0584  136.7684  165.2434 C   0  0  0  0  0  0  0  0  0  0  0  0
  153.6577  136.5657  161.3216 N   0  0  0  0  0  0  0  0  0  0  0  0
  152.9016  136.9810  160.3029 C   0  0  0  0  0  0  0  0  0  0  0  0
  152.6697  138.2278  159.8936 N   0  0  0  0  0  0  0  0  0  0  0  0
  153.3342  139.1345  160.6643 C   0  0  0  0  0  0  0  0  0  0  0  0
  152.2563  143.6892  158.5461 C   0  0  2  0  0  0  0  0  0  0  0  0
  152.5753  145.1813  158.5915 C   0  0  0  0  0  0  0  0  0  0  0  0
  151.5127  145.7588  159.5270 C   0  0  0  0  0  0  0  0  0  0  0  0
  150.4500  144.8130  159.5430 O   0  0  0  0  0  0  0  0  0  0  0  0
  150.7247  143.7908  158.5967 C   0  0  0  0  0  0  0  0  0  0  0  0
  150.6635  143.7262  161.6395 H   0  0  0  0  0  0  0  0  0  0  0  0
  152.5335  144.4846  161.1328 H   0  0  0  0  0  0  0  0  0  0  0  0
  153.1483  143.0302  161.8800 H   0  0  0  0  0  0  0  0  0  0  0  0
  153.9865  142.9877  159.6260 H   0  0  0  0  0  0  0  0  0  0  0  0
  151.5565  141.1254  159.6662 H   0  0  0  0  0  0  0  0  0  0  0  0
  152.8849  140.9794  158.5823 H   0  0  0  0  0  0  0  0  0  0  0  0
  154.4022  142.0054  161.6863 H   0  0  0  0  0  0  0  0  0  0  0  0
  154.9370  138.5379  164.6232 H   0  0  0  0  0  0  0  0  0  0  0  0
  153.5018  136.7244  166.0315 H   0  0  0  0  0  0  0  0  0  0  0  0
  152.7200  137.4192  164.6092 H   0  0  0  0  0  0  0  0  0  0  0  0
  153.5253  134.6209  164.8855 H   0  0  0  0  0  0  0  0  0  0  0  0
  152.8050  135.4110  163.4958 H   0  0  0  0  0  0  0  0  0  0  0  0
  155.0721  134.8727  162.6610 H   0  0  0  0  0  0  0  0  0  0  0  0
  157.0877  135.4510  163.9027 H   0  0  0  0  0  0  0  0  0  0  0  0
  155.2632  134.0945  165.9325 H   0  0  0  0  0  0  0  0  0  0  0  0
  156.3098  133.2653  164.8084 H   0  0  0  0  0  0  0  0  0  0  0  0
  157.3853  135.1931  166.5312 H   0  0  0  0  0  0  0  0  0  0  0  0
  156.9840  137.3372  165.1460 H   0  0  0  0  0  0  0  0  0  0  0  0
  155.8498  136.6480  166.3072 H   0  0  0  0  0  0  0  0  0  0  0  0
  152.4122  136.2033  159.7355 H   0  0  0  0  0  0  0  0  0  0  0  0
  152.5609  143.2618  157.5902 H   0  0  0  0  0  0  0  0  0  0  0  0
  153.5846  145.4350  158.9080 H   0  0  0  0  0  0  0  0  0  0  0  0
  152.4434  145.6036  157.5942 H   0  0  0  0  0  0  0  0  0  0  0  0
  151.9001  145.8690  160.5403 H   0  0  0  0  0  0  0  0  0  0  0  0
  151.1648  146.7351  159.1884 H   0  0  0  0  0  0  0  0  0  0  0  0
  150.3460  144.1167  157.6263 H   0  0  0  0  0  0  0  0  0  0  0  0
  150.2008  142.8696  158.8391 H   0  0  0  0  0  0  0  0  0  0  0  0
  1  2  1  0  0  0  0
  1 28  1  0  0  0  0
  2  3  1  0  0  0  0
  2 29  1  0  0  0  0
  2 30  1  0  0  0  0
  3  4  1  0  0  0  0
  3 23  1  0  0  0  0
  3 31  1  0  0  0  0
  4  5  1  0  0  0  0
  4 32  1  0  0  0  0
  4 33  1  0  0  0  0
  5 22  1  0  0  0  0
  5  6  1  0  0  0  0
  6  7  2  0  0  0  0
  6 34  1  0  0  0  0
  7  8  1  0  0  0  0
  8 22  2  0  0  0  0
  8  9  1  0  0  0  0
  9 10  1  0  0  0  0
  9 19  2  0  0  0  0
 10 14  1  0  0  0  0
 10 11  1  0  0  0  0
 11 18  1  0  0  0  0
 11 12  1  0  0  0  0
 11 35  1  0  0  0  0
 12 13  1  0  0  0  0
 12 36  1  0  0  0  0
 12 37  1  0  0  0  0
 13 14  1  0  0  0  0
 13 38  1  0  0  0  0
 13 39  1  0  0  0  0
 14 15  1  0  0  0  0
 14 40  1  0  0  0  0
 15 16  1  0  0  0  0
 15 18  1  0  0  0  0
 15 41  1  0  0  0  0
 16 17  1  0  0  0  0
 16 42  1  0  0  0  0
 16 43  1  0  0  0  0
 17 44  1  0  0  0  0
 18 45  1  0  0  0  0
 18 46  1  0  0  0  0
 19 20  1  0  0  0  0
 20 21  2  0  0  0  0
 20 47  1  0  0  0  0
 21 22  1  0  0  0  0
 23 27  1  0  0  0  0
 23 24  1  0  0  0  0
 23 48  1  0  0  0  0
 24 25  1  0  0  0  0
 24 49  1  0  0  0  0
 24 50  1  0  0  0  0
 25 26  1  0  0  0  0
 25 51  1  0  0  0  0
 25 52  1  0  0  0  0
 26 27  1  0  0  0  0
 27 53  1  0  0  0  0
 27 54  1  0  0  0  0
M  END
> <s_m_source_file>
AV-unprocessed.smi

> <i_m_source_file_index>
227

> <i_lp_mmshare_version>
43012

> <i_f3d_flags>
0

> <s_epik_input>
W0NIMl0xT1tDSDJdW0NIMl1bQ0BIXTFbQ0BIXShbQ0gyXVtPSF0pW0NIMl1uKFtjSF1uMiljKGMyMyluW2NIXW5jM04oW0NASF00NSlbQ0BASF0oW0NIMl1bQ0gyXTQpW0NASF0oW0NIMl01KVtDSDJdW09IXQ==

> <s_epik_cmdline>
J2VwaWtfcHl0aG9uJywgJy1waCcsICc3LjAnLCAnLXRuJywgJzgnLCAnLW1hJywgJzIwMCcsICctbWV0YWxfYmluZGluZycsICctaW1hZScsICc8aW5maWxlLm1hZT4nLCAnLW9tYWUnLCAnPG91dGZpbGUubWFlPic=

> <r_lp_tautomer_probability>
1

> <r_epik_Ionization_Penalty>
0.0055791

> <r_epik_Ionization_Penalty_Charging>
0

> <r_epik_Ionization_Penalty_Neutral>
0.0055791

> <r_epik_State_Penalty>
0.00401299

> <r_epik_Charging_Adjusted_Penalty>
0.00401299

> <i_epik_Tot_Q>
0

> <i_epik_Tot_abs_Q>
0

> <r_epik_Metal_State_Penalty>
-0

> <b_epik_Metal_Only>
0

> <s_lp_Force_Field>
OPLS_2005

> <r_lp_Energy>
91.5897

> <b_lp_Chiralities_Consistent>
1

> <s_lp_Variant>
AV-unprocessed.smi:227-8

> <Gold.Version>
5.8.1

> <Gold.Id.Protein>
6NUR|6NUR_protein|mol2

> <Gold.PLP.Fitness>
47.9481

> <Gold.PLP.PLP>
-48.1287

> <Gold.PLP.part.hbond>
-1.2437

> <Gold.PLP.part.metal>
0.0000

> <Gold.PLP.part.buried>
-3.8786

> <Gold.PLP.part.nonpolar>
-42.9297

> <Gold.PLP.part.repulsive>
0.1542

> <Gold.PLP.ligand.clash>
0.0282

> <Gold.PLP.ligand.torsion>
0.3180

> <Gold.PLP.Chemscore.Hbond>
0.1120

> <Gold.PLP.Chemscore.CHOScore>
0.0000

> <Gold.PLP.Chemscore.Metal>
0.0000

> <Gold.Chemscore.Hbonds>
donor molecule, donor type, donor heavy atom, donor atom, acceptor molecule, acceptor atom, score
      P1  H  6933  6945       L1     1  0.29

> <Gold.PLP.Chemscore.Internal.Correction>
0.1475

> <Gold.Rescore>
     Score         DG    S(hbond)    S(metal)    S(lipo)     H(rot)  DE(clash)    DE(int)     intcor
      6.05     -11.33       0.00        0.00     128.93       3.61       0.12       5.16       ----

> <Gold.Chemscore.Fitness>
6.0511

> <Gold.Chemscore.DG>
-11.3318

> <Gold.Chemscore.ZeroCoef>
-5.4800

> <Gold.Chemscore.Hbond>
0.0004

> <Gold.Chemscore.Metal>
0.0000

> <Gold.Chemscore.Lipo>
128.9279

> <Gold.Chemscore.Internal_Hbond>
0.0000

> <Gold.Chemscore.DEClash>
0.1161

> <Gold.Chemscore.DEInternal>
5.1646

> <Gold.Chemscore.Rot>
3.6071

> <Gold.Chemscore.Internal.Correction>
   9.000000E+99

> <Gold.Chemscore.Hbonds>
donor molecule, donor type, donor heavy atom, donor atom, acceptor molecule, acceptor atom, score
      P1  H  6933  6945       L1     1  0.04

> <Gold.Chemscore.Hbond.Weighted>
-0.0014

> <Gold.Chemscore.Metal.Weighted>
-0.0000

> <Gold.Chemscore.Lipo.Weighted>
-15.0846

> <Gold.Chemscore.Internal_Hbond.Weighted>
0.0000

> <Gold.Chemscore.DEClash.Weighted>
0.1161

> <Gold.Chemscore.DEInternal.Weighted>
5.1646

> <Gold.Chemscore.Rot.Weighted>
9.2342

> <Gold.Chemscore.Internal.Correction.Weighted>
   9.000000E+99

> <Gold.Protein.RotatedTorsions>
[ 6907 6896 6895 6894 ] final  142.78 input  -60.11 | X-H torsion
[ 7974 7965 7964 7962 ] final  -31.14 input  175.53 | X-H torsion
[ 8008 7997 7996 7995 ] final  -89.05 input   59.86 | X-H torsion
[ 10167 10162 10161 10158 ] final -114.64 input  -65.29 | X-H torsion
[ 10718 10713 10712 10709 ] final  142.31 input   66.30 | X-H torsion
[ 10763 10752 10751 10750 ] final   21.90 input  -60.55 | X-H torsion
[ 11005 11000 10999 10996 ] final   75.99 input  -57.11 | X-H torsion

> <Gold.Protein.ActiveResidues>
 VAL166  LYS551  ARG553  GLY616  TRP617  ASP618  TYR619  PRO620  LYS621  CYS622 
 ASP623  PHE694  ASN695  SER759  ASP760  ASP761  ALA762  ILE779  LEU786  VAL792 
 PHE793  MET794  SER795  GLU796  ALA797  LYS798  CYS799  TRP800  GLU811  SER814 

> <Gold.Protein.RotatedAtoms>
  152.2145  133.4936  159.5127 H   0  0  0  0  0  0  0  0  0  0  0  0  # atno 6907 bound_to 6896
  150.6998  134.1424  159.4119 H   0  0  0  0  0  0  0  0  0  0  0  0  # atno 6908 bound_to 6896
  151.9344  135.0242  160.0582 H   0  0  0  0  0  0  0  0  0  0  0  0  # atno 6909 bound_to 6896
  146.1090  140.5630  142.8787 H   0  0  0  0  0  0  0  0  0  0  0  0  # atno 7974 bound_to 7965
  154.6820  140.0546  157.0275 H   0  0  0  0  0  0  0  0  0  0  0  0  # atno 8008 bound_to 7997
  155.0938  140.3222  155.4547 H   0  0  0  0  0  0  0  0  0  0  0  0  # atno 8009 bound_to 7997
  156.2697  140.2043  156.6065 H   0  0  0  0  0  0  0  0  0  0  0  0  # atno 8010 bound_to 7997
  140.0988  143.4632  152.1825 H   0  0  0  0  0  0  0  0  0  0  0  0  # atno 10167 bound_to 10162
  157.3820  131.0993  151.0730 H   0  0  0  0  0  0  0  0  0  0  0  0  # atno 10718 bound_to 10713
  153.0958  135.6659  153.9766 H   0  0  0  0  0  0  0  0  0  0  0  0  # atno 10763 bound_to 10752
  153.9351  135.3000  155.3446 H   0  0  0  0  0  0  0  0  0  0  0  0  # atno 10764 bound_to 10752
  154.7376  135.5094  153.9142 H   0  0  0  0  0  0  0  0  0  0  0  0  # atno 10765 bound_to 10752
  139.9318  134.7564  156.1340 H   0  0  0  0  0  0  0  0  0  0  0  0  # atno 11005 bound_to 11000
  144.7495  140.5154  143.6812 LP  0  0  0  0  0  0  0  0  0  0  0  0  # atno 17320 bound_to 7965
  145.5703  139.1483  143.3292 LP  0  0  0  0  0  0  0  0  0  0  0  0  # atno 17321 bound_to 7965
  139.5683  144.7448  151.3961 LP  0  0  0  0  0  0  0  0  0  0  0  0  # atno 17342 bound_to 10162
  140.6989  143.7681  150.7371 LP  0  0  0  0  0  0  0  0  0  0  0  0  # atno 17343 bound_to 10162
  157.1795  130.6303  149.5667 LP  0  0  0  0  0  0  0  0  0  0  0  0  # atno 17370 bound_to 10713
  155.9778  130.4758  150.6615 LP  0  0  0  0  0  0  0  0  0  0  0  0  # atno 17371 bound_to 10713
  141.0911  133.6714  156.2543 LP  0  0  0  0  0  0  0  0  0  0  0  0  # atno 17394 bound_to 11000
  140.6181  134.5390  157.5543 LP  0  0  0  0  0  0  0  0  0  0  0  0  # atno 17395 bound_to 11000

$$$$
