#       Name:                AV-unprocessed.smi:2540
#       Creating user name   scv26
#       Creation time:       Fri Mar 27 14:03:50 2020


#       File generated by GOLD software.
#

@<TRIPOS>MOLECULE
AV-unprocessed.smi:2540
    30    31     1
SMALL
NO_CHARGES


@<TRIPOS>ATOM
      1 ****        -3.2999   0.0010  -1.2779 C.3            1 S1                 0.0000
      2 ****        -1.8851  -0.0562  -1.2355 O.3            1 S1                 0.0000
      3 ****        -1.3894  -1.3801  -1.3512 C.3            1 S1                 0.0000
      4 ****         0.1443  -1.3738  -1.2796 C.3            1 S1                 0.0000
      5 ****         0.6430  -0.8127  -0.0152 N.pl3          1 S1                 0.0000
      6 ****         0.9051  -1.4036   1.1787 C.cat          1 S1                 0.0000
      7 ****         0.7433  -2.7582   1.4632 N.pl3          1 S1                 0.0000
      8 ****         1.3492  -0.4738   2.0615 N.pl3          1 S1                 1.0000
      9 ****         1.3712   0.7659   1.4151 C.ar           1 S1                 0.0000
     10 ****         1.7408   2.0245   1.8796 C.ar           1 S1                 0.0000
     11 ****         1.6416   3.0926   0.9640 C.ar           1 S1                 0.0000
     12 ****         1.1897   2.8902  -0.3561 C.ar           1 S1                 0.0000
     13 ****         0.8196   1.6108  -0.8200 C.ar           1 S1                 0.0000
     14 ****         0.9199   0.5574   0.0885 C.ar           1 S1                 0.0000
     15 ****        -3.6276   1.0364  -1.1847 H              1 S1                 0.0000
     16 ****        -3.7421  -0.5667  -0.4583 H              1 S1                 0.0000
     17 ****        -3.6824  -0.3901  -2.2215 H              1 S1                 0.0000
     18 ****        -1.7952  -2.0009  -0.5508 H              1 S1                 0.0000
     19 ****        -1.7116  -1.8171  -2.2974 H              1 S1                 0.0000
     20 ****         0.5253  -2.3920  -1.3623 H              1 S1                 0.0000
     21 ****         0.5736  -0.8172  -2.1125 H              1 S1                 0.0000
     22 ****         0.9539  -3.1394   2.3744 H              1 S1                 0.0000
     23 ****         0.4078  -3.4058   0.7644 H              1 S1                 0.0000
     24 ****         2.0854   2.1844   2.8906 H              1 S1                 0.0000
     25 ****         1.9156   4.0883   1.2814 H              1 S1                 0.0000
     26 ****         1.1238   3.7342  -1.0274 H              1 S1                 0.0000
     27 ****         0.4688   1.4694  -1.8315 H              1 S1                 0.0000
     28 ****         1.6107  -0.6678   3.0195 H              1 S1                 0.0000
     29 ****        -1.5749   0.3271  -0.3655 LP             1 S1                 0.0000
     30 ****        -1.5197   0.4897  -1.9894 LP             1 S1                 0.0000
@<TRIPOS>BOND
    1    1    2 1     
    2    1   15 1     
    3    1   16 1     
    4    1   17 1     
    5    2    3 1     
    6    3    4 1     
    7    3   18 1     
    8    3   19 1     
    9    4    5 1     
   10    4   20 1     
   11    4   21 1     
   12    5   14 1     
   13    5    6 ar    
   14    6    7 ar    
   15    6    8 ar    
   16    7   22 1     
   17    7   23 1     
   18    8    9 1     
   19    8   28 1     
   20    9   14 ar    
   21    9   10 ar    
   22   10   11 ar    
   23   10   24 1     
   24   11   12 ar    
   25   11   25 1     
   26   12   13 ar    
   27   12   26 1     
   28   13   14 ar    
   29   13   27 1     
   30    2   29 1     
   31    2   30 1     
@<TRIPOS>SUBSTRUCTURE
      1 S1             1
@<TRIPOS>SET
LONE_PAIRS      STATIC     ATOMS    <user>   **** ""
2 29 30
DONOR_HYDROGENS      STATIC     ATOMS    <user>   **** ""
3 22 23 28
ATOM$BLUE        STATIC     ATOMS    COLORGROUP SYSTEM
2 29 30
ATOM$RED        STATIC     ATOMS    COLORGROUP SYSTEM
3 22 23 28
