AV-unprocessed.smi:240|AV-procd|sdf|1832|dock6
  -GOLD-   2262020433D 1   1.00000     0.00000
 Structure written by MMmdl.
 55 59  0  0  0  0  0  0  0  0  1 V2000
  147.2868  131.5191  149.2224 O   0  0  0  0  0  0  0  0  0  0  0  0
  146.0234  131.5347  149.8538 C   0  0  2  0  0  0  0  0  0  0  0  0
  145.1891  132.7358  149.4089 C   0  0  0  0  0  0  0  0  0  0  0  0
  144.1552  132.9215  150.5250 C   0  0  0  0  0  0  0  0  0  0  0  0
  144.7486  132.2627  151.7810 C   0  0  0  0  0  0  0  0  0  0  0  0
  146.1321  131.7219  151.3738 C   0  0  1  0  0  0  0  0  0  0  0  0
  146.6531  130.4946  152.1824 C   0  0  2  0  0  0  0  0  0  0  0  0
  145.9843  129.1546  151.7805 C   0  0  0  0  0  0  0  0  0  0  0  0
  146.5146  128.0829  152.5520 O   0  0  0  0  0  0  0  0  0  0  0  0
  146.2688  128.2557  153.9407 C   0  0  0  0  0  0  0  0  0  0  0  0
  146.9773  129.5308  154.4147 C   0  0  0  0  0  0  0  0  0  0  0  0
  146.5289  130.6790  153.6356 N   0  0  0  0  0  0  0  0  0  0  0  0
  147.0149  131.8271  154.1597 C   0  0  0  0  0  0  0  0  0  0  0  0
  147.8290  132.5668  153.3674 N   0  0  0  0  0  0  0  0  0  0  0  0
  148.3454  133.7117  153.8235 C   0  0  0  0  0  0  0  0  0  0  0  0
  148.1723  134.2905  155.0138 N   0  0  0  0  0  0  0  0  0  0  0  0
  147.3414  133.5550  155.8074 C   0  0  0  0  0  0  0  0  0  0  0  0
  146.7224  132.3203  155.4632 C   0  0  0  0  0  0  0  0  0  0  0  0
  145.9442  131.8700  156.5226 N   0  0  0  0  0  0  0  0  0  0  0  0
  146.0963  132.7845  157.4410 C   0  0  0  0  0  0  0  0  0  0  0  0
  146.9121  133.8375  157.0926 N   0  0  0  0  0  0  0  0  0  0  0  0
  147.2534  134.9873  157.9171 C   0  0  0  0  0  0  0  0  0  0  0  0
  148.1874  134.6563  159.1091 C   0  0  2  0  0  0  0  0  0  0  0  0
  149.0428  133.5880  158.7457 O   0  0  0  0  0  0  0  0  0  0  0  0
  147.4523  134.2926  160.3998 C   0  0  0  0  0  0  0  0  0  0  0  0
  147.4161  135.6159  161.1482 C   0  0  0  0  0  0  0  0  0  0  0  0
  148.7046  136.1442  160.8883 O   0  0  0  0  0  0  0  0  0  0  0  0
  149.0275  135.8809  159.5274 C   0  0  0  0  0  0  0  0  0  0  0  0
  147.8672  130.9670  149.7238 H   0  0  0  0  0  0  0  0  0  0  0  0
  145.4818  130.6239  149.6022 H   0  0  0  0  0  0  0  0  0  0  0  0
  145.8170  133.6262  149.3499 H   0  0  0  0  0  0  0  0  0  0  0  0
  144.7298  132.5899  148.4307 H   0  0  0  0  0  0  0  0  0  0  0  0
  143.9295  133.9759  150.6863 H   0  0  0  0  0  0  0  0  0  0  0  0
  143.2215  132.4260  150.2567 H   0  0  0  0  0  0  0  0  0  0  0  0
  144.8314  132.9728  152.6041 H   0  0  0  0  0  0  0  0  0  0  0  0
  144.0857  131.4667  152.1161 H   0  0  0  0  0  0  0  0  0  0  0  0
  146.8343  132.5450  151.5158 H   0  0  0  0  0  0  0  0  0  0  0  0
  147.7144  130.3855  151.9588 H   0  0  0  0  0  0  0  0  0  0  0  0
  144.9019  129.1849  151.9047 H   0  0  0  0  0  0  0  0  0  0  0  0
  146.1779  128.9216  150.7346 H   0  0  0  0  0  0  0  0  0  0  0  0
  145.1961  128.3075  154.1339 H   0  0  0  0  0  0  0  0  0  0  0  0
  146.6512  127.3896  154.4808 H   0  0  0  0  0  0  0  0  0  0  0  0
  146.7727  129.6927  155.4743 H   0  0  0  0  0  0  0  0  0  0  0  0
  148.0572  129.4160  154.3091 H   0  0  0  0  0  0  0  0  0  0  0  0
  148.9883  134.2406  153.1355 H   0  0  0  0  0  0  0  0  0  0  0  0
  145.6095  132.7188  158.4033 H   0  0  0  0  0  0  0  0  0  0  0  0
  147.7165  135.7378  157.2751 H   0  0  0  0  0  0  0  0  0  0  0  0
  146.3261  135.4319  158.2806 H   0  0  0  0  0  0  0  0  0  0  0  0
  148.7004  133.1850  157.9623 H   0  0  0  0  0  0  0  0  0  0  0  0
  146.4631  133.8615  160.2548 H   0  0  0  0  0  0  0  0  0  0  0  0
  148.0329  133.5786  160.9862 H   0  0  0  0  0  0  0  0  0  0  0  0
  146.6516  136.2793  160.7406 H   0  0  0  0  0  0  0  0  0  0  0  0
  147.2378  135.4930  162.2166 H   0  0  0  0  0  0  0  0  0  0  0  0
  150.1016  135.7175  159.4287 H   0  0  0  0  0  0  0  0  0  0  0  0
  148.7768  136.7591  158.9311 H   0  0  0  0  0  0  0  0  0  0  0  0
  1  2  1  0  0  0  0
  1 29  1  0  0  0  0
  2  6  1  0  0  0  0
  2  3  1  0  0  0  0
  2 30  1  0  0  0  0
  3  4  1  0  0  0  0
  3 31  1  0  0  0  0
  3 32  1  0  0  0  0
  4  5  1  0  0  0  0
  4 33  1  0  0  0  0
  4 34  1  0  0  0  0
  5  6  1  0  0  0  0
  5 35  1  0  0  0  0
  5 36  1  0  0  0  0
  6  7  1  0  0  0  0
  6 37  1  0  0  0  0
  7 12  1  0  0  0  0
  7  8  1  0  0  0  0
  7 38  1  0  0  0  0
  8  9  1  0  0  0  0
  8 39  1  0  0  0  0
  8 40  1  0  0  0  0
  9 10  1  0  0  0  0
 10 11  1  0  0  0  0
 10 41  1  0  0  0  0
 10 42  1  0  0  0  0
 11 12  1  0  0  0  0
 11 43  1  0  0  0  0
 11 44  1  0  0  0  0
 12 13  1  0  0  0  0
 13 18  1  0  0  0  0
 13 14  2  0  0  0  0
 14 15  1  0  0  0  0
 15 16  2  0  0  0  0
 15 45  1  0  0  0  0
 16 17  1  0  0  0  0
 17 21  1  0  0  0  0
 17 18  2  0  0  0  0
 18 19  1  0  0  0  0
 19 20  2  0  0  0  0
 20 21  1  0  0  0  0
 20 46  1  0  0  0  0
 21 22  1  0  0  0  0
 22 23  1  0  0  0  0
 22 47  1  0  0  0  0
 22 48  1  0  0  0  0
 23 28  1  0  0  0  0
 23 24  1  0  0  0  0
 23 25  1  0  0  0  0
 24 49  1  0  0  0  0
 25 26  1  0  0  0  0
 25 50  1  0  0  0  0
 25 51  1  0  0  0  0
 26 27  1  0  0  0  0
 26 52  1  0  0  0  0
 26 53  1  0  0  0  0
 27 28  1  0  0  0  0
 28 54  1  0  0  0  0
 28 55  1  0  0  0  0
M  END
> <s_m_source_file>
AV-unprocessed.smi

> <i_m_source_file_index>
240

> <i_lp_mmshare_version>
43012

> <i_f3d_flags>
0

> <s_epik_input>
W09IXVtDQEBIXTFbQ0gyXVtDSDJdW0NIMl1bQ0BIXTFbQ0BASF0yW0NIMl1PW0NIMl1bQ0gyXU4yYyhuW2NIXW4zKWMoYzM0KW5bY0hdbjRbQ0gyXVtDQEBdNShbT0hdKVtDSDJdW0NIMl1PW0NIMl01

> <s_epik_cmdline>
J2VwaWtfcHl0aG9uJywgJy1waCcsICc3LjAnLCAnLXRuJywgJzgnLCAnLW1hJywgJzIwMCcsICctbWV0YWxfYmluZGluZycsICctaW1hZScsICc8aW5maWxlLm1hZT4nLCAnLW9tYWUnLCAnPG91dGZpbGUubWFlPic=

> <r_lp_tautomer_probability>
1

> <r_epik_Ionization_Penalty>
0.000130618

> <r_epik_Ionization_Penalty_Charging>
0

> <r_epik_Ionization_Penalty_Neutral>
0.000130618

> <r_epik_State_Penalty>
-0

> <r_epik_Charging_Adjusted_Penalty>
0

> <i_epik_Tot_Q>
0

> <i_epik_Tot_abs_Q>
0

> <r_epik_Metal_State_Penalty>
-0

> <b_epik_Metal_Only>
0

> <s_lp_Force_Field>
OPLS_2005

> <r_lp_Energy>
62.3789

> <b_lp_Chiralities_Consistent>
1

> <s_lp_Variant>
AV-unprocessed.smi:240-9

> <Gold.Version>
5.8.1

> <Gold.Id.Protein>
6NUR|6NUR_protein|mol2

> <Gold.PLP.Fitness>
42.9809

> <Gold.PLP.PLP>
-32.7590

> <Gold.PLP.part.hbond>
-2.6308

> <Gold.PLP.part.metal>
0.0000

> <Gold.PLP.part.buried>
-5.3090

> <Gold.PLP.part.nonpolar>
-26.3017

> <Gold.PLP.part.repulsive>
0.5446

> <Gold.PLP.ligand.clash>
0.0000

> <Gold.PLP.ligand.torsion>
0.9810

> <Gold.PLP.Chemscore.Hbond>
3.0000

> <Gold.PLP.Chemscore.CHOScore>
0.9940

> <Gold.PLP.Chemscore.Metal>
0.0000

> <Gold.Chemscore.Hbonds>
donor molecule, donor type, donor heavy atom, donor atom, acceptor molecule, acceptor atom, score
      L1  H     1    29       P1 10747  0.20
      P1  H  6896  6907       L1    24  1.00
      P1  H  6931  6943       L1    27  0.19
      L1  C    15    45       P1  7948  0.47

> <Gold.PLP.Chemscore.Internal.Correction>
0.2019

> <Gold.Rescore>
     Score         DG    S(hbond)    S(metal)    S(lipo)     H(rot)  DE(clash)    DE(int)     intcor
     15.55     -17.89       2.85        0.00      90.53       3.00       0.25       2.09       ----

> <Gold.Chemscore.Fitness>
15.5518

> <Gold.Chemscore.DG>
-17.8934

> <Gold.Chemscore.ZeroCoef>
-5.4800

> <Gold.Chemscore.Hbond>
2.8477

> <Gold.Chemscore.Metal>
0.0000

> <Gold.Chemscore.Lipo>
90.5289

> <Gold.Chemscore.Internal_Hbond>
0.0000

> <Gold.Chemscore.DEClash>
0.2513

> <Gold.Chemscore.DEInternal>
2.0903

> <Gold.Chemscore.Rot>
3.0039

> <Gold.Chemscore.Internal.Correction>
   9.000000E+99

> <Gold.Chemscore.Hbonds>
donor molecule, donor type, donor heavy atom, donor atom, acceptor molecule, acceptor atom, score
      L1  H     1    29       P1 10747  0.19
      P1  H  6896  6907       L1    24  0.78
      P1  H  6931  6943       L1    27  0.18

> <Gold.Chemscore.Hbond.Weighted>
-9.5114

> <Gold.Chemscore.Metal.Weighted>
-0.0000

> <Gold.Chemscore.Lipo.Weighted>
-10.5919

> <Gold.Chemscore.Internal_Hbond.Weighted>
0.0000

> <Gold.Chemscore.DEClash.Weighted>
0.2513

> <Gold.Chemscore.DEInternal.Weighted>
2.0903

> <Gold.Chemscore.Rot.Weighted>
7.6899

> <Gold.Chemscore.Internal.Correction.Weighted>
   9.000000E+99

> <Gold.Protein.RotatedTorsions>
[ 6907 6896 6895 6894 ] final -113.63 input  -60.11 | X-H torsion
[ 7974 7965 7964 7962 ] final -167.77 input  175.53 | X-H torsion
[ 8008 7997 7996 7995 ] final  -90.60 input   59.86 | X-H torsion
[ 10167 10162 10161 10158 ] final   91.78 input  -65.29 | X-H torsion
[ 10718 10713 10712 10709 ] final  124.36 input   66.30 | X-H torsion
[ 10763 10752 10751 10750 ] final  123.97 input  -60.55 | X-H torsion
[ 11005 11000 10999 10996 ] final   63.48 input  -57.11 | X-H torsion

> <Gold.Protein.ActiveResidues>
 VAL166  LYS551  ARG553  GLY616  TRP617  ASP618  TYR619  PRO620  LYS621  CYS622 
 ASP623  PHE694  ASN695  SER759  ASP760  ASP761  ALA762  ILE779  LEU786  VAL792 
 PHE793  MET794  SER795  GLU796  ALA797  LYS798  CYS799  TRP800  GLU811  SER814 

> <Gold.Protein.RotatedAtoms>
  150.7843  133.8918  159.3315 H   0  0  0  0  0  0  0  0  0  0  0  0  # atno 6907 bound_to 6896
  151.6772  135.0965  160.0218 H   0  0  0  0  0  0  0  0  0  0  0  0  # atno 6908 bound_to 6896
  152.3902  133.6630  159.6267 H   0  0  0  0  0  0  0  0  0  0  0  0  # atno 6909 bound_to 6896
  144.7216  140.2469  143.6284 H   0  0  0  0  0  0  0  0  0  0  0  0  # atno 7974 bound_to 7965
  154.7005  140.0528  157.0453 H   0  0  0  0  0  0  0  0  0  0  0  0  # atno 8008 bound_to 7997
  155.0692  140.3197  155.4617 H   0  0  0  0  0  0  0  0  0  0  0  0  # atno 8009 bound_to 7997
  156.2758  140.2085  156.5819 H   0  0  0  0  0  0  0  0  0  0  0  0  # atno 8010 bound_to 7997
  139.8341  144.6673  150.9363 H   0  0  0  0  0  0  0  0  0  0  0  0  # atno 10167 bound_to 10162
  157.5591  131.1090  150.8570 H   0  0  0  0  0  0  0  0  0  0  0  0  # atno 10718 bound_to 10713
  153.6540  135.3358  155.3108 H   0  0  0  0  0  0  0  0  0  0  0  0  # atno 10763 bound_to 10752
  154.8531  135.4348  154.1874 H   0  0  0  0  0  0  0  0  0  0  0  0  # atno 10764 bound_to 10752
  153.2824  135.7010  153.7448 H   0  0  0  0  0  0  0  0  0  0  0  0  # atno 10765 bound_to 10752
  140.0022  134.6425  155.9913 H   0  0  0  0  0  0  0  0  0  0  0  0  # atno 11005 bound_to 11000
  145.8266  139.2067  143.1907 LP  0  0  0  0  0  0  0  0  0  0  0  0  # atno 17320 bound_to 7965
  146.0468  140.8110  142.9801 LP  0  0  0  0  0  0  0  0  0  0  0  0  # atno 17321 bound_to 7965
  140.7804  143.3973  151.1208 LP  0  0  0  0  0  0  0  0  0  0  0  0  # atno 17342 bound_to 10162
  139.7624  143.8615  152.3103 LP  0  0  0  0  0  0  0  0  0  0  0  0  # atno 17343 bound_to 10162
  156.9073  130.5268  149.5281 LP  0  0  0  0  0  0  0  0  0  0  0  0  # atno 17370 bound_to 10713
  156.0646  130.5691  150.9262 LP  0  0  0  0  0  0  0  0  0  0  0  0  # atno 17371 bound_to 10713
  141.1650  133.6537  156.4448 LP  0  0  0  0  0  0  0  0  0  0  0  0  # atno 17394 bound_to 11000
  140.4707  134.6755  157.5128 LP  0  0  0  0  0  0  0  0  0  0  0  0  # atno 17395 bound_to 11000

$$$$
