#       Name:                AV-unprocessed.smi:3331
#       Creating user name   scv26
#       Creation time:       Fri Mar 27 19:20:45 2020


#       File generated by GOLD software.
#

@<TRIPOS>MOLECULE
AV-unprocessed.smi:3331
    50    51     1
SMALL
NO_CHARGES


@<TRIPOS>ATOM
      1 ****        -3.2347  -2.2165   2.2754 C.3            1 S1                 0.0000
      2 ****        -2.5413  -1.3461   1.2181 C.3            1 S1                 0.0000
      3 ****        -3.1718  -1.5456  -0.1796 C.3            1 S1                 0.0000
      4 ****        -2.5964  -0.5836  -1.2438 C.3            1 S1                 0.0000
      5 ****        -1.2057  -1.0250  -1.7339 C.3            1 S1                 0.0000
      6 ****        -2.6109   0.8630  -0.7032 C.3            1 S1                 0.0000
      7 ****        -1.8751   0.9234   0.5681 N.am           1 S1                 0.0000
      8 ****        -0.6796   1.5302   0.7832 C.2            1 S1                 0.0000
      9 ****        -0.1528   1.5502   1.8977 O.2            1 S1                 0.0000
     10 ****         0.0671   2.2232  -0.3818 C.3            1 S1                 0.0000
     11 ****        -0.3770   3.6906  -0.4874 C.3            1 S1                 0.0000
     12 ****         1.5357   2.1615  -0.2584 N.3            1 S1                 0.0000
     13 ****         2.0738   0.8079  -0.3428 C.3            1 S1                 0.0000
     14 ****         3.6074   0.8661  -0.3093 C.3            1 S1                 0.0000
     15 ****         4.1925  -0.4601  -0.3548 N.pl3          1 S1                 0.0000
     16 ****         4.7523  -1.1859   0.6756 C.2            1 S1                 0.0000
     17 ****         5.1657  -2.3785   0.1543 C.2            1 S1                 0.0000
     18 ****         4.8103  -2.2874  -1.2205 C.2            1 S1                 0.0000
     19 ****         4.2291  -1.1375  -1.5225 N.2            1 S1                 0.0000
     20 ****        -2.5618   0.1467   1.6094 C.3            1 S1                 0.0000
     21 ****        -4.2842  -1.9433   2.3885 H              1 S1                 0.0000
     22 ****        -2.7553  -2.1077   3.2486 H              1 S1                 0.0000
     23 ****        -3.1919  -3.2715   2.0038 H              1 S1                 0.0000
     24 ****        -1.4991  -1.6647   1.1694 H              1 S1                 0.0000
     25 ****        -3.0574  -2.5809  -0.5036 H              1 S1                 0.0000
     26 ****        -4.2464  -1.3723  -0.1058 H              1 S1                 0.0000
     27 ****        -3.2576  -0.6187  -2.1105 H              1 S1                 0.0000
     28 ****        -0.4716  -1.0341  -0.9284 H              1 S1                 0.0000
     29 ****        -0.8349  -0.3568  -2.5112 H              1 S1                 0.0000
     30 ****        -1.2416  -2.0291  -2.1567 H              1 S1                 0.0000
     31 ****        -2.2592   1.5633  -1.4579 H              1 S1                 0.0000
     32 ****        -3.6424   1.1667  -0.5180 H              1 S1                 0.0000
     33 ****        -0.1710   1.7289  -1.3213 H              1 S1                 0.0000
     34 ****        -1.4552   3.7725  -0.6289 H              1 S1                 0.0000
     35 ****         0.0996   4.1836  -1.3354 H              1 S1                 0.0000
     36 ****        -0.1173   4.2526   0.4110 H              1 S1                 0.0000
     37 ****         1.8555   2.6083   0.5892 H              1 S1                 0.0000
     38 ****         1.7164   0.1948   0.4849 H              1 S1                 0.0000
     39 ****         1.7379   0.3360  -1.2673 H              1 S1                 0.0000
     40 ****         3.9903   1.4451  -1.1514 H              1 S1                 0.0000
     41 ****         3.9500   1.3632   0.5996 H              1 S1                 0.0000
     42 ****         4.8083  -0.7990   1.6824 H              1 S1                 0.0000
     43 ****         5.6481  -3.1921   0.6754 H              1 S1                 0.0000
     44 ****         4.9571  -3.0172  -2.0030 H              1 S1                 0.0000
     45 ****        -3.5898   0.4994   1.7063 H              1 S1                 0.0000
     46 ****        -2.1158   0.2755   2.5965 H              1 S1                 0.0000
     47 ****        -0.6069   1.1118   2.6733 LP             1 S1                 0.0000
     48 ****         0.7286   2.0049   2.0261 LP             1 S1                 0.0000
     49 ****         1.8871   2.6639  -1.0485 LP             1 S1                 0.0000
     50 ****         3.8926  -0.8375  -2.4151 LP             1 S1                 0.0000
@<TRIPOS>BOND
    1    1    2 1     
    2    1   21 1     
    3    1   22 1     
    4    1   23 1     
    5    2   20 1     
    6    2    3 1     
    7    2   24 1     
    8    3    4 1     
    9    3   25 1     
   10    3   26 1     
   11    4    5 1     
   12    4    6 1     
   13    4   27 1     
   14    5   28 1     
   15    5   29 1     
   16    5   30 1     
   17    6    7 1     
   18    6   31 1     
   19    6   32 1     
   20    7    8 am    
   21    7   20 1     
   22    8    9 2     
   23    8   10 1     
   24   10   11 1     
   25   10   12 1     
   26   10   33 1     
   27   11   34 1     
   28   11   35 1     
   29   11   36 1     
   30   12   13 1     
   31   12   37 1     
   32   13   14 1     
   33   13   38 1     
   34   13   39 1     
   35   14   15 1     
   36   14   40 1     
   37   14   41 1     
   38   15   19 1     
   39   15   16 1     
   40   16   17 2     
   41   16   42 1     
   42   17   18 1     
   43   17   43 1     
   44   18   19 2     
   45   18   44 1     
   46   20   45 1     
   47   20   46 1     
   48    9   47 1     
   49    9   48 1     
   50   12   49 1     
   51   19   50 1     
@<TRIPOS>SUBSTRUCTURE
      1 S1             1
@<TRIPOS>SET
LONE_PAIRS      STATIC     ATOMS    <user>   **** ""
4 47 48 49 50
DONOR_HYDROGENS      STATIC     ATOMS    <user>   **** ""
1 37
ATOM$BLUE        STATIC     ATOMS    COLORGROUP SYSTEM
4 47 48 49 50
ATOM$RED        STATIC     ATOMS    COLORGROUP SYSTEM
1 37
