AV-unprocessed.smi:371|AV-procd|sdf|2441|dock5
  -GOLD-   2262022383D 1   1.00000     0.00000
 Structure written by MMmdl.
 39 40  0  0  0  0  0  0  0  0  1 V2000
  153.8752  142.8839  163.5833 C   0  0  0  0  0  0  0  0  0  0  0  0
  153.4295  142.5867  162.1567 C   0  0  0  0  0  0  0  0  0  0  0  0
  152.4637  143.4741  161.5517 C   0  0  0  0  0  0  0  0  0  0  0  0
  151.9830  143.2421  160.3198 C   0  0  0  0  0  0  0  0  0  0  0  0
  150.9530  144.1791  159.6987 C   0  0  0  0  0  0  0  0  0  0  0  0
  152.4353  142.1231  159.5672 N   0  0  0  0  0  0  0  0  0  0  0  0
  151.8786  141.8755  158.2154 C   0  0  0  0  0  0  0  0  0  0  0  0
  150.6724  140.9062  158.2481 C   0  0  2  0  0  0  0  0  0  0  0  0
  151.1458  139.5829  158.4053 O   0  0  0  0  0  0  0  0  0  0  0  0
  149.8337  141.0316  156.9822 C   0  0  0  0  0  0  0  0  0  0  0  0
  148.5231  141.5561  157.0522 C   0  0  0  0  0  0  0  0  0  0  0  0
  147.7391  141.6753  155.8887 C   0  0  0  0  0  0  0  0  0  0  0  0
  148.2584  141.2686  154.6456 C   0  0  0  0  0  0  0  0  0  0  0  0
  149.5615  140.7418  154.5679 C   0  0  0  0  0  0  0  0  0  0  0  0
  150.3486  140.6225  155.7301 C   0  0  0  0  0  0  0  0  0  0  0  0
  151.6005  140.1146  155.6312 F   0  0  0  0  0  0  0  0  0  0  0  0
  153.3883  141.2607  160.0472 C   0  0  0  0  0  0  0  0  0  0  0  0
  153.8178  140.3478  159.3343 O   0  0  0  0  0  0  0  0  0  0  0  0
  153.8602  141.5158  161.4364 C   0  0  0  0  0  0  0  0  0  0  0  0
  154.8440  140.5618  161.9867 C   0  0  0  0  0  0  0  0  0  0  0  0
  154.7994  139.3292  161.4624 N   0  0  0  0  0  0  0  0  0  0  0  0
  155.6154  140.8041  162.9135 O   0  0  0  0  0  0  0  0  0  0  0  0
  153.2700  143.6738  164.0289 H   0  0  0  0  0  0  0  0  0  0  0  0
  154.9140  143.2145  163.5991 H   0  0  0  0  0  0  0  0  0  0  0  0
  153.7770  142.0023  164.2176 H   0  0  0  0  0  0  0  0  0  0  0  0
  152.1144  144.3337  162.1053 H   0  0  0  0  0  0  0  0  0  0  0  0
  150.5361  144.8477  160.4525 H   0  0  0  0  0  0  0  0  0  0  0  0
  150.1142  143.6416  159.2607 H   0  0  0  0  0  0  0  0  0  0  0  0
  151.4163  144.8007  158.9321 H   0  0  0  0  0  0  0  0  0  0  0  0
  151.5754  142.8214  157.7692 H   0  0  0  0  0  0  0  0  0  0  0  0
  152.6294  141.5202  157.5071 H   0  0  0  0  0  0  0  0  0  0  0  0
  150.0464  141.1229  159.1135 H   0  0  0  0  0  0  0  0  0  0  0  0
  151.5496  139.5085  159.2565 H   0  0  0  0  0  0  0  0  0  0  0  0
  148.1145  141.8692  158.0019 H   0  0  0  0  0  0  0  0  0  0  0  0
  146.7391  142.0787  155.9504 H   0  0  0  0  0  0  0  0  0  0  0  0
  147.6582  141.3603  153.7523 H   0  0  0  0  0  0  0  0  0  0  0  0
  149.9595  140.4287  153.6139 H   0  0  0  0  0  0  0  0  0  0  0  0
  155.4266  138.6141  161.8013 H   0  0  0  0  0  0  0  0  0  0  0  0
  154.1236  139.1143  160.7438 H   0  0  0  0  0  0  0  0  0  0  0  0
  1  2  1  0  0  0  0
  1 23  1  0  0  0  0
  1 24  1  0  0  0  0
  1 25  1  0  0  0  0
  2 19  2  0  0  0  0
  2  3  1  0  0  0  0
  3  4  2  0  0  0  0
  3 26  1  0  0  0  0
  4  5  1  0  0  0  0
  4  6  1  0  0  0  0
  5 27  1  0  0  0  0
  5 28  1  0  0  0  0
  5 29  1  0  0  0  0
  6  7  1  0  0  0  0
  6 17  1  0  0  0  0
  7  8  1  0  0  0  0
  7 30  1  0  0  0  0
  7 31  1  0  0  0  0
  8  9  1  0  0  0  0
  8 10  1  0  0  0  0
  8 32  1  0  0  0  0
  9 33  1  0  0  0  0
 10 15  1  0  0  0  0
 10 11  2  0  0  0  0
 11 12  1  0  0  0  0
 11 34  1  0  0  0  0
 12 13  2  0  0  0  0
 12 35  1  0  0  0  0
 13 14  1  0  0  0  0
 13 36  1  0  0  0  0
 14 15  2  0  0  0  0
 14 37  1  0  0  0  0
 15 16  1  0  0  0  0
 17 18  2  0  0  0  0
 17 19  1  0  0  0  0
 19 20  1  0  0  0  0
 20 21  1  0  0  0  0
 20 22  2  0  0  0  0
 21 38  1  0  0  0  0
 21 39  1  0  0  0  0
M  END
> <s_m_source_file>
AV-unprocessed.smi

> <i_m_source_file_index>
371

> <i_lp_mmshare_version>
43012

> <i_f3d_flags>
0

> <s_epik_input>
W0NIM11jMVtjSF1jKFtDSDNdKW4oYyg9TyljMUMoPU8pW05IMl0pW0NIMl1bQ0BIXShbT0hdKWMyW2NIXVtjSF1bY0hdW2NIXWMyRg==

> <s_epik_cmdline>
J2VwaWtfcHl0aG9uJywgJy1waCcsICc3LjAnLCAnLXRuJywgJzgnLCAnLW1hJywgJzIwMCcsICctbWV0YWxfYmluZGluZycsICctaW1hZScsICc8aW5maWxlLm1hZT4nLCAnLW9tYWUnLCAnPG91dGZpbGUubWFlPic=

> <r_lp_tautomer_probability>
1

> <r_epik_Ionization_Penalty>
3.46512e-07

> <r_epik_Ionization_Penalty_Charging>
1.35363e-07

> <r_epik_Ionization_Penalty_Neutral>
2.11149e-07

> <r_epik_State_Penalty>
-0

> <r_epik_Charging_Adjusted_Penalty>
1.35363e-07

> <i_epik_Tot_Q>
0

> <i_epik_Tot_abs_Q>
0

> <r_epik_Metal_State_Penalty>
-0

> <b_epik_Metal_Only>
0

> <s_lp_Force_Field>
OPLS_2005

> <r_lp_Energy>
40.8148

> <b_lp_Chiralities_Consistent>
1

> <s_lp_Variant>
AV-unprocessed.smi:371-1

> <Gold.Version>
5.8.1

> <Gold.Id.Protein>
6NUR|6NUR_protein|mol2

> <Gold.PLP.Fitness>
49.2475

> <Gold.PLP.PLP>
-50.6572

> <Gold.PLP.part.hbond>
-1.0000

> <Gold.PLP.part.metal>
0.0000

> <Gold.PLP.part.buried>
-3.4581

> <Gold.PLP.part.nonpolar>
-45.2164

> <Gold.PLP.part.repulsive>
0.0000

> <Gold.PLP.ligand.clash>
0.0000

> <Gold.PLP.ligand.torsion>
0.8597

> <Gold.PLP.Chemscore.Hbond>
0.0000

> <Gold.PLP.Chemscore.CHOScore>
0.0000

> <Gold.PLP.Chemscore.Metal>
0.0000

> <Gold.Chemscore.Hbonds>
donor molecule, donor type, donor heavy atom, donor atom, acceptor molecule, acceptor atom, score
      P1  H  7997  8009       L1    18  0.15

> <Gold.PLP.Chemscore.Internal.Correction>
0.3097

> <Gold.Rescore>
     Score         DG    S(hbond)    S(metal)    S(lipo)     H(rot)  DE(clash)    DE(int)     intcor
     10.24     -15.01       0.65        0.00     107.62       2.04       0.15       4.62       ----

> <Gold.Chemscore.Fitness>
10.2381

> <Gold.Chemscore.DG>
-15.0136

> <Gold.Chemscore.ZeroCoef>
-5.4800

> <Gold.Chemscore.Hbond>
0.6476

> <Gold.Chemscore.Metal>
0.0000

> <Gold.Chemscore.Lipo>
107.6244

> <Gold.Chemscore.Internal_Hbond>
0.0000

> <Gold.Chemscore.DEClash>
0.1541

> <Gold.Chemscore.DEInternal>
4.6214

> <Gold.Chemscore.Rot>
2.0396

> <Gold.Chemscore.Internal.Correction>
   9.000000E+99

> <Gold.Chemscore.Hbonds>
donor molecule, donor type, donor heavy atom, donor atom, acceptor molecule, acceptor atom, score
      P1  H  7997  8009       L1    18  0.16

> <Gold.Chemscore.Hbond.Weighted>
-2.1629

> <Gold.Chemscore.Metal.Weighted>
-0.0000

> <Gold.Chemscore.Lipo.Weighted>
-12.5921

> <Gold.Chemscore.Internal_Hbond.Weighted>
0.0000

> <Gold.Chemscore.DEClash.Weighted>
0.1541

> <Gold.Chemscore.DEInternal.Weighted>
4.6214

> <Gold.Chemscore.Rot.Weighted>
5.2214

> <Gold.Chemscore.Internal.Correction.Weighted>
   9.000000E+99

> <Gold.Protein.RotatedTorsions>
[ 6907 6896 6895 6894 ] final -175.38 input  -60.11 | X-H torsion
[ 7974 7965 7964 7962 ] final -167.69 input  175.53 | X-H torsion
[ 8008 7997 7996 7995 ] final  127.74 input   59.86 | X-H torsion
[ 10167 10162 10161 10158 ] final  177.99 input  -65.29 | X-H torsion
[ 10718 10713 10712 10709 ] final   70.07 input   66.30 | X-H torsion
[ 10763 10752 10751 10750 ] final  -38.35 input  -60.55 | X-H torsion
[ 11005 11000 10999 10996 ] final  -61.43 input  -57.11 | X-H torsion

> <Gold.Protein.ActiveResidues>
 VAL166  LYS551  ARG553  GLY616  TRP617  ASP618  TYR619  PRO620  LYS621  CYS622 
 ASP623  PHE694  ASN695  SER759  ASP760  ASP761  ALA762  ILE779  LEU786  VAL792 
 PHE793  MET794  SER795  GLU796  ALA797  LYS798  CYS799  TRP800  GLU811  SER814 

> <Gold.Protein.RotatedAtoms>
  151.5876  133.3370  159.3020 H   0  0  0  0  0  0  0  0  0  0  0  0  # atno 6907 bound_to 6896
  150.8278  134.7521  159.6839 H   0  0  0  0  0  0  0  0  0  0  0  0  # atno 6908 bound_to 6896
  152.4366  134.5681  159.9965 H   0  0  0  0  0  0  0  0  0  0  0  0  # atno 6909 bound_to 6896
  144.7218  140.2481  143.6282 H   0  0  0  0  0  0  0  0  0  0  0  0  # atno 7974 bound_to 7965
  156.2898  140.2661  156.2323 H   0  0  0  0  0  0  0  0  0  0  0  0  # atno 8008 bound_to 7997
  155.0060  140.0387  157.2398 H   0  0  0  0  0  0  0  0  0  0  0  0  # atno 8009 bound_to 7997
  154.7560  140.2752  155.6258 H   0  0  0  0  0  0  0  0  0  0  0  0  # atno 8010 bound_to 7997
  139.5276  144.2733  152.0610 H   0  0  0  0  0  0  0  0  0  0  0  0  # atno 10167 bound_to 10162
  157.6380  130.9458  150.0600 H   0  0  0  0  0  0  0  0  0  0  0  0  # atno 10718 bound_to 10713
  153.9114  135.6792  153.4751 H   0  0  0  0  0  0  0  0  0  0  0  0  # atno 10763 bound_to 10752
  153.1076  135.4798  154.8976 H   0  0  0  0  0  0  0  0  0  0  0  0  # atno 10764 bound_to 10752
  154.7525  135.3188  154.8487 H   0  0  0  0  0  0  0  0  0  0  0  0  # atno 10765 bound_to 10752
  141.1324  133.6630  156.5374 H   0  0  0  0  0  0  0  0  0  0  0  0  # atno 11005 bound_to 11000
  145.8255  139.2062  143.1913 LP  0  0  0  0  0  0  0  0  0  0  0  0  # atno 17320 bound_to 7965
  146.0477  140.8101  142.9797 LP  0  0  0  0  0  0  0  0  0  0  0  0  # atno 17321 bound_to 7965
  140.2191  144.4484  150.6350 LP  0  0  0  0  0  0  0  0  0  0  0  0  # atno 17342 bound_to 10162
  140.6430  143.2207  151.6248 LP  0  0  0  0  0  0  0  0  0  0  0  0  # atno 17343 bound_to 10162
  156.1636  130.3644  149.9264 LP  0  0  0  0  0  0  0  0  0  0  0  0  # atno 17370 bound_to 10713
  156.7256  130.9024  151.3622 LP  0  0  0  0  0  0  0  0  0  0  0  0  # atno 17371 bound_to 10713
  140.4167  134.7224  157.4867 LP  0  0  0  0  0  0  0  0  0  0  0  0  # atno 17394 bound_to 11000
  140.0389  134.6297  155.9007 LP  0  0  0  0  0  0  0  0  0  0  0  0  # atno 17395 bound_to 11000

$$$$
