AV-unprocessed.smi:745|AV-procd|sdf|3573|dock2
  -GOLD-   22720 0563D 1   1.00000     0.00000
 Structure written by MMmdl.
 42 43  0  0  0  0  0  0  0  0  2 V2000
  147.8730  141.2849  153.7295 C   0  0  0  0  0  0  0  0  0  0  0  0
  149.2074  140.9570  154.4218 C   0  0  1  0  0  0  0  0  0  0  0  0
  149.4316  141.9681  155.4562 N   0  0  0  0  0  0  0  0  0  0  0  0
  150.3001  141.8737  156.4752 C   0  0  0  0  0  0  0  0  0  0  0  0
  150.9972  140.8806  156.6850 O   0  0  0  0  0  0  0  0  0  0  0  0
  150.2944  142.9917  157.2222 N   0  0  0  0  0  0  0  0  0  0  0  0
  151.0618  143.2756  158.3833 C   0  0  0  0  0  0  0  0  0  0  0  0
  151.1848  144.6476  158.6986 C   0  0  0  0  0  0  0  0  0  0  0  0
  151.9262  145.0345  159.8318 C   0  0  0  0  0  0  0  0  0  0  0  0
  152.5263  144.0379  160.6220 C   0  0  0  0  0  0  0  0  0  0  0  0
  152.3542  142.6951  160.2385 C   0  0  0  0  0  0  0  0  0  0  0  0
  151.6436  142.3221  159.1532 N   0  0  0  0  0  0  0  0  0  0  0  0
  149.2569  139.5237  155.0213 C   0  0  2  0  0  0  0  0  0  0  0  0
  150.5221  138.7438  154.5914 C   0  0  0  0  0  0  0  0  0  0  0  0
  150.5379  137.3100  155.1454 C   0  0  0  0  0  0  0  0  0  0  0  0
  149.3206  136.5703  154.7377 N   0  3  1  0  0  0  0  0  0  0  0  0
  149.3604  135.1490  155.1433 C   0  0  0  0  0  0  0  0  0  0  0  0
  148.0886  137.2552  155.1943 C   0  0  0  0  0  0  0  0  0  0  0  0
  148.0159  138.6868  154.6382 C   0  0  0  0  0  0  0  0  0  0  0  0
  147.7105  140.6679  152.8465 H   0  0  0  0  0  0  0  0  0  0  0  0
  147.8533  142.3223  153.3929 H   0  0  0  0  0  0  0  0  0  0  0  0
  147.0276  141.1397  154.4028 H   0  0  0  0  0  0  0  0  0  0  0  0
  149.9881  141.0355  153.6629 H   0  0  0  0  0  0  0  0  0  0  0  0
  148.8992  142.8217  155.3719 H   0  0  0  0  0  0  0  0  0  0  0  0
  149.6709  143.7274  156.9248 H   0  0  0  0  0  0  0  0  0  0  0  0
  150.7173  145.4005  158.0805 H   0  0  0  0  0  0  0  0  0  0  0  0
  152.0321  146.0780  160.0891 H   0  0  0  0  0  0  0  0  0  0  0  0
  153.1024  144.2954  161.4984 H   0  0  0  0  0  0  0  0  0  0  0  0
  152.7978  141.8991  160.8182 H   0  0  0  0  0  0  0  0  0  0  0  0
  149.2767  139.6144  156.1088 H   0  0  0  0  0  0  0  0  0  0  0  0
  150.5829  138.7134  153.5024 H   0  0  0  0  0  0  0  0  0  0  0  0
  151.4229  139.2519  154.9349 H   0  0  0  0  0  0  0  0  0  0  0  0
  151.4224  136.7889  154.7765 H   0  0  0  0  0  0  0  0  0  0  0  0
  150.6100  137.3275  156.2341 H   0  0  0  0  0  0  0  0  0  0  0  0
  149.3851  135.0525  156.2295 H   0  0  0  0  0  0  0  0  0  0  0  0
  150.2437  134.6571  154.7350 H   0  0  0  0  0  0  0  0  0  0  0  0
  148.4830  134.6184  154.7720 H   0  0  0  0  0  0  0  0  0  0  0  0
  147.2144  136.6930  154.8638 H   0  0  0  0  0  0  0  0  0  0  0  0
  148.0608  137.2727  156.2852 H   0  0  0  0  0  0  0  0  0  0  0  0
  147.1064  139.1531  155.0161 H   0  0  0  0  0  0  0  0  0  0  0  0
  147.9166  138.6505  153.5523 H   0  0  0  0  0  0  0  0  0  0  0  0
  149.3006  136.5805  153.7278 H   0  0  0  0  0  0  0  0  0  0  0  0
  1  2  1  0  0  0  0
  1 20  1  0  0  0  0
  1 21  1  0  0  0  0
  1 22  1  0  0  0  0
  2  3  1  0  0  0  0
  2 13  1  0  0  0  0
  2 23  1  0  0  0  0
  3  4  1  0  0  0  0
  3 24  1  0  0  0  0
  4  5  2  0  0  0  0
  4  6  1  0  0  0  0
  6  7  1  0  0  0  0
  6 25  1  0  0  0  0
  7 12  1  0  0  0  0
  7  8  2  0  0  0  0
  8  9  1  0  0  0  0
  8 26  1  0  0  0  0
  9 10  2  0  0  0  0
  9 27  1  0  0  0  0
 10 11  1  0  0  0  0
 10 28  1  0  0  0  0
 11 12  2  0  0  0  0
 11 29  1  0  0  0  0
 13 19  1  0  0  0  0
 13 14  1  0  0  0  0
 13 30  1  0  0  0  0
 14 15  1  0  0  0  0
 14 31  1  0  0  0  0
 14 32  1  0  0  0  0
 15 16  1  0  0  0  0
 15 33  1  0  0  0  0
 15 34  1  0  0  0  0
 16 17  1  0  0  0  0
 16 18  1  0  0  0  0
 16 42  1  0  0  0  0
 17 35  1  0  0  0  0
 17 36  1  0  0  0  0
 17 37  1  0  0  0  0
 18 19  1  0  0  0  0
 18 38  1  0  0  0  0
 18 39  1  0  0  0  0
 19 40  1  0  0  0  0
 19 41  1  0  0  0  0
M  CHG  1  16   1
M  END
> <s_m_source_file>
AV-unprocessed.smi

> <i_m_source_file_index>
745

> <i_lp_mmshare_version>
43012

> <i_f3d_flags>
0

> <s_epik_input>
W0NIMl0xW0NIMl1OKFtDSDNdKVtDSDJdW0NIMl1bQ0hdMVtDQEhdKFtDSDNdKVtOSF1DKD1PKVtOSF1jMltjSF1bY0hdW2NIXVtjSF1uMg==

> <s_epik_cmdline>
J2VwaWtfcHl0aG9uJywgJy1waCcsICc3LjAnLCAnLXRuJywgJzgnLCAnLW1hJywgJzIwMCcsICctbWV0YWxfYmluZGluZycsICctaW1hZScsICc8aW5maWxlLm1hZT4nLCAnLW9tYWUnLCAnPG91dGZpbGUubWFlPic=

> <r_epik_Ionization_Penalty>
0.0011087

> <r_epik_Ionization_Penalty_Charging>
0.00106265

> <r_epik_Ionization_Penalty_Neutral>
4.60506e-05

> <r_epik_State_Penalty>
0.000695551

> <r_epik_Charging_Adjusted_Penalty>
0.0017582

> <i_epik_Tot_Q>
1

> <i_epik_Tot_abs_Q>
1

> <r_epik_Metal_State_Penalty>
-0

> <b_epik_Metal_Only>
0

> <s_lp_Force_Field>
OPLS_2005

> <r_lp_Energy>
20.1287

> <b_lp_Chiralities_Consistent>
1

> <s_lp_Variant>
AV-unprocessed.smi:745-2

> <Gold.Version>
5.8.1

> <Gold.Id.Protein>
6NUR|6NUR_protein|mol2

> <Gold.PLP.Fitness>
48.4879

> <Gold.PLP.PLP>
-40.5348

> <Gold.PLP.part.hbond>
-3.0832

> <Gold.PLP.part.metal>
0.0000

> <Gold.PLP.part.buried>
-5.1981

> <Gold.PLP.part.nonpolar>
-32.9097

> <Gold.PLP.part.repulsive>
0.2416

> <Gold.PLP.ligand.clash>
0.0000

> <Gold.PLP.ligand.torsion>
1.7684

> <Gold.PLP.Chemscore.Hbond>
3.8240

> <Gold.PLP.Chemscore.CHOScore>
0.0000

> <Gold.PLP.Chemscore.Metal>
0.0000

> <Gold.Chemscore.Hbonds>
donor molecule, donor type, donor heavy atom, donor atom, acceptor molecule, acceptor atom, score
      L1  H     3    24       P1  8028  0.93
      L1  H     6    25       P1  8028  1.00
      L1  H    16    42       P1  7948  2.00

> <Gold.PLP.Chemscore.Internal.Correction>
0.0180

> <Gold.Rescore>
     Score         DG    S(hbond)    S(metal)    S(lipo)     H(rot)  DE(clash)    DE(int)     intcor
     18.61     -23.20       2.89        0.00      96.49       1.26       0.08       4.51       ----

> <Gold.Chemscore.Fitness>
18.6093

> <Gold.Chemscore.DG>
-23.1980

> <Gold.Chemscore.ZeroCoef>
-5.4800

> <Gold.Chemscore.Hbond>
2.8905

> <Gold.Chemscore.Metal>
0.0000

> <Gold.Chemscore.Lipo>
96.4918

> <Gold.Chemscore.Internal_Hbond>
0.0000

> <Gold.Chemscore.DEClash>
0.0837

> <Gold.Chemscore.DEInternal>
4.5050

> <Gold.Chemscore.Rot>
1.2601

> <Gold.Chemscore.Internal.Correction>
   9.000000E+99

> <Gold.Chemscore.Hbonds>
donor molecule, donor type, donor heavy atom, donor atom, acceptor molecule, acceptor atom, score
      L1  H     3    24       P1  8028  0.91
      L1  H     6    25       P1  8028  0.93
      L1  H    16    42       P1  7948  0.94

> <Gold.Chemscore.Hbond.Weighted>
-9.6544

> <Gold.Chemscore.Metal.Weighted>
-0.0000

> <Gold.Chemscore.Lipo.Weighted>
-11.2895

> <Gold.Chemscore.Internal_Hbond.Weighted>
0.0000

> <Gold.Chemscore.DEClash.Weighted>
0.0837

> <Gold.Chemscore.DEInternal.Weighted>
4.5050

> <Gold.Chemscore.Rot.Weighted>
3.2260

> <Gold.Chemscore.Internal.Correction.Weighted>
   9.000000E+99

> <Gold.Protein.RotatedTorsions>
[ 6907 6896 6895 6894 ] final  177.18 input  -60.11 | X-H torsion
[ 7974 7965 7964 7962 ] final  160.32 input  175.53 | X-H torsion
[ 8008 7997 7996 7995 ] final  -79.83 input   59.86 | X-H torsion
[ 10167 10162 10161 10158 ] final  124.44 input  -65.29 | X-H torsion
[ 10718 10713 10712 10709 ] final    9.74 input   66.30 | X-H torsion
[ 10763 10752 10751 10750 ] final  -79.53 input  -60.55 | X-H torsion
[ 11005 11000 10999 10996 ] final -126.17 input  -57.11 | X-H torsion

> <Gold.Protein.ActiveResidues>
 VAL166  LYS551  ARG553  GLY616  TRP617  ASP618  TYR619  PRO620  LYS621  CYS622 
 ASP623  PHE694  ASN695  SER759  ASP760  ASP761  ALA762  ILE779  LEU786  VAL792 
 PHE793  MET794  SER795  GLU796  ALA797  LYS798  CYS799  TRP800  GLU811  SER814 

> <Gold.Protein.RotatedAtoms>
  151.7082  133.3312  159.3283 H   0  0  0  0  0  0  0  0  0  0  0  0  # atno 6907 bound_to 6896
  150.7705  134.6556  159.6321 H   0  0  0  0  0  0  0  0  0  0  0  0  # atno 6908 bound_to 6896
  152.3728  134.6711  160.0222 H   0  0  0  0  0  0  0  0  0  0  0  0  # atno 6909 bound_to 6896
  144.7743  139.7741  143.6285 H   0  0  0  0  0  0  0  0  0  0  0  0  # atno 7974 bound_to 7965
  154.5823  140.0672  156.9121 H   0  0  0  0  0  0  0  0  0  0  0  0  # atno 8008 bound_to 7997
  155.2441  140.3347  155.4271 H   0  0  0  0  0  0  0  0  0  0  0  0  # atno 8009 bound_to 7997
  156.2198  140.1794  156.7489 H   0  0  0  0  0  0  0  0  0  0  0  0  # atno 8010 bound_to 7997
  139.5741  144.6954  151.3699 H   0  0  0  0  0  0  0  0  0  0  0  0  # atno 10167 bound_to 10162
  156.9708  130.5968  149.5668 H   0  0  0  0  0  0  0  0  0  0  0  0  # atno 10718 bound_to 10713
  154.5398  135.5692  153.6829 H   0  0  0  0  0  0  0  0  0  0  0  0  # atno 10763 bound_to 10752
  152.9960  135.6225  154.2518 H   0  0  0  0  0  0  0  0  0  0  0  0  # atno 10764 bound_to 10752
  154.2448  135.2861  155.2819 H   0  0  0  0  0  0  0  0  0  0  0  0  # atno 10765 bound_to 10752
  140.9703  134.0815  157.3877 H   0  0  0  0  0  0  0  0  0  0  0  0  # atno 11005 bound_to 11000
  146.1912  139.5153  142.9804 LP  0  0  0  0  0  0  0  0  0  0  0  0  # atno 17320 bound_to 7965
  145.6232  141.0318  143.1904 LP  0  0  0  0  0  0  0  0  0  0  0  0  # atno 17321 bound_to 7965
  140.7025  143.7597  150.7426 LP  0  0  0  0  0  0  0  0  0  0  0  0  # atno 17342 bound_to 10162
  140.1111  143.4698  152.2369 LP  0  0  0  0  0  0  0  0  0  0  0  0  # atno 17343 bound_to 10162
  156.0284  130.5376  150.8468 LP  0  0  0  0  0  0  0  0  0  0  0  0  # atno 17370 bound_to 10713
  157.5594  131.0945  150.9581 LP  0  0  0  0  0  0  0  0  0  0  0  0  # atno 17371 bound_to 10713
  139.8910  135.0115  156.6765 LP  0  0  0  0  0  0  0  0  0  0  0  0  # atno 17394 bound_to 11000
  140.7339  133.9035  155.8230 LP  0  0  0  0  0  0  0  0  0  0  0  0  # atno 17395 bound_to 11000

$$$$
