AV-unprocessed.smi:714|AV-procd|sdf|3482|dock10
  -GOLD-   22720 0473D 1   1.00000     0.00000
 Structure written by MMmdl.
 38 39  0  0  0  0  0  0  0  0  1 V2000
  152.4355  132.1205  156.8591 C   0  0  0  0  0  0  0  0  0  0  0  0
  151.3322  132.6338  156.7573 C   0  0  0  0  0  0  0  0  0  0  0  0
  150.0085  133.2692  156.6444 C   0  0  0  0  0  0  0  0  0  0  0  0
  150.0893  134.6493  156.1795 N   0  0  0  0  0  0  0  0  0  0  0  0
  150.2872  135.7302  156.9556 C   0  0  0  0  0  0  0  0  0  0  0  0
  150.4437  135.6350  158.1741 O   0  0  0  0  0  0  0  0  0  0  0  0
  150.2890  136.9946  156.2151 C   0  0  0  0  0  0  0  0  0  0  0  0
  149.5246  137.2009  154.9960 C   0  0  0  0  0  0  0  0  0  0  0  0
  149.5422  138.3939  154.3731 C   0  0  0  0  0  0  0  0  0  0  0  0
  150.3237  139.5233  154.8835 C   0  0  0  0  0  0  0  0  0  0  0  0
  150.3085  140.6170  154.3178 O   0  0  0  0  0  0  0  0  0  0  0  0
  151.0578  139.2851  156.0210 N   0  0  0  0  0  0  0  0  0  0  0  0
  151.9194  140.3123  156.6607 C   0  0  2  0  0  0  0  0  0  0  0  0
  152.5068  139.8534  158.0108 C   0  0  0  0  0  0  0  0  0  0  0  0
  152.2610  141.0077  158.9942 C   0  0  0  0  0  0  0  0  0  0  0  0
  151.4121  141.9522  158.2864 N   0  0  0  0  0  0  0  0  0  0  0  0
  150.8824  143.1304  158.9699 C   0  0  0  0  0  0  0  0  0  0  0  0
  151.9879  144.1259  159.3682 C   0  0  0  0  0  0  0  0  0  0  0  0
  151.4207  145.2543  159.7927 F   0  0  0  0  0  0  0  0  0  0  0  0
  152.7470  143.6404  160.3503 F   0  0  0  0  0  0  0  0  0  0  0  0
  152.7588  144.4074  158.3177 F   0  0  0  0  0  0  0  0  0  0  0  0
  151.2072  141.6191  157.0074 C   0  0  0  0  0  0  0  0  0  0  0  0
  150.5513  142.2603  156.1871 O   0  0  0  0  0  0  0  0  0  0  0  0
  151.0158  138.0332  156.6720 C   0  0  0  0  0  0  0  0  0  0  0  0
  153.4010  131.6757  156.9509 H   0  0  0  0  0  0  0  0  0  0  0  0
  149.3819  132.6619  155.9893 H   0  0  0  0  0  0  0  0  0  0  0  0
  149.5460  133.2575  157.6311 H   0  0  0  0  0  0  0  0  0  0  0  0
  149.9724  134.7997  155.1882 H   0  0  0  0  0  0  0  0  0  0  0  0
  148.9274  136.4111  154.5645 H   0  0  0  0  0  0  0  0  0  0  0  0
  148.9644  138.5242  153.4698 H   0  0  0  0  0  0  0  0  0  0  0  0
  152.7448  140.5999  156.0081 H   0  0  0  0  0  0  0  0  0  0  0  0
  152.0351  138.9432  158.3821 H   0  0  0  0  0  0  0  0  0  0  0  0
  153.5715  139.6353  157.9197 H   0  0  0  0  0  0  0  0  0  0  0  0
  151.7761  140.6576  159.9062 H   0  0  0  0  0  0  0  0  0  0  0  0
  153.1980  141.4926  159.2710 H   0  0  0  0  0  0  0  0  0  0  0  0
  150.1632  143.6254  158.3160 H   0  0  0  0  0  0  0  0  0  0  0  0
  150.3237  142.8186  159.8537 H   0  0  0  0  0  0  0  0  0  0  0  0
  151.6104  137.9734  157.5725 H   0  0  0  0  0  0  0  0  0  0  0  0
  1  2  3  0  0  0  0
  1 25  1  0  0  0  0
  2  3  1  0  0  0  0
  3  4  1  0  0  0  0
  3 26  1  0  0  0  0
  3 27  1  0  0  0  0
  4  5  1  0  0  0  0
  4 28  1  0  0  0  0
  5  6  2  0  0  0  0
  5  7  1  0  0  0  0
  7 24  2  0  0  0  0
  7  8  1  0  0  0  0
  8  9  2  0  0  0  0
  8 29  1  0  0  0  0
  9 10  1  0  0  0  0
  9 30  1  0  0  0  0
 10 11  2  0  0  0  0
 10 12  1  0  0  0  0
 12 13  1  0  0  0  0
 12 24  1  0  0  0  0
 13 22  1  0  0  0  0
 13 14  1  0  0  0  0
 13 31  1  0  0  0  0
 14 15  1  0  0  0  0
 14 32  1  0  0  0  0
 14 33  1  0  0  0  0
 15 16  1  0  0  0  0
 15 34  1  0  0  0  0
 15 35  1  0  0  0  0
 16 17  1  0  0  0  0
 16 22  1  0  0  0  0
 17 18  1  0  0  0  0
 17 36  1  0  0  0  0
 17 37  1  0  0  0  0
 18 19  1  0  0  0  0
 18 20  1  0  0  0  0
 18 21  1  0  0  0  0
 22 23  2  0  0  0  0
 24 38  1  0  0  0  0
M  END
> <s_m_source_file>
AV-unprocessed.smi

> <i_m_source_file_index>
714

> <i_lp_mmshare_version>
43012

> <i_f3d_flags>
0

> <s_epik_input>
W0NIXSNDW0NIMl1bTkhdQyg9TyljMVtjSF1bY0hdYyg9TyluKFtjSF0xKVtDQEBIXTJbQ0gyXVtDSDJdTihDMj1PKVtDSDJdQyhGKShGKUY=

> <s_epik_cmdline>
J2VwaWtfcHl0aG9uJywgJy1waCcsICc3LjAnLCAnLXRuJywgJzgnLCAnLW1hJywgJzIwMCcsICctbWV0YWxfYmluZGluZycsICctaW1hZScsICc8aW5maWxlLm1hZT4nLCAnLW9tYWUnLCAnPG91dGZpbGUubWFlPic=

> <r_lp_tautomer_probability>
1

> <r_epik_Ionization_Penalty>
2.95503e-06

> <r_epik_Ionization_Penalty_Charging>
5.74209e-08

> <r_epik_Ionization_Penalty_Neutral>
2.89761e-06

> <r_epik_State_Penalty>
-0

> <r_epik_Charging_Adjusted_Penalty>
5.74209e-08

> <i_epik_Tot_Q>
0

> <i_epik_Tot_abs_Q>
0

> <r_epik_Metal_State_Penalty>
-0

> <b_epik_Metal_Only>
0

> <s_lp_Force_Field>
OPLS_2005

> <r_lp_Energy>
34.0974

> <b_lp_Chiralities_Consistent>
1

> <s_lp_Variant>
AV-unprocessed.smi:714-1

> <Gold.Version>
5.8.1

> <Gold.Id.Protein>
6NUR|6NUR_protein|mol2

> <Gold.PLP.Fitness>
44.3628

> <Gold.PLP.PLP>
-42.4158

> <Gold.PLP.part.hbond>
-1.6768

> <Gold.PLP.part.metal>
0.0000

> <Gold.PLP.part.buried>
-5.5214

> <Gold.PLP.part.nonpolar>
-36.0121

> <Gold.PLP.part.repulsive>
1.0737

> <Gold.PLP.ligand.clash>
1.5446

> <Gold.PLP.ligand.torsion>
0.7158

> <Gold.PLP.Chemscore.Hbond>
1.5840

> <Gold.PLP.Chemscore.CHOScore>
0.0000

> <Gold.PLP.Chemscore.Metal>
0.0000

> <Gold.Chemscore.Hbonds>
donor molecule, donor type, donor heavy atom, donor atom, acceptor molecule, acceptor atom, score
      P1  H  6896  6908       L1     6  0.70
      P1  H  7989  7998       L1    11  0.85

> <Gold.PLP.Chemscore.Internal.Correction>
0.1712

> <Gold.Rescore>
     Score         DG    S(hbond)    S(metal)    S(lipo)     H(rot)  DE(clash)    DE(int)     intcor
     13.11     -15.40       1.93        0.00      64.88       1.61       0.03       2.26       ----

> <Gold.Chemscore.Fitness>
13.1066

> <Gold.Chemscore.DG>
-15.3960

> <Gold.Chemscore.ZeroCoef>
-5.4800

> <Gold.Chemscore.Hbond>
1.9330

> <Gold.Chemscore.Metal>
0.0000

> <Gold.Chemscore.Lipo>
64.8754

> <Gold.Chemscore.Internal_Hbond>
0.0000

> <Gold.Chemscore.DEClash>
0.0303

> <Gold.Chemscore.DEInternal>
2.2590

> <Gold.Chemscore.Rot>
1.6136

> <Gold.Chemscore.Internal.Correction>
   9.000000E+99

> <Gold.Chemscore.Hbonds>
donor molecule, donor type, donor heavy atom, donor atom, acceptor molecule, acceptor atom, score
      P1  H  6896  6908       L1     6  0.72
      P1  H  7989  7998       L1    11  0.69

> <Gold.Chemscore.Hbond.Weighted>
-6.4563

> <Gold.Chemscore.Metal.Weighted>
-0.0000

> <Gold.Chemscore.Lipo.Weighted>
-7.5904

> <Gold.Chemscore.Internal_Hbond.Weighted>
0.0000

> <Gold.Chemscore.DEClash.Weighted>
0.0303

> <Gold.Chemscore.DEInternal.Weighted>
2.2590

> <Gold.Chemscore.Rot.Weighted>
4.1308

> <Gold.Chemscore.Internal.Correction.Weighted>
   9.000000E+99

> <Gold.Protein.RotatedTorsions>
[ 6907 6896 6895 6894 ] final  178.97 input  -60.11 | X-H torsion
[ 7974 7965 7964 7962 ] final   49.84 input  175.53 | X-H torsion
[ 8008 7997 7996 7995 ] final -179.48 input   59.86 | X-H torsion
[ 10167 10162 10161 10158 ] final -135.21 input  -65.29 | X-H torsion
[ 10718 10713 10712 10709 ] final   53.45 input   66.30 | X-H torsion
[ 10763 10752 10751 10750 ] final  -49.76 input  -60.55 | X-H torsion
[ 11005 11000 10999 10996 ] final  -33.86 input  -57.11 | X-H torsion

> <Gold.Protein.ActiveResidues>
 VAL166  LYS551  ARG553  GLY616  TRP617  ASP618  TYR619  PRO620  LYS621  CYS622 
 ASP623  PHE694  ASN695  SER759  ASP760  ASP761  ALA762  ILE779  LEU786  VAL792 
 PHE793  MET794  SER795  GLU796  ALA797  LYS798  CYS799  TRP800  GLU811  SER814 

> <Gold.Protein.RotatedAtoms>
  151.6793  133.3312  159.3215 H   0  0  0  0  0  0  0  0  0  0  0  0  # atno 6907 bound_to 6896
  150.7830  134.6795  159.6445 H   0  0  0  0  0  0  0  0  0  0  0  0  # atno 6908 bound_to 6896
  152.3893  134.6470  160.0166 H   0  0  0  0  0  0  0  0  0  0  0  0  # atno 6909 bound_to 6896
  146.0070  139.4501  142.9980 H   0  0  0  0  0  0  0  0  0  0  0  0  # atno 7974 bound_to 7965
  156.0310  140.1282  157.0258 H   0  0  0  0  0  0  0  0  0  0  0  0  # atno 8008 bound_to 7997
  154.4350  140.1049  156.6169 H   0  0  0  0  0  0  0  0  0  0  0  0  # atno 8009 bound_to 7997
  155.5807  140.3468  155.4542 H   0  0  0  0  0  0  0  0  0  0  0  0  # atno 8010 bound_to 7997
  139.8802  143.6849  152.2628 H   0  0  0  0  0  0  0  0  0  0  0  0  # atno 10167 bound_to 10162
  157.5168  130.8537  149.8505 H   0  0  0  0  0  0  0  0  0  0  0  0  # atno 10718 bound_to 10713
  154.0993  135.6566  153.4865 H   0  0  0  0  0  0  0  0  0  0  0  0  # atno 10763 bound_to 10752
  153.0294  135.5221  154.7302 H   0  0  0  0  0  0  0  0  0  0  0  0  # atno 10764 bound_to 10752
  154.6450  135.2993  155.0027 H   0  0  0  0  0  0  0  0  0  0  0  0  # atno 10765 bound_to 10752
  140.9669  133.7132  156.1460 H   0  0  0  0  0  0  0  0  0  0  0  0  # atno 11005 bound_to 11000
  145.7400  141.0011  143.1306 LP  0  0  0  0  0  0  0  0  0  0  0  0  # atno 17320 bound_to 7965
  144.6939  139.9088  143.7462 LP  0  0  0  0  0  0  0  0  0  0  0  0  # atno 17321 bound_to 7965
  139.7203  144.7604  151.0966 LP  0  0  0  0  0  0  0  0  0  0  0  0  # atno 17342 bound_to 10162
  140.7746  143.5216  150.9530 LP  0  0  0  0  0  0  0  0  0  0  0  0  # atno 17343 bound_to 10162
  156.0325  130.3760  150.1648 LP  0  0  0  0  0  0  0  0  0  0  0  0  # atno 17370 bound_to 10713
  156.9836  130.9872  151.3431 LP  0  0  0  0  0  0  0  0  0  0  0  0  # atno 17371 bound_to 10713
  140.7386  134.4175  157.5557 LP  0  0  0  0  0  0  0  0  0  0  0  0  # atno 17394 bound_to 11000
  139.8898  134.8821  156.2403 LP  0  0  0  0  0  0  0  0  0  0  0  0  # atno 17395 bound_to 11000

$$$$
