AV-unprocessed.smi:3181|AV-procd|sdf|12142|dock10
  -GOLD-   2272017583D 1   1.00000     0.00000
 Structure written by MMmdl.
 42 43  0  0  0  0  0  0  0  0  2 V2000
  147.7067  141.3452  155.8022 C   0  0  0  0  0  0  0  0  0  0  0  0
  149.1581  140.8399  155.7504 C   0  0  1  0  0  0  0  0  0  0  0  0
  149.5094  140.1914  154.3935 C   0  0  0  0  0  0  0  0  0  0  0  0
  150.6239  139.2654  154.4793 N   0  0  0  0  0  0  0  0  0  0  0  0
  150.6780  137.9486  154.2720 C   0  0  0  0  0  0  0  0  0  0  0  0
  151.8868  137.4306  154.4373 N   0  0  0  0  0  0  0  0  0  0  0  0
  152.5791  138.5633  154.7601 C   0  0  0  0  0  0  0  0  0  0  0  0
  151.8690  139.6913  154.7956 N   0  0  0  0  0  0  0  0  0  0  0  0
  150.0814  141.9630  156.0308 N   0  3  0  0  0  0  0  0  0  0  0  0
  150.5195  142.1155  157.4374 C   0  0  1  0  0  0  0  0  0  0  0  0
  151.5379  141.0340  157.8438 C   0  0  0  0  0  0  0  0  0  0  0  0
  152.0217  141.2432  159.2856 C   0  0  0  0  0  0  0  0  0  0  0  0
  152.6289  142.6444  159.5006 C   0  0  2  0  0  0  0  0  0  0  0  0
  153.1046  142.7905  160.9573 C   0  0  0  0  0  0  0  0  0  0  0  0
  151.6196  143.7453  159.0812 C   0  0  1  0  0  0  0  0  0  0  0  0
  152.1928  145.1679  159.2147 C   0  0  0  0  0  0  0  0  0  0  0  0
  151.1309  143.5129  157.6366 C   0  0  0  0  0  0  0  0  0  0  0  0
  146.9936  140.5293  155.6819 H   0  0  0  0  0  0  0  0  0  0  0  0
  147.5116  142.0765  155.0170 H   0  0  0  0  0  0  0  0  0  0  0  0
  147.4917  141.8204  156.7600 H   0  0  0  0  0  0  0  0  0  0  0  0
  149.2639  140.0887  156.5347 H   0  0  0  0  0  0  0  0  0  0  0  0
  148.6466  139.6511  154.0011 H   0  0  0  0  0  0  0  0  0  0  0  0
  149.7598  140.9519  153.6534 H   0  0  0  0  0  0  0  0  0  0  0  0
  149.8173  137.3559  153.9984 H   0  0  0  0  0  0  0  0  0  0  0  0
  153.6376  138.5563  154.9746 H   0  0  0  0  0  0  0  0  0  0  0  0
  150.8937  141.8819  155.4359 H   0  0  0  0  0  0  0  0  0  0  0  0
  149.6384  142.0383  158.0770 H   0  0  0  0  0  0  0  0  0  0  0  0
  151.0954  140.0410  157.7620 H   0  0  0  0  0  0  0  0  0  0  0  0
  152.3919  141.0511  157.1652 H   0  0  0  0  0  0  0  0  0  0  0  0
  151.1857  141.0957  159.9711 H   0  0  0  0  0  0  0  0  0  0  0  0
  152.7578  140.4770  159.5324 H   0  0  0  0  0  0  0  0  0  0  0  0
  153.5078  142.7267  158.8591 H   0  0  0  0  0  0  0  0  0  0  0  0
  152.2643  142.7846  161.6521 H   0  0  0  0  0  0  0  0  0  0  0  0
  153.6615  143.7144  161.1113 H   0  0  0  0  0  0  0  0  0  0  0  0
  153.7693  141.9722  161.2355 H   0  0  0  0  0  0  0  0  0  0  0  0
  150.7517  143.6793  159.7393 H   0  0  0  0  0  0  0  0  0  0  0  0
  153.1116  145.2816  158.6384 H   0  0  0  0  0  0  0  0  0  0  0  0
  152.4132  145.4207  160.2514 H   0  0  0  0  0  0  0  0  0  0  0  0
  151.4819  145.9120  158.8541 H   0  0  0  0  0  0  0  0  0  0  0  0
  151.9646  143.6492  156.9458 H   0  0  0  0  0  0  0  0  0  0  0  0
  150.3914  144.2714  157.3759 H   0  0  0  0  0  0  0  0  0  0  0  0
  149.5940  142.8122  155.7832 H   0  0  0  0  0  0  0  0  0  0  0  0
  1  2  1  0  0  0  0
  1 18  1  0  0  0  0
  1 19  1  0  0  0  0
  1 20  1  0  0  0  0
  2  3  1  0  0  0  0
  2  9  1  0  0  0  0
  2 21  1  0  0  0  0
  3  4  1  0  0  0  0
  3 22  1  0  0  0  0
  3 23  1  0  0  0  0
  4  8  1  0  0  0  0
  4  5  1  0  0  0  0
  5  6  2  0  0  0  0
  5 24  1  0  0  0  0
  6  7  1  0  0  0  0
  7  8  2  0  0  0  0
  7 25  1  0  0  0  0
  9 10  1  0  0  0  0
  9 26  1  0  0  0  0
  9 42  1  0  0  0  0
 10 17  1  0  0  0  0
 10 11  1  0  0  0  0
 10 27  1  0  0  0  0
 11 12  1  0  0  0  0
 11 28  1  0  0  0  0
 11 29  1  0  0  0  0
 12 13  1  0  0  0  0
 12 30  1  0  0  0  0
 12 31  1  0  0  0  0
 13 14  1  0  0  0  0
 13 15  1  0  0  0  0
 13 32  1  0  0  0  0
 14 33  1  0  0  0  0
 14 34  1  0  0  0  0
 14 35  1  0  0  0  0
 15 16  1  0  0  0  0
 15 17  1  0  0  0  0
 15 36  1  0  0  0  0
 16 37  1  0  0  0  0
 16 38  1  0  0  0  0
 16 39  1  0  0  0  0
 17 40  1  0  0  0  0
 17 41  1  0  0  0  0
M  CHG  1   9   1
M  END
> <s_m_source_file>
AV-unprocessed.smi

> <i_m_source_file_index>
3181

> <i_lp_mmshare_version>
43012

> <i_f3d_flags>
0

> <s_epik_input>
bjFbY0hdbltjSF1uMVtDSDJdW0NAQEhdKFtDSDNdKVtOSF1bQ0BASF0yW0NIMl1bQ0gyXVtDQEBIXShbQ0gzXSlbQ0BASF0oW0NIM10pW0NIMl0y

> <s_epik_cmdline>
J2VwaWtfcHl0aG9uJywgJy1waCcsICc3LjAnLCAnLXRuJywgJzgnLCAnLW1hJywgJzIwMCcsICctbWV0YWxfYmluZGluZycsICctaW1hZScsICc8aW5maWxlLm1hZT4nLCAnLW9tYWUnLCAnPG91dGZpbGUubWFlPic=

> <r_lp_tautomer_probability>
1

> <r_epik_Ionization_Penalty>
0.000617007

> <r_epik_Ionization_Penalty_Charging>
0.000616215

> <r_epik_Ionization_Penalty_Neutral>
7.92544e-07

> <r_epik_State_Penalty>
0.000388807

> <r_epik_Charging_Adjusted_Penalty>
0.00100502

> <i_epik_Tot_Q>
1

> <i_epik_Tot_abs_Q>
1

> <r_epik_Metal_State_Penalty>
-0

> <b_epik_Metal_Only>
0

> <s_lp_Force_Field>
OPLS_2005

> <r_lp_Energy>
19.8676

> <b_lp_Chiralities_Consistent>
1

> <s_lp_Variant>
AV-unprocessed.smi:3181-8

> <Gold.Version>
5.8.1

> <Gold.Id.Protein>
6NUR|6NUR_protein|mol2

> <Gold.PLP.Fitness>
53.5410

> <Gold.PLP.PLP>
-42.6017

> <Gold.PLP.part.hbond>
-3.0000

> <Gold.PLP.part.metal>
0.0000

> <Gold.PLP.part.buried>
-4.5827

> <Gold.PLP.part.nonpolar>
-36.1353

> <Gold.PLP.part.repulsive>
0.3122

> <Gold.PLP.ligand.clash>
0.0000

> <Gold.PLP.ligand.torsion>
0.8472

> <Gold.PLP.Chemscore.Hbond>
3.2052

> <Gold.PLP.Chemscore.CHOScore>
1.0000

> <Gold.PLP.Chemscore.Metal>
0.0000

> <Gold.Chemscore.Hbonds>
donor molecule, donor type, donor heavy atom, donor atom, acceptor molecule, acceptor atom, score
      L1  H     9    42       P1  8028  1.95
      P1  H  7989  7998       L1     8  0.30
      P1  H 10752 10764       L1     6  0.87
      L1  C     5    24       P1  7948  1.00

> <Gold.PLP.Chemscore.Internal.Correction>
0.0181

> <Gold.Rescore>
     Score         DG    S(hbond)    S(metal)    S(lipo)     H(rot)  DE(clash)    DE(int)     intcor
     16.56     -17.48       1.78        0.00      97.91       2.11       0.02       0.90       ----

> <Gold.Chemscore.Fitness>
16.5582

> <Gold.Chemscore.DG>
-17.4777

> <Gold.Chemscore.ZeroCoef>
-5.4800

> <Gold.Chemscore.Hbond>
1.7792

> <Gold.Chemscore.Metal>
0.0000

> <Gold.Chemscore.Lipo>
97.9106

> <Gold.Chemscore.Internal_Hbond>
0.0000

> <Gold.Chemscore.DEClash>
0.0197

> <Gold.Chemscore.DEInternal>
0.8998

> <Gold.Chemscore.Rot>
2.1095

> <Gold.Chemscore.Internal.Correction>
   9.000000E+99

> <Gold.Chemscore.Hbonds>
donor molecule, donor type, donor heavy atom, donor atom, acceptor molecule, acceptor atom, score
      L1  H     9    42       P1  8028  0.92
      P1  H 10752 10764       L1     6  0.76

> <Gold.Chemscore.Hbond.Weighted>
-5.9424

> <Gold.Chemscore.Metal.Weighted>
-0.0000

> <Gold.Chemscore.Lipo.Weighted>
-11.4555

> <Gold.Chemscore.Internal_Hbond.Weighted>
0.0000

> <Gold.Chemscore.DEClash.Weighted>
0.0197

> <Gold.Chemscore.DEInternal.Weighted>
0.8998

> <Gold.Chemscore.Rot.Weighted>
5.4003

> <Gold.Chemscore.Internal.Correction.Weighted>
   9.000000E+99

> <Gold.Protein.RotatedTorsions>
[ 6907 6896 6895 6894 ] final   51.00 input  -60.11 | X-H torsion
[ 7974 7965 7964 7962 ] final  109.43 input  175.53 | X-H torsion
[ 8008 7997 7996 7995 ] final    9.97 input   59.86 | X-H torsion
[ 10167 10162 10161 10158 ] final   42.65 input  -65.29 | X-H torsion
[ 10718 10713 10712 10709 ] final -172.00 input   66.30 | X-H torsion
[ 10763 10752 10751 10750 ] final  -76.63 input  -60.55 | X-H torsion
[ 11005 11000 10999 10996 ] final   71.98 input  -57.11 | X-H torsion

> <Gold.Protein.ActiveResidues>
 VAL166  LYS551  ARG553  GLY616  TRP617  ASP618  TYR619  PRO620  LYS621  CYS622 
 ASP623  PHE694  ASN695  SER759  ASP760  ASP761  ALA762  ILE779  LEU786  VAL792 
 PHE793  MET794  SER795  GLU796  ALA797  LYS798  CYS799  TRP800  GLU811  SER814 

> <Gold.Protein.RotatedAtoms>
  152.3079  134.7533  160.0342 H   0  0  0  0  0  0  0  0  0  0  0  0  # atno 6907 bound_to 6896
  151.8024  133.3366  159.3539 H   0  0  0  0  0  0  0  0  0  0  0  0  # atno 6908 bound_to 6896
  150.7305  134.5671  159.5916 H   0  0  0  0  0  0  0  0  0  0  0  0  # atno 6909 bound_to 6896
  145.2679  139.2678  143.3982 H   0  0  0  0  0  0  0  0  0  0  0  0  # atno 7974 bound_to 7965
  154.7872  140.2829  155.6019 H   0  0  0  0  0  0  0  0  0  0  0  0  # atno 8008 bound_to 7997
  156.2959  140.2612  156.2639 H   0  0  0  0  0  0  0  0  0  0  0  0  # atno 8009 bound_to 7997
  154.9714  140.0376  157.2225 H   0  0  0  0  0  0  0  0  0  0  0  0  # atno 8010 bound_to 7997
  140.3523  144.2335  150.6144 H   0  0  0  0  0  0  0  0  0  0  0  0  # atno 10167 bound_to 10162
  156.7492  130.9371  151.3114 H   0  0  0  0  0  0  0  0  0  0  0  0  # atno 10718 bound_to 10713
  154.5023  135.5791  153.6541 H   0  0  0  0  0  0  0  0  0  0  0  0  # atno 10763 bound_to 10752
  152.9881  135.6139  154.2986 H   0  0  0  0  0  0  0  0  0  0  0  0  # atno 10764 bound_to 10752
  154.2894  135.2849  155.2641 H   0  0  0  0  0  0  0  0  0  0  0  0  # atno 10765 bound_to 10752
  139.9514  134.7219  156.0853 H   0  0  0  0  0  0  0  0  0  0  0  0  # atno 11005 bound_to 11000
  146.3255  140.3113  142.8627 LP  0  0  0  0  0  0  0  0  0  0  0  0  # atno 17320 bound_to 7965
  144.9361  140.8028  143.5659 LP  0  0  0  0  0  0  0  0  0  0  0  0  # atno 17321 bound_to 7965
  140.5207  143.2266  151.8393 LP  0  0  0  0  0  0  0  0  0  0  0  0  # atno 17342 bound_to 10162
  139.4825  144.4840  151.9271 LP  0  0  0  0  0  0  0  0  0  0  0  0  # atno 17343 bound_to 10162
  157.6785  130.9117  150.0208 LP  0  0  0  0  0  0  0  0  0  0  0  0  # atno 17370 bound_to 10713
  156.1413  130.3642  149.9578 LP  0  0  0  0  0  0  0  0  0  0  0  0  # atno 17371 bound_to 10713
  141.1178  133.6622  156.3138 LP  0  0  0  0  0  0  0  0  0  0  0  0  # atno 17394 bound_to 11000
  140.5709  134.5841  157.5457 LP  0  0  0  0  0  0  0  0  0  0  0  0  # atno 17395 bound_to 11000

$$$$
