AV-unprocessed.smi:1434|AV-procd|sdf|5853|dock1
  -GOLD-   22720 5523D 1   1.00000     0.00000
 Structure written by MMmdl.
 43 44  0  0  0  0  0  0  0  0  2 V2000
  151.4578  137.6569  154.3962 C   0  0  0  0  0  0  0  0  0  0  0  0
  151.8335  139.0984  155.4707 S   0  0  0  0  0  0  0  0  0  0  0  0
  151.3819  138.7212  156.8196 O   0  0  0  0  0  0  0  0  0  0  0  0
  153.2700  139.3649  155.2924 O   0  0  0  0  0  0  0  0  0  0  0  0
  150.8941  140.2306  154.7880 N   0  5  0  0  0  0  0  0  0  0  0  0
  149.4484  140.0618  154.7727 C   0  0  2  0  0  0  0  0  0  0  0  0
  149.0028  139.1761  153.5780 C   0  0  0  0  0  0  0  0  0  0  0  0
  147.4668  139.1689  153.3511 C   0  0  0  0  0  0  0  0  0  0  0  0
  146.8693  140.5933  153.2943 C   0  0  0  0  0  0  0  0  0  0  0  0
  147.2851  141.2963  154.5288 N   0  0  0  0  0  0  0  0  0  0  0  0
  146.4499  141.7589  155.4967 C   0  0  0  0  0  0  0  0  0  0  0  0
  145.2315  141.5776  155.4826 O   0  0  0  0  0  0  0  0  0  0  0  0
  147.0473  142.4879  156.4549 N   0  0  0  0  0  0  0  0  0  0  0  0
  146.3603  143.1558  157.5542 C   0  0  0  0  0  0  0  0  0  0  0  0
  145.5846  142.1529  158.4248 C   0  0  0  0  0  0  0  0  0  0  0  0
  145.2847  142.7019  159.8064 C   0  0  0  0  0  0  0  0  0  0  0  0
  143.9699  143.0653  160.1682 C   0  0  0  0  0  0  0  0  0  0  0  0
  143.7469  143.5735  161.4627 C   0  0  0  0  0  0  0  0  0  0  0  0
  144.8413  143.6998  162.3399 C   0  0  0  0  0  0  0  0  0  0  0  0
  146.1159  143.3107  161.8816 C   0  0  0  0  0  0  0  0  0  0  0  0
  146.3404  142.8219  160.6428 N   0  0  0  0  0  0  0  0  0  0  0  0
  148.7555  141.4454  154.6306 C   0  0  0  0  0  0  0  0  0  0  0  0
  152.0285  136.7942  154.7382 H   0  0  0  0  0  0  0  0  0  0  0  0
  151.7322  137.8896  153.3678 H   0  0  0  0  0  0  0  0  0  0  0  0
  150.3928  137.4326  154.4480 H   0  0  0  0  0  0  0  0  0  0  0  0
  149.0890  139.6046  155.6955 H   0  0  0  0  0  0  0  0  0  0  0  0
  149.4803  139.5376  152.6658 H   0  0  0  0  0  0  0  0  0  0  0  0
  149.3508  138.1525  153.7167 H   0  0  0  0  0  0  0  0  0  0  0  0
  147.2391  138.6392  152.4258 H   0  0  0  0  0  0  0  0  0  0  0  0
  146.9770  138.6037  154.1467 H   0  0  0  0  0  0  0  0  0  0  0  0
  147.2666  141.1296  152.4312 H   0  0  0  0  0  0  0  0  0  0  0  0
  145.7921  140.5426  153.1380 H   0  0  0  0  0  0  0  0  0  0  0  0
  148.0475  142.6117  156.3973 H   0  0  0  0  0  0  0  0  0  0  0  0
  147.0770  143.7160  158.1573 H   0  0  0  0  0  0  0  0  0  0  0  0
  145.6725  143.8872  157.1292 H   0  0  0  0  0  0  0  0  0  0  0  0
  144.6482  141.8811  157.9354 H   0  0  0  0  0  0  0  0  0  0  0  0
  146.1516  141.2271  158.5333 H   0  0  0  0  0  0  0  0  0  0  0  0
  143.1508  142.9584  159.4723 H   0  0  0  0  0  0  0  0  0  0  0  0
  142.7544  143.8612  161.7768 H   0  0  0  0  0  0  0  0  0  0  0  0
  144.7079  144.0853  163.3398 H   0  0  0  0  0  0  0  0  0  0  0  0
  146.9778  143.3941  162.5268 H   0  0  0  0  0  0  0  0  0  0  0  0
  149.0507  142.0850  155.4641 H   0  0  0  0  0  0  0  0  0  0  0  0
  149.1130  141.9547  153.7340 H   0  0  0  0  0  0  0  0  0  0  0  0
  1  2  1  0  0  0  0
  1 23  1  0  0  0  0
  1 24  1  0  0  0  0
  1 25  1  0  0  0  0
  2  3  2  0  0  0  0
  2  4  2  0  0  0  0
  2  5  1  0  0  0  0
  5  6  1  0  0  0  0
  6 22  1  0  0  0  0
  6  7  1  0  0  0  0
  6 26  1  0  0  0  0
  7  8  1  0  0  0  0
  7 27  1  0  0  0  0
  7 28  1  0  0  0  0
  8  9  1  0  0  0  0
  8 29  1  0  0  0  0
  8 30  1  0  0  0  0
  9 10  1  0  0  0  0
  9 31  1  0  0  0  0
  9 32  1  0  0  0  0
 10 11  1  0  0  0  0
 10 22  1  0  0  0  0
 11 12  2  0  0  0  0
 11 13  1  0  0  0  0
 13 14  1  0  0  0  0
 13 33  1  0  0  0  0
 14 15  1  0  0  0  0
 14 34  1  0  0  0  0
 14 35  1  0  0  0  0
 15 16  1  0  0  0  0
 15 36  1  0  0  0  0
 15 37  1  0  0  0  0
 16 21  1  0  0  0  0
 16 17  2  0  0  0  0
 17 18  1  0  0  0  0
 17 38  1  0  0  0  0
 18 19  2  0  0  0  0
 18 39  1  0  0  0  0
 19 20  1  0  0  0  0
 19 40  1  0  0  0  0
 20 21  2  0  0  0  0
 20 41  1  0  0  0  0
 22 42  1  0  0  0  0
 22 43  1  0  0  0  0
M  CHG  1   5  -1
M  END
> <s_m_source_file>
AV-unprocessed.smi

> <i_m_source_file_index>
1434

> <i_lp_mmshare_version>
43012

> <i_f3d_flags>
0

> <s_epik_input>
W0NIM11TKD1PKSg9TylbTkhdW0NAQEhdMVtDSDJdW0NIMl1bQ0gyXU4oW0NIMl0xKUMoPU8pW05IXVtDSDJdW0NIMl1jMltjSF1bY0hdW2NIXVtjSF1uMg==

> <s_epik_cmdline>
J2VwaWtfcHl0aG9uJywgJy1waCcsICc3LjAnLCAnLXRuJywgJzgnLCAnLW1hJywgJzIwMCcsICctbWV0YWxfYmluZGluZycsICctaW1hZScsICc8aW5maWxlLm1hZT4nLCAnLW9tYWUnLCAnPG91dGZpbGUubWFlPic=

> <r_epik_Ionization_Penalty>
6.57847

> <r_epik_Ionization_Penalty_Charging>
6.53351

> <r_epik_Ionization_Penalty_Neutral>
0.0449527

> <r_epik_State_Penalty>
6.57157

> <r_epik_Charging_Adjusted_Penalty>
13.1051

> <i_epik_Tot_Q>
-1

> <i_epik_Tot_abs_Q>
1

> <r_epik_Metal_State_Penalty>
2.53928

> <b_epik_Metal_Only>
1

> <s_lp_Force_Field>
OPLS_2005

> <r_lp_Energy>
19.5099

> <b_lp_Chiralities_Consistent>
1

> <s_lp_Variant>
AV-unprocessed.smi:1434-5

> <Gold.Version>
5.8.1

> <Gold.Id.Protein>
6NUR|6NUR_protein|mol2

> <Gold.PLP.Fitness>
41.6155

> <Gold.PLP.PLP>
-34.9782

> <Gold.PLP.part.hbond>
-4.4757

> <Gold.PLP.part.metal>
0.0000

> <Gold.PLP.part.buried>
-2.1438

> <Gold.PLP.part.nonpolar>
-30.7319

> <Gold.PLP.part.repulsive>
0.2043

> <Gold.PLP.ligand.clash>
1.5214

> <Gold.PLP.ligand.torsion>
1.0802

> <Gold.PLP.Chemscore.Hbond>
3.0934

> <Gold.PLP.Chemscore.CHOScore>
0.0000

> <Gold.PLP.Chemscore.Metal>
0.0000

> <Gold.Chemscore.Hbonds>
donor molecule, donor type, donor heavy atom, donor atom, acceptor molecule, acceptor atom, score
      L1  H    13    33       P1  8028  0.05
      P1  H  6933  6944       L1    21  0.05
      P1  H  6934  6946       L1    21  0.99
      P1  H  7989  7998       L1     5  1.00
      P1  H  7997  8008       L1     4  1.00

> <Gold.PLP.Chemscore.Internal.Correction>
1.0386

> <Gold.Rescore>
     Score         DG    S(hbond)    S(metal)    S(lipo)     H(rot)  DE(clash)    DE(int)     intcor
     15.88     -17.68       2.49        0.00      69.95       1.68       0.55       1.25       ----

> <Gold.Chemscore.Fitness>
15.8799

> <Gold.Chemscore.DG>
-17.6802

> <Gold.Chemscore.ZeroCoef>
-5.4800

> <Gold.Chemscore.Hbond>
2.4910

> <Gold.Chemscore.Metal>
0.0000

> <Gold.Chemscore.Lipo>
69.9523

> <Gold.Chemscore.Internal_Hbond>
0.0000

> <Gold.Chemscore.DEClash>
0.5523

> <Gold.Chemscore.DEInternal>
1.2479

> <Gold.Chemscore.Rot>
1.6813

> <Gold.Chemscore.Internal.Correction>
   9.000000E+99

> <Gold.Chemscore.Hbonds>
donor molecule, donor type, donor heavy atom, donor atom, acceptor molecule, acceptor atom, score
      L1  H    13    33       P1  8028  0.04
      P1  H  6934  6946       L1    21  0.17
      P1  H  7989  7998       L1     5  0.71
      P1  H  7997  8008       L1     4  0.97

> <Gold.Chemscore.Hbond.Weighted>
-8.3200

> <Gold.Chemscore.Metal.Weighted>
-0.0000

> <Gold.Chemscore.Lipo.Weighted>
-8.1844

> <Gold.Chemscore.Internal_Hbond.Weighted>
0.0000

> <Gold.Chemscore.DEClash.Weighted>
0.5523

> <Gold.Chemscore.DEInternal.Weighted>
1.2479

> <Gold.Chemscore.Rot.Weighted>
4.3042

> <Gold.Chemscore.Internal.Correction.Weighted>
   9.000000E+99

> <Gold.Protein.RotatedTorsions>
[ 6907 6896 6895 6894 ] final  119.39 input  -60.11 | X-H torsion
[ 7974 7965 7964 7962 ] final   78.97 input  175.53 | X-H torsion
[ 8008 7997 7996 7995 ] final  -31.83 input   59.86 | X-H torsion
[ 10167 10162 10161 10158 ] final  -52.88 input  -65.29 | X-H torsion
[ 10718 10713 10712 10709 ] final -116.69 input   66.30 | X-H torsion
[ 10763 10752 10751 10750 ] final  -94.56 input  -60.55 | X-H torsion
[ 11005 11000 10999 10996 ] final  -72.36 input  -57.11 | X-H torsion

> <Gold.Protein.ActiveResidues>
 VAL166  LYS551  ARG553  GLY616  TRP617  ASP618  TYR619  PRO620  LYS621  CYS622 
 ASP623  PHE694  ASN695  SER759  ASP760  ASP761  ALA762  ILE779  LEU786  VAL792 
 PHE793  MET794  SER795  GLU796  ALA797  LYS798  CYS799  TRP800  GLU811  SER814 

> <Gold.Protein.RotatedAtoms>
  152.4475  133.7565  159.6722 H   0  0  0  0  0  0  0  0  0  0  0  0  # atno 6907 bound_to 6896
  150.8379  133.7973  159.3078 H   0  0  0  0  0  0  0  0  0  0  0  0  # atno 6908 bound_to 6896
  151.5607  135.1068  160.0024 H   0  0  0  0  0  0  0  0  0  0  0  0  # atno 6909 bound_to 6896
  145.6702  139.2495  143.1873 H   0  0  0  0  0  0  0  0  0  0  0  0  # atno 7974 bound_to 7965
  154.4200  140.1754  156.1629 H   0  0  0  0  0  0  0  0  0  0  0  0  # atno 8008 bound_to 7997
  155.9823  140.3376  155.6651 H   0  0  0  0  0  0  0  0  0  0  0  0  # atno 8009 bound_to 7997
  155.6483  140.0687  157.2586 H   0  0  0  0  0  0  0  0  0  0  0  0  # atno 8010 bound_to 7997
  140.6514  143.2569  151.4712 H   0  0  0  0  0  0  0  0  0  0  0  0  # atno 10167 bound_to 10162
  156.0981  130.6149  150.9069 H   0  0  0  0  0  0  0  0  0  0  0  0  # atno 10718 bound_to 10713
  154.7067  135.5153  153.8605 H   0  0  0  0  0  0  0  0  0  0  0  0  # atno 10763 bound_to 10752
  153.0747  135.6612  154.0181 H   0  0  0  0  0  0  0  0  0  0  0  0  # atno 10764 bound_to 10752
  154.0030  135.3009  155.3380 H   0  0  0  0  0  0  0  0  0  0  0  0  # atno 10765 bound_to 10752
  141.1607  133.6844  156.7047 H   0  0  0  0  0  0  0  0  0  0  0  0  # atno 11005 bound_to 11000
  146.1052  140.7496  142.9530 LP  0  0  0  0  0  0  0  0  0  0  0  0  # atno 17320 bound_to 7965
  144.7059  140.3850  143.7118 LP  0  0  0  0  0  0  0  0  0  0  0  0  # atno 17321 bound_to 7965
  139.5730  144.1885  152.1863 LP  0  0  0  0  0  0  0  0  0  0  0  0  # atno 17342 bound_to 10162
  140.1187  144.5393  150.6877 LP  0  0  0  0  0  0  0  0  0  0  0  0  # atno 17343 bound_to 10162
  157.6146  131.0934  150.8733 LP  0  0  0  0  0  0  0  0  0  0  0  0  # atno 17370 bound_to 10713
  156.8866  130.5198  149.5288 LP  0  0  0  0  0  0  0  0  0  0  0  0  # atno 17371 bound_to 10713
  140.2932  134.8224  157.4035 LP  0  0  0  0  0  0  0  0  0  0  0  0  # atno 17394 bound_to 11000
  140.1328  134.5073  155.8092 LP  0  0  0  0  0  0  0  0  0  0  0  0  # atno 17395 bound_to 11000

$$$$
