#       Name:                AV-unprocessed.smi:2063
#       Creating user name   scv26
#       Creation time:       Fri Mar 27 11:10:04 2020


#       File generated by GOLD software.
#

@<TRIPOS>MOLECULE
AV-unprocessed.smi:2063
    45    46     1
SMALL
NO_CHARGES


@<TRIPOS>ATOM
      1 ****        -6.0194   2.6278   1.1489 C.3            1 S1                 0.0000
      2 ****        -5.2266   2.4716  -0.1571 C.3            1 S1                 0.0000
      3 ****        -6.0276   1.7793  -1.2694 C.3            1 S1                 0.0000
      4 ****        -3.8948   1.8249   0.0653 C.2            1 S1                 0.0000
      5 ****        -3.7595   0.5688   0.5118 N.2            1 S1                 0.0000
      6 ****        -2.4299   0.1934   0.6389 N.2            1 S1                 0.0000
      7 ****        -1.5959   1.1798   0.2833 C.2            1 S1                 0.0000
      8 ****        -0.1807   1.0672   0.3158 N.am           1 S1                 0.0000
      9 ****         0.5633   0.0181   0.7080 C.2            1 S1                 0.0000
     10 ****         0.1198  -1.0528   1.1235 O.2            1 S1                 0.0000
     11 ****         1.8729   0.2838   0.5902 N.am           1 S1                 0.0000
     12 ****         2.9604  -0.6354   0.9186 C.3            1 S1                 0.0000
     13 ****         4.1009   0.1688   1.5617 C.3            1 S1                 0.0000
     14 ****         3.4181  -1.3842  -0.3506 C.3            1 S1                 0.0000
     15 ****         4.5128  -2.4269  -0.1196 C.3            1 S1                 0.0000
     16 ****         4.3411  -3.3903  -1.2833 C.3            1 S1                 0.0000
     17 ****         2.9415  -3.0800  -1.8201 C.3            1 S1                 0.0000
     18 ****         2.3704  -2.1842  -0.8773 O.3            1 S1                 0.0000
     19 ****        -2.3764   2.6614  -0.2423 S.3            1 S1                 0.0000
     20 ****        -5.4514   3.1954   1.8868 H              1 S1                 0.0000
     21 ****        -6.2593   1.6584   1.5869 H              1 S1                 0.0000
     22 ****        -6.9579   3.1554   0.9775 H              1 S1                 0.0000
     23 ****        -5.0215   3.4823  -0.5124 H              1 S1                 0.0000
     24 ****        -5.4676   1.7658  -2.2051 H              1 S1                 0.0000
     25 ****        -6.9689   2.2968  -1.4557 H              1 S1                 0.0000
     26 ****        -6.2628   0.7474  -1.0060 H              1 S1                 0.0000
     27 ****         0.3253   1.8825   0.0034 H              1 S1                 0.0000
     28 ****         2.1413   1.1905   0.2373 H              1 S1                 0.0000
     29 ****         2.6146  -1.3641   1.6541 H              1 S1                 0.0000
     30 ****         4.9146  -0.4816   1.8830 H              1 S1                 0.0000
     31 ****         3.7517   0.7087   2.4425 H              1 S1                 0.0000
     32 ****         4.5138   0.8995   0.8654 H              1 S1                 0.0000
     33 ****         3.7380  -0.6749  -1.1170 H              1 S1                 0.0000
     34 ****         5.5109  -1.9901  -0.0775 H              1 S1                 0.0000
     35 ****         4.3365  -2.9550   0.8187 H              1 S1                 0.0000
     36 ****         5.0928  -3.2196  -2.0548 H              1 S1                 0.0000
     37 ****         4.4290  -4.4254  -0.9513 H              1 S1                 0.0000
     38 ****         3.0034  -2.5874  -2.7914 H              1 S1                 0.0000
     39 ****         2.3271  -3.9739  -1.9302 H              1 S1                 0.0000
     40 ****        -4.5300  -0.0305   0.7289 LP             1 S1                 0.0000
     41 ****        -2.1300  -0.7058   0.9577 LP             1 S1                 0.0000
     42 ****        -0.8681  -1.1930   1.1896 LP             1 S1                 0.0000
     43 ****         0.7475  -1.7824   1.3948 LP             1 S1                 0.0000
     44 ****         1.6920  -1.6035  -1.3273 LP             1 S1                 0.0000
     45 ****         1.9322  -2.6993  -0.1406 LP             1 S1                 0.0000
@<TRIPOS>BOND
    1    1    2 1     
    2    1   20 1     
    3    1   21 1     
    4    1   22 1     
    5    2    3 1     
    6    2    4 1     
    7    2   23 1     
    8    3   24 1     
    9    3   25 1     
   10    3   26 1     
   11    4   19 1     
   12    4    5 2     
   13    5    6 1     
   14    6    7 2     
   15    7    8 1     
   16    7   19 1     
   17    8    9 am    
   18    8   27 1     
   19    9   10 2     
   20    9   11 am    
   21   11   12 1     
   22   11   28 1     
   23   12   13 1     
   24   12   14 1     
   25   12   29 1     
   26   13   30 1     
   27   13   31 1     
   28   13   32 1     
   29   14   18 1     
   30   14   15 1     
   31   14   33 1     
   32   15   16 1     
   33   15   34 1     
   34   15   35 1     
   35   16   17 1     
   36   16   36 1     
   37   16   37 1     
   38   17   18 1     
   39   17   38 1     
   40   17   39 1     
   41    5   40 1     
   42    6   41 1     
   43   10   42 1     
   44   10   43 1     
   45   18   44 1     
   46   18   45 1     
@<TRIPOS>SUBSTRUCTURE
      1 S1             1
@<TRIPOS>SET
LONE_PAIRS      STATIC     ATOMS    <user>   **** ""
6 40 41 42 43 44 45
DONOR_HYDROGENS      STATIC     ATOMS    <user>   **** ""
2 27 28
ATOM$BLUE        STATIC     ATOMS    COLORGROUP SYSTEM
6 40 41 42 43 44 45
ATOM$RED        STATIC     ATOMS    COLORGROUP SYSTEM
2 27 28
