#       Name:                AV-unprocessed.smi:543
#       Creating user name   scv26
#       Creation time:       Thu Mar 26 23:36:58 2020


#       File generated by GOLD software.
#

@<TRIPOS>MOLECULE
AV-unprocessed.smi:543
    53    55     1
SMALL
NO_CHARGES


@<TRIPOS>ATOM
      1 ****        -3.6015   2.5754   0.2547 C.3            1 S1                 0.0000
      2 ****        -2.9901   1.3124   0.4449 O.3            1 S1                 0.0000
      3 ****        -3.0719   0.8631   1.7885 C.3            1 S1                 0.0000
      4 ****        -2.3355  -0.4768   1.9279 C.3            1 S1                 0.0000
      5 ****        -0.9209  -0.3562   1.5748 N.pl3          1 S1                 0.0000
      6 ****        -0.3182  -0.5690   0.3700 C.2            1 S1                 0.0000
      7 ****        -1.0228  -1.0032  -0.7600 N.pl3          1 S1                 0.0000
      8 ****        -2.4531  -1.2807  -0.8092 C.3            1 S1                 0.0000
      9 ****        -0.3910  -1.4239  -2.0104 C.3            1 S1                 0.0000
     10 ****         0.5168  -2.6380  -1.9020 C.ar           1 S1                 0.0000
     11 ****         1.8944  -2.5161  -2.1819 C.ar           1 S1                 0.0000
     12 ****         2.7420  -3.6354  -2.0695 C.ar           1 S1                 0.0000
     13 ****         2.2152  -4.8820  -1.6807 C.ar           1 S1                 0.0000
     14 ****         0.8403  -5.0089  -1.4035 C.ar           1 S1                 0.0000
     15 ****        -0.0074  -3.8895  -1.5138 C.ar           1 S1                 0.0000
     16 ****         0.9866  -0.2872   0.3532 N.2            1 S1                 0.0000
     17 ****         1.2444   0.1147   1.6524 C.2            1 S1                 0.0000
     18 ****         0.1138   0.0891   2.4061 C.2            1 S1                 0.0000
     19 ****         0.0662   0.5040   3.8267 C.2            1 S1                 0.0000
     20 ****        -0.9863   0.4809   4.4615 O.2            1 S1                 0.0000
     21 ****         1.2936   0.8979   4.2927 N.pl3          1 S1                -1.0000
     22 ****         2.4631   0.9352   3.5641 C.2            1 S1                 0.0000
     23 ****         3.5263   1.3108   4.0599 O.2            1 S1                 0.0000
     24 ****         2.4587   0.5487   2.2497 N.am           1 S1                 0.0000
     25 ****         3.6842   0.5852   1.4463 C.3            1 S1                 0.0000
     26 ****        -3.5131   2.8702  -0.7909 H              1 S1                 0.0000
     27 ****        -3.1188   3.3418   0.8626 H              1 S1                 0.0000
     28 ****        -4.6621   2.5431   0.5076 H              1 S1                 0.0000
     29 ****        -2.6310   1.6033   2.4580 H              1 S1                 0.0000
     30 ****        -4.1168   0.7442   2.0781 H              1 S1                 0.0000
     31 ****        -2.4217  -0.8592   2.9436 H              1 S1                 0.0000
     32 ****        -2.8242  -1.2239   1.3116 H              1 S1                 0.0000
     33 ****        -2.8834  -1.2666   0.1926 H              1 S1                 0.0000
     34 ****        -2.6537  -2.2654  -1.2323 H              1 S1                 0.0000
     35 ****        -2.9660  -0.5358  -1.4184 H              1 S1                 0.0000
     36 ****        -1.1350  -1.6214  -2.7838 H              1 S1                 0.0000
     37 ****         0.1934  -0.5797  -2.3782 H              1 S1                 0.0000
     38 ****         2.3071  -1.5622  -2.4755 H              1 S1                 0.0000
     39 ****         3.7967  -3.5371  -2.2801 H              1 S1                 0.0000
     40 ****         2.8655  -5.7399  -1.5940 H              1 S1                 0.0000
     41 ****         0.4360  -5.9649  -1.1047 H              1 S1                 0.0000
     42 ****        -1.0596  -3.9942  -1.2952 H              1 S1                 0.0000
     43 ****         4.0374   1.6117   1.3403 H              1 S1                 0.0000
     44 ****         3.5423   0.1828   0.4433 H              1 S1                 0.0000
     45 ****         4.4733  -0.0005   1.9200 H              1 S1                 0.0000
     46 ****        -2.0260   1.3814   0.1885 LP             1 S1                 0.0000
     47 ****        -3.4447   0.6445  -0.1443 LP             1 S1                 0.0000
     48 ****         1.6248  -0.3511  -0.4140 LP             1 S1                 0.0000
     49 ****        -1.8304   0.1780   4.0192 LP             1 S1                 0.0000
     50 ****        -0.9983   0.7650   5.4202 LP             1 S1                 0.0000
     51 ****         1.3454   1.1846   5.2493 LP             1 S1                 0.0000
     52 ****         3.5573   1.5998   5.0168 LP             1 S1                 0.0000
     53 ****         4.3585   1.3268   3.5056 LP             1 S1                 0.0000
@<TRIPOS>BOND
    1    1    2 1     
    2    1   26 1     
    3    1   27 1     
    4    1   28 1     
    5    2    3 1     
    6    3    4 1     
    7    3   29 1     
    8    3   30 1     
    9    4    5 1     
   10    4   31 1     
   11    4   32 1     
   12    5   18 1     
   13    5    6 1     
   14    6    7 1     
   15    6   16 2     
   16    7    8 1     
   17    7    9 1     
   18    8   33 1     
   19    8   34 1     
   20    8   35 1     
   21    9   10 1     
   22    9   36 1     
   23    9   37 1     
   24   10   15 ar    
   25   10   11 ar    
   26   11   12 ar    
   27   11   38 1     
   28   12   13 ar    
   29   12   39 1     
   30   13   14 ar    
   31   13   40 1     
   32   14   15 ar    
   33   14   41 1     
   34   15   42 1     
   35   16   17 1     
   36   17   24 1     
   37   17   18 2     
   38   18   19 1     
   39   19   20 2     
   40   19   21 1     
   41   21   22 1     
   42   22   23 2     
   43   22   24 am    
   44   24   25 1     
   45   25   43 1     
   46   25   44 1     
   47   25   45 1     
   48    2   46 1     
   49    2   47 1     
   50   16   48 1     
   51   20   49 1     
   52   20   50 1     
   53   21   51 1     
   54   23   52 1     
   55   23   53 1     
@<TRIPOS>SUBSTRUCTURE
      1 S1             1
@<TRIPOS>SET
LONE_PAIRS      STATIC     ATOMS    <user>   **** ""
8 46 47 48 49 50 51 52 53
ATOM$BLUE        STATIC     ATOMS    COLORGROUP SYSTEM
8 46 47 48 49 50 51 52 53
