AV-unprocessed.smi:269|AV-procd|sdf|2044|dock10
  -GOLD-   2262021263D 1   1.00000     0.00000
 Structure written by MMmdl.
 61 64  0  0  0  0  0  0  0  0  3 V2000
  152.8071  142.8694  160.0297 C   0  0  0  0  0  0  0  0  0  0  0  0
  152.8377  143.6176  158.6931 C   0  0  0  0  0  0  0  0  0  0  0  0
  151.5511  143.4745  158.0188 N   0  5  0  0  0  0  0  0  0  0  0  0
  150.9588  142.2743  157.7770 C   0  0  0  0  0  0  0  0  0  0  0  0
  151.4247  141.2214  157.3289 O   0  0  0  0  0  0  0  0  0  0  0  0
  149.4785  142.2982  158.1742 C   0  0  0  0  0  0  0  0  0  0  0  0
  148.6257  142.3751  156.9624 N   0  3  0  0  0  0  0  0  0  0  0  0
  147.1770  142.3614  157.2894 C   0  0  0  0  0  0  0  0  0  0  0  0
  146.3180  142.5335  156.0238 C   0  0  0  0  0  0  0  0  0  0  0  0
  146.6706  141.5363  155.0166 N   0  0  0  0  0  0  0  0  0  0  0  0
  145.9803  140.3647  155.0556 C   0  0  0  0  0  0  0  0  0  0  0  0
  145.3023  140.0178  156.1822 N   0  0  0  0  0  0  0  0  0  0  0  0
  144.6112  138.8763  156.2347 C   0  0  0  0  0  0  0  0  0  0  0  0
  144.4707  137.9444  155.2918 N   0  0  0  0  0  0  0  0  0  0  0  0
  145.1610  138.2723  154.1631 C   0  0  0  0  0  0  0  0  0  0  0  0
  145.9298  139.4540  153.9604 C   0  0  0  0  0  0  0  0  0  0  0  0
  146.4860  139.4380  152.6870 N   0  0  0  0  0  0  0  0  0  0  0  0
  146.0601  138.3210  152.1642 C   0  0  0  0  0  0  0  0  0  0  0  0
  145.2736  137.5470  152.9885 N   0  0  0  0  0  0  0  0  0  0  0  0
  144.6682  136.2610  152.6649 C   0  0  0  0  0  0  0  0  0  0  0  0
  143.3493  136.3384  151.8304 C   0  0  0  0  0  0  0  0  0  0  0  0
  143.6187  136.0280  150.3336 C   0  0  0  0  0  0  0  0  0  0  0  0
  144.5659  136.9106  149.7653 O   0  0  0  0  0  0  0  0  0  0  0  0
  142.2874  135.3289  152.3359 C   0  0  0  0  0  0  0  0  0  0  0  0
  141.6994  135.7151  153.7056 C   0  0  0  0  0  0  0  0  0  0  0  0
  141.1379  137.0191  153.6397 O   0  0  0  0  0  0  0  0  0  0  0  0
  142.1032  138.0172  153.3360 C   0  0  0  0  0  0  0  0  0  0  0  0
  142.7201  137.7498  151.9508 C   0  0  0  0  0  0  0  0  0  0  0  0
  148.0933  141.5163  154.6761 C   0  0  0  0  0  0  0  0  0  0  0  0
  148.9727  141.3591  155.9320 C   0  0  0  0  0  0  0  0  0  0  0  0
  153.7634  142.9619  160.5447 H   0  0  0  0  0  0  0  0  0  0  0  0
  152.6109  141.8065  159.8858 H   0  0  0  0  0  0  0  0  0  0  0  0
  152.0363  143.2685  160.6900 H   0  0  0  0  0  0  0  0  0  0  0  0
  153.0833  144.6630  158.8825 H   0  0  0  0  0  0  0  0  0  0  0  0
  153.6536  143.2225  158.0869 H   0  0  0  0  0  0  0  0  0  0  0  0
  149.1882  141.4447  158.7910 H   0  0  0  0  0  0  0  0  0  0  0  0
  149.3313  143.1870  158.7893 H   0  0  0  0  0  0  0  0  0  0  0  0
  146.9273  141.4227  157.7866 H   0  0  0  0  0  0  0  0  0  0  0  0
  146.9491  143.1646  157.9912 H   0  0  0  0  0  0  0  0  0  0  0  0
  145.2634  142.4927  156.2917 H   0  0  0  0  0  0  0  0  0  0  0  0
  146.4849  143.5232  155.5971 H   0  0  0  0  0  0  0  0  0  0  0  0
  144.0984  138.6812  157.1652 H   0  0  0  0  0  0  0  0  0  0  0  0
  146.3188  138.0269  151.1577 H   0  0  0  0  0  0  0  0  0  0  0  0
  145.4210  135.6633  152.1527 H   0  0  0  0  0  0  0  0  0  0  0  0
  144.4841  135.7390  153.6046 H   0  0  0  0  0  0  0  0  0  0  0  0
  143.9657  135.0036  150.1993 H   0  0  0  0  0  0  0  0  0  0  0  0
  142.6991  136.1120  149.7535 H   0  0  0  0  0  0  0  0  0  0  0  0
  145.0681  136.4385  149.1192 H   0  0  0  0  0  0  0  0  0  0  0  0
  141.4619  135.2863  151.6241 H   0  0  0  0  0  0  0  0  0  0  0  0
  142.6921  134.3178  152.3708 H   0  0  0  0  0  0  0  0  0  0  0  0
  140.9142  135.0116  153.9825 H   0  0  0  0  0  0  0  0  0  0  0  0
  142.4482  135.6717  154.4962 H   0  0  0  0  0  0  0  0  0  0  0  0
  141.6083  138.9885  153.3387 H   0  0  0  0  0  0  0  0  0  0  0  0
  142.8650  138.0556  154.1150 H   0  0  0  0  0  0  0  0  0  0  0  0
  143.4588  138.5196  151.7253 H   0  0  0  0  0  0  0  0  0  0  0  0
  141.9321  137.8622  151.2048 H   0  0  0  0  0  0  0  0  0  0  0  0
  148.3138  140.7333  153.9494 H   0  0  0  0  0  0  0  0  0  0  0  0
  148.3322  142.4584  154.1818 H   0  0  0  0  0  0  0  0  0  0  0  0
  150.0208  141.4493  155.6461 H   0  0  0  0  0  0  0  0  0  0  0  0
  148.8509  140.3627  156.3582 H   0  0  0  0  0  0  0  0  0  0  0  0
  148.8127  143.2788  156.5519 H   0  0  0  0  0  0  0  0  0  0  0  0
  1  2  1  0  0  0  0
  1 31  1  0  0  0  0
  1 32  1  0  0  0  0
  1 33  1  0  0  0  0
  2  3  1  0  0  0  0
  2 34  1  0  0  0  0
  2 35  1  0  0  0  0
  3  4  1  0  0  0  0
  4  5  2  0  0  0  0
  4  6  1  0  0  0  0
  6  7  1  0  0  0  0
  6 36  1  0  0  0  0
  6 37  1  0  0  0  0
  7 30  1  0  0  0  0
  7  8  1  0  0  0  0
  7 61  1  0  0  0  0
  8  9  1  0  0  0  0
  8 38  1  0  0  0  0
  8 39  1  0  0  0  0
  9 10  1  0  0  0  0
  9 40  1  0  0  0  0
  9 41  1  0  0  0  0
 10 11  1  0  0  0  0
 10 29  1  0  0  0  0
 11 16  1  0  0  0  0
 11 12  2  0  0  0  0
 12 13  1  0  0  0  0
 13 14  2  0  0  0  0
 13 42  1  0  0  0  0
 14 15  1  0  0  0  0
 15 19  1  0  0  0  0
 15 16  2  0  0  0  0
 16 17  1  0  0  0  0
 17 18  2  0  0  0  0
 18 19  1  0  0  0  0
 18 43  1  0  0  0  0
 19 20  1  0  0  0  0
 20 21  1  0  0  0  0
 20 44  1  0  0  0  0
 20 45  1  0  0  0  0
 21 28  1  0  0  0  0
 21 22  1  0  0  0  0
 21 24  1  0  0  0  0
 22 23  1  0  0  0  0
 22 46  1  0  0  0  0
 22 47  1  0  0  0  0
 23 48  1  0  0  0  0
 24 25  1  0  0  0  0
 24 49  1  0  0  0  0
 24 50  1  0  0  0  0
 25 26  1  0  0  0  0
 25 51  1  0  0  0  0
 25 52  1  0  0  0  0
 26 27  1  0  0  0  0
 27 28  1  0  0  0  0
 27 53  1  0  0  0  0
 27 54  1  0  0  0  0
 28 55  1  0  0  0  0
 28 56  1  0  0  0  0
 29 30  1  0  0  0  0
 29 57  1  0  0  0  0
 29 58  1  0  0  0  0
 30 59  1  0  0  0  0
 30 60  1  0  0  0  0
M  CHG  1   3  -1
M  CHG  1   7   1
M  END
> <s_m_source_file>
AV-unprocessed.smi

> <i_m_source_file_index>
269

> <i_lp_mmshare_version>
43012

> <i_f3d_flags>
0

> <s_epik_input>
W0NIM11bQ0gyXVtOSF1DKD1PKVtDSDJdTjFbQ0gyXVtDSDJdTihbQ0gyXVtDSDJdMSljKG5bY0hdbjIpYyhjMjMpbltjSF1uM1tDSDJdQzQoW0NIMl1bT0hdKVtDSDJdW0NIMl1PW0NIMl1bQ0gyXTQ=

> <s_epik_cmdline>
J2VwaWtfcHl0aG9uJywgJy1waCcsICc3LjAnLCAnLXRuJywgJzgnLCAnLW1hJywgJzIwMCcsICctbWV0YWxfYmluZGluZycsICctaW1hZScsICc8aW5maWxlLm1hZT4nLCAnLW9tYWUnLCAnPG91dGZpbGUubWFlPic=

> <r_lp_tautomer_probability>
1

> <r_epik_Ionization_Penalty>
6.2463

> <r_epik_Ionization_Penalty_Charging>
6.24626

> <r_epik_Ionization_Penalty_Neutral>
4.36947e-05

> <r_epik_State_Penalty>
6.38251

> <r_epik_Charging_Adjusted_Penalty>
12.6288

> <i_epik_Tot_Q>
0

> <i_epik_Tot_abs_Q>
2

> <r_epik_Metal_State_Penalty>
2.3175

> <b_epik_Metal_Only>
1

> <s_lp_Force_Field>
OPLS_2005

> <r_lp_Energy>
38.3131

> <b_lp_Chiralities_Consistent>
1

> <s_lp_Variant>
AV-unprocessed.smi:269-3

> <Gold.Version>
5.8.1

> <Gold.Id.Protein>
6NUR|6NUR_protein|mol2

> <Gold.PLP.Fitness>
45.6597

> <Gold.PLP.PLP>
-38.8752

> <Gold.PLP.part.hbond>
-3.0000

> <Gold.PLP.part.metal>
0.0000

> <Gold.PLP.part.buried>
-2.9188

> <Gold.PLP.part.nonpolar>
-33.5738

> <Gold.PLP.part.repulsive>
0.6941

> <Gold.PLP.ligand.clash>
0.0000

> <Gold.PLP.ligand.torsion>
2.0811

> <Gold.PLP.Chemscore.Hbond>
3.0000

> <Gold.PLP.Chemscore.CHOScore>
0.4340

> <Gold.PLP.Chemscore.Metal>
0.0000

> <Gold.Chemscore.Hbonds>
donor molecule, donor type, donor heavy atom, donor atom, acceptor molecule, acceptor atom, score
      L1  H     7    61       P1  8028  2.00
      L1  H    23    48       P1  7921  0.02
      L1  C    18    43       P1 10171  0.09

> <Gold.PLP.Chemscore.Internal.Correction>
0.6445

> <Gold.Rescore>
     Score         DG    S(hbond)    S(metal)    S(lipo)     H(rot)  DE(clash)    DE(int)     intcor
      8.29     -13.17       1.96        0.00      81.44       3.28       1.09       3.78       ----

> <Gold.Chemscore.Fitness>
8.2906

> <Gold.Chemscore.DG>
-13.1663

> <Gold.Chemscore.ZeroCoef>
-5.4800

> <Gold.Chemscore.Hbond>
1.9638

> <Gold.Chemscore.Metal>
0.0000

> <Gold.Chemscore.Lipo>
81.4360

> <Gold.Chemscore.Internal_Hbond>
0.0000

> <Gold.Chemscore.DEClash>
1.0941

> <Gold.Chemscore.DEInternal>
3.7816

> <Gold.Chemscore.Rot>
3.2816

> <Gold.Chemscore.Internal.Correction>
   9.000000E+99

> <Gold.Chemscore.Hbonds>
donor molecule, donor type, donor heavy atom, donor atom, acceptor molecule, acceptor atom, score
      L1  H     7    61       P1  8028  0.91
      L1  H    23    48       P1  7921  0.09

> <Gold.Chemscore.Hbond.Weighted>
-6.5592

> <Gold.Chemscore.Metal.Weighted>
-0.0000

> <Gold.Chemscore.Lipo.Weighted>
-9.5280

> <Gold.Chemscore.Internal_Hbond.Weighted>
0.0000

> <Gold.Chemscore.DEClash.Weighted>
1.0941

> <Gold.Chemscore.DEInternal.Weighted>
3.7816

> <Gold.Chemscore.Rot.Weighted>
8.4009

> <Gold.Chemscore.Internal.Correction.Weighted>
   9.000000E+99

> <Gold.Protein.RotatedTorsions>
[ 6907 6896 6895 6894 ] final    7.00 input  -60.11 | X-H torsion
[ 7974 7965 7964 7962 ] final  -15.89 input  175.53 | X-H torsion
[ 8008 7997 7996 7995 ] final  168.33 input   59.86 | X-H torsion
[ 10167 10162 10161 10158 ] final  160.80 input  -65.29 | X-H torsion
[ 10718 10713 10712 10709 ] final  -64.32 input   66.30 | X-H torsion
[ 10763 10752 10751 10750 ] final -137.67 input  -60.55 | X-H torsion
[ 11005 11000 10999 10996 ] final -151.31 input  -57.11 | X-H torsion

> <Gold.Protein.ActiveResidues>
 VAL166  LYS551  ARG553  GLY616  TRP617  ASP618  TYR619  PRO620  LYS621  CYS622 
 ASP623  PHE694  ASN695  SER759  ASP760  ASP761  ALA762  ILE779  LEU786  VAL792 
 PHE793  MET794  SER795  GLU796  ALA797  LYS798  CYS799  TRP800  GLU811  SER814 

> <Gold.Protein.RotatedAtoms>
  151.6828  135.0959  160.0218 H   0  0  0  0  0  0  0  0  0  0  0  0  # atno 6907 bound_to 6896
  152.3825  133.6562  159.6181 H   0  0  0  0  0  0  0  0  0  0  0  0  # atno 6908 bound_to 6896
  150.7759  133.9006  159.3381 H   0  0  0  0  0  0  0  0  0  0  0  0  # atno 6909 bound_to 6896
  146.2012  140.3557  142.8422 H   0  0  0  0  0  0  0  0  0  0  0  0  # atno 7974 bound_to 7965
  156.1556  140.1593  156.8698 H   0  0  0  0  0  0  0  0  0  0  0  0  # atno 8008 bound_to 7997
  154.5111  140.0800  156.8028 H   0  0  0  0  0  0  0  0  0  0  0  0  # atno 8009 bound_to 7997
  155.3810  140.3405  155.4249 H   0  0  0  0  0  0  0  0  0  0  0  0  # atno 8010 bound_to 7997
  139.4843  144.4598  151.8719 H   0  0  0  0  0  0  0  0  0  0  0  0  # atno 10167 bound_to 10162
  156.0736  130.4232  150.1403 H   0  0  0  0  0  0  0  0  0  0  0  0  # atno 10718 bound_to 10713
  154.8656  135.3635  154.5261 H   0  0  0  0  0  0  0  0  0  0  0  0  # atno 10763 bound_to 10752
  153.5889  135.7016  153.5436 H   0  0  0  0  0  0  0  0  0  0  0  0  # atno 10764 bound_to 10752
  153.3391  135.4103  155.1519 H   0  0  0  0  0  0  0  0  0  0  0  0  # atno 10765 bound_to 10752
  140.7309  134.3622  157.5167 H   0  0  0  0  0  0  0  0  0  0  0  0  # atno 11005 bound_to 11000
  144.8688  140.7244  143.6060 LP  0  0  0  0  0  0  0  0  0  0  0  0  # atno 17320 bound_to 7965
  145.3477  139.1715  143.4452 LP  0  0  0  0  0  0  0  0  0  0  0  0  # atno 17321 bound_to 7965
  140.4060  144.2431  150.5890 LP  0  0  0  0  0  0  0  0  0  0  0  0  # atno 17342 bound_to 10162
  140.5012  143.2317  151.8676 LP  0  0  0  0  0  0  0  0  0  0  0  0  # atno 17343 bound_to 10162
  156.9449  130.9756  151.3509 LP  0  0  0  0  0  0  0  0  0  0  0  0  # atno 17370 bound_to 10713
  157.5820  130.8383  149.8536 LP  0  0  0  0  0  0  0  0  0  0  0  0  # atno 17371 bound_to 10713
  139.8826  134.9018  156.2818 LP  0  0  0  0  0  0  0  0  0  0  0  0  # atno 17394 bound_to 11000
  140.9921  133.7202  156.0830 LP  0  0  0  0  0  0  0  0  0  0  0  0  # atno 17395 bound_to 11000

$$$$
