AV-unprocessed.smi:101|AV-procd|sdf|939|dock5
  -GOLD-   2262017463D 1   1.00000     0.00000
 Structure written by MMmdl.
 43 45  0  0  0  0  0  0  0  0  2 V2000
  142.7820  139.7914  158.2923 C   0  0  0  0  0  0  0  0  0  0  0  0
  144.2307  140.2343  158.1870 C   0  0  0  0  0  0  0  0  0  0  0  0
  144.9975  139.9441  157.1126 C   0  0  0  0  0  0  0  0  0  0  0  0
  146.3167  140.3522  157.0226 N   0  0  0  0  0  0  0  0  0  0  0  0
  147.1531  140.0076  155.8092 C   0  0  2  0  0  0  0  0  0  0  0  0
  148.4028  139.5674  156.2351 O   0  0  0  0  0  0  0  0  0  0  0  0
  149.3441  139.8457  155.2143 C   0  0  2  0  0  0  0  0  0  0  0  0
  150.7571  139.8350  155.8101 C   0  0  0  0  0  0  0  0  0  0  0  0
  150.9021  140.9188  156.7133 O   0  0  0  0  0  0  0  0  0  0  0  0
  151.8969  140.9102  157.6214 C   0  0  0  0  0  0  0  0  0  0  0  0
  152.7031  139.9852  157.7410 O   0  0  0  0  0  0  0  0  0  0  0  0
  151.9244  142.1398  158.4655 C   0  0  0  0  0  0  0  0  0  0  0  0
  151.3385  143.3299  157.9744 C   0  0  0  0  0  0  0  0  0  0  0  0
  151.3454  144.5060  158.7492 C   0  0  0  0  0  0  0  0  0  0  0  0
  151.9394  144.5068  160.0246 C   0  0  0  0  0  0  0  0  0  0  0  0
  152.5271  143.3298  160.5241 C   0  0  0  0  0  0  0  0  0  0  0  0
  152.5211  142.1524  159.7506 C   0  0  0  0  0  0  0  0  0  0  0  0
  148.8992  141.2067  154.6652 C   0  0  1  0  0  0  0  0  0  0  0  0
  149.2291  141.3091  153.2936 O   0  0  0  0  0  0  0  0  0  0  0  0
  147.3823  141.2029  154.8556 C   0  0  2  0  0  0  0  0  0  0  0  0
  146.9454  142.4484  155.3699 O   0  0  0  0  0  0  0  0  0  0  0  0
  146.9066  141.0687  158.0949 C   0  0  0  0  0  0  0  0  0  0  0  0
  148.0955  141.3745  158.0002 O   0  0  0  0  0  0  0  0  0  0  0  0
  146.1393  141.3729  159.1802 N   0  5  0  0  0  0  0  0  0  0  0  0
  144.8305  141.0015  159.2860 C   0  0  0  0  0  0  0  0  0  0  0  0
  144.1476  141.2872  160.2690 O   0  0  0  0  0  0  0  0  0  0  0  0
  142.4738  139.2308  157.4095 H   0  0  0  0  0  0  0  0  0  0  0  0
  142.1262  140.6574  158.3883 H   0  0  0  0  0  0  0  0  0  0  0  0
  142.6408  139.1529  159.1648 H   0  0  0  0  0  0  0  0  0  0  0  0
  144.5651  139.3707  156.3060 H   0  0  0  0  0  0  0  0  0  0  0  0
  146.6605  139.1652  155.3200 H   0  0  0  0  0  0  0  0  0  0  0  0
  149.2409  139.0664  154.4562 H   0  0  0  0  0  0  0  0  0  0  0  0
  150.9500  138.8853  156.3117 H   0  0  0  0  0  0  0  0  0  0  0  0
  151.4951  139.9393  155.0140 H   0  0  0  0  0  0  0  0  0  0  0  0
  150.8760  143.3536  156.9981 H   0  0  0  0  0  0  0  0  0  0  0  0
  150.8939  145.4084  158.3636 H   0  0  0  0  0  0  0  0  0  0  0  0
  151.9442  145.4088  160.6189 H   0  0  0  0  0  0  0  0  0  0  0  0
  152.9838  143.3294  161.5027 H   0  0  0  0  0  0  0  0  0  0  0  0
  152.9818  141.2668  160.1634 H   0  0  0  0  0  0  0  0  0  0  0  0
  149.3645  142.0155  155.2313 H   0  0  0  0  0  0  0  0  0  0  0  0
  149.3778  140.4392  152.9558 H   0  0  0  0  0  0  0  0  0  0  0  0
  146.8492  140.9933  153.9274 H   0  0  0  0  0  0  0  0  0  0  0  0
  147.7083  142.9566  155.6020 H   0  0  0  0  0  0  0  0  0  0  0  0
  1  2  1  0  0  0  0
  1 27  1  0  0  0  0
  1 28  1  0  0  0  0
  1 29  1  0  0  0  0
  2 25  1  0  0  0  0
  2  3  2  0  0  0  0
  3  4  1  0  0  0  0
  3 30  1  0  0  0  0
  4  5  1  0  0  0  0
  4 22  1  0  0  0  0
  5 20  1  0  0  0  0
  5  6  1  0  0  0  0
  5 31  1  0  0  0  0
  6  7  1  0  0  0  0
  7  8  1  0  0  0  0
  7 18  1  0  0  0  0
  7 32  1  0  0  0  0
  8  9  1  0  0  0  0
  8 33  1  0  0  0  0
  8 34  1  0  0  0  0
  9 10  1  0  0  0  0
 10 11  2  0  0  0  0
 10 12  1  0  0  0  0
 12 17  1  0  0  0  0
 12 13  2  0  0  0  0
 13 14  1  0  0  0  0
 13 35  1  0  0  0  0
 14 15  2  0  0  0  0
 14 36  1  0  0  0  0
 15 16  1  0  0  0  0
 15 37  1  0  0  0  0
 16 17  2  0  0  0  0
 16 38  1  0  0  0  0
 17 39  1  0  0  0  0
 18 19  1  0  0  0  0
 18 20  1  0  0  0  0
 18 40  1  0  0  0  0
 19 41  1  0  0  0  0
 20 21  1  0  0  0  0
 20 42  1  0  0  0  0
 21 43  1  0  0  0  0
 22 23  2  0  0  0  0
 22 24  1  0  0  0  0
 24 25  1  0  0  0  0
 25 26  2  0  0  0  0
M  CHG  1  24  -1
M  END
> <s_m_source_file>
AV-unprocessed.smi

> <i_m_source_file_index>
101

> <i_lp_mmshare_version>
43012

> <i_f3d_flags>
0

> <s_epik_input>
Tz1jMVtuSF1jKD1PKW4oW2NIXWMxW0NIM10pW0NAQEhdMk9bQ0BIXShbQ0BASF0oW09IXSlbQ0BIXTJbT0hdKVtDSDJdT0MoPU8pYzNbY0hdW2NIXVtjSF1bY0hdW2NIXTM=

> <s_epik_cmdline>
J2VwaWtfcHl0aG9uJywgJy1waCcsICc3LjAnLCAnLXRuJywgJzgnLCAnLW1hJywgJzIwMCcsICctbWV0YWxfYmluZGluZycsICctaW1hZScsICc8aW5maWxlLm1hZT4nLCAnLW9tYWUnLCAnPG91dGZpbGUubWFlPic=

> <r_lp_tautomer_probability>
0.999537

> <r_epik_Ionization_Penalty>
3.21006

> <r_epik_Ionization_Penalty_Charging>
5.75142e-08

> <r_epik_Ionization_Penalty_Neutral>
3.21006

> <r_epik_State_Penalty>
3.20925

> <r_epik_Charging_Adjusted_Penalty>
3.20925

> <i_epik_Tot_Q>
-1

> <i_epik_Tot_abs_Q>
1

> <r_epik_Metal_State_Penalty>
0.119957

> <b_epik_Metal_Only>
1

> <s_epik_Chemistry_Notes>
This compound has an ester and may undergo hydrolysis at high or low pH. This compound contains an acetal/aminal-like group ( X-CH(R)-Y where X, Y are N, S, or O) that may be acid/base labile, releasing an aldehyde.

> <s_lp_Force_Field>
OPLS_2005

> <r_lp_Energy>
44.2535

> <b_lp_Chiralities_Consistent>
1

> <s_lp_Variant>
AV-unprocessed.smi:101-27

> <Gold.Version>
5.8.1

> <Gold.Id.Protein>
6NUR|6NUR_protein|mol2

> <Gold.PLP.Fitness>
53.4997

> <Gold.PLP.PLP>
-38.9847

> <Gold.PLP.part.hbond>
-5.4774

> <Gold.PLP.part.metal>
0.0000

> <Gold.PLP.part.buried>
-5.9898

> <Gold.PLP.part.nonpolar>
-28.7662

> <Gold.PLP.part.repulsive>
0.1371

> <Gold.PLP.ligand.clash>
0.0000

> <Gold.PLP.ligand.torsion>
0.7758

> <Gold.PLP.Chemscore.Hbond>
5.2720

> <Gold.PLP.Chemscore.CHOScore>
0.0000

> <Gold.PLP.Chemscore.Metal>
0.0000

> <Gold.Chemscore.Hbonds>
donor molecule, donor type, donor heavy atom, donor atom, acceptor molecule, acceptor atom, score
      L1  H    19    41       P1  7957  0.48
      L1  H    21    43       P1  8028  0.84
      P1  H  6934  6946       L1    24  1.54
      P1  H  7997  8008       L1    11  1.00
      P1  H  8011  8017       L1    19  1.00

> <Gold.PLP.Chemscore.Internal.Correction>
0.2507

> <Gold.Rescore>
     Score         DG    S(hbond)    S(metal)    S(lipo)     H(rot)  DE(clash)    DE(int)     intcor
     16.48     -19.35       3.33        0.00      94.90       3.27       0.03       2.85       ----

> <Gold.Chemscore.Fitness>
16.4761

> <Gold.Chemscore.DG>
-19.3496

> <Gold.Chemscore.ZeroCoef>
-5.4800

> <Gold.Chemscore.Hbond>
3.3311

> <Gold.Chemscore.Metal>
0.0000

> <Gold.Chemscore.Lipo>
94.9023

> <Gold.Chemscore.Internal_Hbond>
0.0000

> <Gold.Chemscore.DEClash>
0.0266

> <Gold.Chemscore.DEInternal>
2.8468

> <Gold.Chemscore.Rot>
3.2656

> <Gold.Chemscore.Internal.Correction>
   9.000000E+99

> <Gold.Chemscore.Hbonds>
donor molecule, donor type, donor heavy atom, donor atom, acceptor molecule, acceptor atom, score
      L1  H    19    41       P1  7957  0.48
      L1  H    21    43       P1  8028  0.40
      P1  H  6934  6946       L1    24  0.30
      P1  H  7997  8008       L1    11  0.90
      P1  H  8011  8017       L1    19  0.76

> <Gold.Chemscore.Hbond.Weighted>
-11.1258

> <Gold.Chemscore.Metal.Weighted>
-0.0000

> <Gold.Chemscore.Lipo.Weighted>
-11.1036

> <Gold.Chemscore.Internal_Hbond.Weighted>
0.0000

> <Gold.Chemscore.DEClash.Weighted>
0.0266

> <Gold.Chemscore.DEInternal.Weighted>
2.8468

> <Gold.Chemscore.Rot.Weighted>
8.3598

> <Gold.Chemscore.Internal.Correction.Weighted>
   9.000000E+99

> <Gold.Protein.RotatedTorsions>
[ 6907 6896 6895 6894 ] final  -51.82 input  -60.11 | X-H torsion
[ 7974 7965 7964 7962 ] final   35.89 input  175.53 | X-H torsion
[ 8008 7997 7996 7995 ] final  -62.94 input   59.86 | X-H torsion
[ 10167 10162 10161 10158 ] final  -45.56 input  -65.29 | X-H torsion
[ 10718 10713 10712 10709 ] final  -40.68 input   66.30 | X-H torsion
[ 10763 10752 10751 10750 ] final  133.86 input  -60.55 | X-H torsion
[ 11005 11000 10999 10996 ] final   81.87 input  -57.11 | X-H torsion

> <Gold.Protein.ActiveResidues>
 VAL166  LYS551  ARG553  GLY616  TRP617  ASP618  TYR619  PRO620  LYS621  CYS622 
 ASP623  PHE694  ASN695  SER759  ASP760  ASP761  ALA762  ILE779  LEU786  VAL792 
 PHE793  MET794  SER795  GLU796  ALA797  LYS798  CYS799  TRP800  GLU811  SER814 

> <Gold.Protein.RotatedAtoms>
  150.8575  134.7918  159.7056 H   0  0  0  0  0  0  0  0  0  0  0  0  # atno 6907 bound_to 6896
  152.4622  134.5154  159.9776 H   0  0  0  0  0  0  0  0  0  0  0  0  # atno 6908 bound_to 6896
  151.5263  133.3419  159.2946 H   0  0  0  0  0  0  0  0  0  0  0  0  # atno 6909 bound_to 6896
  146.1251  139.6086  142.9264 H   0  0  0  0  0  0  0  0  0  0  0  0  # atno 7974 bound_to 7965
  154.4527  140.0985  156.6665 H   0  0  0  0  0  0  0  0  0  0  0  0  # atno 8008 bound_to 7997
  155.5235  140.3479  155.4393 H   0  0  0  0  0  0  0  0  0  0  0  0  # atno 8009 bound_to 7997
  156.0714  140.1350  156.9813 H   0  0  0  0  0  0  0  0  0  0  0  0  # atno 8010 bound_to 7997
  140.6853  143.2873  151.3656 H   0  0  0  0  0  0  0  0  0  0  0  0  # atno 10167 bound_to 10162
  156.2786  130.4214  149.8360 H   0  0  0  0  0  0  0  0  0  0  0  0  # atno 10718 bound_to 10713
  153.8141  135.3125  155.3404 H   0  0  0  0  0  0  0  0  0  0  0  0  # atno 10763 bound_to 10752
  154.8039  135.4709  154.0347 H   0  0  0  0  0  0  0  0  0  0  0  0  # atno 10764 bound_to 10752
  153.1735  135.6881  153.8664 H   0  0  0  0  0  0  0  0  0  0  0  0  # atno 10765 bound_to 10752
  139.9083  134.8029  156.2099 H   0  0  0  0  0  0  0  0  0  0  0  0  # atno 11005 bound_to 11000
  145.5383  141.0422  143.2345 LP  0  0  0  0  0  0  0  0  0  0  0  0  # atno 17320 bound_to 7965
  144.7634  139.6902  143.7225 LP  0  0  0  0  0  0  0  0  0  0  0  0  # atno 17321 bound_to 7965
  139.6207  144.0914  152.2388 LP  0  0  0  0  0  0  0  0  0  0  0  0  # atno 17342 bound_to 10162
  140.0357  144.6046  150.7452 LP  0  0  0  0  0  0  0  0  0  0  0  0  # atno 17343 bound_to 10162
  156.5816  130.8468  151.3384 LP  0  0  0  0  0  0  0  0  0  0  0  0  # atno 17370 bound_to 10713
  157.7307  130.9690  150.1847 LP  0  0  0  0  0  0  0  0  0  0  0  0  # atno 17371 bound_to 10713
  141.0472  133.6907  156.1705 LP  0  0  0  0  0  0  0  0  0  0  0  0  # atno 17394 bound_to 11000
  140.6866  134.4710  157.5589 LP  0  0  0  0  0  0  0  0  0  0  0  0  # atno 17395 bound_to 11000

$$$$
