#       Name:                AV-unprocessed.smi:3353
#       Creating user name   scv26
#       Creation time:       Fri Mar 27 19:39:11 2020


#       File generated by GOLD software.
#

@<TRIPOS>MOLECULE
AV-unprocessed.smi:3353
    46    47     1
SMALL
NO_CHARGES


@<TRIPOS>ATOM
      1 ****        -5.3916   3.9650  -0.5582 C.3            1 S1                 0.0000
      2 ****        -4.9766   3.6143   0.8754 C.3            1 S1                 0.0000
      3 ****        -4.5230   2.2414   0.9795 N.pl3          1 S1                 0.0000
      4 ****        -3.2262   1.7676   0.9568 C.2            1 S1                 0.0000
      5 ****        -3.3269   0.4103   1.0769 C.2            1 S1                 0.0000
      6 ****        -2.3019  -0.5688   1.1068 N.am           1 S1                 0.0000
      7 ****        -0.9776  -0.3645   1.0163 C.2            1 S1                 0.0000
      8 ****        -0.4350   0.7349   0.9021 O.2            1 S1                 0.0000
      9 ****        -0.2996  -1.5201   1.0619 N.am           1 S1                 0.0000
     10 ****         1.1539  -1.6350   0.9882 C.3            1 S1                 0.0000
     11 ****         1.7065  -1.4251  -0.4460 C.3            1 S1                 0.0000
     12 ****         1.0926  -2.4507  -1.4254 C.3            1 S1                 0.0000
     13 ****         3.1965  -1.4926  -0.4491 N.4            1 S1                 1.0000
     14 ****         3.8418  -1.4321  -1.7789 C.3            1 S1                 0.0000
     15 ****         5.2821  -1.0187  -1.5009 C.3            1 S1                 0.0000
     16 ****         5.1380  -0.0283  -0.3516 C.3            1 S1                 0.0000
     17 ****         3.8748  -0.4765   0.3964 C.3            1 S1                 0.0000
     18 ****        -4.7156   0.1319   1.1688 C.2            1 S1                 0.0000
     19 ****        -5.4324   1.2438   1.1080 N.2            1 S1                 0.0000
     20 ****        -5.7213   5.0019  -0.6236 H              1 S1                 0.0000
     21 ****        -6.2126   3.3327  -0.8977 H              1 S1                 0.0000
     22 ****        -4.5596   3.8354  -1.2510 H              1 S1                 0.0000
     23 ****        -4.1727   4.2725   1.2070 H              1 S1                 0.0000
     24 ****        -5.8121   3.7638   1.5608 H              1 S1                 0.0000
     25 ****        -2.3771   2.4272   0.8569 H              1 S1                 0.0000
     26 ****        -2.6115  -1.5250   1.2020 H              1 S1                 0.0000
     27 ****        -0.8232  -2.3781   1.1592 H              1 S1                 0.0000
     28 ****         1.5874  -0.9244   1.6928 H              1 S1                 0.0000
     29 ****         1.4303  -2.6259   1.3500 H              1 S1                 0.0000
     30 ****         1.4258  -0.4284  -0.7903 H              1 S1                 0.0000
     31 ****         0.0034  -2.4100  -1.4202 H              1 S1                 0.0000
     32 ****         1.3855  -3.4688  -1.1672 H              1 S1                 0.0000
     33 ****         1.3962  -2.2657  -2.4556 H              1 S1                 0.0000
     34 ****         3.7863  -2.3860  -2.3046 H              1 S1                 0.0000
     35 ****         3.3537  -0.6729  -2.3928 H              1 S1                 0.0000
     36 ****         5.8607  -1.8845  -1.1752 H              1 S1                 0.0000
     37 ****         5.7772  -0.5896  -2.3728 H              1 S1                 0.0000
     38 ****         6.0199  -0.0040   0.2897 H              1 S1                 0.0000
     39 ****         4.9910   0.9768  -0.7495 H              1 S1                 0.0000
     40 ****         3.2341   0.3872   0.5824 H              1 S1                 0.0000
     41 ****         4.1219  -0.9204   1.3614 H              1 S1                 0.0000
     42 ****        -5.2176  -0.8187   1.2736 H              1 S1                 0.0000
     43 ****         3.4531  -2.3904  -0.0637 H              1 S1                 0.0000
     44 ****        -0.9905   1.5658   0.8705 LP             1 S1                 0.0000
     45 ****         0.5612   0.7968   0.8410 LP             1 S1                 0.0000
     46 ****        -6.4279   1.3291   1.1482 LP             1 S1                 0.0000
@<TRIPOS>BOND
    1    1    2 1     
    2    1   20 1     
    3    1   21 1     
    4    1   22 1     
    5    2    3 1     
    6    2   23 1     
    7    2   24 1     
    8    3   19 1     
    9    3    4 1     
   10    4    5 2     
   11    4   25 1     
   12    5    6 1     
   13    5   18 1     
   14    6    7 am    
   15    6   26 1     
   16    7    8 2     
   17    7    9 am    
   18    9   10 1     
   19    9   27 1     
   20   10   11 1     
   21   10   28 1     
   22   10   29 1     
   23   11   12 1     
   24   11   13 1     
   25   11   30 1     
   26   12   31 1     
   27   12   32 1     
   28   12   33 1     
   29   13   17 1     
   30   13   14 1     
   31   13   43 1     
   32   14   15 1     
   33   14   34 1     
   34   14   35 1     
   35   15   16 1     
   36   15   36 1     
   37   15   37 1     
   38   16   17 1     
   39   16   38 1     
   40   16   39 1     
   41   17   40 1     
   42   17   41 1     
   43   18   19 2     
   44   18   42 1     
   45    8   44 1     
   46    8   45 1     
   47   19   46 1     
@<TRIPOS>SUBSTRUCTURE
      1 S1             1
@<TRIPOS>SET
LONE_PAIRS      STATIC     ATOMS    <user>   **** ""
3 44 45 46
DONOR_HYDROGENS      STATIC     ATOMS    <user>   **** ""
3 26 27 43
ATOM$BLUE        STATIC     ATOMS    COLORGROUP SYSTEM
3 44 45 46
ATOM$RED        STATIC     ATOMS    COLORGROUP SYSTEM
3 26 27 43
