AV-unprocessed.smi:680|AV-procd|sdf|3324|dock6
  -GOLD-   22720 0293D 1   1.00000     0.00000
 Structure written by MMmdl.
 32 33  0  0  0  0  0  0  0  0  1 V2000
  150.5000  141.9107  156.0959 C   0  0  0  0  0  0  0  0  0  0  0  0
  150.1546  140.6971  155.2846 C   0  0  0  0  0  0  0  0  0  0  0  0
  148.8678  140.2352  154.8913 C   0  0  0  0  0  0  0  0  0  0  0  0
  149.1569  139.1012  154.1801 C   0  0  0  0  0  0  0  0  0  0  0  0
  148.2973  138.2439  153.5704 N   0  0  0  0  0  0  0  0  0  0  0  0
  146.9625  138.1482  153.7045 C   0  0  0  0  0  0  0  0  0  0  0  0
  146.2660  138.8515  154.4366 O   0  0  0  0  0  0  0  0  0  0  0  0
  146.4690  137.1765  152.9229 N   0  0  0  0  0  0  0  0  0  0  0  0
  145.0585  136.8157  152.8013 C   0  0  0  0  0  0  0  0  0  0  0  0
  144.8796  135.4004  152.2191 C   0  0  1  0  0  0  0  0  0  0  0  0
  143.4021  135.1256  151.8850 C   0  0  0  0  0  0  0  0  0  0  0  0
  143.0872  133.3706  151.5446 S   0  0  0  0  0  0  0  0  0  0  0  0
  144.1402  133.1419  150.0862 C   0  0  0  0  0  0  0  0  0  0  0  0
  145.6161  133.4152  150.3995 C   0  0  0  0  0  0  0  0  0  0  0  0
  145.9214  135.1702  150.7429 S   0  0  0  0  0  0  0  0  0  0  0  0
  150.4925  138.8758  154.1371 O   0  0  0  0  0  0  0  0  0  0  0  0
  151.1223  139.9055  154.8460 N   0  0  0  0  0  0  0  0  0  0  0  0
  149.6031  142.4602  156.3827 H   0  0  0  0  0  0  0  0  0  0  0  0
  151.1402  142.5910  155.5336 H   0  0  0  0  0  0  0  0  0  0  0  0
  151.0259  141.6351  157.0102 H   0  0  0  0  0  0  0  0  0  0  0  0
  147.9064  140.6760  155.1074 H   0  0  0  0  0  0  0  0  0  0  0  0
  148.7241  137.6017  152.9192 H   0  0  0  0  0  0  0  0  0  0  0  0
  147.1184  136.6517  152.3553 H   0  0  0  0  0  0  0  0  0  0  0  0
  144.6304  136.8587  153.8032 H   0  0  0  0  0  0  0  0  0  0  0  0
  144.5033  137.5410  152.2040 H   0  0  0  0  0  0  0  0  0  0  0  0
  145.2044  134.6799  152.9712 H   0  0  0  0  0  0  0  0  0  0  0  0
  142.7692  135.4085  152.7265 H   0  0  0  0  0  0  0  0  0  0  0  0
  143.0793  135.7252  151.0331 H   0  0  0  0  0  0  0  0  0  0  0  0
  144.0212  132.1146  149.7416 H   0  0  0  0  0  0  0  0  0  0  0  0
  143.7911  133.7894  149.2813 H   0  0  0  0  0  0  0  0  0  0  0  0
  145.9486  132.8156  151.2474 H   0  0  0  0  0  0  0  0  0  0  0  0
  146.2313  133.1274  149.5469 H   0  0  0  0  0  0  0  0  0  0  0  0
  1  2  1  0  0  0  0
  1 18  1  0  0  0  0
  1 19  1  0  0  0  0
  1 20  1  0  0  0  0
  2 17  2  0  0  0  0
  2  3  1  0  0  0  0
  3  4  2  0  0  0  0
  3 21  1  0  0  0  0
  4  5  1  0  0  0  0
  4 16  1  0  0  0  0
  5  6  1  0  0  0  0
  5 22  1  0  0  0  0
  6  7  2  0  0  0  0
  6  8  1  0  0  0  0
  8  9  1  0  0  0  0
  8 23  1  0  0  0  0
  9 10  1  0  0  0  0
  9 24  1  0  0  0  0
  9 25  1  0  0  0  0
 10 15  1  0  0  0  0
 10 11  1  0  0  0  0
 10 26  1  0  0  0  0
 11 12  1  0  0  0  0
 11 27  1  0  0  0  0
 11 28  1  0  0  0  0
 12 13  1  0  0  0  0
 13 14  1  0  0  0  0
 13 29  1  0  0  0  0
 13 30  1  0  0  0  0
 14 15  1  0  0  0  0
 14 31  1  0  0  0  0
 14 32  1  0  0  0  0
 16 17  1  0  0  0  0
M  END
> <s_m_source_file>
AV-unprocessed.smi

> <i_m_source_file_index>
680

> <i_lp_mmshare_version>
43012

> <i_f3d_flags>
0

> <s_epik_input>
W0NIM11jMVtjSF1jKG9uMSlbTkhdQyg9TylbTkhdW0NIMl1bQ0BASF0yW0NIMl1TW0NIMl1bQ0gyXVMy

> <s_epik_cmdline>
J2VwaWtfcHl0aG9uJywgJy1waCcsICc3LjAnLCAnLXRuJywgJzgnLCAnLW1hJywgJzIwMCcsICctbWV0YWxfYmluZGluZycsICctaW1hZScsICc8aW5maWxlLm1hZT4nLCAnLW9tYWUnLCAnPG91dGZpbGUubWFlPic=

> <r_epik_Ionization_Penalty>
0.000554698

> <r_epik_Ionization_Penalty_Charging>
0

> <r_epik_Ionization_Penalty_Neutral>
0.000554698

> <r_epik_State_Penalty>
0.000333438

> <r_epik_Charging_Adjusted_Penalty>
0.000333438

> <i_epik_Tot_Q>
0

> <i_epik_Tot_abs_Q>
0

> <r_epik_Metal_State_Penalty>
-0

> <b_epik_Metal_Only>
0

> <s_lp_Force_Field>
OPLS_2005

> <r_lp_Energy>
4.32293

> <b_lp_Chiralities_Consistent>
1

> <s_lp_Variant>
AV-unprocessed.smi:680-2

> <Gold.Version>
5.8.1

> <Gold.Id.Protein>
6NUR|6NUR_protein|mol2

> <Gold.PLP.Fitness>
35.9416

> <Gold.PLP.PLP>
-27.4047

> <Gold.PLP.part.hbond>
-3.1779

> <Gold.PLP.part.metal>
0.0000

> <Gold.PLP.part.buried>
-2.8095

> <Gold.PLP.part.nonpolar>
-20.8885

> <Gold.PLP.part.repulsive>
0.4058

> <Gold.PLP.ligand.clash>
0.0000

> <Gold.PLP.ligand.torsion>
0.2330

> <Gold.PLP.Chemscore.Hbond>
3.0000

> <Gold.PLP.Chemscore.CHOScore>
0.0000

> <Gold.PLP.Chemscore.Metal>
0.0000

> <Gold.Chemscore.Hbonds>
donor molecule, donor type, donor heavy atom, donor atom, acceptor molecule, acceptor atom, score
      L1  H     5    22       P1  7948  1.00
      L1  H     8    23       P1  7948  1.00
      P1  H  7989  7998       L1    17  0.86

> <Gold.PLP.Chemscore.Internal.Correction>
0.0029

> <Gold.Rescore>
     Score         DG    S(hbond)    S(metal)    S(lipo)     H(rot)  DE(clash)    DE(int)     intcor
     15.23     -16.62       2.10        0.00      62.92       1.26       0.10       1.29       ----

> <Gold.Chemscore.Fitness>
15.2285

> <Gold.Chemscore.DG>
-16.6188

> <Gold.Chemscore.ZeroCoef>
-5.4800

> <Gold.Chemscore.Hbond>
2.0958

> <Gold.Chemscore.Metal>
0.0000

> <Gold.Chemscore.Lipo>
62.9222

> <Gold.Chemscore.Internal_Hbond>
0.0000

> <Gold.Chemscore.DEClash>
0.0960

> <Gold.Chemscore.DEInternal>
1.2944

> <Gold.Chemscore.Rot>
1.2590

> <Gold.Chemscore.Internal.Correction>
   9.000000E+99

> <Gold.Chemscore.Hbonds>
donor molecule, donor type, donor heavy atom, donor atom, acceptor molecule, acceptor atom, score
      L1  H     5    22       P1  7948  1.00
      L1  H     8    23       P1  7948  0.94
      P1  H  7989  7998       L1    17  0.04

> <Gold.Chemscore.Hbond.Weighted>
-7.0001

> <Gold.Chemscore.Metal.Weighted>
-0.0000

> <Gold.Chemscore.Lipo.Weighted>
-7.3619

> <Gold.Chemscore.Internal_Hbond.Weighted>
0.0000

> <Gold.Chemscore.DEClash.Weighted>
0.0960

> <Gold.Chemscore.DEInternal.Weighted>
1.2944

> <Gold.Chemscore.Rot.Weighted>
3.2232

> <Gold.Chemscore.Internal.Correction.Weighted>
   9.000000E+99

> <Gold.Protein.RotatedTorsions>
[ 6907 6896 6895 6894 ] final  174.80 input  -60.11 | X-H torsion
[ 7974 7965 7964 7962 ] final   34.16 input  175.53 | X-H torsion
[ 8008 7997 7996 7995 ] final  140.72 input   59.86 | X-H torsion
[ 10167 10162 10161 10158 ] final -168.45 input  -65.29 | X-H torsion
[ 10718 10713 10712 10709 ] final   -6.11 input   66.30 | X-H torsion
[ 10763 10752 10751 10750 ] final   98.18 input  -60.55 | X-H torsion
[ 11005 11000 10999 10996 ] final  100.79 input  -57.11 | X-H torsion

> <Gold.Protein.ActiveResidues>
 VAL166  LYS551  ARG553  GLY616  TRP617  ASP618  TYR619  PRO620  LYS621  CYS622 
 ASP623  PHE694  ASN695  SER759  ASP760  ASP761  ALA762  ILE779  LEU786  VAL792 
 PHE793  MET794  SER795  GLU796  ALA797  LYS798  CYS799  TRP800  GLU811  SER814 

> <Gold.Protein.RotatedAtoms>
  151.7465  133.3325  159.3379 H   0  0  0  0  0  0  0  0  0  0  0  0  # atno 6907 bound_to 6896
  150.7552  134.6231  159.6156 H   0  0  0  0  0  0  0  0  0  0  0  0  # atno 6908 bound_to 6896
  152.3496  134.7025  160.0292 H   0  0  0  0  0  0  0  0  0  0  0  0  # atno 6909 bound_to 6896
  146.1372  139.6304  142.9187 H   0  0  0  0  0  0  0  0  0  0  0  0  # atno 7974 bound_to 7965
  156.2975  140.2334  156.4448 H   0  0  0  0  0  0  0  0  0  0  0  0  # atno 8008 bound_to 7997
  154.8154  140.0440  157.1393 H   0  0  0  0  0  0  0  0  0  0  0  0  # atno 8009 bound_to 7997
  154.9375  140.3025  155.5140 H   0  0  0  0  0  0  0  0  0  0  0  0  # atno 8010 bound_to 7997
  139.5985  144.1062  152.1716 H   0  0  0  0  0  0  0  0  0  0  0  0  # atno 10167 bound_to 10162
  156.7367  130.5197  149.5833 H   0  0  0  0  0  0  0  0  0  0  0  0  # atno 10718 bound_to 10713
  153.2859  135.4157  155.1122 H   0  0  0  0  0  0  0  0  0  0  0  0  # atno 10763 bound_to 10752
  154.8505  135.3506  154.6048 H   0  0  0  0  0  0  0  0  0  0  0  0  # atno 10764 bound_to 10752
  153.6470  135.7054  153.5280 H   0  0  0  0  0  0  0  0  0  0  0  0  # atno 10765 bound_to 10752
  139.8771  134.9155  156.4809 H   0  0  0  0  0  0  0  0  0  0  0  0  # atno 11005 bound_to 11000
  145.5130  141.0435  143.2477 LP  0  0  0  0  0  0  0  0  0  0  0  0  # atno 17320 bound_to 7965
  144.7752  139.6646  143.7178 LP  0  0  0  0  0  0  0  0  0  0  0  0  # atno 17321 bound_to 7965
  140.0652  144.5824  150.7233 LP  0  0  0  0  0  0  0  0  0  0  0  0  # atno 17342 bound_to 10162
  140.7231  143.2608  151.4213 LP  0  0  0  0  0  0  0  0  0  0  0  0  # atno 17343 bound_to 10162
  156.1492  130.6298  151.0573 LP  0  0  0  0  0  0  0  0  0  0  0  0  # atno 17370 bound_to 10713
  157.6836  131.0831  150.7304 LP  0  0  0  0  0  0  0  0  0  0  0  0  # atno 17371 bound_to 10713
  140.8728  133.7976  155.9382 LP  0  0  0  0  0  0  0  0  0  0  0  0  # atno 17394 bound_to 11000
  140.8935  134.2466  157.5081 LP  0  0  0  0  0  0  0  0  0  0  0  0  # atno 17395 bound_to 11000

$$$$
