#       Name:                AV-unprocessed.smi:1995
#       Creating user name   scv26
#       Creation time:       Fri Mar 27 10:29:14 2020


#       File generated by GOLD software.
#

@<TRIPOS>MOLECULE
AV-unprocessed.smi:1995
    48    49     1
SMALL
NO_CHARGES


@<TRIPOS>ATOM
      1 ****        -2.7405  -0.7412  -0.6978 C.3            1 S1                 0.0000
      2 ****        -1.2229  -0.4901  -0.6378 C.3            1 S1                 0.0000
      3 ****        -0.7139   0.2783   0.6205 C.3            1 S1                 0.0000
      4 ****        -1.2595   1.7276   0.5266 C.3            1 S1                 0.0000
      5 ****         0.8461   0.3276   0.6200 C.3            1 S1                 0.0000
      6 ****         1.4158   1.0183  -0.5370 N.am           1 S1                 0.0000
      7 ****         1.9424   0.4232  -1.6176 C.2            1 S1                 0.0000
      8 ****         1.9774  -0.7981  -1.7699 O.2            1 S1                 0.0000
      9 ****         2.4108   1.3299  -2.4926 N.am           1 S1                 0.0000
     10 ****         3.0389   1.0978  -3.7443 C.2            1 S1                 0.0000
     11 ****         3.2546  -0.1150  -4.2670 N.2            1 S1                 0.0000
     12 ****         3.8904  -0.0451  -5.5092 C.2            1 S1                 0.0000
     13 ****         4.1531   1.2382  -5.9202 C.2            1 S1                 0.0000
     14 ****         3.6088   2.4169  -4.7564 S.3            1 S1                 0.0000
     15 ****        -1.2224  -0.3943   1.8718 N.4            1 S1                 1.0000
     16 ****        -0.7914  -1.8074   2.0721 C.3            1 S1                 0.0000
     17 ****        -1.5463  -2.4373   3.2533 C.3            1 S1                 0.0000
     18 ****        -1.3060  -1.6759   4.4284 O.3            1 S1                 0.0000
     19 ****        -1.7798  -0.3433   4.2971 C.3            1 S1                 0.0000
     20 ****        -1.0462   0.3627   3.1438 C.3            1 S1                 0.0000
     21 ****        -2.9988  -1.2788  -1.6104 H              1 S1                 0.0000
     22 ****        -3.3063   0.1901  -0.7018 H              1 S1                 0.0000
     23 ****        -3.0885  -1.3440   0.1409 H              1 S1                 0.0000
     24 ****        -0.7033  -1.4427  -0.7387 H              1 S1                 0.0000
     25 ****        -0.9518   0.0620  -1.5381 H              1 S1                 0.0000
     26 ****        -1.0986   2.1560  -0.4633 H              1 S1                 0.0000
     27 ****        -0.7667   2.3974   1.2316 H              1 S1                 0.0000
     28 ****        -2.3308   1.7717   0.7243 H              1 S1                 0.0000
     29 ****         1.2089   0.8572   1.5002 H              1 S1                 0.0000
     30 ****         1.2704  -0.6743   0.6841 H              1 S1                 0.0000
     31 ****         1.4266   2.0273  -0.5019 H              1 S1                 0.0000
     32 ****         2.3128   2.2999  -2.2320 H              1 S1                 0.0000
     33 ****         4.1190  -0.9611  -6.0336 H              1 S1                 0.0000
     34 ****         4.6315   1.5597  -6.8336 H              1 S1                 0.0000
     35 ****        -0.9787  -2.4141   1.1883 H              1 S1                 0.0000
     36 ****         0.2788  -1.8542   2.2732 H              1 S1                 0.0000
     37 ****        -2.6169  -2.4936   3.0487 H              1 S1                 0.0000
     38 ****        -1.1991  -3.4575   3.4186 H              1 S1                 0.0000
     39 ****        -2.8581  -0.3428   4.1299 H              1 S1                 0.0000
     40 ****        -1.6037   0.1867   5.2335 H              1 S1                 0.0000
     41 ****         0.0128   0.4525   3.3869 H              1 S1                 0.0000
     42 ****        -1.4471   1.3718   3.0712 H              1 S1                 0.0000
     43 ****        -2.2222  -0.4420   1.7370 H              1 S1                 0.0000
     44 ****         1.6005  -1.4007  -1.0665 LP             1 S1                 0.0000
     45 ****         2.3828  -1.1874  -2.5970 LP             1 S1                 0.0000
     46 ****         2.9917  -0.9706  -3.8210 LP             1 S1                 0.0000
     47 ****        -0.3219  -1.6540   4.6048 LP             1 S1                 0.0000
     48 ****        -1.7730  -2.1115   5.1980 LP             1 S1                 0.0000
@<TRIPOS>BOND
    1    1    2 1     
    2    1   21 1     
    3    1   22 1     
    4    1   23 1     
    5    2    3 1     
    6    2   24 1     
    7    2   25 1     
    8    3    4 1     
    9    3    5 1     
   10    3   15 1     
   11    4   26 1     
   12    4   27 1     
   13    4   28 1     
   14    5    6 1     
   15    5   29 1     
   16    5   30 1     
   17    6    7 am    
   18    6   31 1     
   19    7    8 2     
   20    7    9 am    
   21    9   10 1     
   22    9   32 1     
   23   10   14 1     
   24   10   11 2     
   25   11   12 1     
   26   12   13 2     
   27   12   33 1     
   28   13   14 1     
   29   13   34 1     
   30   15   20 1     
   31   15   16 1     
   32   15   43 1     
   33   16   17 1     
   34   16   35 1     
   35   16   36 1     
   36   17   18 1     
   37   17   37 1     
   38   17   38 1     
   39   18   19 1     
   40   19   20 1     
   41   19   39 1     
   42   19   40 1     
   43   20   41 1     
   44   20   42 1     
   45    8   44 1     
   46    8   45 1     
   47   11   46 1     
   48   18   47 1     
   49   18   48 1     
@<TRIPOS>SUBSTRUCTURE
      1 S1             1
@<TRIPOS>SET
LONE_PAIRS      STATIC     ATOMS    <user>   **** ""
5 44 45 46 47 48
DONOR_HYDROGENS      STATIC     ATOMS    <user>   **** ""
3 31 32 43
ATOM$BLUE        STATIC     ATOMS    COLORGROUP SYSTEM
5 44 45 46 47 48
ATOM$RED        STATIC     ATOMS    COLORGROUP SYSTEM
3 31 32 43
