AV-unprocessed.smi:695|AV-procd|sdf|3384|dock2
  -GOLD-   22720 0363D 1   1.00000     0.00000
 Structure written by MMmdl.
 38 39  0  0  0  0  0  0  0  0  1 V2000
  150.5414  133.0154  154.0329 C   0  0  0  0  0  0  0  0  0  0  0  0
  150.7206  134.1959  154.9971 C   0  0  0  0  0  0  0  0  0  0  0  0
  150.5084  135.4694  154.3201 N   0  0  0  0  0  0  0  0  0  0  0  0
  150.8522  136.6659  154.8159 C   0  0  0  0  0  0  0  0  0  0  0  0
  151.4352  136.8253  155.8886 O   0  0  0  0  0  0  0  0  0  0  0  0
  150.4586  137.6672  154.0153 N   0  0  0  0  0  0  0  0  0  0  0  0
  150.6177  139.0918  154.2993 C   0  0  0  0  0  0  0  0  0  0  0  0
  151.9289  139.3996  155.0497 C   0  0  0  0  0  0  0  0  0  0  0  0
  151.7690  140.4152  156.1432 C   0  0  0  0  0  0  0  0  0  0  0  0
  150.8412  141.4263  156.2014 C   0  0  0  0  0  0  0  0  0  0  0  0
  150.9617  142.3355  157.6823 S   0  0  0  0  0  0  0  0  0  0  0  0
  152.3050  141.3044  158.1654 C   0  0  0  0  0  0  0  0  0  0  0  0
  152.9700  141.4735  159.3763 N   0  0  0  0  0  0  0  0  0  0  0  0
  152.8518  142.6198  160.2722 C   0  0  0  0  0  0  0  0  0  0  0  0
  153.5068  142.2427  161.5983 C   0  0  0  0  0  0  0  0  0  0  0  0
  154.5875  141.2750  161.1569 C   0  0  0  0  0  0  0  0  0  0  0  0
  153.9187  140.5499  159.9911 C   0  0  0  0  0  0  0  0  0  0  0  0
  152.6047  140.3669  157.2631 N   0  0  0  0  0  0  0  0  0  0  0  0
  150.7320  132.0692  154.5395 H   0  0  0  0  0  0  0  0  0  0  0  0
  151.2307  133.0863  153.1911 H   0  0  0  0  0  0  0  0  0  0  0  0
  149.5274  132.9786  153.6331 H   0  0  0  0  0  0  0  0  0  0  0  0
  150.0432  134.0984  155.8470 H   0  0  0  0  0  0  0  0  0  0  0  0
  151.7319  134.1897  155.4038 H   0  0  0  0  0  0  0  0  0  0  0  0
  150.0357  135.4392  153.4288 H   0  0  0  0  0  0  0  0  0  0  0  0
  149.9876  137.4274  153.1553 H   0  0  0  0  0  0  0  0  0  0  0  0
  150.5633  139.6755  153.3787 H   0  0  0  0  0  0  0  0  0  0  0  0
  149.7700  139.4072  154.9077 H   0  0  0  0  0  0  0  0  0  0  0  0
  152.3243  138.4721  155.4653 H   0  0  0  0  0  0  0  0  0  0  0  0
  152.6776  139.7416  154.3342 H   0  0  0  0  0  0  0  0  0  0  0  0
  150.0826  141.6761  155.4748 H   0  0  0  0  0  0  0  0  0  0  0  0
  153.3678  143.4669  159.8185 H   0  0  0  0  0  0  0  0  0  0  0  0
  151.8083  142.9028  160.4135 H   0  0  0  0  0  0  0  0  0  0  0  0
  153.8957  143.1043  162.1412 H   0  0  0  0  0  0  0  0  0  0  0  0
  152.7874  141.7308  162.2391 H   0  0  0  0  0  0  0  0  0  0  0  0
  155.4587  141.8276  160.8026 H   0  0  0  0  0  0  0  0  0  0  0  0
  154.9104  140.6000  161.9498 H   0  0  0  0  0  0  0  0  0  0  0  0
  153.3694  139.6787  160.3494 H   0  0  0  0  0  0  0  0  0  0  0  0
  154.6578  140.2041  159.2679 H   0  0  0  0  0  0  0  0  0  0  0  0
  1  2  1  0  0  0  0
  1 19  1  0  0  0  0
  1 20  1  0  0  0  0
  1 21  1  0  0  0  0
  2  3  1  0  0  0  0
  2 22  1  0  0  0  0
  2 23  1  0  0  0  0
  3  4  1  0  0  0  0
  3 24  1  0  0  0  0
  4  5  2  0  0  0  0
  4  6  1  0  0  0  0
  6  7  1  0  0  0  0
  6 25  1  0  0  0  0
  7  8  1  0  0  0  0
  7 26  1  0  0  0  0
  7 27  1  0  0  0  0
  8  9  1  0  0  0  0
  8 28  1  0  0  0  0
  8 29  1  0  0  0  0
  9 18  1  0  0  0  0
  9 10  2  0  0  0  0
 10 11  1  0  0  0  0
 10 30  1  0  0  0  0
 11 12  1  0  0  0  0
 12 13  1  0  0  0  0
 12 18  2  0  0  0  0
 13 17  1  0  0  0  0
 13 14  1  0  0  0  0
 14 15  1  0  0  0  0
 14 31  1  0  0  0  0
 14 32  1  0  0  0  0
 15 16  1  0  0  0  0
 15 33  1  0  0  0  0
 15 34  1  0  0  0  0
 16 17  1  0  0  0  0
 16 35  1  0  0  0  0
 16 36  1  0  0  0  0
 17 37  1  0  0  0  0
 17 38  1  0  0  0  0
M  END
> <s_m_source_file>
AV-unprocessed.smi

> <i_m_source_file_index>
695

> <i_lp_mmshare_version>
43012

> <i_f3d_flags>
0

> <s_epik_input>
W0NIM11bQ0gyXVtOSF1DKD1PKVtOSF1bQ0gyXVtDSDJdYzFbY0hdc2MobjEpTjJbQ0gyXVtDSDJdW0NIMl1bQ0gyXTI=

> <s_epik_cmdline>
J2VwaWtfcHl0aG9uJywgJy1waCcsICc3LjAnLCAnLXRuJywgJzgnLCAnLW1hJywgJzIwMCcsICctbWV0YWxfYmluZGluZycsICctaW1hZScsICc8aW5maWxlLm1hZT4nLCAnLW9tYWUnLCAnPG91dGZpbGUubWFlPic=

> <r_epik_Ionization_Penalty>
0.166233

> <r_epik_Ionization_Penalty_Charging>
0

> <r_epik_Ionization_Penalty_Neutral>
0.166233

> <r_epik_State_Penalty>
0.155475

> <r_epik_Charging_Adjusted_Penalty>
0.155475

> <i_epik_Tot_Q>
0

> <i_epik_Tot_abs_Q>
0

> <r_epik_Metal_State_Penalty>
0.121092

> <b_epik_Metal_Only>
0

> <s_lp_Force_Field>
OPLS_2005

> <r_lp_Energy>
13.2485

> <b_lp_Chiralities_Consistent>
1

> <s_lp_Variant>
AV-unprocessed.smi:695-1

> <Gold.Version>
5.8.1

> <Gold.Id.Protein>
6NUR|6NUR_protein|mol2

> <Gold.PLP.Fitness>
49.4655

> <Gold.PLP.PLP>
-42.3849

> <Gold.PLP.part.hbond>
-3.1804

> <Gold.PLP.part.metal>
0.0000

> <Gold.PLP.part.buried>
-4.5573

> <Gold.PLP.part.nonpolar>
-34.6792

> <Gold.PLP.part.repulsive>
0.1345

> <Gold.PLP.ligand.clash>
0.0000

> <Gold.PLP.ligand.torsion>
0.9903

> <Gold.PLP.Chemscore.Hbond>
3.0000

> <Gold.PLP.Chemscore.CHOScore>
0.0000

> <Gold.PLP.Chemscore.Metal>
0.0000

> <Gold.Chemscore.Hbonds>
donor molecule, donor type, donor heavy atom, donor atom, acceptor molecule, acceptor atom, score
      L1  H     3    24       P1  7948  0.15
      L1  H     6    25       P1  7948  1.00
      P1  H  7997  8009       L1    18  0.93

> <Gold.PLP.Chemscore.Internal.Correction>
0.0612

> <Gold.Rescore>
     Score         DG    S(hbond)    S(metal)    S(lipo)     H(rot)  DE(clash)    DE(int)     intcor
     16.65     -18.73       2.32        0.00      83.98       1.70       0.05       2.03       ----

> <Gold.Chemscore.Fitness>
16.6506

> <Gold.Chemscore.DG>
-18.7272

> <Gold.Chemscore.ZeroCoef>
-5.4800

> <Gold.Chemscore.Hbond>
2.3247

> <Gold.Chemscore.Metal>
0.0000

> <Gold.Chemscore.Lipo>
83.9783

> <Gold.Chemscore.Internal_Hbond>
0.0000

> <Gold.Chemscore.DEClash>
0.0456

> <Gold.Chemscore.DEInternal>
2.0310

> <Gold.Chemscore.Rot>
1.6963

> <Gold.Chemscore.Internal.Correction>
   9.000000E+99

> <Gold.Chemscore.Hbonds>
donor molecule, donor type, donor heavy atom, donor atom, acceptor molecule, acceptor atom, score
      L1  H     6    25       P1  7948  0.24
      P1  H  7997  8009       L1    18  0.69

> <Gold.Chemscore.Hbond.Weighted>
-7.7644

> <Gold.Chemscore.Metal.Weighted>
-0.0000

> <Gold.Chemscore.Lipo.Weighted>
-9.8255

> <Gold.Chemscore.Internal_Hbond.Weighted>
0.0000

> <Gold.Chemscore.DEClash.Weighted>
0.0456

> <Gold.Chemscore.DEInternal.Weighted>
2.0310

> <Gold.Chemscore.Rot.Weighted>
4.3426

> <Gold.Chemscore.Internal.Correction.Weighted>
   9.000000E+99

> <Gold.Protein.RotatedTorsions>
[ 6907 6896 6895 6894 ] final  -17.18 input  -60.11 | X-H torsion
[ 7974 7965 7964 7962 ] final  153.68 input  175.53 | X-H torsion
[ 8008 7997 7996 7995 ] final  173.84 input   59.86 | X-H torsion
[ 10167 10162 10161 10158 ] final  -89.51 input  -65.29 | X-H torsion
[ 10718 10713 10712 10709 ] final -111.00 input   66.30 | X-H torsion
[ 10763 10752 10751 10750 ] final  122.10 input  -60.55 | X-H torsion
[ 11005 11000 10999 10996 ] final -172.52 input  -57.11 | X-H torsion

> <Gold.Protein.ActiveResidues>
 VAL166  LYS551  ARG553  GLY616  TRP617  ASP618  TYR619  PRO620  LYS621  CYS622 
 ASP623  PHE694  ASN695  SER759  ASP760  ASP761  ALA762  ILE779  LEU786  VAL792 
 PHE793  MET794  SER795  GLU796  ALA797  LYS798  CYS799  TRP800  GLU811  SER814 

> <Gold.Protein.RotatedAtoms>
  151.2972  135.0758  159.9225 H   0  0  0  0  0  0  0  0  0  0  0  0  # atno 6907 bound_to 6896
  152.5305  133.9871  159.7843 H   0  0  0  0  0  0  0  0  0  0  0  0  # atno 6908 bound_to 6896
  151.0151  133.5877  159.2708 H   0  0  0  0  0  0  0  0  0  0  0  0  # atno 6909 bound_to 6896
  144.8138  139.6832  143.6130 H   0  0  0  0  0  0  0  0  0  0  0  0  # atno 7974 bound_to 7965
  156.1035  140.1450  156.9436 H   0  0  0  0  0  0  0  0  0  0  0  0  # atno 8008 bound_to 7997
  154.4718  140.0907  156.7208 H   0  0  0  0  0  0  0  0  0  0  0  0  # atno 8009 bound_to 7997
  155.4720  140.3442  155.4329 H   0  0  0  0  0  0  0  0  0  0  0  0  # atno 8010 bound_to 7997
  140.3641  143.2827  151.9579 H   0  0  0  0  0  0  0  0  0  0  0  0  # atno 10167 bound_to 10162
  156.0622  130.5845  150.8314 H   0  0  0  0  0  0  0  0  0  0  0  0  # atno 10718 bound_to 10713
  153.6245  135.3407  155.3022 H   0  0  0  0  0  0  0  0  0  0  0  0  # atno 10763 bound_to 10752
  154.8593  135.4281  154.2172 H   0  0  0  0  0  0  0  0  0  0  0  0  # atno 10764 bound_to 10752
  153.3052  135.7027  153.7239 H   0  0  0  0  0  0  0  0  0  0  0  0  # atno 10765 bound_to 10752
  140.4961  134.5938  157.4971 H   0  0  0  0  0  0  0  0  0  0  0  0  # atno 11005 bound_to 11000
  146.2440  139.6059  142.9472 LP  0  0  0  0  0  0  0  0  0  0  0  0  # atno 17320 bound_to 7965
  145.5261  141.0429  143.2409 LP  0  0  0  0  0  0  0  0  0  0  0  0  # atno 17321 bound_to 7965
  139.4811  144.5966  151.7679 LP  0  0  0  0  0  0  0  0  0  0  0  0  # atno 17342 bound_to 10162
  140.5098  144.1042  150.5992 LP  0  0  0  0  0  0  0  0  0  0  0  0  # atno 17343 bound_to 10162
  157.5639  131.0946  150.9518 LP  0  0  0  0  0  0  0  0  0  0  0  0  # atno 17370 bound_to 10713
  156.9749  130.5505  149.5292 LP  0  0  0  0  0  0  0  0  0  0  0  0  # atno 17371 bound_to 10713
  139.9741  134.7245  155.9985 LP  0  0  0  0  0  0  0  0  0  0  0  0  # atno 17394 bound_to 11000
  141.1459  133.6556  156.3867 LP  0  0  0  0  0  0  0  0  0  0  0  0  # atno 17395 bound_to 11000

$$$$
