AV-unprocessed.smi:2428|AV-procd|sdf|9580|dock3
  -GOLD-   2272013213D 1   1.00000     0.00000
 Structure written by MMmdl.
 30 31  0  0  0  0  0  0  0  0  1 V2000
  154.1112  139.4148  161.8390 F   0  0  0  0  0  0  0  0  0  0  0  0
  153.9512  139.5179  160.5195 C   0  0  0  0  0  0  0  0  0  0  0  0
  155.1565  139.5792  159.9528 F   0  0  0  0  0  0  0  0  0  0  0  0
  153.3249  138.4285  160.0764 F   0  0  0  0  0  0  0  0  0  0  0  0
  153.1153  140.7450  160.1940 C   0  0  0  0  0  0  0  0  0  0  0  0
  153.5311  142.0247  160.6148 C   0  0  0  0  0  0  0  0  0  0  0  0
  152.7329  143.1416  160.3011 C   0  0  0  0  0  0  0  0  0  0  0  0
  151.5410  142.9432  159.5740 C   0  0  0  0  0  0  0  0  0  0  0  0
  150.7519  144.0607  159.2646 N   0  0  0  0  0  0  0  0  0  0  0  0
  150.1216  144.8517  160.3148 C   0  0  0  0  0  0  0  0  0  0  0  0
  148.6099  145.0216  160.0901 C   0  0  2  0  0  0  0  0  0  0  0  0
  147.8999  145.7256  161.2431 C   0  0  0  0  0  0  0  0  0  0  0  0
  146.4563  145.2777  161.0882 C   0  0  0  0  0  0  0  0  0  0  0  0
  146.5526  144.0074  160.2377 C   0  0  0  0  0  0  0  0  0  0  0  0
  147.9435  143.7690  160.0665 O   0  0  0  0  0  0  0  0  0  0  0  0
  151.1313  141.7154  159.1767 N   0  0  0  0  0  0  0  0  0  0  0  0
  151.9018  140.6487  159.4789 C   0  0  0  0  0  0  0  0  0  0  0  0
  154.4487  142.1499  161.1706 H   0  0  0  0  0  0  0  0  0  0  0  0
  153.0354  144.1309  160.6126 H   0  0  0  0  0  0  0  0  0  0  0  0
  150.3747  144.1363  158.3312 H   0  0  0  0  0  0  0  0  0  0  0  0
  150.3278  144.4389  161.3029 H   0  0  0  0  0  0  0  0  0  0  0  0
  150.5948  145.8335  160.2952 H   0  0  0  0  0  0  0  0  0  0  0  0
  148.4145  145.5554  159.1578 H   0  0  0  0  0  0  0  0  0  0  0  0
  148.2923  145.3718  162.1976 H   0  0  0  0  0  0  0  0  0  0  0  0
  148.0147  146.8093  161.2119 H   0  0  0  0  0  0  0  0  0  0  0  0
  145.9907  145.0912  162.0562 H   0  0  0  0  0  0  0  0  0  0  0  0
  145.8657  146.0344  160.5710 H   0  0  0  0  0  0  0  0  0  0  0  0
  146.0715  143.1513  160.7109 H   0  0  0  0  0  0  0  0  0  0  0  0
  146.0893  144.1624  159.2624 H   0  0  0  0  0  0  0  0  0  0  0  0
  151.5303  139.6935  159.1391 H   0  0  0  0  0  0  0  0  0  0  0  0
  1  2  1  0  0  0  0
  2  3  1  0  0  0  0
  2  4  1  0  0  0  0
  2  5  1  0  0  0  0
  5 17  1  0  0  0  0
  5  6  2  0  0  0  0
  6  7  1  0  0  0  0
  6 18  1  0  0  0  0
  7  8  2  0  0  0  0
  7 19  1  0  0  0  0
  8  9  1  0  0  0  0
  8 16  1  0  0  0  0
  9 10  1  0  0  0  0
  9 20  1  0  0  0  0
 10 11  1  0  0  0  0
 10 21  1  0  0  0  0
 10 22  1  0  0  0  0
 11 15  1  0  0  0  0
 11 12  1  0  0  0  0
 11 23  1  0  0  0  0
 12 13  1  0  0  0  0
 12 24  1  0  0  0  0
 12 25  1  0  0  0  0
 13 14  1  0  0  0  0
 13 26  1  0  0  0  0
 13 27  1  0  0  0  0
 14 15  1  0  0  0  0
 14 28  1  0  0  0  0
 14 29  1  0  0  0  0
 16 17  2  0  0  0  0
 17 30  1  0  0  0  0
M  END
> <s_m_source_file>
AV-unprocessed.smi

> <i_m_source_file_index>
2428

> <i_lp_mmshare_version>
43012

> <i_f3d_flags>
0

> <s_epik_input>
RkMoRikoRiljMVtjSF1bY0hdYyhuW2NIXTEpW05IXVtDSDJdW0NAQEhdMltDSDJdW0NIMl1bQ0gyXU8y

> <s_epik_cmdline>
J2VwaWtfcHl0aG9uJywgJy1waCcsICc3LjAnLCAnLXRuJywgJzgnLCAnLW1hJywgJzIwMCcsICctbWV0YWxfYmluZGluZycsICctaW1hZScsICc8aW5maWxlLm1hZT4nLCAnLW9tYWUnLCAnPG91dGZpbGUubWFlPic=

> <r_lp_tautomer_probability>
1

> <r_epik_Ionization_Penalty>
0.000819842

> <r_epik_Ionization_Penalty_Charging>
0

> <r_epik_Ionization_Penalty_Neutral>
0.000819842

> <r_epik_State_Penalty>
0.000527207

> <r_epik_Charging_Adjusted_Penalty>
0.000527207

> <i_epik_Tot_Q>
0

> <i_epik_Tot_abs_Q>
0

> <r_epik_Metal_State_Penalty>
-0

> <b_epik_Metal_Only>
0

> <s_lp_Force_Field>
OPLS_2005

> <r_lp_Energy>
19.3564

> <b_lp_Chiralities_Consistent>
1

> <s_lp_Variant>
AV-unprocessed.smi:2428-1

> <Gold.Version>
5.8.1

> <Gold.Id.Protein>
6NUR|6NUR_protein|mol2

> <Gold.PLP.Fitness>
36.9336

> <Gold.PLP.PLP>
-36.8783

> <Gold.PLP.part.hbond>
-1.0000

> <Gold.PLP.part.metal>
0.0000

> <Gold.PLP.part.buried>
-6.1581

> <Gold.PLP.part.nonpolar>
-29.3773

> <Gold.PLP.part.repulsive>
0.1874

> <Gold.PLP.ligand.clash>
1.6621

> <Gold.PLP.ligand.torsion>
0.6575

> <Gold.PLP.Chemscore.Hbond>
1.0000

> <Gold.PLP.Chemscore.CHOScore>
0.0000

> <Gold.PLP.Chemscore.Metal>
0.0000

> <Gold.Chemscore.Hbonds>
donor molecule, donor type, donor heavy atom, donor atom, acceptor molecule, acceptor atom, score
      P1  H  6933  6944       L1    15  0.98

> <Gold.PLP.Chemscore.Internal.Correction>
0.0324

> <Gold.Rescore>
     Score         DG    S(hbond)    S(metal)    S(lipo)     H(rot)  DE(clash)    DE(int)     intcor
     13.79     -14.51       0.94        0.00      77.73       1.25       0.01       0.72       ----

> <Gold.Chemscore.Fitness>
13.7855

> <Gold.Chemscore.DG>
-14.5091

> <Gold.Chemscore.ZeroCoef>
-5.4800

> <Gold.Chemscore.Hbond>
0.9397

> <Gold.Chemscore.Metal>
0.0000

> <Gold.Chemscore.Lipo>
77.7265

> <Gold.Chemscore.Internal_Hbond>
0.0000

> <Gold.Chemscore.DEClash>
0.0076

> <Gold.Chemscore.DEInternal>
0.7160

> <Gold.Chemscore.Rot>
1.2514

> <Gold.Chemscore.Internal.Correction>
   9.000000E+99

> <Gold.Chemscore.Hbonds>
donor molecule, donor type, donor heavy atom, donor atom, acceptor molecule, acceptor atom, score
      P1  H  6933  6944       L1    15  0.56

> <Gold.Chemscore.Hbond.Weighted>
-3.1387

> <Gold.Chemscore.Metal.Weighted>
-0.0000

> <Gold.Chemscore.Lipo.Weighted>
-9.0940

> <Gold.Chemscore.Internal_Hbond.Weighted>
0.0000

> <Gold.Chemscore.DEClash.Weighted>
0.0076

> <Gold.Chemscore.DEInternal.Weighted>
0.7160

> <Gold.Chemscore.Rot.Weighted>
3.2036

> <Gold.Chemscore.Internal.Correction.Weighted>
   9.000000E+99

> <Gold.Protein.RotatedTorsions>
[ 6907 6896 6895 6894 ] final -153.28 input  -60.11 | X-H torsion
[ 7974 7965 7964 7962 ] final  132.65 input  175.53 | X-H torsion
[ 8008 7997 7996 7995 ] final   15.41 input   59.86 | X-H torsion
[ 10167 10162 10161 10158 ] final  -57.19 input  -65.29 | X-H torsion
[ 10718 10713 10712 10709 ] final -173.27 input   66.30 | X-H torsion
[ 10763 10752 10751 10750 ] final  142.92 input  -60.55 | X-H torsion
[ 11005 11000 10999 10996 ] final -145.34 input  -57.11 | X-H torsion

> <Gold.Protein.ActiveResidues>
 VAL166  LYS551  ARG553  GLY616  TRP617  ASP618  TYR619  PRO620  LYS621  CYS622 
 ASP623  PHE694  ASN695  SER759  ASP760  ASP761  ALA762  ILE779  LEU786  VAL792 
 PHE793  MET794  SER795  GLU796  ALA797  LYS798  CYS799  TRP800  GLU811  SER814 

> <Gold.Protein.RotatedAtoms>
  151.2403  133.4403  159.2606 H   0  0  0  0  0  0  0  0  0  0  0  0  # atno 6907 bound_to 6896
  151.0711  134.9799  159.8319 H   0  0  0  0  0  0  0  0  0  0  0  0  # atno 6908 bound_to 6896
  152.5412  134.2348  159.8892 H   0  0  0  0  0  0  0  0  0  0  0  0  # atno 6909 bound_to 6896
  144.9946  139.4372  143.5322 H   0  0  0  0  0  0  0  0  0  0  0  0  # atno 7974 bound_to 7965
  154.8623  140.2946  155.5532 H   0  0  0  0  0  0  0  0  0  0  0  0  # atno 8008 bound_to 7997
  156.3020  140.2476  156.3531 H   0  0  0  0  0  0  0  0  0  0  0  0  # atno 8009 bound_to 7997
  154.8905  140.0394  157.1825 H   0  0  0  0  0  0  0  0  0  0  0  0  # atno 8010 bound_to 7997
  140.6273  143.2443  151.5332 H   0  0  0  0  0  0  0  0  0  0  0  0  # atno 10167 bound_to 10162
  156.7678  130.9437  151.3119 H   0  0  0  0  0  0  0  0  0  0  0  0  # atno 10718 bound_to 10713
  153.9638  135.2957  155.3432 H   0  0  0  0  0  0  0  0  0  0  0  0  # atno 10763 bound_to 10752
  154.7360  135.5046  153.9046 H   0  0  0  0  0  0  0  0  0  0  0  0  # atno 10764 bound_to 10752
  153.0934  135.6714  153.9921 H   0  0  0  0  0  0  0  0  0  0  0  0  # atno 10765 bound_to 10752
  140.7932  134.2944  157.5006 H   0  0  0  0  0  0  0  0  0  0  0  0  # atno 11005 bound_to 11000
  146.3439  139.9299  142.8755 LP  0  0  0  0  0  0  0  0  0  0  0  0  # atno 17320 bound_to 7965
  145.2237  140.9945  143.4031 LP  0  0  0  0  0  0  0  0  0  0  0  0  # atno 17321 bound_to 7965
  139.5491  144.2442  152.1498 LP  0  0  0  0  0  0  0  0  0  0  0  0  # atno 17342 bound_to 10162
  140.1676  144.4966  150.6597 LP  0  0  0  0  0  0  0  0  0  0  0  0  # atno 17343 bound_to 10162
  157.6705  130.9047  150.0029 LP  0  0  0  0  0  0  0  0  0  0  0  0  # atno 17370 bound_to 10713
  156.1298  130.3643  149.9751 LP  0  0  0  0  0  0  0  0  0  0  0  0  # atno 17371 bound_to 10713
  139.8729  134.9387  156.3720 LP  0  0  0  0  0  0  0  0  0  0  0  0  # atno 17394 bound_to 11000
  140.9369  133.7541  156.0096 LP  0  0  0  0  0  0  0  0  0  0  0  0  # atno 17395 bound_to 11000

$$$$
