AV-unprocessed.smi:3125|AV-procd|sdf|11908|dock7
  -GOLD-   2272017293D 1   1.00000     0.00000
 Structure written by MMmdl.
 28 29  0  0  0  0  0  0  0  0  2 V2000
  152.1427  143.1335  160.4012 C   0  0  0  0  0  0  0  0  0  0  0  0
  152.8655  141.9614  159.9458 N   0  0  0  0  0  0  0  0  0  0  0  0
  154.0651  141.4984  160.4709 C   0  0  0  0  0  0  0  0  0  0  0  0
  154.3985  140.3708  159.7617 C   0  0  0  0  0  0  0  0  0  0  0  0
  153.4221  140.1260  158.8034 N   0  0  0  0  0  0  0  0  0  0  0  0
  152.5363  141.1075  158.9547 C   0  0  0  0  0  0  0  0  0  0  0  0
  151.2926  141.2351  158.1193 C   0  0  2  0  0  0  0  0  0  0  0  0
  151.2747  140.2222  156.9582 C   0  0  0  0  0  0  0  0  0  0  0  0
  150.0059  140.3956  156.1092 C   0  0  0  0  0  0  0  0  0  0  0  0
  149.8619  141.8489  155.6285 C   0  0  0  0  0  0  0  0  0  0  0  0
  149.8724  142.7815  156.7765 N   0  3  0  0  0  0  0  0  0  0  0  0
  151.0996  142.6737  157.5962 C   0  0  0  0  0  0  0  0  0  0  0  0
  152.6610  143.5921  161.2440 H   0  0  0  0  0  0  0  0  0  0  0  0
  151.1395  142.8490  160.7197 H   0  0  0  0  0  0  0  0  0  0  0  0
  152.0737  143.8619  159.5930 H   0  0  0  0  0  0  0  0  0  0  0  0
  154.5694  141.9957  161.2867 H   0  0  0  0  0  0  0  0  0  0  0  0
  155.2565  139.7232  159.8666 H   0  0  0  0  0  0  0  0  0  0  0  0
  150.4315  141.0126  158.7492 H   0  0  0  0  0  0  0  0  0  0  0  0
  152.1537  140.3615  156.3270 H   0  0  0  0  0  0  0  0  0  0  0  0
  151.3271  139.2038  157.3452 H   0  0  0  0  0  0  0  0  0  0  0  0
  150.0347  139.7205  155.2533 H   0  0  0  0  0  0  0  0  0  0  0  0
  149.1301  140.1141  156.6956 H   0  0  0  0  0  0  0  0  0  0  0  0
  150.6750  142.1067  154.9480 H   0  0  0  0  0  0  0  0  0  0  0  0
  148.9310  141.9743  155.0751 H   0  0  0  0  0  0  0  0  0  0  0  0
  149.7908  143.7274  156.4315 H   0  0  0  0  0  0  0  0  0  0  0  0
  151.0289  143.3736  158.4292 H   0  0  0  0  0  0  0  0  0  0  0  0
  151.9542  142.9827  156.9922 H   0  0  0  0  0  0  0  0  0  0  0  0
  149.0752  142.5787  157.3625 H   0  0  0  0  0  0  0  0  0  0  0  0
  1  2  1  0  0  0  0
  1 13  1  0  0  0  0
  1 14  1  0  0  0  0
  1 15  1  0  0  0  0
  2  6  1  0  0  0  0
  2  3  1  0  0  0  0
  3  4  2  0  0  0  0
  3 16  1  0  0  0  0
  4  5  1  0  0  0  0
  4 17  1  0  0  0  0
  5  6  2  0  0  0  0
  6  7  1  0  0  0  0
  7 12  1  0  0  0  0
  7  8  1  0  0  0  0
  7 18  1  0  0  0  0
  8  9  1  0  0  0  0
  8 19  1  0  0  0  0
  8 20  1  0  0  0  0
  9 10  1  0  0  0  0
  9 21  1  0  0  0  0
  9 22  1  0  0  0  0
 10 11  1  0  0  0  0
 10 23  1  0  0  0  0
 10 24  1  0  0  0  0
 11 12  1  0  0  0  0
 11 25  1  0  0  0  0
 11 28  1  0  0  0  0
 12 26  1  0  0  0  0
 12 27  1  0  0  0  0
M  CHG  1  11   1
M  END
> <s_m_source_file>
AV-unprocessed.smi

> <i_m_source_file_index>
3125

> <i_lp_mmshare_version>
43012

> <i_f3d_flags>
0

> <s_epik_input>
W0NIM11uMVtjSF1bY0hdbmMxW0NAQEhdMltDSDJdW0NIMl1bQ0gyXVtOSF1bQ0gyXTI=

> <s_epik_cmdline>
J2VwaWtfcHl0aG9uJywgJy1waCcsICc3LjAnLCAnLXRuJywgJzgnLCAnLW1hJywgJzIwMCcsICctbWV0YWxfYmluZGluZycsICctaW1hZScsICc8aW5maWxlLm1hZT4nLCAnLW9tYWUnLCAnPG91dGZpbGUubWFlPic=

> <r_lp_tautomer_probability>
1

> <r_epik_Ionization_Penalty>
0.177191

> <r_epik_Ionization_Penalty_Charging>
0.177191

> <r_epik_Ionization_Penalty_Neutral>
7.05152e-14

> <r_epik_State_Penalty>
0.46716

> <r_epik_Charging_Adjusted_Penalty>
0.644351

> <i_epik_Tot_Q>
1

> <i_epik_Tot_abs_Q>
1

> <r_epik_Metal_State_Penalty>
0.000708398

> <b_epik_Metal_Only>
0

> <s_lp_Force_Field>
OPLS_2005

> <r_lp_Energy>
12.4076

> <b_lp_Chiralities_Consistent>
1

> <s_lp_Variant>
AV-unprocessed.smi:3125-3

> <Gold.Version>
5.8.1

> <Gold.Id.Protein>
6NUR|6NUR_protein|mol2

> <Gold.PLP.Fitness>
36.2120

> <Gold.PLP.PLP>
-27.7847

> <Gold.PLP.part.hbond>
-2.0000

> <Gold.PLP.part.metal>
0.0000

> <Gold.PLP.part.buried>
-2.5296

> <Gold.PLP.part.nonpolar>
-22.9621

> <Gold.PLP.part.repulsive>
0.0401

> <Gold.PLP.ligand.clash>
0.0000

> <Gold.PLP.ligand.torsion>
0.1914

> <Gold.PLP.Chemscore.Hbond>
2.9280

> <Gold.PLP.Chemscore.CHOScore>
0.0000

> <Gold.PLP.Chemscore.Metal>
0.0000

> <Gold.Chemscore.Hbonds>
donor molecule, donor type, donor heavy atom, donor atom, acceptor molecule, acceptor atom, score
      L1  H    11    25       P1  8028  1.82
      P1  H  7997  8010       L1     5  0.35

> <Gold.PLP.Chemscore.Internal.Correction>
0.0262

> <Gold.Rescore>
     Score         DG    S(hbond)    S(metal)    S(lipo)     H(rot)  DE(clash)    DE(int)     intcor
     15.01     -15.11       1.42        0.00      63.49       1.00       0.07       0.03       ----

> <Gold.Chemscore.Fitness>
15.0064

> <Gold.Chemscore.DG>
-15.1059

> <Gold.Chemscore.ZeroCoef>
-5.4800

> <Gold.Chemscore.Hbond>
1.4245

> <Gold.Chemscore.Metal>
0.0000

> <Gold.Chemscore.Lipo>
63.4877

> <Gold.Chemscore.Internal_Hbond>
0.0000

> <Gold.Chemscore.DEClash>
0.0673

> <Gold.Chemscore.DEInternal>
0.0322

> <Gold.Chemscore.Rot>
1.0000

> <Gold.Chemscore.Internal.Correction>
   9.000000E+99

> <Gold.Chemscore.Hbonds>
donor molecule, donor type, donor heavy atom, donor atom, acceptor molecule, acceptor atom, score
      L1  H    11    25       P1  8028  0.85
      P1  H  7997  8010       L1     5  0.02

> <Gold.Chemscore.Hbond.Weighted>
-4.7578

> <Gold.Chemscore.Metal.Weighted>
-0.0000

> <Gold.Chemscore.Lipo.Weighted>
-7.4281

> <Gold.Chemscore.Internal_Hbond.Weighted>
0.0000

> <Gold.Chemscore.DEClash.Weighted>
0.0673

> <Gold.Chemscore.DEInternal.Weighted>
0.0322

> <Gold.Chemscore.Rot.Weighted>
2.5600

> <Gold.Chemscore.Internal.Correction.Weighted>
   9.000000E+99

> <Gold.Protein.RotatedTorsions>
[ 6907 6896 6895 6894 ] final -120.75 input  -60.11 | X-H torsion
[ 7974 7965 7964 7962 ] final  127.40 input  175.53 | X-H torsion
[ 8008 7997 7996 7995 ] final   10.83 input   59.86 | X-H torsion
[ 10167 10162 10161 10158 ] final  133.63 input  -65.29 | X-H torsion
[ 10718 10713 10712 10709 ] final  -71.72 input   66.30 | X-H torsion
[ 10763 10752 10751 10750 ] final  -94.00 input  -60.55 | X-H torsion
[ 11005 11000 10999 10996 ] final    4.34 input  -57.11 | X-H torsion

> <Gold.Protein.ActiveResidues>
 VAL166  LYS551  ARG553  GLY616  TRP617  ASP618  TYR619  PRO620  LYS621  CYS622 
 ASP623  PHE694  ASN695  SER759  ASP760  ASP761  ALA762  ILE779  LEU786  VAL792 
 PHE793  MET794  SER795  GLU796  ALA797  LYS798  CYS799  TRP800  GLU811  SER814 

> <Gold.Protein.RotatedAtoms>
  150.8421  133.7920  159.3056 H   0  0  0  0  0  0  0  0  0  0  0  0  # atno 6907 bound_to 6896
  151.5618  135.1063  159.9984 H   0  0  0  0  0  0  0  0  0  0  0  0  # atno 6908 bound_to 6896
  152.4482  133.7536  159.6764 H   0  0  0  0  0  0  0  0  0  0  0  0  # atno 6909 bound_to 6896
  145.0510  139.3883  143.5054 H   0  0  0  0  0  0  0  0  0  0  0  0  # atno 7974 bound_to 7965
  154.7987  140.2848  155.5937 H   0  0  0  0  0  0  0  0  0  0  0  0  # atno 8008 bound_to 7997
  156.2974  140.2590  156.2780 H   0  0  0  0  0  0  0  0  0  0  0  0  # atno 8009 bound_to 7997
  154.9584  140.0378  157.2167 H   0  0  0  0  0  0  0  0  0  0  0  0  # atno 8010 bound_to 7997
  139.5289  144.6607  151.5023 H   0  0  0  0  0  0  0  0  0  0  0  0  # atno 10167 bound_to 10162
  156.0350  130.4357  150.2486 H   0  0  0  0  0  0  0  0  0  0  0  0  # atno 10718 bound_to 10713
  154.7013  135.5174  153.8531 H   0  0  0  0  0  0  0  0  0  0  0  0  # atno 10763 bound_to 10752
  153.0706  135.6600  154.0265 H   0  0  0  0  0  0  0  0  0  0  0  0  # atno 10764 bound_to 10752
  154.0123  135.3001  155.3370 H   0  0  0  0  0  0  0  0  0  0  0  0  # atno 10765 bound_to 10752
  140.5831  133.9994  155.8056 H   0  0  0  0  0  0  0  0  0  0  0  0  # atno 11005 bound_to 11000
  146.3518  140.0160  142.8663 LP  0  0  0  0  0  0  0  0  0  0  0  0  # atno 17320 bound_to 7965
  145.1527  140.9631  143.4423 LP  0  0  0  0  0  0  0  0  0  0  0  0  # atno 17321 bound_to 7965
  140.6453  143.8806  150.6731 LP  0  0  0  0  0  0  0  0  0  0  0  0  # atno 17342 bound_to 10162
  140.2154  143.3850  152.1685 LP  0  0  0  0  0  0  0  0  0  0  0  0  # atno 17343 bound_to 10162
  157.0586  131.0083  151.3230 LP  0  0  0  0  0  0  0  0  0  0  0  0  # atno 17370 bound_to 10713
  157.5087  130.7925  149.7682 LP  0  0  0  0  0  0  0  0  0  0  0  0  # atno 17371 bound_to 10713
  141.0984  133.9808  157.3122 LP  0  0  0  0  0  0  0  0  0  0  0  0  # atno 17394 bound_to 11000
  139.9308  135.0200  156.8394 LP  0  0  0  0  0  0  0  0  0  0  0  0  # atno 17395 bound_to 11000

$$$$
