#       Name:                AV-unprocessed.smi:3331
#       Creating user name   scv26
#       Creation time:       Fri Mar 27 19:20:06 2020


#       File generated by GOLD software.
#

@<TRIPOS>MOLECULE
AV-unprocessed.smi:3331
    50    51     1
SMALL
NO_CHARGES


@<TRIPOS>ATOM
      1 ****        -3.2754  -0.5641   2.7955 C.3            1 S1                 0.0000
      2 ****        -2.4008  -0.6677   1.5385 C.3            1 S1                 0.0000
      3 ****        -2.8762  -1.8063   0.6072 C.3            1 S1                 0.0000
      4 ****        -2.0922  -1.8467  -0.7246 C.3            1 S1                 0.0000
      5 ****        -2.6626  -2.8987  -1.6854 C.3            1 S1                 0.0000
      6 ****        -2.0609  -0.4447  -1.3694 C.3            1 S1                 0.0000
      7 ****        -1.4824   0.4968  -0.4028 N.am           1 S1                 0.0000
      8 ****        -0.2298   0.9999  -0.5409 C.2            1 S1                 0.0000
      9 ****         0.4359   0.8122  -1.5618 O.2            1 S1                 0.0000
     10 ****         0.4109   1.8207   0.6043 C.3            1 S1                 0.0000
     11 ****         0.0650   3.3089   0.4389 C.3            1 S1                 0.0000
     12 ****         1.8739   1.6624   0.6669 N.3            1 S1                 0.0000
     13 ****         2.2940   0.3409   1.1255 C.3            1 S1                 0.0000
     14 ****         3.7810   0.1237   0.8050 C.3            1 S1                 0.0000
     15 ****         4.0064  -0.0273  -0.6215 N.pl3          1 S1                 0.0000
     16 ****         4.4201   0.9232  -1.5309 C.2            1 S1                 0.0000
     17 ****         4.4653   0.3208  -2.7553 C.2            1 S1                 0.0000
     18 ****         4.0561  -1.0159  -2.4893 C.2            1 S1                 0.0000
     19 ****         3.7840  -1.2219  -1.2111 N.2            1 S1                 0.0000
     20 ****        -2.3632   0.6624   0.7598 C.3            1 S1                 0.0000
     21 ****        -4.3085  -0.3249   2.5415 H              1 S1                 0.0000
     22 ****        -2.9079   0.2140   3.4651 H              1 S1                 0.0000
     23 ****        -3.2771  -1.5026   3.3503 H              1 S1                 0.0000
     24 ****        -1.3845  -0.8977   1.8628 H              1 S1                 0.0000
     25 ****        -2.7904  -2.7658   1.1186 H              1 S1                 0.0000
     26 ****        -3.9367  -1.6694   0.3908 H              1 S1                 0.0000
     27 ****        -1.0636  -2.1334  -0.4988 H              1 S1                 0.0000
     28 ****        -3.6918  -2.6675  -1.9615 H              1 S1                 0.0000
     29 ****        -2.6529  -3.8903  -1.2323 H              1 S1                 0.0000
     30 ****        -2.0754  -2.9500  -2.6026 H              1 S1                 0.0000
     31 ****        -1.5081  -0.4774  -2.3093 H              1 S1                 0.0000
     32 ****        -3.0697  -0.1244  -1.6342 H              1 S1                 0.0000
     33 ****         0.0280   1.4851   1.5671 H              1 S1                 0.0000
     34 ****        -1.0132   3.4703   0.4152 H              1 S1                 0.0000
     35 ****         0.4803   3.7144  -0.4849 H              1 S1                 0.0000
     36 ****         0.4630   3.8971   1.2662 H              1 S1                 0.0000
     37 ****         2.3076   2.3730   1.2382 H              1 S1                 0.0000
     38 ****         2.1278   0.2767   2.2012 H              1 S1                 0.0000
     39 ****         1.7085  -0.4582   0.6695 H              1 S1                 0.0000
     40 ****         4.3871   0.9514   1.1760 H              1 S1                 0.0000
     41 ****         4.1414  -0.7759   1.3058 H              1 S1                 0.0000
     42 ****         4.6385   1.9384  -1.2348 H              1 S1                 0.0000
     43 ****         4.7442   0.7675  -3.6980 H              1 S1                 0.0000
     44 ****         3.9493  -1.8372  -3.1823 H              1 S1                 0.0000
     45 ****        -3.3661   0.9164   0.4129 H              1 S1                 0.0000
     46 ****        -2.0807   1.4896   1.4079 H              1 S1                 0.0000
     47 ****         0.0550   0.2770  -2.3157 LP             1 S1                 0.0000
     48 ****         1.3567   1.1953  -1.6357 LP             1 S1                 0.0000
     49 ****         2.1854   1.7679  -0.2775 LP             1 S1                 0.0000
     50 ****         3.4816  -2.0713  -0.7786 LP             1 S1                 0.0000
@<TRIPOS>BOND
    1    1    2 1     
    2    1   21 1     
    3    1   22 1     
    4    1   23 1     
    5    2   20 1     
    6    2    3 1     
    7    2   24 1     
    8    3    4 1     
    9    3   25 1     
   10    3   26 1     
   11    4    5 1     
   12    4    6 1     
   13    4   27 1     
   14    5   28 1     
   15    5   29 1     
   16    5   30 1     
   17    6    7 1     
   18    6   31 1     
   19    6   32 1     
   20    7    8 am    
   21    7   20 1     
   22    8    9 2     
   23    8   10 1     
   24   10   11 1     
   25   10   12 1     
   26   10   33 1     
   27   11   34 1     
   28   11   35 1     
   29   11   36 1     
   30   12   13 1     
   31   12   37 1     
   32   13   14 1     
   33   13   38 1     
   34   13   39 1     
   35   14   15 1     
   36   14   40 1     
   37   14   41 1     
   38   15   19 1     
   39   15   16 1     
   40   16   17 2     
   41   16   42 1     
   42   17   18 1     
   43   17   43 1     
   44   18   19 2     
   45   18   44 1     
   46   20   45 1     
   47   20   46 1     
   48    9   47 1     
   49    9   48 1     
   50   12   49 1     
   51   19   50 1     
@<TRIPOS>SUBSTRUCTURE
      1 S1             1
@<TRIPOS>SET
LONE_PAIRS      STATIC     ATOMS    <user>   **** ""
4 47 48 49 50
DONOR_HYDROGENS      STATIC     ATOMS    <user>   **** ""
1 37
ATOM$BLUE        STATIC     ATOMS    COLORGROUP SYSTEM
4 47 48 49 50
ATOM$RED        STATIC     ATOMS    COLORGROUP SYSTEM
1 37
