AV-unprocessed.smi:1893|AV-procd|sdf|7677|dock8
  -GOLD-   22720 9413D 1   1.00000     0.00000
 Structure written by MMmdl.
 43 44  0  0  0  0  0  0  0  0  2 V2000
  144.1316  135.7314  151.5663 C   0  0  0  0  0  0  0  0  0  0  0  0
  145.6552  135.6384  151.3314 C   0  0  2  0  0  0  0  0  0  0  0  0
  146.0819  134.2602  150.7833 C   0  0  0  0  0  0  0  0  0  0  0  0
  146.0192  133.1657  151.8590 C   0  0  0  0  0  0  0  0  0  0  0  0
  146.8395  133.5864  153.0842 C   0  0  0  0  0  0  0  0  0  0  0  0
  146.3929  134.9612  153.6079 C   0  0  0  0  0  0  0  0  0  0  0  0
  146.4643  135.9922  152.5364 N   0  3  2  0  0  0  0  0  0  0  0  0
  146.2318  137.3757  153.0248 C   0  0  0  0  0  0  0  0  0  0  0  0
  146.5789  138.4373  151.9634 C   0  0  0  0  0  0  0  0  0  0  0  0
  147.2215  139.5977  152.5674 N   0  0  0  0  0  0  0  0  0  0  0  0
  146.8270  140.1892  153.7067 C   0  0  0  0  0  0  0  0  0  0  0  0
  145.8386  139.8199  154.3421 O   0  0  0  0  0  0  0  0  0  0  0  0
  147.6876  141.3656  154.1973 C   0  0  1  0  0  0  0  0  0  0  0  0
  146.9499  142.2768  155.1992 C   0  0  0  0  0  0  0  0  0  0  0  0
  148.9512  140.8788  154.7383 N   0  0  0  0  0  0  0  0  0  0  0  0
  149.8910  141.5209  155.4354 C   0  0  0  0  0  0  0  0  0  0  0  0
  150.9443  140.7740  155.7348 N   0  0  0  0  0  0  0  0  0  0  0  0
  150.5651  139.5995  155.1492 C   0  0  0  0  0  0  0  0  0  0  0  0
  149.3853  139.6107  154.5292 N   0  0  0  0  0  0  0  0  0  0  0  0
  143.5873  135.4806  150.6554 H   0  0  0  0  0  0  0  0  0  0  0  0
  143.8265  136.7390  151.8488 H   0  0  0  0  0  0  0  0  0  0  0  0
  143.7876  135.0517  152.3451 H   0  0  0  0  0  0  0  0  0  0  0  0
  145.9003  136.3686  150.5585 H   0  0  0  0  0  0  0  0  0  0  0  0
  145.4621  133.9824  149.9301 H   0  0  0  0  0  0  0  0  0  0  0  0
  147.1031  134.3265  150.4052 H   0  0  0  0  0  0  0  0  0  0  0  0
  144.9846  132.9816  152.1495 H   0  0  0  0  0  0  0  0  0  0  0  0
  146.3988  132.2252  151.4588 H   0  0  0  0  0  0  0  0  0  0  0  0
  146.7433  132.8382  153.8715 H   0  0  0  0  0  0  0  0  0  0  0  0
  147.8975  133.6230  152.8207 H   0  0  0  0  0  0  0  0  0  0  0  0
  145.3803  134.9045  154.0082 H   0  0  0  0  0  0  0  0  0  0  0  0
  147.0364  135.2399  154.4414 H   0  0  0  0  0  0  0  0  0  0  0  0
  145.1786  137.4855  153.2876 H   0  0  0  0  0  0  0  0  0  0  0  0
  146.7979  137.5481  153.9415 H   0  0  0  0  0  0  0  0  0  0  0  0
  147.2670  138.0357  151.2204 H   0  0  0  0  0  0  0  0  0  0  0  0
  145.6826  138.7464  151.4225 H   0  0  0  0  0  0  0  0  0  0  0  0
  148.0386  139.9638  152.1006 H   0  0  0  0  0  0  0  0  0  0  0  0
  147.9255  141.9726  153.3222 H   0  0  0  0  0  0  0  0  0  0  0  0
  146.0448  142.6959  154.7582 H   0  0  0  0  0  0  0  0  0  0  0  0
  147.5818  143.1127  155.5006 H   0  0  0  0  0  0  0  0  0  0  0  0
  146.6598  141.7404  156.1037 H   0  0  0  0  0  0  0  0  0  0  0  0
  149.8059  142.5582  155.7251 H   0  0  0  0  0  0  0  0  0  0  0  0
  151.1805  138.7120  155.1741 H   0  0  0  0  0  0  0  0  0  0  0  0
  147.4212  135.9839  152.2129 H   0  0  0  0  0  0  0  0  0  0  0  0
  1  2  1  0  0  0  0
  1 20  1  0  0  0  0
  1 21  1  0  0  0  0
  1 22  1  0  0  0  0
  2  7  1  0  0  0  0
  2  3  1  0  0  0  0
  2 23  1  0  0  0  0
  3  4  1  0  0  0  0
  3 24  1  0  0  0  0
  3 25  1  0  0  0  0
  4  5  1  0  0  0  0
  4 26  1  0  0  0  0
  4 27  1  0  0  0  0
  5  6  1  0  0  0  0
  5 28  1  0  0  0  0
  5 29  1  0  0  0  0
  6  7  1  0  0  0  0
  6 30  1  0  0  0  0
  6 31  1  0  0  0  0
  7  8  1  0  0  0  0
  7 43  1  0  0  0  0
  8  9  1  0  0  0  0
  8 32  1  0  0  0  0
  8 33  1  0  0  0  0
  9 10  1  0  0  0  0
  9 34  1  0  0  0  0
  9 35  1  0  0  0  0
 10 11  1  0  0  0  0
 10 36  1  0  0  0  0
 11 12  2  0  0  0  0
 11 13  1  0  0  0  0
 13 14  1  0  0  0  0
 13 15  1  0  0  0  0
 13 37  1  0  0  0  0
 14 38  1  0  0  0  0
 14 39  1  0  0  0  0
 14 40  1  0  0  0  0
 15 19  1  0  0  0  0
 15 16  1  0  0  0  0
 16 17  2  0  0  0  0
 16 41  1  0  0  0  0
 17 18  1  0  0  0  0
 18 19  2  0  0  0  0
 18 42  1  0  0  0  0
M  CHG  1   7   1
M  END
> <s_m_source_file>
AV-unprocessed.smi

> <i_m_source_file_index>
1893

> <i_lp_mmshare_version>
43012

> <i_f3d_flags>
0

> <s_epik_input>
W0NIM11bQ0BASF0xW0NIMl1bQ0gyXVtDSDJdW0NIMl1OMVtDSDJdW0NIMl1bTkhdQyg9TylbQ0BIXShbQ0gzXSluMltjSF1uW2NIXW4y

> <s_epik_cmdline>
J2VwaWtfcHl0aG9uJywgJy1waCcsICc3LjAnLCAnLXRuJywgJzgnLCAnLW1hJywgJzIwMCcsICctbWV0YWxfYmluZGluZycsICctaW1hZScsICc8aW5maWxlLm1hZT4nLCAnLW9tYWUnLCAnPG91dGZpbGUubWFlPic=

> <r_lp_tautomer_probability>
1

> <r_epik_Ionization_Penalty>
0.00266409

> <r_epik_Ionization_Penalty_Charging>
0.00265606

> <r_epik_Ionization_Penalty_Neutral>
8.02794e-06

> <r_epik_State_Penalty>
0.00184955

> <r_epik_Charging_Adjusted_Penalty>
0.00450561

> <i_epik_Tot_Q>
1

> <i_epik_Tot_abs_Q>
1

> <r_epik_Metal_State_Penalty>
-0

> <b_epik_Metal_Only>
0

> <s_lp_Force_Field>
OPLS_2005

> <r_lp_Energy>
24.5349

> <b_lp_Chiralities_Consistent>
1

> <s_lp_Variant>
AV-unprocessed.smi:1893-7

> <Gold.Version>
5.8.1

> <Gold.Id.Protein>
6NUR|6NUR_protein|mol2

> <Gold.PLP.Fitness>
42.8548

> <Gold.PLP.PLP>
-33.1994

> <Gold.PLP.part.hbond>
-3.0000

> <Gold.PLP.part.metal>
0.0000

> <Gold.PLP.part.buried>
-2.6862

> <Gold.PLP.part.nonpolar>
-28.1594

> <Gold.PLP.part.repulsive>
1.0332

> <Gold.PLP.ligand.clash>
0.0000

> <Gold.PLP.ligand.torsion>
1.2447

> <Gold.PLP.Chemscore.Hbond>
3.0000

> <Gold.PLP.Chemscore.CHOScore>
1.0000

> <Gold.PLP.Chemscore.Metal>
0.0000

> <Gold.Chemscore.Hbonds>
donor molecule, donor type, donor heavy atom, donor atom, acceptor molecule, acceptor atom, score
      L1  H     7    43       P1  7948  2.00
      L1  H    10    36       P1  7957  1.00
      L1  C    16    41       P1  8028  1.00

> <Gold.PLP.Chemscore.Internal.Correction>
0.1448

> <Gold.Rescore>
     Score         DG    S(hbond)    S(metal)    S(lipo)     H(rot)  DE(clash)    DE(int)     intcor
      7.56     -11.50       1.99        0.00      50.23       2.54       0.10       3.84       ----

> <Gold.Chemscore.Fitness>
7.5592

> <Gold.Chemscore.DG>
-11.4960

> <Gold.Chemscore.ZeroCoef>
-5.4800

> <Gold.Chemscore.Hbond>
1.9867

> <Gold.Chemscore.Metal>
0.0000

> <Gold.Chemscore.Lipo>
50.2322

> <Gold.Chemscore.Internal_Hbond>
0.0000

> <Gold.Chemscore.DEClash>
0.0960

> <Gold.Chemscore.DEInternal>
3.8408

> <Gold.Chemscore.Rot>
2.5377

> <Gold.Chemscore.Internal.Correction>
   9.000000E+99

> <Gold.Chemscore.Hbonds>
donor molecule, donor type, donor heavy atom, donor atom, acceptor molecule, acceptor atom, score
      L1  H     7    43       P1  7948  0.97
      L1  H    10    36       P1  7957  1.00

> <Gold.Chemscore.Hbond.Weighted>
-6.6354

> <Gold.Chemscore.Metal.Weighted>
-0.0000

> <Gold.Chemscore.Lipo.Weighted>
-5.8772

> <Gold.Chemscore.Internal_Hbond.Weighted>
0.0000

> <Gold.Chemscore.DEClash.Weighted>
0.0960

> <Gold.Chemscore.DEInternal.Weighted>
3.8408

> <Gold.Chemscore.Rot.Weighted>
6.4966

> <Gold.Chemscore.Internal.Correction.Weighted>
   9.000000E+99

> <Gold.Protein.RotatedTorsions>
[ 6907 6896 6895 6894 ] final  -96.56 input  -60.11 | X-H torsion
[ 7974 7965 7964 7962 ] final -115.69 input  175.53 | X-H torsion
[ 8008 7997 7996 7995 ] final   80.23 input   59.86 | X-H torsion
[ 10167 10162 10161 10158 ] final  162.87 input  -65.29 | X-H torsion
[ 10718 10713 10712 10709 ] final  151.05 input   66.30 | X-H torsion
[ 10763 10752 10751 10750 ] final  130.18 input  -60.55 | X-H torsion
[ 11005 11000 10999 10996 ] final  -27.95 input  -57.11 | X-H torsion

> <Gold.Protein.ActiveResidues>
 VAL166  LYS551  ARG553  GLY616  TRP617  ASP618  TYR619  PRO620  LYS621  CYS622 
 ASP623  PHE694  ASN695  SER759  ASP760  ASP761  ALA762  ILE779  LEU786  VAL792 
 PHE793  MET794  SER795  GLU796  ALA797  LYS798  CYS799  TRP800  GLU811  SER814 

> <Gold.Protein.RotatedAtoms>
  150.6992  134.1484  159.4130 H   0  0  0  0  0  0  0  0  0  0  0  0  # atno 6907 bound_to 6896
  151.9467  135.0186  160.0548 H   0  0  0  0  0  0  0  0  0  0  0  0  # atno 6908 bound_to 6896
  152.2046  133.4831  159.5114 H   0  0  0  0  0  0  0  0  0  0  0  0  # atno 6909 bound_to 6896
  145.1054  140.8578  143.3901 H   0  0  0  0  0  0  0  0  0  0  0  0  # atno 7974 bound_to 7965
  155.8806  140.3444  155.5885 H   0  0  0  0  0  0  0  0  0  0  0  0  # atno 8008 bound_to 7997
  155.7725  140.0847  157.2120 H   0  0  0  0  0  0  0  0  0  0  0  0  # atno 8009 bound_to 7997
  154.4024  140.1516  156.2945 H   0  0  0  0  0  0  0  0  0  0  0  0  # atno 8010 bound_to 7997
  139.4866  144.4394  151.8971 H   0  0  0  0  0  0  0  0  0  0  0  0  # atno 10167 bound_to 10162
  157.2757  131.0825  151.1568 H   0  0  0  0  0  0  0  0  0  0  0  0  # atno 10718 bound_to 10713
  153.7539  135.3206  155.3326 H   0  0  0  0  0  0  0  0  0  0  0  0  # atno 10763 bound_to 10752
  154.8254  135.4574  154.0905 H   0  0  0  0  0  0  0  0  0  0  0  0  # atno 10764 bound_to 10752
  153.2116  135.6936  153.8190 H   0  0  0  0  0  0  0  0  0  0  0  0  # atno 10765 bound_to 10752
  140.9165  133.7426  156.0742 H   0  0  0  0  0  0  0  0  0  0  0  0  # atno 11005 bound_to 11000
  145.0907  139.2892  143.5736 LP  0  0  0  0  0  0  0  0  0  0  0  0  # atno 17320 bound_to 7965
  146.3528  140.0444  142.8640 LP  0  0  0  0  0  0  0  0  0  0  0  0  # atno 17321 bound_to 7965
  140.3845  144.2694  150.5905 LP  0  0  0  0  0  0  0  0  0  0  0  0  # atno 17342 bound_to 10162
  140.5203  143.2267  151.8399 LP  0  0  0  0  0  0  0  0  0  0  0  0  # atno 17343 bound_to 10162
  157.3022  130.6848  149.6170 LP  0  0  0  0  0  0  0  0  0  0  0  0  # atno 17370 bound_to 10713
  155.9663  130.4388  150.5234 LP  0  0  0  0  0  0  0  0  0  0  0  0  # atno 17371 bound_to 10713
  140.8043  134.3473  157.5430 LP  0  0  0  0  0  0  0  0  0  0  0  0  # atno 17394 bound_to 11000
  139.8767  134.9216  156.3280 LP  0  0  0  0  0  0  0  0  0  0  0  0  # atno 17395 bound_to 11000

$$$$
