AV-unprocessed.smi:97|AV-procd|sdf|861|dock10
  -GOLD-   2262017313D 1   1.00000     0.00000
 Structure written by MMmdl.
 46 49  0  0  0  0  0  0  0  0  1 V2000
  154.6731  138.4018  163.5084 O   0  0  0  0  0  0  0  0  0  0  0  0
  154.6214  137.5291  162.6401 C   0  0  0  0  0  0  0  0  0  0  0  0
  154.9877  137.8387  161.1808 C   0  0  0  0  0  0  0  0  0  0  0  0
  154.0013  138.7052  160.4990 N   0  0  0  0  0  0  0  0  0  0  0  0
  152.8803  138.0959  159.8818 C   0  0  0  0  0  0  0  0  0  0  0  0
  152.7343  136.8726  159.8883 O   0  0  0  0  0  0  0  0  0  0  0  0
  151.9276  139.0108  159.2636 C   0  0  0  0  0  0  0  0  0  0  0  0
  150.8257  138.5235  158.6684 F   0  0  0  0  0  0  0  0  0  0  0  0
  152.1328  140.3437  159.2831 C   0  0  0  0  0  0  0  0  0  0  0  0
  153.2411  140.9238  159.8684 N   0  0  0  0  0  0  0  0  0  0  0  0
  153.3629  142.4301  159.8858 C   0  0  2  0  0  0  0  0  0  0  0  0
  153.3282  143.0354  161.3019 C   0  0  0  0  0  0  0  0  0  0  0  0
  152.1406  143.9818  161.2386 C   0  0  0  0  0  0  0  0  0  0  0  0
  151.9828  144.2289  159.7424 C   0  0  0  0  0  0  0  0  0  0  0  0
  152.2975  142.9705  159.1669 O   0  0  0  0  0  0  0  0  0  0  0  0
  154.1919  140.1076  160.5238 C   0  0  0  0  0  0  0  0  0  0  0  0
  155.1571  140.6021  161.1084 O   0  0  0  0  0  0  0  0  0  0  0  0
  154.2477  136.2661  162.8932 N   0  0  0  0  0  0  0  0  0  0  0  0
  153.8176  135.7705  164.1965 C   0  0  0  0  0  0  0  0  0  0  0  0
  153.5661  134.2691  164.2348 C   0  0  0  0  0  0  0  0  0  0  0  0
  153.1062  133.6714  165.4376 C   0  0  0  0  0  0  0  0  0  0  0  0
  152.8628  132.2810  165.5109 C   0  0  0  0  0  0  0  0  0  0  0  0
  153.0956  131.5144  164.3579 C   0  0  0  0  0  0  0  0  0  0  0  0
  153.5481  132.0872  163.1877 C   0  0  0  0  0  0  0  0  0  0  0  0
  153.7982  133.4653  163.0896 C   0  0  0  0  0  0  0  0  0  0  0  0
  153.6898  131.1288  162.2371 O   0  0  0  0  0  0  0  0  0  0  0  0
  153.3072  129.9234  162.8474 C   0  0  0  0  0  0  0  0  0  0  0  0
  152.9384  130.1781  164.1786 O   0  0  0  0  0  0  0  0  0  0  0  0
  155.9857  138.2792  161.1641 H   0  0  0  0  0  0  0  0  0  0  0  0
  155.1061  136.8973  160.6411 H   0  0  0  0  0  0  0  0  0  0  0  0
  151.3936  140.9776  158.8158 H   0  0  0  0  0  0  0  0  0  0  0  0
  154.2967  142.6626  159.3718 H   0  0  0  0  0  0  0  0  0  0  0  0
  153.2295  142.2779  162.0800 H   0  0  0  0  0  0  0  0  0  0  0  0
  154.2570  143.5819  161.4681 H   0  0  0  0  0  0  0  0  0  0  0  0
  151.2485  143.4926  161.6303 H   0  0  0  0  0  0  0  0  0  0  0  0
  152.2971  144.8998  161.8053 H   0  0  0  0  0  0  0  0  0  0  0  0
  150.9783  144.5545  159.4720 H   0  0  0  0  0  0  0  0  0  0  0  0
  152.6954  144.9787  159.3945 H   0  0  0  0  0  0  0  0  0  0  0  0
  154.2374  135.6086  162.1269 H   0  0  0  0  0  0  0  0  0  0  0  0
  154.5952  136.0056  164.9233 H   0  0  0  0  0  0  0  0  0  0  0  0
  152.9237  136.3091  164.5162 H   0  0  0  0  0  0  0  0  0  0  0  0
  152.9341  134.2830  166.3112 H   0  0  0  0  0  0  0  0  0  0  0  0
  152.5097  131.8233  166.4231 H   0  0  0  0  0  0  0  0  0  0  0  0
  154.1553  133.8898  162.1630 H   0  0  0  0  0  0  0  0  0  0  0  0
  152.4615  129.4941  162.3094 H   0  0  0  0  0  0  0  0  0  0  0  0
  154.1425  129.2227  162.8269 H   0  0  0  0  0  0  0  0  0  0  0  0
  1  2  2  0  0  0  0
  2  3  1  0  0  0  0
  2 18  1  0  0  0  0
  3  4  1  0  0  0  0
  3 29  1  0  0  0  0
  3 30  1  0  0  0  0
  4 16  1  0  0  0  0
  4  5  1  0  0  0  0
  5  6  2  0  0  0  0
  5  7  1  0  0  0  0
  7  8  1  0  0  0  0
  7  9  2  0  0  0  0
  9 10  1  0  0  0  0
  9 31  1  0  0  0  0
 10 11  1  0  0  0  0
 10 16  1  0  0  0  0
 11 15  1  0  0  0  0
 11 12  1  0  0  0  0
 11 32  1  0  0  0  0
 12 13  1  0  0  0  0
 12 33  1  0  0  0  0
 12 34  1  0  0  0  0
 13 14  1  0  0  0  0
 13 35  1  0  0  0  0
 13 36  1  0  0  0  0
 14 15  1  0  0  0  0
 14 37  1  0  0  0  0
 14 38  1  0  0  0  0
 16 17  2  0  0  0  0
 18 19  1  0  0  0  0
 18 39  1  0  0  0  0
 19 20  1  0  0  0  0
 19 40  1  0  0  0  0
 19 41  1  0  0  0  0
 20 25  1  0  0  0  0
 20 21  2  0  0  0  0
 21 22  1  0  0  0  0
 21 42  1  0  0  0  0
 22 23  2  0  0  0  0
 22 43  1  0  0  0  0
 23 28  1  0  0  0  0
 23 24  1  0  0  0  0
 24 25  2  0  0  0  0
 24 26  1  0  0  0  0
 25 44  1  0  0  0  0
 26 27  1  0  0  0  0
 27 28  1  0  0  0  0
 27 45  1  0  0  0  0
 27 46  1  0  0  0  0
M  END
> <s_m_source_file>
AV-unprocessed.smi

> <i_m_source_file_index>
97

> <i_lp_mmshare_version>
43012

> <i_f3d_flags>
0

> <s_epik_input>
TzFbQ0gyXU9jKGMxMilbY0hdYyhbY0hdW2NIXTIpW0NIMl1bTkhdQyg9TylbQ0gyXW4zYyg9TyljKEYpW2NIXW4oYzM9TylbQ0BASF00W0NIMl1bQ0gyXVtDSDJdTzQ=

> <s_epik_cmdline>
J2VwaWtfcHl0aG9uJywgJy1waCcsICc3LjAnLCAnLXRuJywgJzgnLCAnLW1hJywgJzIwMCcsICctbWV0YWxfYmluZGluZycsICctaW1hZScsICc8aW5maWxlLm1hZT4nLCAnLW9tYWUnLCAnPG91dGZpbGUubWFlPic=

> <r_lp_tautomer_probability>
1

> <r_epik_Ionization_Penalty>
3.79042e-08

> <r_epik_Ionization_Penalty_Charging>
3.81036e-09

> <r_epik_Ionization_Penalty_Neutral>
3.40938e-08

> <r_epik_State_Penalty>
-0

> <r_epik_Charging_Adjusted_Penalty>
3.81036e-09

> <i_epik_Tot_Q>
0

> <i_epik_Tot_abs_Q>
0

> <r_epik_Metal_State_Penalty>
-0

> <b_epik_Metal_Only>
0

> <s_epik_Chemistry_Notes>
This compound contains an acetal/aminal-like group ( X-CH(R)-Y where X, Y are N, S, or O) that may be acid/base labile, releasing an aldehyde.

> <s_lp_Force_Field>
OPLS_2005

> <r_lp_Energy>
33.0069

> <b_lp_Chiralities_Consistent>
1

> <s_lp_Variant>
AV-unprocessed.smi:97-1

> <Gold.Version>
5.8.1

> <Gold.Id.Protein>
6NUR|6NUR_protein|mol2

> <Gold.PLP.Fitness>
50.2792

> <Gold.PLP.PLP>
-48.2640

> <Gold.PLP.part.hbond>
-1.9816

> <Gold.PLP.part.metal>
0.0000

> <Gold.PLP.part.buried>
-7.3081

> <Gold.PLP.part.nonpolar>
-39.9547

> <Gold.PLP.part.repulsive>
0.0162

> <Gold.PLP.ligand.clash>
0.0000

> <Gold.PLP.ligand.torsion>
0.5029

> <Gold.PLP.Chemscore.Hbond>
0.9913

> <Gold.PLP.Chemscore.CHOScore>
0.0000

> <Gold.PLP.Chemscore.Metal>
0.0000

> <Gold.Chemscore.Hbonds>
donor molecule, donor type, donor heavy atom, donor atom, acceptor molecule, acceptor atom, score
      P1  H  6896  6909       L1     6  1.00

> <Gold.PLP.Chemscore.Internal.Correction>
0.0472

> <Gold.Rescore>
     Score         DG    S(hbond)    S(metal)    S(lipo)     H(rot)  DE(clash)    DE(int)     intcor
     13.29     -14.54       1.00        0.00     105.37       2.58       0.04       1.22       ----

> <Gold.Chemscore.Fitness>
13.2884

> <Gold.Chemscore.DG>
-14.5423

> <Gold.Chemscore.ZeroCoef>
-5.4800

> <Gold.Chemscore.Hbond>
0.9997

> <Gold.Chemscore.Metal>
0.0000

> <Gold.Chemscore.Lipo>
105.3709

> <Gold.Chemscore.Internal_Hbond>
0.0000

> <Gold.Chemscore.DEClash>
0.0357

> <Gold.Chemscore.DEInternal>
1.2182

> <Gold.Chemscore.Rot>
2.5801

> <Gold.Chemscore.Internal.Correction>
   9.000000E+99

> <Gold.Chemscore.Hbonds>
donor molecule, donor type, donor heavy atom, donor atom, acceptor molecule, acceptor atom, score
      P1  H  6896  6909       L1     6  0.97

> <Gold.Chemscore.Hbond.Weighted>
-3.3390

> <Gold.Chemscore.Metal.Weighted>
-0.0000

> <Gold.Chemscore.Lipo.Weighted>
-12.3284

> <Gold.Chemscore.Internal_Hbond.Weighted>
0.0000

> <Gold.Chemscore.DEClash.Weighted>
0.0357

> <Gold.Chemscore.DEInternal.Weighted>
1.2182

> <Gold.Chemscore.Rot.Weighted>
6.6050

> <Gold.Chemscore.Internal.Correction.Weighted>
   9.000000E+99

> <Gold.Protein.RotatedTorsions>
[ 6907 6896 6895 6894 ] final  155.41 input  -60.11 | X-H torsion
[ 7974 7965 7964 7962 ] final  100.10 input  175.53 | X-H torsion
[ 8008 7997 7996 7995 ] final  108.53 input   59.86 | X-H torsion
[ 10167 10162 10161 10158 ] final  -53.34 input  -65.29 | X-H torsion
[ 10718 10713 10712 10709 ] final -124.93 input   66.30 | X-H torsion
[ 10763 10752 10751 10750 ] final    5.66 input  -60.55 | X-H torsion
[ 11005 11000 10999 10996 ] final  -26.53 input  -57.11 | X-H torsion

> <Gold.Protein.ActiveResidues>
 VAL166  LYS551  ARG553  GLY616  TRP617  ASP618  TYR619  PRO620  LYS621  CYS622 
 ASP623  PHE694  ASN695  SER759  ASP760  ASP761  ALA762  ILE779  LEU786  VAL792 
 PHE793  MET794  SER795  GLU796  ALA797  LYS798  CYS799  TRP800  GLU811  SER814 

> <Gold.Protein.RotatedAtoms>
  152.0445  133.3992  159.4350 H   0  0  0  0  0  0  0  0  0  0  0  0  # atno 6907 bound_to 6896
  150.6873  134.3377  159.4864 H   0  0  0  0  0  0  0  0  0  0  0  0  # atno 6908 bound_to 6896
  152.1180  134.9226  160.0615 H   0  0  0  0  0  0  0  0  0  0  0  0  # atno 6909 bound_to 6896
  145.3901  139.2364  143.3356 H   0  0  0  0  0  0  0  0  0  0  0  0  # atno 7974 bound_to 7965
  156.1910  140.3075  155.9332 H   0  0  0  0  0  0  0  0  0  0  0  0  # atno 8008 bound_to 7997
  155.3174  140.0454  157.3055 H   0  0  0  0  0  0  0  0  0  0  0  0  # atno 8009 bound_to 7997
  154.5452  140.2274  155.8585 H   0  0  0  0  0  0  0  0  0  0  0  0  # atno 8010 bound_to 7997
  140.6490  143.2553  151.4778 H   0  0  0  0  0  0  0  0  0  0  0  0  # atno 10167 bound_to 10162
  156.1631  130.6615  151.0077 H   0  0  0  0  0  0  0  0  0  0  0  0  # atno 10718 bound_to 10713
  153.2568  135.6919  153.7621 H   0  0  0  0  0  0  0  0  0  0  0  0  # atno 10763 bound_to 10752
  153.6695  135.3347  155.3150 H   0  0  0  0  0  0  0  0  0  0  0  0  # atno 10764 bound_to 10752
  154.8415  135.4496  154.1544 H   0  0  0  0  0  0  0  0  0  0  0  0  # atno 10765 bound_to 10752
  140.9037  133.7507  156.0578 H   0  0  0  0  0  0  0  0  0  0  0  0  # atno 11005 bound_to 11000
  146.2802  140.4582  142.8779 LP  0  0  0  0  0  0  0  0  0  0  0  0  # atno 17320 bound_to 7965
  144.8446  140.6910  143.6207 LP  0  0  0  0  0  0  0  0  0  0  0  0  # atno 17321 bound_to 7965
  139.5703  144.1945  152.1826 LP  0  0  0  0  0  0  0  0  0  0  0  0  # atno 17342 bound_to 10162
  140.1239  144.5349  150.6845 LP  0  0  0  0  0  0  0  0  0  0  0  0  # atno 17343 bound_to 10162
  157.6747  131.0853  150.7524 LP  0  0  0  0  0  0  0  0  0  0  0  0  # atno 17370 bound_to 10713
  156.7586  130.4791  149.5441 LP  0  0  0  0  0  0  0  0  0  0  0  0  # atno 17371 bound_to 10713
  140.8197  134.3303  157.5385 LP  0  0  0  0  0  0  0  0  0  0  0  0  # atno 17394 bound_to 11000
  139.8746  134.9302  156.3496 LP  0  0  0  0  0  0  0  0  0  0  0  0  # atno 17395 bound_to 11000

$$$$
