#       Name:                AV-unprocessed.smi:49
#       Creating user name   scv26
#       Creation time:       Thu Mar 26 16:33:25 2020


#       File generated by GOLD software.
#

@<TRIPOS>MOLECULE
AV-unprocessed.smi:49
    32    33     1
SMALL
NO_CHARGES


@<TRIPOS>ATOM
      1 ****        -4.4420   0.8294   0.5156 C.3            1 S1                 0.0000
      2 ****        -3.5862  -0.4074   0.8097 C.3            1 S1                 0.0000
      3 ****        -2.1242  -0.1445   0.6539 C.2            1 S1                 0.0000
      4 ****        -1.4639  -0.1468  -0.4994 N.2            1 S1                 0.0000
      5 ****        -0.2079   0.1711  -0.0637 C.2            1 S1                 0.0000
      6 ****         0.9631   0.2504  -0.9964 C.3            1 S1                 0.0000
      7 ****         1.7229  -1.0822  -1.1027 C.3            1 S1                 0.0000
      8 ****         2.9575  -0.8769  -0.2284 C.3            1 S1                 0.0000
      9 ****         4.0333  -1.7022  -0.6211 O.3            1 S1                 0.0000
     10 ****         3.2653   0.6060  -0.4259 C.3            1 S1                 0.0000
     11 ****         1.9492   1.2583  -0.5450 N.4            1 S1                 1.0000
     12 ****        -0.0752   0.3412   1.2530 N.2            1 S1                 0.0000
     13 ****        -1.3362   0.1434   1.6916 N.pl3          1 S1                 0.0000
     14 ****         0.5995   0.5417  -1.9827 H              1 S1                 0.0000
     15 ****         2.7092  -1.0696   0.8165 H              1 S1                 0.0000
     16 ****        -1.5999   0.2052   2.6650 H              1 S1                 0.0000
     17 ****        -5.5021   0.6059   0.6367 H              1 S1                 0.0000
     18 ****        -4.2905   1.1794  -0.5059 H              1 S1                 0.0000
     19 ****        -4.1948   1.6488   1.1913 H              1 S1                 0.0000
     20 ****        -3.7796  -0.7597   1.8236 H              1 S1                 0.0000
     21 ****        -3.8680  -1.2203   0.1396 H              1 S1                 0.0000
     22 ****         1.1288  -1.9518  -0.8181 H              1 S1                 0.0000
     23 ****         2.0353  -1.2267  -2.1385 H              1 S1                 0.0000
     24 ****         3.7885  -2.6053  -0.4854 H              1 S1                 0.0000
     25 ****         3.8564   1.0297   0.3863 H              1 S1                 0.0000
     26 ****         3.8077   0.7634  -1.3596 H              1 S1                 0.0000
     27 ****         1.9894   2.0416  -1.1810 H              1 S1                 0.0000
     28 ****         1.6634   1.5773   0.3701 H              1 S1                 0.0000
     29 ****        -1.7933  -0.3297  -1.4257 LP             1 S1                 0.0000
     30 ****         4.8407  -1.4864  -0.0719 LP             1 S1                 0.0000
     31 ****         4.2378  -1.5508  -1.5882 LP             1 S1                 0.0000
     32 ****         0.7468   0.5591   1.7793 LP             1 S1                 0.0000
@<TRIPOS>BOND
    1    1    2 1     
    2    1   17 1     
    3    1   18 1     
    4    1   19 1     
    5    2    3 1     
    6    2   20 1     
    7    2   21 1     
    8    3   13 1     
    9    3    4 2     
   10    4    5 1     
   11    5    6 1     
   12    5   12 2     
   13    6   14 1     
   14    6   11 1     
   15    6    7 1     
   16    7    8 1     
   17    7   22 1     
   18    7   23 1     
   19    8   15 1     
   20    8    9 1     
   21    8   10 1     
   22    9   24 1     
   23   10   11 1     
   24   10   25 1     
   25   10   26 1     
   26   11   27 1     
   27   11   28 1     
   28   12   13 1     
   29   13   16 1     
   30    4   29 1     
   31    9   30 1     
   32    9   31 1     
   33   12   32 1     
@<TRIPOS>SUBSTRUCTURE
      1 S1             1
@<TRIPOS>SET
LONE_PAIRS      STATIC     ATOMS    <user>   **** ""
4 29 30 31 32
DONOR_HYDROGENS      STATIC     ATOMS    <user>   **** ""
4 24 27 28 16
ATOM$BLUE        STATIC     ATOMS    COLORGROUP SYSTEM
4 29 30 31 32
ATOM$RED        STATIC     ATOMS    COLORGROUP SYSTEM
4 24 27 28 16
