AV-unprocessed.smi:1608|AV-procd|sdf|6468|dock1
  -GOLD-   22720 7123D 1   1.00000     0.00000
 Structure written by MMmdl.
 42 43  0  0  0  0  0  0  0  0  1 V2000
  145.2018  131.6376  150.6987 C   0  0  0  0  0  0  0  0  0  0  0  0
  146.1559  131.5351  151.8057 N   0  0  0  0  0  0  0  0  0  0  0  0
  146.8846  132.6881  152.1529 C   0  0  0  0  0  0  0  0  0  0  0  0
  147.7936  132.7008  153.1447 C   0  0  0  0  0  0  0  0  0  0  0  0
  148.4646  133.9039  153.4044 N   0  0  0  0  0  0  0  0  0  0  0  0
  149.0151  134.3333  154.5547 C   0  0  0  0  0  0  0  0  0  0  0  0
  149.0647  133.7030  155.6105 O   0  0  0  0  0  0  0  0  0  0  0  0
  149.5379  135.5593  154.4068 N   0  0  0  0  0  0  0  0  0  0  0  0
  150.2363  136.3096  155.4463 C   0  0  1  0  0  0  0  0  0  0  0  0
  151.1543  135.3824  156.2602 C   0  0  0  0  0  0  0  0  0  0  0  0
  151.9221  136.1985  157.3058 C   0  0  0  0  0  0  0  0  0  0  0  0
  152.7095  137.3463  156.6505 C   0  0  0  0  0  0  0  0  0  0  0  0
  151.8408  138.1908  155.8056 N   0  0  0  0  0  0  0  0  0  0  0  0
  151.2767  139.7262  156.4002 S   0  0  0  0  0  0  0  0  0  0  0  0
  149.8202  139.3009  157.4404 C   0  0  0  0  0  0  0  0  0  0  0  0
  152.3203  140.2781  157.2775 O   0  0  0  0  0  0  0  0  0  0  0  0
  150.8045  140.5091  155.2480 O   0  0  0  0  0  0  0  0  0  0  0  0
  151.0484  137.4509  154.8028 C   0  0  0  0  0  0  0  0  0  0  0  0
  147.9841  131.4574  153.8774 C   0  0  0  0  0  0  0  0  0  0  0  0
  147.2865  130.3511  153.5525 C   0  0  0  0  0  0  0  0  0  0  0  0
  146.3133  130.3472  152.4575 C   0  0  0  0  0  0  0  0  0  0  0  0
  145.6764  129.3405  152.1468 O   0  0  0  0  0  0  0  0  0  0  0  0
  145.1953  132.6255  150.2371 H   0  0  0  0  0  0  0  0  0  0  0  0
  144.1887  131.4340  151.0482 H   0  0  0  0  0  0  0  0  0  0  0  0
  145.4425  130.9167  149.9160 H   0  0  0  0  0  0  0  0  0  0  0  0
  146.6636  133.5602  151.5541 H   0  0  0  0  0  0  0  0  0  0  0  0
  148.5486  134.5211  152.6101 H   0  0  0  0  0  0  0  0  0  0  0  0
  149.4537  136.0055  153.5053 H   0  0  0  0  0  0  0  0  0  0  0  0
  149.4961  136.7471  156.1163 H   0  0  0  0  0  0  0  0  0  0  0  0
  150.5719  134.6039  156.7543 H   0  0  0  0  0  0  0  0  0  0  0  0
  151.8585  134.8759  155.5987 H   0  0  0  0  0  0  0  0  0  0  0  0
  151.2255  136.5936  158.0441 H   0  0  0  0  0  0  0  0  0  0  0  0
  152.6060  135.5487  157.8523 H   0  0  0  0  0  0  0  0  0  0  0  0
  153.2043  137.9500  157.4108 H   0  0  0  0  0  0  0  0  0  0  0  0
  153.5006  136.9331  156.0240 H   0  0  0  0  0  0  0  0  0  0  0  0
  149.4102  140.2153  157.8682 H   0  0  0  0  0  0  0  0  0  0  0  0
  150.1223  138.6382  158.2496 H   0  0  0  0  0  0  0  0  0  0  0  0
  149.0545  138.8233  156.8320 H   0  0  0  0  0  0  0  0  0  0  0  0
  151.7356  137.0434  154.0600 H   0  0  0  0  0  0  0  0  0  0  0  0
  150.3887  138.1335  154.2671 H   0  0  0  0  0  0  0  0  0  0  0  0
  148.6686  131.3880  154.7070 H   0  0  0  0  0  0  0  0  0  0  0  0
  147.4422  129.4441  154.1181 H   0  0  0  0  0  0  0  0  0  0  0  0
  1  2  1  0  0  0  0
  1 23  1  0  0  0  0
  1 24  1  0  0  0  0
  1 25  1  0  0  0  0
  2 21  1  0  0  0  0
  2  3  1  0  0  0  0
  3  4  2  0  0  0  0
  3 26  1  0  0  0  0
  4  5  1  0  0  0  0
  4 19  1  0  0  0  0
  5  6  1  0  0  0  0
  5 27  1  0  0  0  0
  6  7  2  0  0  0  0
  6  8  1  0  0  0  0
  8  9  1  0  0  0  0
  8 28  1  0  0  0  0
  9 18  1  0  0  0  0
  9 10  1  0  0  0  0
  9 29  1  0  0  0  0
 10 11  1  0  0  0  0
 10 30  1  0  0  0  0
 10 31  1  0  0  0  0
 11 12  1  0  0  0  0
 11 32  1  0  0  0  0
 11 33  1  0  0  0  0
 12 13  1  0  0  0  0
 12 34  1  0  0  0  0
 12 35  1  0  0  0  0
 13 14  1  0  0  0  0
 13 18  1  0  0  0  0
 14 15  1  0  0  0  0
 14 16  2  0  0  0  0
 14 17  2  0  0  0  0
 15 36  1  0  0  0  0
 15 37  1  0  0  0  0
 15 38  1  0  0  0  0
 18 39  1  0  0  0  0
 18 40  1  0  0  0  0
 19 20  2  0  0  0  0
 19 41  1  0  0  0  0
 20 21  1  0  0  0  0
 20 42  1  0  0  0  0
 21 22  2  0  0  0  0
M  END
> <s_m_source_file>
AV-unprocessed.smi

> <i_m_source_file_index>
1608

> <i_lp_mmshare_version>
43012

> <i_f3d_flags>
0

> <s_epik_input>
Tz1jMVtjSF1bY0hdYyhbY0hdbjFbQ0gzXSlbTkhdQyg9TylbTkhdW0NAQEhdMltDSDJdW0NIMl1bQ0gyXU4oW0NIMl0yKVMoPU8pKD1PKVtDSDNd

> <s_epik_cmdline>
J2VwaWtfcHl0aG9uJywgJy1waCcsICc3LjAnLCAnLXRuJywgJzgnLCAnLW1hJywgJzIwMCcsICctbWV0YWxfYmluZGluZycsICctaW1hZScsICc8aW5maWxlLm1hZT4nLCAnLW9tYWUnLCAnPG91dGZpbGUubWFlPic=

> <r_lp_tautomer_probability>
1

> <r_epik_Ionization_Penalty>
2.44111e-05

> <r_epik_Ionization_Penalty_Charging>
5.7429e-06

> <r_epik_Ionization_Penalty_Neutral>
1.86682e-05

> <r_epik_State_Penalty>
-0

> <r_epik_Charging_Adjusted_Penalty>
5.7429e-06

> <i_epik_Tot_Q>
0

> <i_epik_Tot_abs_Q>
0

> <r_epik_Metal_State_Penalty>
-0

> <b_epik_Metal_Only>
0

> <s_lp_Force_Field>
OPLS_2005

> <r_lp_Energy>
11.6091

> <b_lp_Chiralities_Consistent>
1

> <s_lp_Variant>
AV-unprocessed.smi:1608-2

> <Gold.Version>
5.8.1

> <Gold.Id.Protein>
6NUR|6NUR_protein|mol2

> <Gold.PLP.Fitness>
42.4667

> <Gold.PLP.PLP>
-32.0230

> <Gold.PLP.part.hbond>
-4.0609

> <Gold.PLP.part.metal>
0.0000

> <Gold.PLP.part.buried>
-2.3200

> <Gold.PLP.part.nonpolar>
-25.3852

> <Gold.PLP.part.repulsive>
0.2574

> <Gold.PLP.ligand.clash>
0.0000

> <Gold.PLP.ligand.torsion>
1.4231

> <Gold.PLP.Chemscore.Hbond>
3.7420

> <Gold.PLP.Chemscore.CHOScore>
0.0000

> <Gold.PLP.Chemscore.Metal>
0.0000

> <Gold.Chemscore.Hbonds>
donor molecule, donor type, donor heavy atom, donor atom, acceptor molecule, acceptor atom, score
      L1  H     5    27       P1  7948  0.70
      L1  H     8    28       P1  7948  1.00
      P1  H  7989  7998       L1    17  0.99
      P1  H  7997  8009       L1    16  0.62

> <Gold.PLP.Chemscore.Internal.Correction>
2.0638

> <Gold.Rescore>
     Score         DG    S(hbond)    S(metal)    S(lipo)     H(rot)  DE(clash)    DE(int)     intcor
     16.04     -19.74       3.12        0.00      54.65       1.00       0.01       3.70       ----

> <Gold.Chemscore.Fitness>
16.0355

> <Gold.Chemscore.DG>
-19.7416

> <Gold.Chemscore.ZeroCoef>
-5.4800

> <Gold.Chemscore.Hbond>
3.1220

> <Gold.Chemscore.Metal>
0.0000

> <Gold.Chemscore.Lipo>
54.6508

> <Gold.Chemscore.Internal_Hbond>
0.0000

> <Gold.Chemscore.DEClash>
0.0082

> <Gold.Chemscore.DEInternal>
3.6979

> <Gold.Chemscore.Rot>
1.0000

> <Gold.Chemscore.Internal.Correction>
   9.000000E+99

> <Gold.Chemscore.Hbonds>
donor molecule, donor type, donor heavy atom, donor atom, acceptor molecule, acceptor atom, score
      L1  H     5    27       P1  7948  0.07
      L1  H     8    28       P1  7948  0.50
      P1  H  7989  7998       L1    17  0.92
      P1  H  7997  8009       L1    16  0.59

> <Gold.Chemscore.Hbond.Weighted>
-10.4275

> <Gold.Chemscore.Metal.Weighted>
-0.0000

> <Gold.Chemscore.Lipo.Weighted>
-6.3941

> <Gold.Chemscore.Internal_Hbond.Weighted>
0.0000

> <Gold.Chemscore.DEClash.Weighted>
0.0082

> <Gold.Chemscore.DEInternal.Weighted>
3.6979

> <Gold.Chemscore.Rot.Weighted>
2.5600

> <Gold.Chemscore.Internal.Correction.Weighted>
   9.000000E+99

> <Gold.Protein.RotatedTorsions>
[ 6907 6896 6895 6894 ] final  -48.09 input  -60.11 | X-H torsion
[ 7974 7965 7964 7962 ] final   15.02 input  175.53 | X-H torsion
[ 8008 7997 7996 7995 ] final  171.45 input   59.86 | X-H torsion
[ 10167 10162 10161 10158 ] final -108.38 input  -65.29 | X-H torsion
[ 10718 10713 10712 10709 ] final   -8.76 input   66.30 | X-H torsion
[ 10763 10752 10751 10750 ] final   70.37 input  -60.55 | X-H torsion
[ 11005 11000 10999 10996 ] final -162.51 input  -57.11 | X-H torsion

> <Gold.Protein.ActiveResidues>
 VAL166  LYS551  ARG553  GLY616  TRP617  ASP618  TYR619  PRO620  LYS621  CYS622 
 ASP623  PHE694  ASN695  SER759  ASP760  ASP761  ALA762  ILE779  LEU786  VAL792 
 PHE793  MET794  SER795  GLU796  ALA797  LYS798  CYS799  TRP800  GLU811  SER814 

> <Gold.Protein.RotatedAtoms>
  150.8941  134.8347  159.7313 H   0  0  0  0  0  0  0  0  0  0  0  0  # atno 6907 bound_to 6896
  152.4854  134.4603  159.9613 H   0  0  0  0  0  0  0  0  0  0  0  0  # atno 6908 bound_to 6896
  151.4663  133.3541  159.2852 H   0  0  0  0  0  0  0  0  0  0  0  0  # atno 6909 bound_to 6896
  146.2290  139.8956  142.8547 H   0  0  0  0  0  0  0  0  0  0  0  0  # atno 7974 bound_to 7965
  156.1270  140.1511  156.9121 H   0  0  0  0  0  0  0  0  0  0  0  0  # atno 8008 bound_to 7997
  154.4879  140.0860  156.7569 H   0  0  0  0  0  0  0  0  0  0  0  0  # atno 8009 bound_to 7997
  155.4325  140.3427  155.4284 H   0  0  0  0  0  0  0  0  0  0  0  0  # atno 8010 bound_to 7997
  140.1668  143.4075  152.1384 H   0  0  0  0  0  0  0  0  0  0  0  0  # atno 10167 bound_to 10162
  156.6979  130.5084  149.5925 H   0  0  0  0  0  0  0  0  0  0  0  0  # atno 10718 bound_to 10713
  153.0338  135.5176  154.7430 H   0  0  0  0  0  0  0  0  0  0  0  0  # atno 10763 bound_to 10752
  154.6424  135.2914  155.0090 H   0  0  0  0  0  0  0  0  0  0  0  0  # atno 10764 bound_to 10752
  154.1003  135.6637  153.4919 H   0  0  0  0  0  0  0  0  0  0  0  0  # atno 10765 bound_to 10752
  140.6085  134.4874  157.5213 H   0  0  0  0  0  0  0  0  0  0  0  0  # atno 11005 bound_to 11000
  145.2374  140.9996  143.3955 LP  0  0  0  0  0  0  0  0  0  0  0  0  # atno 17320 bound_to 7965
  144.9480  139.4114  143.6416 LP  0  0  0  0  0  0  0  0  0  0  0  0  # atno 17321 bound_to 7965
  139.5356  144.7206  151.4905 LP  0  0  0  0  0  0  0  0  0  0  0  0  # atno 17342 bound_to 10162
  140.6608  143.8503  150.6885 LP  0  0  0  0  0  0  0  0  0  0  0  0  # atno 17343 bound_to 10162
  156.1750  130.6461  151.0883 LP  0  0  0  0  0  0  0  0  0  0  0  0  # atno 17370 bound_to 10713
  157.6984  131.0785  150.6897 LP  0  0  0  0  0  0  0  0  0  0  0  0  # atno 17371 bound_to 10713
  139.9202  134.8164  156.1235 LP  0  0  0  0  0  0  0  0  0  0  0  0  # atno 17394 bound_to 11000
  141.0824  133.6748  156.2365 LP  0  0  0  0  0  0  0  0  0  0  0  0  # atno 17395 bound_to 11000

$$$$
