AV-unprocessed.smi:220|AV-procd|sdf|1684|dock2
  -GOLD-   2262020123D 1   1.00000     0.00000
 Structure written by MMmdl.
 51 55  0  0  0  0  0  0  0  0  1 V2000
  150.6854  141.3440  155.8096 N   0  0  0  0  0  0  0  0  0  0  0  0
  151.5528  140.9422  156.7416 C   0  0  0  0  0  0  0  0  0  0  0  0
  152.5226  140.2361  156.4697 O   0  0  0  0  0  0  0  0  0  0  0  0
  151.2847  141.4130  158.1840 C   0  0  2  0  0  0  0  0  0  0  0  0
  151.2574  142.9538  158.3256 C   0  0  2  0  0  0  0  0  0  0  0  0
  152.2196  143.7852  157.4593 C   0  0  0  0  0  0  0  0  0  0  0  0
  152.4438  145.0621  158.2702 C   0  0  0  0  0  0  0  0  0  0  0  0
  152.3801  144.6303  159.7415 C   0  0  0  0  0  0  0  0  0  0  0  0
  151.7492  143.2269  159.7449 C   0  0  2  0  0  0  0  0  0  0  0  0
  152.7389  142.0833  160.0012 C   0  0  0  0  0  0  0  0  0  0  0  0
  152.2968  140.9844  159.1512 N   0  0  0  0  0  0  0  0  0  0  0  0
  152.5469  139.6935  159.5036 C   0  0  0  0  0  0  0  0  0  0  0  0
  151.7905  138.7290  158.9161 N   0  0  0  0  0  0  0  0  0  0  0  0
  151.9671  137.4419  159.2229 C   0  0  0  0  0  0  0  0  0  0  0  0
  152.8364  136.9016  160.0761 N   0  0  0  0  0  0  0  0  0  0  0  0
  153.6098  137.8565  160.6659 C   0  0  0  0  0  0  0  0  0  0  0  0
  153.5336  139.2630  160.4428 C   0  0  0  0  0  0  0  0  0  0  0  0
  154.4894  139.9035  161.2246 N   0  0  0  0  0  0  0  0  0  0  0  0
  155.0807  138.9413  161.8760 C   0  0  0  0  0  0  0  0  0  0  0  0
  154.6263  137.6752  161.5894 N   0  0  0  0  0  0  0  0  0  0  0  0
  155.1049  136.4240  162.1609 C   0  0  0  0  0  0  0  0  0  0  0  0
  155.0078  136.3497  163.7003 C   0  0  0  0  0  0  0  0  0  0  0  0
  155.8730  137.4419  164.3518 C   0  0  0  0  0  0  0  0  0  0  0  0
  155.7607  137.4088  165.7599 O   0  0  0  0  0  0  0  0  0  0  0  0
  153.5860  136.2242  164.2683 C   0  0  0  0  0  0  0  0  0  0  0  0
  153.7790  134.8433  164.6385 O   0  0  0  0  0  0  0  0  0  0  0  0
  155.1758  134.9431  164.2908 C   0  0  0  0  0  0  0  0  0  0  0  0
  150.8180  141.0632  154.8488 H   0  0  0  0  0  0  0  0  0  0  0  0
  149.9022  141.9268  156.0667 H   0  0  0  0  0  0  0  0  0  0  0  0
  150.3203  141.0282  158.5173 H   0  0  0  0  0  0  0  0  0  0  0  0
  150.2437  143.3363  158.1974 H   0  0  0  0  0  0  0  0  0  0  0  0
  153.1730  143.2688  157.3361 H   0  0  0  0  0  0  0  0  0  0  0  0
  151.8207  143.9885  156.4648 H   0  0  0  0  0  0  0  0  0  0  0  0
  153.3854  145.5515  158.0196 H   0  0  0  0  0  0  0  0  0  0  0  0
  151.6398  145.7696  158.0625 H   0  0  0  0  0  0  0  0  0  0  0  0
  153.3732  144.6196  160.1921 H   0  0  0  0  0  0  0  0  0  0  0  0
  151.7760  145.3334  160.3160 H   0  0  0  0  0  0  0  0  0  0  0  0
  150.9197  143.1595  160.4501 H   0  0  0  0  0  0  0  0  0  0  0  0
  153.7537  142.3540  159.7065 H   0  0  0  0  0  0  0  0  0  0  0  0
  152.7532  141.8166  161.0591 H   0  0  0  0  0  0  0  0  0  0  0  0
  151.3181  136.7459  158.7121 H   0  0  0  0  0  0  0  0  0  0  0  0
  155.8697  139.1359  162.5868 H   0  0  0  0  0  0  0  0  0  0  0  0
  154.5318  135.6148  161.7066 H   0  0  0  0  0  0  0  0  0  0  0  0
  156.1334  136.2674  161.8336 H   0  0  0  0  0  0  0  0  0  0  0  0
  156.9221  137.3506  164.0714 H   0  0  0  0  0  0  0  0  0  0  0  0
  155.5581  138.4314  164.0187 H   0  0  0  0  0  0  0  0  0  0  0  0
  155.3638  138.2160  166.0498 H   0  0  0  0  0  0  0  0  0  0  0  0
  153.3985  136.8547  165.1385 H   0  0  0  0  0  0  0  0  0  0  0  0
  152.7915  136.3397  163.5322 H   0  0  0  0  0  0  0  0  0  0  0  0
  155.4771  134.1900  163.5617 H   0  0  0  0  0  0  0  0  0  0  0  0
  155.8170  134.9057  165.1728 H   0  0  0  0  0  0  0  0  0  0  0  0
  1  2  1  0  0  0  0
  1 28  1  0  0  0  0
  1 29  1  0  0  0  0
  2  3  2  0  0  0  0
  2  4  1  0  0  0  0
  4 11  1  0  0  0  0
  4  5  1  0  0  0  0
  4 30  1  0  0  0  0
  5  9  1  0  0  0  0
  5  6  1  0  0  0  0
  5 31  1  0  0  0  0
  6  7  1  0  0  0  0
  6 32  1  0  0  0  0
  6 33  1  0  0  0  0
  7  8  1  0  0  0  0
  7 34  1  0  0  0  0
  7 35  1  0  0  0  0
  8  9  1  0  0  0  0
  8 36  1  0  0  0  0
  8 37  1  0  0  0  0
  9 10  1  0  0  0  0
  9 38  1  0  0  0  0
 10 11  1  0  0  0  0
 10 39  1  0  0  0  0
 10 40  1  0  0  0  0
 11 12  1  0  0  0  0
 12 17  1  0  0  0  0
 12 13  2  0  0  0  0
 13 14  1  0  0  0  0
 14 15  2  0  0  0  0
 14 41  1  0  0  0  0
 15 16  1  0  0  0  0
 16 20  1  0  0  0  0
 16 17  2  0  0  0  0
 17 18  1  0  0  0  0
 18 19  2  0  0  0  0
 19 20  1  0  0  0  0
 19 42  1  0  0  0  0
 20 21  1  0  0  0  0
 21 22  1  0  0  0  0
 21 43  1  0  0  0  0
 21 44  1  0  0  0  0
 22 27  1  0  0  0  0
 22 23  1  0  0  0  0
 22 25  1  0  0  0  0
 23 24  1  0  0  0  0
 23 45  1  0  0  0  0
 23 46  1  0  0  0  0
 24 47  1  0  0  0  0
 25 26  1  0  0  0  0
 25 48  1  0  0  0  0
 25 49  1  0  0  0  0
 26 27  1  0  0  0  0
 27 50  1  0  0  0  0
 27 51  1  0  0  0  0
M  END
> <s_m_source_file>
AV-unprocessed.smi

> <i_m_source_file_index>
220

> <i_lp_mmshare_version>
43012

> <i_f3d_flags>
0

> <s_epik_input>
W0NIMl0xW0NIMl1bQ0gyXVtDQEhdKFtDQEhdMTIpW0NIMl1OKFtDQEBIXTJDKD1PKVtOSDJdKWMobltjSF1uMyljKGMzNCluW2NIXW40W0NIMl1DNShbQ0gyXVtPSF0pW0NIMl1PW0NIMl01

> <s_epik_cmdline>
J2VwaWtfcHl0aG9uJywgJy1waCcsICc3LjAnLCAnLXRuJywgJzgnLCAnLW1hJywgJzIwMCcsICctbWV0YWxfYmluZGluZycsICctaW1hZScsICc8aW5maWxlLm1hZT4nLCAnLW9tYWUnLCAnPG91dGZpbGUubWFlPic=

> <r_lp_tautomer_probability>
1

> <r_epik_Ionization_Penalty>
0.00118987

> <r_epik_Ionization_Penalty_Charging>
0

> <r_epik_Ionization_Penalty_Neutral>
0.00118987

> <r_epik_State_Penalty>
0.000654261

> <r_epik_Charging_Adjusted_Penalty>
0.000654261

> <i_epik_Tot_Q>
0

> <i_epik_Tot_abs_Q>
0

> <r_epik_Metal_State_Penalty>
-0

> <b_epik_Metal_Only>
0

> <s_lp_Force_Field>
OPLS_2005

> <r_lp_Energy>
60.6153

> <b_lp_Chiralities_Consistent>
1

> <s_lp_Variant>
AV-unprocessed.smi:220-3

> <Gold.Version>
5.8.1

> <Gold.Id.Protein>
6NUR|6NUR_protein|mol2

> <Gold.PLP.Fitness>
53.2241

> <Gold.PLP.PLP>
-47.3898

> <Gold.PLP.part.hbond>
-2.4626

> <Gold.PLP.part.metal>
0.0000

> <Gold.PLP.part.buried>
-6.8982

> <Gold.PLP.part.nonpolar>
-36.7934

> <Gold.PLP.part.repulsive>
0.2127

> <Gold.PLP.ligand.clash>
0.0000

> <Gold.PLP.ligand.torsion>
0.2543

> <Gold.PLP.Chemscore.Hbond>
1.9750

> <Gold.PLP.Chemscore.CHOScore>
0.0000

> <Gold.PLP.Chemscore.Metal>
0.0000

> <Gold.Chemscore.Hbonds>
donor molecule, donor type, donor heavy atom, donor atom, acceptor molecule, acceptor atom, score
      P1  H  6896  6909       L1    15  0.94
      P1  H  7997  8008       L1     3  1.00

> <Gold.PLP.Chemscore.Internal.Correction>
0.4179

> <Gold.Rescore>
     Score         DG    S(hbond)    S(metal)    S(lipo)     H(rot)  DE(clash)    DE(int)     intcor
     13.27     -14.46       1.11        0.00     108.37       2.89       0.28       0.92       ----

> <Gold.Chemscore.Fitness>
13.2663

> <Gold.Chemscore.DG>
-14.4627

> <Gold.Chemscore.ZeroCoef>
-5.4800

> <Gold.Chemscore.Hbond>
1.1060

> <Gold.Chemscore.Metal>
0.0000

> <Gold.Chemscore.Lipo>
108.3686

> <Gold.Chemscore.Internal_Hbond>
0.0000

> <Gold.Chemscore.DEClash>
0.2788

> <Gold.Chemscore.DEInternal>
0.9176

> <Gold.Chemscore.Rot>
2.8869

> <Gold.Chemscore.Internal.Correction>
   9.000000E+99

> <Gold.Chemscore.Hbonds>
donor molecule, donor type, donor heavy atom, donor atom, acceptor molecule, acceptor atom, score
      P1  H  6896  6909       L1    15  0.23
      P1  H  7997  8008       L1     3  0.96

> <Gold.Chemscore.Hbond.Weighted>
-3.6941

> <Gold.Chemscore.Metal.Weighted>
-0.0000

> <Gold.Chemscore.Lipo.Weighted>
-12.6791

> <Gold.Chemscore.Internal_Hbond.Weighted>
0.0000

> <Gold.Chemscore.DEClash.Weighted>
0.2788

> <Gold.Chemscore.DEInternal.Weighted>
0.9176

> <Gold.Chemscore.Rot.Weighted>
7.3905

> <Gold.Chemscore.Internal.Correction.Weighted>
   9.000000E+99

> <Gold.Protein.RotatedTorsions>
[ 6907 6896 6895 6894 ] final  158.98 input  -60.11 | X-H torsion
[ 7974 7965 7964 7962 ] final  -46.56 input  175.53 | X-H torsion
[ 8008 7997 7996 7995 ] final  -52.75 input   59.86 | X-H torsion
[ 10167 10162 10161 10158 ] final   -5.54 input  -65.29 | X-H torsion
[ 10718 10713 10712 10709 ] final   61.71 input   66.30 | X-H torsion
[ 10763 10752 10751 10750 ] final -103.75 input  -60.55 | X-H torsion
[ 11005 11000 10999 10996 ] final  141.51 input  -57.11 | X-H torsion

> <Gold.Protein.ActiveResidues>
 VAL166  LYS551  ARG553  GLY616  TRP617  ASP618  TYR619  PRO620  LYS621  CYS622 
 ASP623  PHE694  ASN695  SER759  ASP760  ASP761  ALA762  ILE779  LEU786  VAL792 
 PHE793  MET794  SER795  GLU796  ALA797  LYS798  CYS799  TRP800  GLU811  SER814 

> <Gold.Protein.RotatedAtoms>
  151.9923  133.3795  159.4148 H   0  0  0  0  0  0  0  0  0  0  0  0  # atno 6907 bound_to 6896
  150.6920  134.3923  159.5091 H   0  0  0  0  0  0  0  0  0  0  0  0  # atno 6908 bound_to 6896
  152.1658  134.8874  160.0589 H   0  0  0  0  0  0  0  0  0  0  0  0  # atno 6909 bound_to 6896
  145.9706  140.7387  142.9412 H   0  0  0  0  0  0  0  0  0  0  0  0  # atno 7974 bound_to 7965
  154.4115  140.1216  156.5043 H   0  0  0  0  0  0  0  0  0  0  0  0  # atno 8008 bound_to 7997
  155.6863  140.3495  155.4856 H   0  0  0  0  0  0  0  0  0  0  0  0  # atno 8009 bound_to 7997
  155.9507  140.1104  157.0969 H   0  0  0  0  0  0  0  0  0  0  0  0  # atno 8010 bound_to 7997
  140.6966  143.6296  150.8535 H   0  0  0  0  0  0  0  0  0  0  0  0  # atno 10167 bound_to 10162
  157.5848  130.9010  149.9496 H   0  0  0  0  0  0  0  0  0  0  0  0  # atno 10718 bound_to 10713
  154.7829  135.4812  153.9883 H   0  0  0  0  0  0  0  0  0  0  0  0  # atno 10763 bound_to 10752
  153.1519  135.6793  153.8876 H   0  0  0  0  0  0  0  0  0  0  0  0  # atno 10764 bound_to 10752
  153.8518  135.3166  155.3411 H   0  0  0  0  0  0  0  0  0  0  0  0  # atno 10765 bound_to 10752
  140.0407  134.9306  157.0838 H   0  0  0  0  0  0  0  0  0  0  0  0  # atno 11005 bound_to 11000
  144.6836  140.2742  143.7301 LP  0  0  0  0  0  0  0  0  0  0  0  0  # atno 17320 bound_to 7965
  145.7911  139.1927  143.2102 LP  0  0  0  0  0  0  0  0  0  0  0  0  # atno 17321 bound_to 7965
  140.0015  143.5739  152.2873 LP  0  0  0  0  0  0  0  0  0  0  0  0  # atno 17342 bound_to 10162
  139.6430  144.7656  151.2300 LP  0  0  0  0  0  0  0  0  0  0  0  0  # atno 17343 bound_to 10162
  156.0896  130.3664  150.0420 LP  0  0  0  0  0  0  0  0  0  0  0  0  # atno 17370 bound_to 10713
  156.8553  130.9473  151.3622 LP  0  0  0  0  0  0  0  0  0  0  0  0  # atno 17371 bound_to 10713
  140.4074  134.2018  155.7163 LP  0  0  0  0  0  0  0  0  0  0  0  0  # atno 17394 bound_to 11000
  141.1881  133.8266  157.1006 LP  0  0  0  0  0  0  0  0  0  0  0  0  # atno 17395 bound_to 11000

$$$$
