AV-unprocessed.smi:668|AV-procd|sdf|3259|dock8
  -GOLD-   22720 0213D 1   1.00000     0.00000
 Structure written by MMmdl.
 38 39  0  0  0  0  0  0  0  0  1 V2000
  153.6687  141.8977  162.1702 C   0  0  0  0  0  0  0  0  0  0  0  0
  153.2955  143.1344  161.5725 O   0  0  0  0  0  0  0  0  0  0  0  0
  152.5284  143.1029  160.4260 C   0  0  0  0  0  0  0  0  0  0  0  0
  152.2241  144.3202  159.7850 C   0  0  0  0  0  0  0  0  0  0  0  0
  151.4494  144.2966  158.6097 C   0  0  0  0  0  0  0  0  0  0  0  0
  151.0072  143.0497  158.1077 C   0  0  0  0  0  0  0  0  0  0  0  0
  150.2113  142.8983  156.9408 N   0  0  0  0  0  0  0  0  0  0  0  0
  150.2017  141.8747  156.0703 C   0  0  0  0  0  0  0  0  0  0  0  0
  150.9114  140.8717  156.1436 O   0  0  0  0  0  0  0  0  0  0  0  0
  149.2940  142.0690  155.1036 N   0  0  0  0  0  0  0  0  0  0  0  0
  149.0065  141.1281  154.0237 C   0  0  2  0  0  0  0  0  0  0  0  0
  147.7385  141.5070  153.2425 C   0  0  0  0  0  0  0  0  0  0  0  0
  147.1416  140.1741  152.8027 C   0  0  0  0  0  0  0  0  0  0  0  0
  147.4173  139.2401  153.9791 C   0  0  0  0  0  0  0  0  0  0  0  0
  148.7624  139.6996  154.5780 C   0  0  1  0  0  0  0  0  0  0  0  0
  149.9145  138.7409  154.2352 C   0  0  0  0  0  0  0  0  0  0  0  0
  150.1718  138.5356  152.9409 N   0  0  0  0  0  0  0  0  0  0  0  0
  150.5663  138.1968  155.1246 O   0  0  0  0  0  0  0  0  0  0  0  0
  151.3481  141.8907  158.8348 C   0  0  0  0  0  0  0  0  0  0  0  0
  152.0932  141.9061  159.9600 N   0  0  0  0  0  0  0  0  0  0  0  0
  154.2723  142.0932  163.0564 H   0  0  0  0  0  0  0  0  0  0  0  0
  154.2686  141.2923  161.4892 H   0  0  0  0  0  0  0  0  0  0  0  0
  152.7954  141.3243  162.4848 H   0  0  0  0  0  0  0  0  0  0  0  0
  152.5778  145.2574  160.1889 H   0  0  0  0  0  0  0  0  0  0  0  0
  151.2014  145.2293  158.1272 H   0  0  0  0  0  0  0  0  0  0  0  0
  149.5136  143.6132  156.7958 H   0  0  0  0  0  0  0  0  0  0  0  0
  148.7538  142.9213  155.1210 H   0  0  0  0  0  0  0  0  0  0  0  0
  149.8478  141.1238  153.3267 H   0  0  0  0  0  0  0  0  0  0  0  0
  147.0283  142.0178  153.8949 H   0  0  0  0  0  0  0  0  0  0  0  0
  147.9488  142.1689  152.4018 H   0  0  0  0  0  0  0  0  0  0  0  0
  146.0805  140.2466  152.5622 H   0  0  0  0  0  0  0  0  0  0  0  0
  147.6622  139.8131  151.9147 H   0  0  0  0  0  0  0  0  0  0  0  0
  146.6314  139.3562  154.7266 H   0  0  0  0  0  0  0  0  0  0  0  0
  147.4095  138.1929  153.6721 H   0  0  0  0  0  0  0  0  0  0  0  0
  148.6504  139.7260  155.6640 H   0  0  0  0  0  0  0  0  0  0  0  0
  150.9178  137.9135  152.6659 H   0  0  0  0  0  0  0  0  0  0  0  0
  149.6156  139.0047  152.2407 H   0  0  0  0  0  0  0  0  0  0  0  0
  151.0208  140.9174  158.4995 H   0  0  0  0  0  0  0  0  0  0  0  0
  1  2  1  0  0  0  0
  1 21  1  0  0  0  0
  1 22  1  0  0  0  0
  1 23  1  0  0  0  0
  2  3  1  0  0  0  0
  3 20  1  0  0  0  0
  3  4  2  0  0  0  0
  4  5  1  0  0  0  0
  4 24  1  0  0  0  0
  5  6  2  0  0  0  0
  5 25  1  0  0  0  0
  6  7  1  0  0  0  0
  6 19  1  0  0  0  0
  7  8  1  0  0  0  0
  7 26  1  0  0  0  0
  8  9  2  0  0  0  0
  8 10  1  0  0  0  0
 10 11  1  0  0  0  0
 10 27  1  0  0  0  0
 11 15  1  0  0  0  0
 11 12  1  0  0  0  0
 11 28  1  0  0  0  0
 12 13  1  0  0  0  0
 12 29  1  0  0  0  0
 12 30  1  0  0  0  0
 13 14  1  0  0  0  0
 13 31  1  0  0  0  0
 13 32  1  0  0  0  0
 14 15  1  0  0  0  0
 14 33  1  0  0  0  0
 14 34  1  0  0  0  0
 15 16  1  0  0  0  0
 15 35  1  0  0  0  0
 16 17  1  0  0  0  0
 16 18  2  0  0  0  0
 17 36  1  0  0  0  0
 17 37  1  0  0  0  0
 19 20  2  0  0  0  0
 19 38  1  0  0  0  0
M  END
> <s_m_source_file>
AV-unprocessed.smi

> <i_m_source_file_index>
668

> <i_lp_mmshare_version>
43012

> <i_f3d_flags>
0

> <s_epik_input>
W0NIM11PYzFbY0hdW2NIXWMoW2NIXW4xKVtOSF1DKD1PKVtOSF1bQ0BASF0yW0NIMl1bQ0gyXVtDSDJdW0NASF0yQyg9TylbTkgyXQ==

> <s_epik_cmdline>
J2VwaWtfcHl0aG9uJywgJy1waCcsICc3LjAnLCAnLXRuJywgJzgnLCAnLW1hJywgJzIwMCcsICctbWV0YWxfYmluZGluZycsICctaW1hZScsICc8aW5maWxlLm1hZT4nLCAnLW9tYWUnLCAnPG91dGZpbGUubWFlPic=

> <r_lp_tautomer_probability>
1

> <r_epik_Ionization_Penalty>
9.0916e-05

> <r_epik_Ionization_Penalty_Charging>
0

> <r_epik_Ionization_Penalty_Neutral>
9.0916e-05

> <r_epik_State_Penalty>
-0

> <r_epik_Charging_Adjusted_Penalty>
0

> <i_epik_Tot_Q>
0

> <i_epik_Tot_abs_Q>
0

> <r_epik_Metal_State_Penalty>
-0

> <b_epik_Metal_Only>
0

> <s_lp_Force_Field>
OPLS_2005

> <r_lp_Energy>
16.4016

> <b_lp_Chiralities_Consistent>
1

> <s_lp_Variant>
AV-unprocessed.smi:668-1

> <Gold.Version>
5.8.1

> <Gold.Id.Protein>
6NUR|6NUR_protein|mol2

> <Gold.PLP.Fitness>
45.1061

> <Gold.PLP.PLP>
-36.9606

> <Gold.PLP.part.hbond>
-4.8507

> <Gold.PLP.part.metal>
0.0000

> <Gold.PLP.part.buried>
1.0357

> <Gold.PLP.part.nonpolar>
-31.7749

> <Gold.PLP.part.repulsive>
0.4662

> <Gold.PLP.ligand.clash>
0.0000

> <Gold.PLP.ligand.torsion>
0.3340

> <Gold.PLP.Chemscore.Hbond>
2.9364

> <Gold.PLP.Chemscore.CHOScore>
0.0000

> <Gold.PLP.Chemscore.Metal>
0.0000

> <Gold.Chemscore.Hbonds>
donor molecule, donor type, donor heavy atom, donor atom, acceptor molecule, acceptor atom, score
      L1  H     7    26       P1  8028  0.90
      L1  H    10    27       P1  8028  0.83
      L1  H    17    36       P1  7949  0.29
      L1  H    17    37       P1  7957  0.79

> <Gold.PLP.Chemscore.Internal.Correction>
0.0042

> <Gold.Rescore>
     Score         DG    S(hbond)    S(metal)    S(lipo)     H(rot)  DE(clash)    DE(int)     intcor
     14.57     -18.95       2.51        0.00      84.27       1.86       2.09       2.29       ----

> <Gold.Chemscore.Fitness>
14.5699

> <Gold.Chemscore.DG>
-18.9506

> <Gold.Chemscore.ZeroCoef>
-5.4800

> <Gold.Chemscore.Hbond>
2.5104

> <Gold.Chemscore.Metal>
0.0000

> <Gold.Chemscore.Lipo>
84.2715

> <Gold.Chemscore.Internal_Hbond>
0.0000

> <Gold.Chemscore.DEClash>
2.0863

> <Gold.Chemscore.DEInternal>
2.2944

> <Gold.Chemscore.Rot>
1.8648

> <Gold.Chemscore.Internal.Correction>
   9.000000E+99

> <Gold.Chemscore.Hbonds>
donor molecule, donor type, donor heavy atom, donor atom, acceptor molecule, acceptor atom, score
      L1  H     7    26       P1  8028  0.86
      L1  H    10    27       P1  8028  0.83
      L1  H    17    36       P1  7949  0.06
      L1  H    17    37       P1  7957  0.48

> <Gold.Chemscore.Hbond.Weighted>
-8.3847

> <Gold.Chemscore.Metal.Weighted>
-0.0000

> <Gold.Chemscore.Lipo.Weighted>
-9.8598

> <Gold.Chemscore.Internal_Hbond.Weighted>
0.0000

> <Gold.Chemscore.DEClash.Weighted>
2.0863

> <Gold.Chemscore.DEInternal.Weighted>
2.2944

> <Gold.Chemscore.Rot.Weighted>
4.7739

> <Gold.Chemscore.Internal.Correction.Weighted>
   9.000000E+99

> <Gold.Protein.RotatedTorsions>
[ 6907 6896 6895 6894 ] final   -9.42 input  -60.11 | X-H torsion
[ 7974 7965 7964 7962 ] final   13.69 input  175.53 | X-H torsion
[ 8008 7997 7996 7995 ] final  -17.39 input   59.86 | X-H torsion
[ 10167 10162 10161 10158 ] final  -58.31 input  -65.29 | X-H torsion
[ 10718 10713 10712 10709 ] final  -11.69 input   66.30 | X-H torsion
[ 10763 10752 10751 10750 ] final  -76.57 input  -60.55 | X-H torsion
[ 11005 11000 10999 10996 ] final  -23.56 input  -57.11 | X-H torsion

> <Gold.Protein.ActiveResidues>
 VAL166  LYS551  ARG553  GLY616  TRP617  ASP618  TYR619  PRO620  LYS621  CYS622 
 ASP623  PHE694  ASN695  SER759  ASP760  ASP761  ALA762  ILE779  LEU786  VAL792 
 PHE793  MET794  SER795  GLU796  ALA797  LYS798  CYS799  TRP800  GLU811  SER814 

> <Gold.Protein.RotatedAtoms>
  151.4181  135.0994  159.9605 H   0  0  0  0  0  0  0  0  0  0  0  0  # atno 6907 bound_to 6896
  152.4998  133.8733  159.7320 H   0  0  0  0  0  0  0  0  0  0  0  0  # atno 6908 bound_to 6896
  150.9243  133.6785  159.2853 H   0  0  0  0  0  0  0  0  0  0  0  0  # atno 6909 bound_to 6896
  146.2323  139.9152  142.8518 H   0  0  0  0  0  0  0  0  0  0  0  0  # atno 7974 bound_to 7965
  154.4982  140.2144  155.9403 H   0  0  0  0  0  0  0  0  0  0  0  0  # atno 8008 bound_to 7997
  156.1398  140.3182  155.8445 H   0  0  0  0  0  0  0  0  0  0  0  0  # atno 8009 bound_to 7997
  155.4141  140.0492  157.3020 H   0  0  0  0  0  0  0  0  0  0  0  0  # atno 8010 bound_to 7997
  140.6205  143.2418  151.5492 H   0  0  0  0  0  0  0  0  0  0  0  0  # atno 10167 bound_to 10162
  156.6554  130.4966  149.6048 H   0  0  0  0  0  0  0  0  0  0  0  0  # atno 10718 bound_to 10713
  154.5016  135.5793  153.6535 H   0  0  0  0  0  0  0  0  0  0  0  0  # atno 10763 bound_to 10752
  152.9880  135.6137  154.2995 H   0  0  0  0  0  0  0  0  0  0  0  0  # atno 10764 bound_to 10752
  154.2903  135.2849  155.2637 H   0  0  0  0  0  0  0  0  0  0  0  0  # atno 10765 bound_to 10752
  140.8763  133.7685  156.0247 H   0  0  0  0  0  0  0  0  0  0  0  0  # atno 11005 bound_to 11000
  145.2191  140.9927  143.4056 LP  0  0  0  0  0  0  0  0  0  0  0  0  # atno 17320 bound_to 7965
  144.9626  139.3964  143.6348 LP  0  0  0  0  0  0  0  0  0  0  0  0  # atno 17321 bound_to 7965
  139.5435  144.2584  152.1396 LP  0  0  0  0  0  0  0  0  0  0  0  0  # atno 17342 bound_to 10162
  140.1803  144.4850  150.6532 LP  0  0  0  0  0  0  0  0  0  0  0  0  # atno 17343 bound_to 10162
  156.2052  130.6645  151.1210 LP  0  0  0  0  0  0  0  0  0  0  0  0  # atno 17370 bound_to 10713
  157.7127  131.0726  150.6441 LP  0  0  0  0  0  0  0  0  0  0  0  0  # atno 17371 bound_to 10713
  140.8514  134.2949  157.5273 LP  0  0  0  0  0  0  0  0  0  0  0  0  # atno 17394 bound_to 11000
  139.8716  134.9470  156.3954 LP  0  0  0  0  0  0  0  0  0  0  0  0  # atno 17395 bound_to 11000

$$$$
