AV-unprocessed.smi:1105|AV-procd|sdf|4776|dock3
  -GOLD-   22720 3313D 1   1.00000     0.00000
 Structure written by MMmdl.
 33 34  0  0  0  0  0  0  0  0  1 V2000
  146.4671  138.6264  151.8095 C   0  0  0  0  0  0  0  0  0  0  0  0
  147.7743  138.6747  152.4463 N   0  0  0  0  0  0  0  0  0  0  0  0
  148.0831  139.4796  153.4713 C   0  0  0  0  0  0  0  0  0  0  0  0
  147.2827  140.2628  153.9822 O   0  0  0  0  0  0  0  0  0  0  0  0
  149.3667  139.3268  153.8393 N   0  0  0  0  0  0  0  0  0  0  0  0
  150.0772  139.9991  154.8700 C   0  0  0  0  0  0  0  0  0  0  0  0
  151.2820  139.5297  155.4454 C   0  0  0  0  0  0  0  0  0  0  0  0
  151.8987  140.2971  156.4523 C   0  0  0  0  0  0  0  0  0  0  0  0
  151.2998  141.5110  156.8464 C   0  0  0  0  0  0  0  0  0  0  0  0
  151.9103  142.2766  157.8498 N   0  0  0  0  0  0  0  0  0  0  0  0
  152.0647  141.5619  159.1111 C   0  0  0  0  0  0  0  0  0  0  0  0
  152.8499  142.4263  160.1124 C   0  0  0  0  0  0  0  0  0  0  0  0
  152.1945  143.6808  160.2770 O   0  0  0  0  0  0  0  0  0  0  0  0
  152.1108  144.4068  159.0537 C   0  0  0  0  0  0  0  0  0  0  0  0
  151.3082  143.5926  158.0240 C   0  0  0  0  0  0  0  0  0  0  0  0
  150.1553  141.9732  156.2898 N   0  0  0  0  0  0  0  0  0  0  0  0
  149.5694  141.2332  155.3254 C   0  0  0  0  0  0  0  0  0  0  0  0
  146.4758  137.8993  150.9977 H   0  0  0  0  0  0  0  0  0  0  0  0
  146.2022  139.5991  151.3932 H   0  0  0  0  0  0  0  0  0  0  0  0
  145.6975  138.3314  152.5241 H   0  0  0  0  0  0  0  0  0  0  0  0
  148.4883  138.0614  152.0815 H   0  0  0  0  0  0  0  0  0  0  0  0
  149.9191  138.7014  153.2710 H   0  0  0  0  0  0  0  0  0  0  0  0
  151.7504  138.6108  155.1293 H   0  0  0  0  0  0  0  0  0  0  0  0
  152.8176  139.9592  156.9088 H   0  0  0  0  0  0  0  0  0  0  0  0
  151.0835  141.3194  159.5221 H   0  0  0  0  0  0  0  0  0  0  0  0
  152.5855  140.6187  158.9404 H   0  0  0  0  0  0  0  0  0  0  0  0
  152.9064  141.9250  161.0787 H   0  0  0  0  0  0  0  0  0  0  0  0
  153.8754  142.5813  159.7727 H   0  0  0  0  0  0  0  0  0  0  0  0
  151.6217  145.3628  159.2404 H   0  0  0  0  0  0  0  0  0  0  0  0
  153.1119  144.6279  158.6802 H   0  0  0  0  0  0  0  0  0  0  0  0
  151.2841  144.1169  157.0680 H   0  0  0  0  0  0  0  0  0  0  0  0
  150.2759  143.4863  158.3606 H   0  0  0  0  0  0  0  0  0  0  0  0
  148.6600  141.6396  154.9075 H   0  0  0  0  0  0  0  0  0  0  0  0
  1  2  1  0  0  0  0
  1 18  1  0  0  0  0
  1 19  1  0  0  0  0
  1 20  1  0  0  0  0
  2  3  1  0  0  0  0
  2 21  1  0  0  0  0
  3  4  2  0  0  0  0
  3  5  1  0  0  0  0
  5  6  1  0  0  0  0
  5 22  1  0  0  0  0
  6 17  1  0  0  0  0
  6  7  2  0  0  0  0
  7  8  1  0  0  0  0
  7 23  1  0  0  0  0
  8  9  2  0  0  0  0
  8 24  1  0  0  0  0
  9 10  1  0  0  0  0
  9 16  1  0  0  0  0
 10 15  1  0  0  0  0
 10 11  1  0  0  0  0
 11 12  1  0  0  0  0
 11 25  1  0  0  0  0
 11 26  1  0  0  0  0
 12 13  1  0  0  0  0
 12 27  1  0  0  0  0
 12 28  1  0  0  0  0
 13 14  1  0  0  0  0
 14 15  1  0  0  0  0
 14 29  1  0  0  0  0
 14 30  1  0  0  0  0
 15 31  1  0  0  0  0
 15 32  1  0  0  0  0
 16 17  2  0  0  0  0
 17 33  1  0  0  0  0
M  END
> <s_m_source_file>
AV-unprocessed.smi

> <i_m_source_file_index>
1105

> <i_lp_mmshare_version>
43012

> <i_f3d_flags>
0

> <s_epik_input>
W0NIM11bTkhdQyg9TylbTkhdYzFbY0hdW2NIXWMobltjSF0xKU4yW0NIMl1bQ0gyXU9bQ0gyXVtDSDJdMg==

> <s_epik_cmdline>
J2VwaWtfcHl0aG9uJywgJy1waCcsICc3LjAnLCAnLXRuJywgJzgnLCAnLW1hJywgJzIwMCcsICctbWV0YWxfYmluZGluZycsICctaW1hZScsICc8aW5maWxlLm1hZT4nLCAnLW9tYWUnLCAnPG91dGZpbGUubWFlPic=

> <r_lp_tautomer_probability>
1

> <r_epik_Ionization_Penalty>
0.00679356

> <r_epik_Ionization_Penalty_Charging>
0

> <r_epik_Ionization_Penalty_Neutral>
0.00679356

> <r_epik_State_Penalty>
0.00501419

> <r_epik_Charging_Adjusted_Penalty>
0.00501419

> <i_epik_Tot_Q>
0

> <i_epik_Tot_abs_Q>
0

> <r_epik_Metal_State_Penalty>
-0

> <b_epik_Metal_Only>
0

> <s_lp_Force_Field>
OPLS_2005

> <r_lp_Energy>
21.2477

> <b_lp_Chiralities_Consistent>
1

> <s_lp_Variant>
AV-unprocessed.smi:1105-1

> <Gold.Version>
5.8.1

> <Gold.Id.Protein>
6NUR|6NUR_protein|mol2

> <Gold.PLP.Fitness>
37.7619

> <Gold.PLP.PLP>
-35.0504

> <Gold.PLP.part.hbond>
-3.0000

> <Gold.PLP.part.metal>
0.0000

> <Gold.PLP.part.buried>
-1.4891

> <Gold.PLP.part.nonpolar>
-31.1700

> <Gold.PLP.part.repulsive>
0.7649

> <Gold.PLP.ligand.clash>
0.0000

> <Gold.PLP.ligand.torsion>
0.1593

> <Gold.PLP.Chemscore.Hbond>
0.9760

> <Gold.PLP.Chemscore.CHOScore>
0.0000

> <Gold.PLP.Chemscore.Metal>
0.0000

> <Gold.Chemscore.Hbonds>
donor molecule, donor type, donor heavy atom, donor atom, acceptor molecule, acceptor atom, score
      L1  H     2    21       P1  7948  0.90

> <Gold.PLP.Chemscore.Internal.Correction>
0.1020

> <Gold.Rescore>
     Score         DG    S(hbond)    S(metal)    S(lipo)     H(rot)  DE(clash)    DE(int)     intcor
     13.56     -15.20       1.00        0.00      76.47       1.00       0.13       1.52       ----

> <Gold.Chemscore.Fitness>
13.5556

> <Gold.Chemscore.DG>
-15.2025

> <Gold.Chemscore.ZeroCoef>
-5.4800

> <Gold.Chemscore.Hbond>
0.9985

> <Gold.Chemscore.Metal>
0.0000

> <Gold.Chemscore.Lipo>
76.4740

> <Gold.Chemscore.Internal_Hbond>
0.0000

> <Gold.Chemscore.DEClash>
0.1305

> <Gold.Chemscore.DEInternal>
1.5164

> <Gold.Chemscore.Rot>
1.0000

> <Gold.Chemscore.Internal.Correction>
   9.000000E+99

> <Gold.Chemscore.Hbonds>
donor molecule, donor type, donor heavy atom, donor atom, acceptor molecule, acceptor atom, score
      L1  H     2    21       P1  7948  0.88

> <Gold.Chemscore.Hbond.Weighted>
-3.3351

> <Gold.Chemscore.Metal.Weighted>
-0.0000

> <Gold.Chemscore.Lipo.Weighted>
-8.9475

> <Gold.Chemscore.Internal_Hbond.Weighted>
0.0000

> <Gold.Chemscore.DEClash.Weighted>
0.1305

> <Gold.Chemscore.DEInternal.Weighted>
1.5164

> <Gold.Chemscore.Rot.Weighted>
2.5600

> <Gold.Chemscore.Internal.Correction.Weighted>
   9.000000E+99

> <Gold.Protein.RotatedTorsions>
[ 6907 6896 6895 6894 ] final   53.71 input  -60.11 | X-H torsion
[ 7974 7965 7964 7962 ] final  -36.93 input  175.53 | X-H torsion
[ 8008 7997 7996 7995 ] final   49.04 input   59.86 | X-H torsion
[ 10167 10162 10161 10158 ] final   -3.42 input  -65.29 | X-H torsion
[ 10718 10713 10712 10709 ] final   33.78 input   66.30 | X-H torsion
[ 10763 10752 10751 10750 ] final   90.99 input  -60.55 | X-H torsion
[ 11005 11000 10999 10996 ] final  -10.21 input  -57.11 | X-H torsion

> <Gold.Protein.ActiveResidues>
 VAL166  LYS551  ARG553  GLY616  TRP617  ASP618  TYR619  PRO620  LYS621  CYS622 
 ASP623  PHE694  ASN695  SER759  ASP760  ASP761  ALA762  ILE779  LEU786  VAL792 
 PHE793  MET794  SER795  GLU796  ALA797  LYS798  CYS799  TRP800  GLU811  SER814 

> <Gold.Protein.RotatedAtoms>
  152.3365  134.7191  160.0275 H   0  0  0  0  0  0  0  0  0  0  0  0  # atno 6907 bound_to 6896
  151.7590  133.3327  159.3420 H   0  0  0  0  0  0  0  0  0  0  0  0  # atno 6908 bound_to 6896
  150.7454  134.6055  159.6103 H   0  0  0  0  0  0  0  0  0  0  0  0  # atno 6909 bound_to 6896
  146.0619  140.6336  142.8993 H   0  0  0  0  0  0  0  0  0  0  0  0  # atno 7974 bound_to 7965
  155.3956  140.3435  155.4254 H   0  0  0  0  0  0  0  0  0  0  0  0  # atno 8008 bound_to 7997
  156.1532  140.1577  156.8767 H   0  0  0  0  0  0  0  0  0  0  0  0  # atno 8009 bound_to 7997
  154.5071  140.0799  156.7898 H   0  0  0  0  0  0  0  0  0  0  0  0  # atno 8010 bound_to 7997
  140.6889  143.6542  150.8323 H   0  0  0  0  0  0  0  0  0  0  0  0  # atno 10167 bound_to 10162
  157.3021  130.7356  149.6673 H   0  0  0  0  0  0  0  0  0  0  0  0  # atno 10718 bound_to 10713
  153.2035  135.4414  155.0295 H   0  0  0  0  0  0  0  0  0  0  0  0  # atno 10763 bound_to 10752
  154.8160  135.3315  154.7177 H   0  0  0  0  0  0  0  0  0  0  0  0  # atno 10764 bound_to 10752
  153.7620  135.6991  153.4979 H   0  0  0  0  0  0  0  0  0  0  0  0  # atno 10765 bound_to 10752
  140.7423  133.8660  155.8978 H   0  0  0  0  0  0  0  0  0  0  0  0  # atno 11005 bound_to 11000
  144.7180  140.4275  143.7030 LP  0  0  0  0  0  0  0  0  0  0  0  0  # atno 17320 bound_to 7965
  145.6545  139.1570  143.2843 LP  0  0  0  0  0  0  0  0  0  0  0  0  # atno 17321 bound_to 7965
  140.0252  143.5501  152.2783 LP  0  0  0  0  0  0  0  0  0  0  0  0  # atno 17342 bound_to 10162
  139.6273  144.7639  151.2610 LP  0  0  0  0  0  0  0  0  0  0  0  0  # atno 17343 bound_to 10162
  155.9672  130.4277  150.4754 LP  0  0  0  0  0  0  0  0  0  0  0  0  # atno 17370 bound_to 10713
  157.2737  131.0592  151.2243 LP  0  0  0  0  0  0  0  0  0  0  0  0  # atno 17371 bound_to 10713
  140.9825  134.1386  157.4481 LP  0  0  0  0  0  0  0  0  0  0  0  0  # atno 17394 bound_to 11000
  139.8803  135.0015  156.6071 LP  0  0  0  0  0  0  0  0  0  0  0  0  # atno 17395 bound_to 11000

$$$$
