#       Name:                AV-unprocessed.smi:3328
#       Creating user name   scv26
#       Creation time:       Fri Mar 27 19:14:18 2020


#       File generated by GOLD software.
#

@<TRIPOS>MOLECULE
AV-unprocessed.smi:3328
    44    45     1
SMALL
NO_CHARGES


@<TRIPOS>ATOM
      1 ****        -2.1054   0.2663   3.7814 C.3            1 S1                 0.0000
      2 ****        -1.8913  -0.6169   2.5864 C.2            1 S1                 0.0000
      3 ****        -0.8663  -1.5848   2.3873 C.2            1 S1                 0.0000
      4 ****        -0.9531  -2.1914   1.2147 N.2            1 S1                 0.0000
      5 ****        -2.0340  -1.6354   0.6271 N.pl3          1 S1                 0.0000
      6 ****        -2.4204  -2.0508  -0.7092 C.3            1 S1                 0.0000
      7 ****        -1.8734  -1.1167  -1.8108 C.3            1 S1                 0.0000
      8 ****        -2.3881  -1.5482  -3.1907 C.3            1 S1                 0.0000
      9 ****        -0.3925  -1.1073  -1.8182 N.4            1 S1                 1.0000
     10 ****         0.2276   0.0596  -1.1565 C.3            1 S1                 0.0000
     11 ****         1.7379  -0.1523  -0.9763 C.3            1 S1                 0.0000
     12 ****         2.3630   0.9733  -0.2873 N.am           1 S1                 0.0000
     13 ****         3.2575   1.8746  -0.9940 C.3            1 S1                 0.0000
     14 ****         3.5843   2.9865   0.0138 C.3            1 S1                 0.0000
     15 ****         3.0964   2.4764   1.3745 C.3            1 S1                 0.0000
     16 ****         2.2615   1.2589   1.0166 C.2            1 S1                 0.0000
     17 ****         1.5948   0.6393   1.8442 O.2            1 S1                 0.0000
     18 ****        -2.6234  -0.6866   1.4351 C.2            1 S1                 0.0000
     19 ****        -1.2477   0.2525   4.4543 H              1 S1                 0.0000
     20 ****        -2.9742  -0.0465   4.3609 H              1 S1                 0.0000
     21 ****        -2.2679   1.3043   3.4910 H              1 S1                 0.0000
     22 ****        -0.0617  -1.8575   3.0544 H              1 S1                 0.0000
     23 ****        -2.0833  -3.0760  -0.8732 H              1 S1                 0.0000
     24 ****        -3.5102  -2.0751  -0.7481 H              1 S1                 0.0000
     25 ****        -2.2373  -0.1032  -1.6321 H              1 S1                 0.0000
     26 ****        -3.4781  -1.5351  -3.2249 H              1 S1                 0.0000
     27 ****        -2.0605  -2.5583  -3.4399 H              1 S1                 0.0000
     28 ****        -2.0280  -0.8781  -3.9722 H              1 S1                 0.0000
     29 ****        -0.0722  -1.9502  -1.3624 H              1 S1                 0.0000
     30 ****         0.0378   0.9511  -1.7553 H              1 S1                 0.0000
     31 ****        -0.2408   0.2255  -0.1870 H              1 S1                 0.0000
     32 ****         1.9231  -1.0647  -0.4066 H              1 S1                 0.0000
     33 ****         2.2134  -0.2935  -1.9480 H              1 S1                 0.0000
     34 ****         4.1589   1.3340  -1.2858 H              1 S1                 0.0000
     35 ****         2.7892   2.2717  -1.8958 H              1 S1                 0.0000
     36 ****         4.6499   3.2182   0.0246 H              1 S1                 0.0000
     37 ****         3.0537   3.9020  -0.2515 H              1 S1                 0.0000
     38 ****         3.9297   2.1723   2.0085 H              1 S1                 0.0000
     39 ****         2.5052   3.2224   1.9064 H              1 S1                 0.0000
     40 ****        -3.5002  -0.1381   1.1235 H              1 S1                 0.0000
     41 ****        -0.0759  -1.1209  -2.7772 H              1 S1                 0.0000
     42 ****        -0.3531  -2.9018   0.8465 LP             1 S1                 0.0000
     43 ****         1.0631  -0.1590   1.5614 LP             1 S1                 0.0000
     44 ****         1.5846   0.9339   2.7997 LP             1 S1                 0.0000
@<TRIPOS>BOND
    1    1    2 1     
    2    1   19 1     
    3    1   20 1     
    4    1   21 1     
    5    2   18 2     
    6    2    3 1     
    7    3    4 2     
    8    3   22 1     
    9    4    5 1     
   10    5    6 1     
   11    5   18 1     
   12    6    7 1     
   13    6   23 1     
   14    6   24 1     
   15    7    8 1     
   16    7    9 1     
   17    7   25 1     
   18    8   26 1     
   19    8   27 1     
   20    8   28 1     
   21    9   10 1     
   22    9   29 1     
   23    9   41 1     
   24   10   11 1     
   25   10   30 1     
   26   10   31 1     
   27   11   12 1     
   28   11   32 1     
   29   11   33 1     
   30   12   16 am    
   31   12   13 1     
   32   13   14 1     
   33   13   34 1     
   34   13   35 1     
   35   14   15 1     
   36   14   36 1     
   37   14   37 1     
   38   15   16 1     
   39   15   38 1     
   40   15   39 1     
   41   16   17 2     
   42   18   40 1     
   43    4   42 1     
   44   17   43 1     
   45   17   44 1     
@<TRIPOS>SUBSTRUCTURE
      1 S1             1
@<TRIPOS>SET
LONE_PAIRS      STATIC     ATOMS    <user>   **** ""
3 42 43 44
DONOR_HYDROGENS      STATIC     ATOMS    <user>   **** ""
2 29 41
ATOM$BLUE        STATIC     ATOMS    COLORGROUP SYSTEM
3 42 43 44
ATOM$RED        STATIC     ATOMS    COLORGROUP SYSTEM
2 29 41
