AV-unprocessed.smi:72|AV-procd|sdf|664|dock1
  -GOLD-   2262016563D 1   1.00000     0.00000
 Structure written by MMmdl.
 29 30  0  0  0  0  0  0  0  0  1 V2000
  147.0021  139.8397  152.0049 N   0  0  0  0  0  0  0  0  0  0  0  0
  146.4963  138.6700  151.8387 C   0  0  0  0  0  0  0  0  0  0  0  0
  146.7688  137.8153  150.7599 N   0  0  0  0  0  0  0  0  0  0  0  0
  146.1849  136.6574  150.7196 C   0  0  0  0  0  0  0  0  0  0  0  0
  145.2572  136.2202  151.7535 N   0  0  0  0  0  0  0  0  0  0  0  0
  144.5758  134.8652  151.7087 C   0  0  1  0  0  0  0  0  0  0  0  0
  144.0582  134.6389  150.4269 O   0  0  0  0  0  0  0  0  0  0  0  0
  144.7603  133.5665  149.8092 C   0  0  2  0  0  0  0  0  0  0  0  0
  143.9164  132.9358  148.6870 C   0  0  0  0  0  0  0  0  0  0  0  0
  143.4923  133.8923  147.7378 O   0  0  0  0  0  0  0  0  0  0  0  0
  145.1549  132.6664  150.9805 C   0  0  1  0  0  0  0  0  0  0  0  0
  146.2003  131.7660  150.6641 O   0  0  0  0  0  0  0  0  0  0  0  0
  145.5272  133.6893  152.0503 C   0  0  1  0  0  0  0  0  0  0  0  0
  146.9025  134.0406  152.0039 O   0  0  0  0  0  0  0  0  0  0  0  0
  144.9796  137.0675  152.8531 C   0  0  0  0  0  0  0  0  0  0  0  0
  144.2209  136.7371  153.7642 O   0  0  0  0  0  0  0  0  0  0  0  0
  145.6089  138.2625  152.8438 N   0  0  0  0  0  0  0  0  0  0  0  0
  143.7260  134.9378  152.3895 H   0  0  0  0  0  0  0  0  0  0  0  0
  145.6632  133.9892  149.3651 H   0  0  0  0  0  0  0  0  0  0  0  0
  144.2933  132.0973  151.3307 H   0  0  0  0  0  0  0  0  0  0  0  0
  145.3038  133.3181  153.0510 H   0  0  0  0  0  0  0  0  0  0  0  0
  147.6289  140.0664  151.2469 H   0  0  0  0  0  0  0  0  0  0  0  0
  146.3563  135.9456  149.9125 H   0  0  0  0  0  0  0  0  0  0  0  0
  144.4757  132.1452  148.1862 H   0  0  0  0  0  0  0  0  0  0  0  0
  143.0259  132.4739  149.1139 H   0  0  0  0  0  0  0  0  0  0  0  0
  144.2543  134.3325  147.3931 H   0  0  0  0  0  0  0  0  0  0  0  0
  146.0846  131.4743  149.7729 H   0  0  0  0  0  0  0  0  0  0  0  0
  147.3210  133.5237  151.3329 H   0  0  0  0  0  0  0  0  0  0  0  0
  145.4276  138.8893  153.6138 H   0  0  0  0  0  0  0  0  0  0  0  0
  1  2  2  0  0  0  0
  1 22  1  0  0  0  0
  2 17  1  0  0  0  0
  2  3  1  0  0  0  0
  3  4  2  0  0  0  0
  4  5  1  0  0  0  0
  4 23  1  0  0  0  0
  5  6  1  0  0  0  0
  5 15  1  0  0  0  0
  6 18  1  0  0  0  0
  6 13  1  0  0  0  0
  6  7  1  0  0  0  0
  7  8  1  0  0  0  0
  8 19  1  0  0  0  0
  8  9  1  0  0  0  0
  8 11  1  0  0  0  0
  9 10  1  0  0  0  0
  9 24  1  0  0  0  0
  9 25  1  0  0  0  0
 10 26  1  0  0  0  0
 11 20  1  0  0  0  0
 11 12  1  0  0  0  0
 11 13  1  0  0  0  0
 12 27  1  0  0  0  0
 13 21  1  0  0  0  0
 13 14  1  0  0  0  0
 14 28  1  0  0  0  0
 15 16  2  0  0  0  0
 15 17  1  0  0  0  0
 17 29  1  0  0  0  0
M  END
> <s_m_source_file>
AV-unprocessed.smi

> <i_m_source_file_index>
72

> <i_lp_mmshare_version>
43012

> <i_f3d_flags>
0

> <s_epik_input>
W05IMl1jMW5bY0hdbihjKD1PKW4xKVtDQEBIXTJPW0NASF0oW0NIMl1bT0hdKVtDQEBIXShbT0hdKVtDQEhdMltPSF0=

> <s_epik_cmdline>
J2VwaWtfcHl0aG9uJywgJy1waCcsICc3LjAnLCAnLXRuJywgJzgnLCAnLW1hJywgJzIwMCcsICctbWV0YWxfYmluZGluZycsICctaW1hZScsICc8aW5maWxlLm1hZT4nLCAnLW9tYWUnLCAnPG91dGZpbGUubWFlPic=

> <r_lp_tautomer_probability>
7.17554e-07

> <r_epik_Ionization_Penalty>
0.0066451

> <r_epik_Ionization_Penalty_Charging>
0.00663793

> <r_epik_Ionization_Penalty_Neutral>
7.17052e-06

> <r_epik_State_Penalty>
0.419231

> <r_epik_Charging_Adjusted_Penalty>
0.425868

> <i_epik_Tot_Q>
0

> <i_epik_Tot_abs_Q>
0

> <r_epik_Metal_State_Penalty>
1.44144

> <b_epik_Metal_Only>
0

> <s_epik_Chemistry_Notes>
This compound contains an acetal/aminal-like group ( X-CH(R)-Y where X, Y are N, S, or O) that may be acid/base labile, releasing an aldehyde.

> <s_lp_Force_Field>
OPLS_2005

> <r_lp_Energy>
49.4302

> <b_lp_Chiralities_Consistent>
1

> <s_lp_Variant>
AV-unprocessed.smi:72-2

> <Gold.Version>
5.8.1

> <Gold.Id.Protein>
6NUR|6NUR_protein|mol2

> <Gold.PLP.Fitness>
42.1713

> <Gold.PLP.PLP>
-28.8773

> <Gold.PLP.part.hbond>
-8.7594

> <Gold.PLP.part.metal>
0.0000

> <Gold.PLP.part.buried>
-1.8691

> <Gold.PLP.part.nonpolar>
-20.7841

> <Gold.PLP.part.repulsive>
2.3316

> <Gold.PLP.ligand.clash>
0.0000

> <Gold.PLP.ligand.torsion>
0.3493

> <Gold.PLP.Chemscore.Hbond>
3.6480

> <Gold.PLP.Chemscore.CHOScore>
1.0000

> <Gold.PLP.Chemscore.Metal>
0.0000

> <Gold.Chemscore.Hbonds>
donor molecule, donor type, donor heavy atom, donor atom, acceptor molecule, acceptor atom, score
      L1  H     1    22       P1  7957  0.66
      L1  H    10    26       P1  7921  0.99
      P1  H  7954  7966       L1     3  1.00
      P1  H 10192 10197       L1    10  1.00
      L1  C     4    23       P1  7921  1.00

> <Gold.PLP.Chemscore.Internal.Correction>
0.0486

> <Gold.Rescore>
     Score         DG    S(hbond)    S(metal)    S(lipo)     H(rot)  DE(clash)    DE(int)     intcor
      7.05     -11.26       3.69        0.00      32.76       4.06       2.97       1.24       ----

> <Gold.Chemscore.Fitness>
7.0472

> <Gold.Chemscore.DG>
-11.2593

> <Gold.Chemscore.ZeroCoef>
-5.4800

> <Gold.Chemscore.Hbond>
3.6947

> <Gold.Chemscore.Metal>
0.0000

> <Gold.Chemscore.Lipo>
32.7580

> <Gold.Chemscore.Internal_Hbond>
0.0000

> <Gold.Chemscore.DEClash>
2.9703

> <Gold.Chemscore.DEInternal>
1.2418

> <Gold.Chemscore.Rot>
4.0600

> <Gold.Chemscore.Internal.Correction>
   9.000000E+99

> <Gold.Chemscore.Hbonds>
donor molecule, donor type, donor heavy atom, donor atom, acceptor molecule, acceptor atom, score
      L1  H     1    22       P1  7957  0.63
      L1  H    10    26       P1  7921  0.93
      P1  H  7954  7966       L1     3  0.84
      P1  H 10192 10197       L1    10  0.28

> <Gold.Chemscore.Hbond.Weighted>
-12.3402

> <Gold.Chemscore.Metal.Weighted>
-0.0000

> <Gold.Chemscore.Lipo.Weighted>
-3.8327

> <Gold.Chemscore.Internal_Hbond.Weighted>
0.0000

> <Gold.Chemscore.DEClash.Weighted>
2.9703

> <Gold.Chemscore.DEInternal.Weighted>
1.2418

> <Gold.Chemscore.Rot.Weighted>
10.3936

> <Gold.Chemscore.Internal.Correction.Weighted>
   9.000000E+99

> <Gold.Protein.RotatedTorsions>
[ 6907 6896 6895 6894 ] final   20.39 input  -60.11 | X-H torsion
[ 7974 7965 7964 7962 ] final  157.02 input  175.53 | X-H torsion
[ 8008 7997 7996 7995 ] final  149.98 input   59.86 | X-H torsion
[ 10167 10162 10161 10158 ] final -136.28 input  -65.29 | X-H torsion
[ 10718 10713 10712 10709 ] final -111.97 input   66.30 | X-H torsion
[ 10763 10752 10751 10750 ] final  -29.50 input  -60.55 | X-H torsion
[ 11005 11000 10999 10996 ] final  131.64 input  -57.11 | X-H torsion

> <Gold.Protein.ActiveResidues>
 VAL166  LYS551  ARG553  GLY616  TRP617  ASP618  TYR619  PRO620  LYS621  CYS622 
 ASP623  PHE694  ASN695  SER759  ASP760  ASP761  ALA762  ILE779  LEU786  VAL792 
 PHE793  MET794  SER795  GLU796  ALA797  LYS798  CYS799  TRP800  GLU811  SER814 

> <Gold.Protein.RotatedAtoms>
  151.8956  135.0399  160.0501 H   0  0  0  0  0  0  0  0  0  0  0  0  # atno 6907 bound_to 6896
  152.2400  133.5123  159.5273 H   0  0  0  0  0  0  0  0  0  0  0  0  # atno 6908 bound_to 6896
  150.7051  134.1018  159.4011 H   0  0  0  0  0  0  0  0  0  0  0  0  # atno 6909 bound_to 6896
  144.7928  139.7283  143.6214 H   0  0  0  0  0  0  0  0  0  0  0  0  # atno 7974 bound_to 7965
  156.2734  140.2087  156.5945 H   0  0  0  0  0  0  0  0  0  0  0  0  # atno 8008 bound_to 7997
  154.6956  140.0526  157.0431 H   0  0  0  0  0  0  0  0  0  0  0  0  # atno 8009 bound_to 7997
  155.0806  140.3186  155.4606 H   0  0  0  0  0  0  0  0  0  0  0  0  # atno 8010 bound_to 7997
  139.8694  143.6977  152.2641 H   0  0  0  0  0  0  0  0  0  0  0  0  # atno 10167 bound_to 10162
  156.0678  130.5895  150.8446 H   0  0  0  0  0  0  0  0  0  0  0  0  # atno 10718 bound_to 10713
  153.7657  135.6916  153.4916 H   0  0  0  0  0  0  0  0  0  0  0  0  # atno 10763 bound_to 10752
  153.1908  135.4472  155.0145 H   0  0  0  0  0  0  0  0  0  0  0  0  # atno 10764 bound_to 10752
  154.8136  135.3389  154.7170 H   0  0  0  0  0  0  0  0  0  0  0  0  # atno 10765 bound_to 10752
  139.9742  134.9568  156.9468 H   0  0  0  0  0  0  0  0  0  0  0  0  # atno 11005 bound_to 11000
  146.2186  139.5594  142.9633 LP  0  0  0  0  0  0  0  0  0  0  0  0  # atno 17320 bound_to 7965
  145.5750  141.0389  143.2153 LP  0  0  0  0  0  0  0  0  0  0  0  0  # atno 17321 bound_to 7965
  139.7298  144.7585  151.0820 LP  0  0  0  0  0  0  0  0  0  0  0  0  # atno 17342 bound_to 10162
  140.7763  143.5102  150.9662 LP  0  0  0  0  0  0  0  0  0  0  0  0  # atno 17343 bound_to 10162
  157.5731  131.0946  150.9387 LP  0  0  0  0  0  0  0  0  0  0  0  0  # atno 17370 bound_to 10713
  156.9599  130.5451  149.5285 LP  0  0  0  0  0  0  0  0  0  0  0  0  # atno 17371 bound_to 10713
  140.5229  134.0890  155.7296 LP  0  0  0  0  0  0  0  0  0  0  0  0  # atno 17394 bound_to 11000
  141.1420  133.9121  157.2303 LP  0  0  0  0  0  0  0  0  0  0  0  0  # atno 17395 bound_to 11000

$$$$
