AV-unprocessed.smi:3030|AV-procd|sdf|11536|dock2
  -GOLD-   2272016483D 1   1.00000     0.00000
 Structure written by MMmdl.
 52 53  0  0  0  0  0  0  0  0  1 V2000
  145.5114  130.9768  151.2681 C   0  0  0  0  0  0  0  0  0  0  0  0
  144.7521  132.0669  150.5033 C   0  0  0  0  0  0  0  0  0  0  0  0
  144.5223  133.2446  151.3275 N   0  0  0  0  0  0  0  0  0  0  0  0
  143.2353  133.6988  151.5961 C   0  0  0  0  0  0  0  0  0  0  0  0
  142.9603  134.8146  152.2986 C   0  0  0  0  0  0  0  0  0  0  0  0
  144.0728  135.6305  152.8258 C   0  0  0  0  0  0  0  0  0  0  0  0
  143.8573  136.6551  153.4732 O   0  0  0  0  0  0  0  0  0  0  0  0
  145.4490  135.1489  152.5338 C   0  0  0  0  0  0  0  0  0  0  0  0
  146.5000  135.9264  153.0483 N   0  0  0  0  0  0  0  0  0  0  0  0
  146.5900  136.5693  154.2269 C   0  0  0  0  0  0  0  0  0  0  0  0
  145.7406  136.5703  155.1175 O   0  0  0  0  0  0  0  0  0  0  0  0
  147.7548  137.2258  154.3217 N   0  0  0  0  0  0  0  0  0  0  0  0
  148.1856  138.0399  155.4598 C   0  0  1  0  0  0  0  0  0  0  0  0
  149.3288  137.3445  156.2294 C   0  0  0  0  0  0  0  0  0  0  0  0
  150.6466  137.3209  155.4350 C   0  0  2  0  0  0  0  0  0  0  0  0
  151.7675  136.6329  156.2271 C   0  0  0  0  0  0  0  0  0  0  0  0
  151.0361  138.7512  155.0308 C   0  0  0  0  0  0  0  0  0  0  0  0
  149.9171  139.4428  154.2365 C   0  0  0  0  0  0  0  0  0  0  0  0
  148.5737  139.4772  155.0087 C   0  0  1  0  0  0  0  0  0  0  0  0
  147.4473  140.2111  154.2165 C   0  0  0  0  0  0  0  0  0  0  0  0
  147.8339  141.6530  153.8348 C   0  0  0  0  0  0  0  0  0  0  0  0
  146.1082  140.2437  154.9788 C   0  0  0  0  0  0  0  0  0  0  0  0
  145.5836  134.0045  151.8153 C   0  0  0  0  0  0  0  0  0  0  0  0
  145.6768  130.1041  150.6363 H   0  0  0  0  0  0  0  0  0  0  0  0
  144.9547  130.6511  152.1475 H   0  0  0  0  0  0  0  0  0  0  0  0
  146.4858  131.3359  151.6006 H   0  0  0  0  0  0  0  0  0  0  0  0
  145.3123  132.3512  149.6118 H   0  0  0  0  0  0  0  0  0  0  0  0
  143.7963  131.6766  150.1518 H   0  0  0  0  0  0  0  0  0  0  0  0
  142.4499  133.0732  151.1972 H   0  0  0  0  0  0  0  0  0  0  0  0
  141.9435  135.1267  152.4860 H   0  0  0  0  0  0  0  0  0  0  0  0
  147.3003  136.0008  152.4369 H   0  0  0  0  0  0  0  0  0  0  0  0
  148.3943  137.1677  153.5428 H   0  0  0  0  0  0  0  0  0  0  0  0
  147.3523  138.1209  156.1588 H   0  0  0  0  0  0  0  0  0  0  0  0
  149.4879  137.8678  157.1731 H   0  0  0  0  0  0  0  0  0  0  0  0
  149.0353  136.3286  156.4976 H   0  0  0  0  0  0  0  0  0  0  0  0
  150.4895  136.7419  154.5238 H   0  0  0  0  0  0  0  0  0  0  0  0
  151.9804  137.1624  157.1563 H   0  0  0  0  0  0  0  0  0  0  0  0
  152.6901  136.5932  155.6473 H   0  0  0  0  0  0  0  0  0  0  0  0
  151.4952  135.6083  156.4827 H   0  0  0  0  0  0  0  0  0  0  0  0
  151.2641  139.3382  155.9217 H   0  0  0  0  0  0  0  0  0  0  0  0
  151.9478  138.7334  154.4326 H   0  0  0  0  0  0  0  0  0  0  0  0
  150.2551  140.4519  154.0062 H   0  0  0  0  0  0  0  0  0  0  0  0
  149.7831  138.9380  153.2790 H   0  0  0  0  0  0  0  0  0  0  0  0
  148.7477  140.0532  155.9191 H   0  0  0  0  0  0  0  0  0  0  0  0
  147.2734  139.6733  153.2838 H   0  0  0  0  0  0  0  0  0  0  0  0
  148.1216  142.2329  154.7123 H   0  0  0  0  0  0  0  0  0  0  0  0
  147.0010  142.1699  153.3574 H   0  0  0  0  0  0  0  0  0  0  0  0
  148.6591  141.6812  153.1244 H   0  0  0  0  0  0  0  0  0  0  0  0
  146.2228  140.7022  155.9615 H   0  0  0  0  0  0  0  0  0  0  0  0
  145.6922  139.2462  155.1179 H   0  0  0  0  0  0  0  0  0  0  0  0
  145.3579  140.8163  154.4327 H   0  0  0  0  0  0  0  0  0  0  0  0
  146.5403  133.5720  151.5709 H   0  0  0  0  0  0  0  0  0  0  0  0
  1  2  1  0  0  0  0
  1 24  1  0  0  0  0
  1 25  1  0  0  0  0
  1 26  1  0  0  0  0
  2  3  1  0  0  0  0
  2 27  1  0  0  0  0
  2 28  1  0  0  0  0
  3 23  1  0  0  0  0
  3  4  1  0  0  0  0
  4  5  2  0  0  0  0
  4 29  1  0  0  0  0
  5  6  1  0  0  0  0
  5 30  1  0  0  0  0
  6  7  2  0  0  0  0
  6  8  1  0  0  0  0
  8  9  1  0  0  0  0
  8 23  2  0  0  0  0
  9 10  1  0  0  0  0
  9 31  1  0  0  0  0
 10 11  2  0  0  0  0
 10 12  1  0  0  0  0
 12 13  1  0  0  0  0
 12 32  1  0  0  0  0
 13 19  1  0  0  0  0
 13 14  1  0  0  0  0
 13 33  1  0  0  0  0
 14 15  1  0  0  0  0
 14 34  1  0  0  0  0
 14 35  1  0  0  0  0
 15 16  1  0  0  0  0
 15 17  1  0  0  0  0
 15 36  1  0  0  0  0
 16 37  1  0  0  0  0
 16 38  1  0  0  0  0
 16 39  1  0  0  0  0
 17 18  1  0  0  0  0
 17 40  1  0  0  0  0
 17 41  1  0  0  0  0
 18 19  1  0  0  0  0
 18 42  1  0  0  0  0
 18 43  1  0  0  0  0
 19 20  1  0  0  0  0
 19 44  1  0  0  0  0
 20 21  1  0  0  0  0
 20 22  1  0  0  0  0
 20 45  1  0  0  0  0
 21 46  1  0  0  0  0
 21 47  1  0  0  0  0
 21 48  1  0  0  0  0
 22 49  1  0  0  0  0
 22 50  1  0  0  0  0
 22 51  1  0  0  0  0
 23 52  1  0  0  0  0
M  END
> <s_m_source_file>
AV-unprocessed.smi

> <i_m_source_file_index>
3030

> <i_lp_mmshare_version>
43012

> <i_f3d_flags>
0

> <s_epik_input>
W0NIM11bQ0gyXW4xW2NIXVtjSF1jKD1PKWMoW2NIXTEpW05IXUMoPU8pW05IXVtDQEBIXTJbQ0gyXVtDQEBIXShbQ0gzXSlbQ0gyXVtDSDJdW0NASF0yW0NIXShbQ0gzXSlbQ0gzXQ==

> <s_epik_cmdline>
J2VwaWtfcHl0aG9uJywgJy1waCcsICc3LjAnLCAnLXRuJywgJzgnLCAnLW1hJywgJzIwMCcsICctbWV0YWxfYmluZGluZycsICctaW1hZScsICc8aW5maWxlLm1hZT4nLCAnLW9tYWUnLCAnPG91dGZpbGUubWFlPic=

> <r_lp_tautomer_probability>
1

> <r_epik_Ionization_Penalty>
0.00147933

> <r_epik_Ionization_Penalty_Charging>
0.00145753

> <r_epik_Ionization_Penalty_Neutral>
2.17987e-05

> <r_epik_State_Penalty>
0.00097457

> <r_epik_Charging_Adjusted_Penalty>
0.0024321

> <i_epik_Tot_Q>
0

> <i_epik_Tot_abs_Q>
0

> <r_epik_Metal_State_Penalty>
-0

> <b_epik_Metal_Only>
0

> <s_lp_Force_Field>
OPLS_2005

> <r_lp_Energy>
8.95674

> <b_lp_Chiralities_Consistent>
1

> <s_lp_Variant>
AV-unprocessed.smi:3030-4

> <Gold.Version>
5.8.1

> <Gold.Id.Protein>
6NUR|6NUR_protein|mol2

> <Gold.PLP.Fitness>
37.2091

> <Gold.PLP.PLP>
-30.1211

> <Gold.PLP.part.hbond>
-2.0000

> <Gold.PLP.part.metal>
0.0000

> <Gold.PLP.part.buried>
-3.0428

> <Gold.PLP.part.nonpolar>
-25.6003

> <Gold.PLP.part.repulsive>
0.1174

> <Gold.PLP.ligand.clash>
0.0000

> <Gold.PLP.ligand.torsion>
0.3760

> <Gold.PLP.Chemscore.Hbond>
1.9920

> <Gold.PLP.Chemscore.CHOScore>
0.5998

> <Gold.PLP.Chemscore.Metal>
0.0000

> <Gold.Chemscore.Hbonds>
donor molecule, donor type, donor heavy atom, donor atom, acceptor molecule, acceptor atom, score
      L1  H     9    31       P1  7948  1.00
      L1  H    12    32       P1  7948  0.98
      L1  C     4    29       P1 10186  0.56

> <Gold.PLP.Chemscore.Internal.Correction>
0.0645

> <Gold.Rescore>
     Score         DG    S(hbond)    S(metal)    S(lipo)     H(rot)  DE(clash)    DE(int)     intcor
     13.98     -18.46       1.89        0.00      84.65       1.27       0.26       4.22       ----

> <Gold.Chemscore.Fitness>
13.9817

> <Gold.Chemscore.DG>
-18.4612

> <Gold.Chemscore.ZeroCoef>
-5.4800

> <Gold.Chemscore.Hbond>
1.8935

> <Gold.Chemscore.Metal>
0.0000

> <Gold.Chemscore.Lipo>
84.6524

> <Gold.Chemscore.Internal_Hbond>
0.0000

> <Gold.Chemscore.DEClash>
0.2559

> <Gold.Chemscore.DEInternal>
4.2236

> <Gold.Chemscore.Rot>
1.2685

> <Gold.Chemscore.Internal.Correction>
   9.000000E+99

> <Gold.Chemscore.Hbonds>
donor molecule, donor type, donor heavy atom, donor atom, acceptor molecule, acceptor atom, score
      L1  H     9    31       P1  7948  1.00
      L1  H    12    32       P1  7948  0.90

> <Gold.Chemscore.Hbond.Weighted>
-6.3243

> <Gold.Chemscore.Metal.Weighted>
-0.0000

> <Gold.Chemscore.Lipo.Weighted>
-9.9043

> <Gold.Chemscore.Internal_Hbond.Weighted>
0.0000

> <Gold.Chemscore.DEClash.Weighted>
0.2559

> <Gold.Chemscore.DEInternal.Weighted>
4.2236

> <Gold.Chemscore.Rot.Weighted>
3.2474

> <Gold.Chemscore.Internal.Correction.Weighted>
   9.000000E+99

> <Gold.Protein.RotatedTorsions>
[ 6907 6896 6895 6894 ] final  -23.76 input  -60.11 | X-H torsion
[ 7974 7965 7964 7962 ] final   71.21 input  175.53 | X-H torsion
[ 8008 7997 7996 7995 ] final -117.57 input   59.86 | X-H torsion
[ 10167 10162 10161 10158 ] final  114.49 input  -65.29 | X-H torsion
[ 10718 10713 10712 10709 ] final -120.09 input   66.30 | X-H torsion
[ 10763 10752 10751 10750 ] final  -20.98 input  -60.55 | X-H torsion
[ 11005 11000 10999 10996 ] final  -48.61 input  -57.11 | X-H torsion

> <Gold.Protein.ActiveResidues>
 VAL166  LYS551  ARG553  GLY616  TRP617  ASP618  TYR619  PRO620  LYS621  CYS622 
 ASP623  PHE694  ASN695  SER759  ASP760  ASP761  ALA762  ILE779  LEU786  VAL792 
 PHE793  MET794  SER795  GLU796  ALA797  LYS798  CYS799  TRP800  GLU811  SER814 

> <Gold.Protein.RotatedAtoms>
  151.1993  135.0436  159.8865 H   0  0  0  0  0  0  0  0  0  0  0  0  # atno 6907 bound_to 6896
  152.5434  134.0868  159.8269 H   0  0  0  0  0  0  0  0  0  0  0  0  # atno 6908 bound_to 6896
  151.1006  133.5199  159.2642 H   0  0  0  0  0  0  0  0  0  0  0  0  # atno 6909 bound_to 6896
  145.7686  139.2833  143.1334 H   0  0  0  0  0  0  0  0  0  0  0  0  # atno 7974 bound_to 7965
  155.0858  140.0394  157.2653 H   0  0  0  0  0  0  0  0  0  0  0  0  # atno 8008 bound_to 7997
  154.6870  140.2645  155.6825 H   0  0  0  0  0  0  0  0  0  0  0  0  # atno 8009 bound_to 7997
  156.2715  140.2767  156.1435 H   0  0  0  0  0  0  0  0  0  0  0  0  # atno 8010 bound_to 7997
  139.6385  144.7122  151.2286 H   0  0  0  0  0  0  0  0  0  0  0  0  # atno 10167 bound_to 10162
  156.1231  130.6338  150.9498 H   0  0  0  0  0  0  0  0  0  0  0  0  # atno 10718 bound_to 10713
  153.6289  135.6990  153.5283 H   0  0  0  0  0  0  0  0  0  0  0  0  # atno 10763 bound_to 10752
  153.2876  135.4167  155.1136 H   0  0  0  0  0  0  0  0  0  0  0  0  # atno 10764 bound_to 10752
  154.8526  135.3617  154.5831 H   0  0  0  0  0  0  0  0  0  0  0  0  # atno 10765 bound_to 10752
  141.0711  133.6679  156.3466 H   0  0  0  0  0  0  0  0  0  0  0  0  # atno 11005 bound_to 11000
  146.0193  140.8363  142.9931 LP  0  0  0  0  0  0  0  0  0  0  0  0  # atno 17320 bound_to 7965
  144.6817  140.2605  143.7319 LP  0  0  0  0  0  0  0  0  0  0  0  0  # atno 17321 bound_to 7965
  140.7478  143.6354  150.8384 LP  0  0  0  0  0  0  0  0  0  0  0  0  # atno 17342 bound_to 10162
  139.9988  143.5766  152.2883 LP  0  0  0  0  0  0  0  0  0  0  0  0  # atno 17343 bound_to 10162
  157.6414  131.0910  150.8243 LP  0  0  0  0  0  0  0  0  0  0  0  0  # atno 17370 bound_to 10713
  156.8337  130.5024  149.5328 LP  0  0  0  0  0  0  0  0  0  0  0  0  # atno 17371 bound_to 10713
  140.5672  134.5876  157.5448 LP  0  0  0  0  0  0  0  0  0  0  0  0  # atno 17394 bound_to 11000
  139.9524  134.7594  156.0418 LP  0  0  0  0  0  0  0  0  0  0  0  0  # atno 17395 bound_to 11000

$$$$
