AV-unprocessed.smi:2072|AV-procd|sdf|8443|dock3
  -GOLD-   2272011143D 1   1.00000     0.00000
 Structure written by MMmdl.
 40 42  0  0  0  0  0  0  0  0  2 V2000
  145.4430  137.8631  154.3654 O   0  0  0  0  0  0  0  0  0  0  0  0
  146.3811  137.2974  153.8053 C   0  0  0  0  0  0  0  0  0  0  0  0
  147.5816  137.8416  153.5418 N   0  0  0  0  0  0  0  0  0  0  0  0
  148.0695  139.1393  153.8591 C   0  0  0  0  0  0  0  0  0  0  0  0
  147.2906  140.3227  153.8410 C   0  0  0  0  0  0  0  0  0  0  0  0
  147.8991  141.5429  154.1927 C   0  0  0  0  0  0  0  0  0  0  0  0
  149.2598  141.5374  154.5548 C   0  0  0  0  0  0  0  0  0  0  0  0
  150.0122  140.4176  154.5854 N   0  0  0  0  0  0  0  0  0  0  0  0
  149.4222  139.2517  154.2465 C   0  0  0  0  0  0  0  0  0  0  0  0
  146.3182  136.0307  153.3709 N   0  0  0  0  0  0  0  0  0  0  0  0
  145.1499  135.1641  153.5053 C   0  0  1  0  0  0  0  0  0  0  0  0
  143.8626  135.7983  152.9943 C   0  0  0  0  0  0  0  0  0  0  0  0
  142.9376  134.5920  152.8018 C   0  0  0  0  0  0  0  0  0  0  0  0
  143.8092  133.4183  152.5465 N   0  3  1  0  0  0  0  0  0  0  0  0
  143.5009  132.6999  151.2812 C   0  0  0  0  0  0  0  0  0  0  0  0
  144.6572  131.7724  150.8798 C   0  0  0  0  0  0  0  0  0  0  0  0
  145.9507  132.5662  150.6166 C   0  0  0  0  0  0  0  0  0  0  0  0
  145.9738  133.9179  151.3560 C   0  0  0  0  0  0  0  0  0  0  0  0
  145.2279  133.8456  152.7113 C   0  0  1  0  0  0  0  0  0  0  0  0
  148.2237  137.2609  153.0224 H   0  0  0  0  0  0  0  0  0  0  0  0
  146.2447  140.3260  153.5790 H   0  0  0  0  0  0  0  0  0  0  0  0
  147.3334  142.4627  154.1885 H   0  0  0  0  0  0  0  0  0  0  0  0
  149.7554  142.4563  154.8312 H   0  0  0  0  0  0  0  0  0  0  0  0
  150.0548  138.3767  154.2856 H   0  0  0  0  0  0  0  0  0  0  0  0
  147.1305  135.6405  152.9155 H   0  0  0  0  0  0  0  0  0  0  0  0
  145.0059  134.9286  154.5621 H   0  0  0  0  0  0  0  0  0  0  0  0
  143.4516  136.5390  153.6807 H   0  0  0  0  0  0  0  0  0  0  0  0
  144.0355  136.2878  152.0346 H   0  0  0  0  0  0  0  0  0  0  0  0
  142.3785  134.3999  153.7183 H   0  0  0  0  0  0  0  0  0  0  0  0
  142.2095  134.7682  152.0088 H   0  0  0  0  0  0  0  0  0  0  0  0
  142.5794  132.1317  151.4114 H   0  0  0  0  0  0  0  0  0  0  0  0
  143.3205  133.4145  150.4762 H   0  0  0  0  0  0  0  0  0  0  0  0
  144.8281  131.0522  151.6814 H   0  0  0  0  0  0  0  0  0  0  0  0
  144.3924  131.1887  149.9978 H   0  0  0  0  0  0  0  0  0  0  0  0
  146.8058  131.9599  150.9178 H   0  0  0  0  0  0  0  0  0  0  0  0
  146.0690  132.7461  149.5474 H   0  0  0  0  0  0  0  0  0  0  0  0
  147.0101  134.2284  151.4908 H   0  0  0  0  0  0  0  0  0  0  0  0
  145.5088  134.6799  150.7290 H   0  0  0  0  0  0  0  0  0  0  0  0
  145.7345  133.0979  153.3236 H   0  0  0  0  0  0  0  0  0  0  0  0
  143.6316  132.7667  153.2977 H   0  0  0  0  0  0  0  0  0  0  0  0
  1  2  2  0  0  0  0
  2  3  1  0  0  0  0
  2 10  1  0  0  0  0
  3  4  1  0  0  0  0
  3 20  1  0  0  0  0
  4  9  1  0  0  0  0
  4  5  2  0  0  0  0
  5  6  1  0  0  0  0
  5 21  1  0  0  0  0
  6  7  2  0  0  0  0
  6 22  1  0  0  0  0
  7  8  1  0  0  0  0
  7 23  1  0  0  0  0
  8  9  2  0  0  0  0
  9 24  1  0  0  0  0
 10 11  1  0  0  0  0
 10 25  1  0  0  0  0
 11 19  1  0  0  0  0
 11 12  1  0  0  0  0
 11 26  1  0  0  0  0
 12 13  1  0  0  0  0
 12 27  1  0  0  0  0
 12 28  1  0  0  0  0
 13 14  1  0  0  0  0
 13 29  1  0  0  0  0
 13 30  1  0  0  0  0
 14 19  1  0  0  0  0
 14 15  1  0  0  0  0
 14 40  1  0  0  0  0
 15 16  1  0  0  0  0
 15 31  1  0  0  0  0
 15 32  1  0  0  0  0
 16 17  1  0  0  0  0
 16 33  1  0  0  0  0
 16 34  1  0  0  0  0
 17 18  1  0  0  0  0
 17 35  1  0  0  0  0
 17 36  1  0  0  0  0
 18 19  1  0  0  0  0
 18 37  1  0  0  0  0
 18 38  1  0  0  0  0
 19 39  1  0  0  0  0
M  CHG  1  14   1
M  END
> <s_m_source_file>
AV-unprocessed.smi

> <i_m_source_file_index>
2072

> <i_lp_mmshare_version>
43012

> <i_f3d_flags>
0

> <s_epik_input>
W0NIMl0xW0NIMl1bQ0gyXVtDSDJdW0NASF0oTjEyKVtDQEBIXShbQ0gyXVtDSDJdMilbTkhdQyg9TylbTkhdYzNbY0hdW2NIXVtjSF1uW2NIXTM=

> <s_epik_cmdline>
J2VwaWtfcHl0aG9uJywgJy1waCcsICc3LjAnLCAnLXRuJywgJzgnLCAnLW1hJywgJzIwMCcsICctbWV0YWxfYmluZGluZycsICctaW1hZScsICc8aW5maWxlLm1hZT4nLCAnLW9tYWUnLCAnPG91dGZpbGUubWFlPic=

> <r_lp_tautomer_probability>
1

> <r_epik_Ionization_Penalty>
0.00482425

> <r_epik_Ionization_Penalty_Charging>
0.000974069

> <r_epik_Ionization_Penalty_Neutral>
0.00385018

> <r_epik_State_Penalty>
-0

> <r_epik_Charging_Adjusted_Penalty>
0.000974069

> <i_epik_Tot_Q>
1

> <i_epik_Tot_abs_Q>
1

> <r_epik_Metal_State_Penalty>
-0

> <b_epik_Metal_Only>
0

> <s_lp_Force_Field>
OPLS_2005

> <r_lp_Energy>
44.3816

> <b_lp_Chiralities_Consistent>
1

> <s_lp_Variant>
AV-unprocessed.smi:2072-2

> <Gold.Version>
5.8.1

> <Gold.Id.Protein>
6NUR|6NUR_protein|mol2

> <Gold.PLP.Fitness>
47.7284

> <Gold.PLP.PLP>
-32.2001

> <Gold.PLP.part.hbond>
-3.9730

> <Gold.PLP.part.metal>
0.0000

> <Gold.PLP.part.buried>
-3.8561

> <Gold.PLP.part.nonpolar>
-25.4092

> <Gold.PLP.part.repulsive>
0.2260

> <Gold.PLP.ligand.clash>
0.0000

> <Gold.PLP.ligand.torsion>
0.3607

> <Gold.PLP.Chemscore.Hbond>
4.4159

> <Gold.PLP.Chemscore.CHOScore>
1.0000

> <Gold.PLP.Chemscore.Metal>
0.0000

> <Gold.Chemscore.Hbonds>
donor molecule, donor type, donor heavy atom, donor atom, acceptor molecule, acceptor atom, score
      L1  H     3    20       P1  7948  1.00
      L1  H    10    25       P1  7948  0.54
      L1  H    14    40       P1 10957  2.00
      P1  H  7989  7998       L1     8  0.93
      L1  C     7    23       P1  8028  0.95

> <Gold.PLP.Chemscore.Internal.Correction>
0.0020

> <Gold.Rescore>
     Score         DG    S(hbond)    S(metal)    S(lipo)     H(rot)  DE(clash)    DE(int)     intcor
     22.04     -22.44       3.22        0.00      74.98       1.00       0.16       0.25       ----

> <Gold.Chemscore.Fitness>
22.0371

> <Gold.Chemscore.DG>
-22.4449

> <Gold.Chemscore.ZeroCoef>
-5.4800

> <Gold.Chemscore.Hbond>
3.2191

> <Gold.Chemscore.Metal>
0.0000

> <Gold.Chemscore.Lipo>
74.9841

> <Gold.Chemscore.Internal_Hbond>
0.0000

> <Gold.Chemscore.DEClash>
0.1567

> <Gold.Chemscore.DEInternal>
0.2511

> <Gold.Chemscore.Rot>
1.0000

> <Gold.Chemscore.Internal.Correction>
   9.000000E+99

> <Gold.Chemscore.Hbonds>
donor molecule, donor type, donor heavy atom, donor atom, acceptor molecule, acceptor atom, score
      L1  H     3    20       P1  7948  1.00
      L1  H    10    25       P1  7948  0.54
      L1  H    14    40       P1 10957  0.47
      P1  H  7989  7998       L1     8  0.35

> <Gold.Chemscore.Hbond.Weighted>
-10.7518

> <Gold.Chemscore.Metal.Weighted>
-0.0000

> <Gold.Chemscore.Lipo.Weighted>
-8.7731

> <Gold.Chemscore.Internal_Hbond.Weighted>
0.0000

> <Gold.Chemscore.DEClash.Weighted>
0.1567

> <Gold.Chemscore.DEInternal.Weighted>
0.2511

> <Gold.Chemscore.Rot.Weighted>
2.5600

> <Gold.Chemscore.Internal.Correction.Weighted>
   9.000000E+99

> <Gold.Protein.RotatedTorsions>
[ 6907 6896 6895 6894 ] final  127.87 input  -60.11 | X-H torsion
[ 7974 7965 7964 7962 ] final -169.89 input  175.53 | X-H torsion
[ 8008 7997 7996 7995 ] final   50.88 input   59.86 | X-H torsion
[ 10167 10162 10161 10158 ] final  -31.50 input  -65.29 | X-H torsion
[ 10718 10713 10712 10709 ] final -135.68 input   66.30 | X-H torsion
[ 10763 10752 10751 10750 ] final -122.71 input  -60.55 | X-H torsion
[ 11005 11000 10999 10996 ] final  -34.87 input  -57.11 | X-H torsion

> <Gold.Protein.ActiveResidues>
 VAL166  LYS551  ARG553  GLY616  TRP617  ASP618  TYR619  PRO620  LYS621  CYS622 
 ASP623  PHE694  ASN695  SER759  ASP760  ASP761  ALA762  ILE779  LEU786  VAL792 
 PHE793  MET794  SER795  GLU796  ALA797  LYS798  CYS799  TRP800  GLU811  SER814 

> <Gold.Protein.RotatedAtoms>
  152.3773  133.6498  159.6133 H   0  0  0  0  0  0  0  0  0  0  0  0  # atno 6907 bound_to 6896
  150.7713  133.9172  159.3396 H   0  0  0  0  0  0  0  0  0  0  0  0  # atno 6908 bound_to 6896
  151.6984  135.0935  160.0298 H   0  0  0  0  0  0  0  0  0  0  0  0  # atno 6909 bound_to 6896
  144.7178  140.2153  143.6322 H   0  0  0  0  0  0  0  0  0  0  0  0  # atno 7974 bound_to 7965
  155.4261  140.3448  155.4275 H   0  0  0  0  0  0  0  0  0  0  0  0  # atno 8008 bound_to 7997
  156.1364  140.1529  156.9018 H   0  0  0  0  0  0  0  0  0  0  0  0  # atno 8009 bound_to 7997
  154.4935  140.0834  156.7627 H   0  0  0  0  0  0  0  0  0  0  0  0  # atno 8010 bound_to 7997
  140.7235  143.3766  151.1679 H   0  0  0  0  0  0  0  0  0  0  0  0  # atno 10167 bound_to 10162
  156.2688  130.7253  151.1213 H   0  0  0  0  0  0  0  0  0  0  0  0  # atno 10718 bound_to 10713
  154.8694  135.4123  154.2826 H   0  0  0  0  0  0  0  0  0  0  0  0  # atno 10763 bound_to 10752
  153.3716  135.7008  153.6639 H   0  0  0  0  0  0  0  0  0  0  0  0  # atno 10764 bound_to 10752
  153.5499  135.3631  155.2727 H   0  0  0  0  0  0  0  0  0  0  0  0  # atno 10765 bound_to 10752
  140.9751  133.7088  156.1588 H   0  0  0  0  0  0  0  0  0  0  0  0  # atno 11005 bound_to 11000
  145.8552  139.2195  143.1749 LP  0  0  0  0  0  0  0  0  0  0  0  0  # atno 17320 bound_to 7965
  146.0224  140.8335  142.9917 LP  0  0  0  0  0  0  0  0  0  0  0  0  # atno 17321 bound_to 7965
  139.7347  143.9018  152.3031 LP  0  0  0  0  0  0  0  0  0  0  0  0  # atno 17342 bound_to 10162
  139.8818  144.7013  150.8869 LP  0  0  0  0  0  0  0  0  0  0  0  0  # atno 17343 bound_to 10162
  157.7276  131.0637  150.5856 LP  0  0  0  0  0  0  0  0  0  0  0  0  # atno 17370 bound_to 10713
  156.5950  130.4339  149.5921 LP  0  0  0  0  0  0  0  0  0  0  0  0  # atno 17371 bound_to 10713
  140.7271  134.4295  157.5569 LP  0  0  0  0  0  0  0  0  0  0  0  0  # atno 17394 bound_to 11000
  139.8927  134.8748  156.2257 LP  0  0  0  0  0  0  0  0  0  0  0  0  # atno 17395 bound_to 11000

$$$$
