#       Name:                AV-unprocessed.smi:2233
#       Creating user name   scv26
#       Creation time:       Fri Mar 27 12:24:49 2020


#       File generated by GOLD software.
#

@<TRIPOS>MOLECULE
AV-unprocessed.smi:2233
    48    49     1
SMALL
NO_CHARGES


@<TRIPOS>ATOM
      1 ****        -4.8675   2.7539   4.7043 C.1            1 S1                 0.0000
      2 ****        -4.4768   3.0688   3.5910 C.1            1 S1                 0.0000
      3 ****        -3.9973   3.4342   2.2466 C.3            1 S1                 0.0000
      4 ****        -2.5095   3.1322   1.9898 C.3            1 S1                 0.0000
      5 ****        -2.1513   1.6354   2.0332 C.3            1 S1                 0.0000
      6 ****        -0.6680   1.3801   1.7108 C.3            1 S1                 0.0000
      7 ****        -0.3150  -0.1099   1.6626 C.2            1 S1                 0.0000
      8 ****        -0.8140  -0.8857   2.4773 O.2            1 S1                 0.0000
      9 ****         0.5417  -0.4703   0.6899 N.am           1 S1                 0.0000
     10 ****         1.0438  -1.7647   0.3677 C.ar           1 S1                 0.0000
     11 ****         1.0572  -2.8399   1.2919 C.ar           1 S1                 0.0000
     12 ****         1.5582  -4.0406   0.9318 N.pl3          1 S1                 1.0000
     13 ****         2.0685  -4.2846  -0.2927 C.ar           1 S1                 0.0000
     14 ****         2.0996  -3.2567  -1.2542 C.ar           1 S1                 0.0000
     15 ****         1.5879  -1.9781  -0.9262 C.ar           1 S1                 0.0000
     16 ****         1.6116  -0.9335  -1.8649 N.3            1 S1                 0.0000
     17 ****         2.9535  -0.4992  -2.2316 C.3            1 S1                 0.0000
     18 ****         2.8723   0.7398  -3.1398 C.3            1 S1                 0.0000
     19 ****         2.0636   0.4454  -4.2755 O.3            1 S1                 0.0000
     20 ****         0.7312   0.0959  -3.9098 C.3            1 S1                 0.0000
     21 ****         0.7537  -1.1597  -3.0210 C.3            1 S1                 0.0000
     22 ****        -5.2057   2.4799   5.6785 H              1 S1                 0.0000
     23 ****        -4.6196   2.9132   1.5186 H              1 S1                 0.0000
     24 ****        -4.1850   4.5002   2.1156 H              1 S1                 0.0000
     25 ****        -2.2427   3.5302   1.0101 H              1 S1                 0.0000
     26 ****        -1.8968   3.6757   2.7108 H              1 S1                 0.0000
     27 ****        -2.3836   1.2307   3.0191 H              1 S1                 0.0000
     28 ****        -2.7784   1.0958   1.3219 H              1 S1                 0.0000
     29 ****        -0.4200   1.8415   0.7534 H              1 S1                 0.0000
     30 ****        -0.0370   1.8589   2.4603 H              1 S1                 0.0000
     31 ****         0.8140   0.2643   0.0521 H              1 S1                 0.0000
     32 ****         0.7003  -2.7907   2.3092 H              1 S1                 0.0000
     33 ****         2.4393  -5.2849  -0.4633 H              1 S1                 0.0000
     34 ****         2.5145  -3.4519  -2.2324 H              1 S1                 0.0000
     35 ****         3.5271  -0.2680  -1.3331 H              1 S1                 0.0000
     36 ****         3.4757  -1.3034  -2.7515 H              1 S1                 0.0000
     37 ****         2.4611   1.5933  -2.5983 H              1 S1                 0.0000
     38 ****         3.8690   1.0255  -3.4764 H              1 S1                 0.0000
     39 ****         0.2539   0.9302  -3.3931 H              1 S1                 0.0000
     40 ****         0.1519  -0.0931  -4.8136 H              1 S1                 0.0000
     41 ****         1.1210  -2.0113  -3.5952 H              1 S1                 0.0000
     42 ****        -0.2571  -1.4030  -2.6911 H              1 S1                 0.0000
     43 ****         1.5529  -4.7958   1.6181 H              1 S1                 0.0000
     44 ****        -1.4490  -0.5433   3.1697 LP             1 S1                 0.0000
     45 ****        -0.5843  -1.8585   2.4469 LP             1 S1                 0.0000
     46 ****         1.2055  -0.1592  -1.3796 LP             1 S1                 0.0000
     47 ****         2.4726  -0.3198  -4.7728 LP             1 S1                 0.0000
     48 ****         2.0346   1.2505  -4.8679 LP             1 S1                 0.0000
@<TRIPOS>BOND
    1    1    2 3     
    2    1   22 1     
    3    2    3 1     
    4    3    4 1     
    5    3   23 1     
    6    3   24 1     
    7    4    5 1     
    8    4   25 1     
    9    4   26 1     
   10    5    6 1     
   11    5   27 1     
   12    5   28 1     
   13    6    7 1     
   14    6   29 1     
   15    6   30 1     
   16    7    8 2     
   17    7    9 am    
   18    9   10 1     
   19    9   31 1     
   20   10   15 ar    
   21   10   11 ar    
   22   11   12 ar    
   23   11   32 1     
   24   12   13 ar    
   25   12   43 1     
   26   13   14 ar    
   27   13   33 1     
   28   14   15 ar    
   29   14   34 1     
   30   15   16 1     
   31   16   21 1     
   32   16   17 1     
   33   17   18 1     
   34   17   35 1     
   35   17   36 1     
   36   18   19 1     
   37   18   37 1     
   38   18   38 1     
   39   19   20 1     
   40   20   21 1     
   41   20   39 1     
   42   20   40 1     
   43   21   41 1     
   44   21   42 1     
   45    8   44 1     
   46    8   45 1     
   47   16   46 1     
   48   19   47 1     
   49   19   48 1     
@<TRIPOS>SUBSTRUCTURE
      1 S1             1
@<TRIPOS>SET
LONE_PAIRS      STATIC     ATOMS    <user>   **** ""
5 44 45 46 47 48
DONOR_HYDROGENS      STATIC     ATOMS    <user>   **** ""
2 31 43
ATOM$BLUE        STATIC     ATOMS    COLORGROUP SYSTEM
5 44 45 46 47 48
ATOM$RED        STATIC     ATOMS    COLORGROUP SYSTEM
2 31 43
