#       Name:                AV-unprocessed.smi:2015
#       Creating user name   scv26
#       Creation time:       Fri Mar 27 10:41:07 2020


#       File generated by GOLD software.
#

@<TRIPOS>MOLECULE
AV-unprocessed.smi:2015
    55    56     1
SMALL
NO_CHARGES


@<TRIPOS>ATOM
      1 ****        -8.5477  -0.6825   0.8342 C.3            1 S1                 0.0000
      2 ****        -7.1834  -0.3620   1.0415 O.3            1 S1                 0.0000
      3 ****        -6.7336  -0.7089   2.3411 C.3            1 S1                 0.0000
      4 ****        -5.2544  -0.3304   2.4871 C.3            1 S1                 0.0000
      5 ****        -4.3317  -1.1672   1.5804 C.3            1 S1                 0.0000
      6 ****        -2.8590  -0.7513   1.6634 C.2            1 S1                 0.0000
      7 ****        -2.4190  -0.2372   2.6917 O.2            1 S1                 0.0000
      8 ****        -2.1338  -0.9796   0.5530 N.am           1 S1                 0.0000
      9 ****        -0.7613  -0.6994   0.3131 C.ar           1 S1                 0.0000
     10 ****         0.2117  -0.5370   1.3261 C.ar           1 S1                 0.0000
     11 ****         1.5440  -0.2716   0.9556 C.ar           1 S1                 0.0000
     12 ****         1.8774  -0.1806  -0.4162 C.ar           1 S1                 0.0000
     13 ****         3.2050   0.0988  -0.8063 N.3            1 S1                 0.0000
     14 ****         3.7916   1.2957  -0.2100 C.3            1 S1                 0.0000
     15 ****         5.3110   1.3346  -0.4606 C.3            1 S1                 0.0000
     16 ****         5.9431   2.6367   0.0423 C.3            1 S1                 0.0000
     17 ****         5.5593   1.2289  -1.8598 O.3            1 S1                 0.0000
     18 ****         5.0794   0.0038  -2.4067 C.3            1 S1                 0.0000
     19 ****         5.4769  -0.0512  -3.8854 C.3            1 S1                 0.0000
     20 ****         3.5531  -0.0704  -2.2156 C.3            1 S1                 0.0000
     21 ****         0.9462  -0.3618  -1.3845 N.ar           1 S1                 0.0000
     22 ****        -0.3293  -0.6149  -1.0252 C.ar           1 S1                 0.0000
     23 ****        -8.8416  -0.3958  -0.1755 H              1 S1                 0.0000
     24 ****        -9.1895  -0.1486   1.5360 H              1 S1                 0.0000
     25 ****        -8.7220  -1.7535   0.9441 H              1 S1                 0.0000
     26 ****        -7.3231  -0.1739   3.0873 H              1 S1                 0.0000
     27 ****        -6.8702  -1.7765   2.5211 H              1 S1                 0.0000
     28 ****        -5.1313   0.7321   2.2721 H              1 S1                 0.0000
     29 ****        -4.9625  -0.4693   3.5290 H              1 S1                 0.0000
     30 ****        -4.4065  -2.2222   1.8456 H              1 S1                 0.0000
     31 ****        -4.6641  -1.0816   0.5447 H              1 S1                 0.0000
     32 ****        -2.6458  -1.3389  -0.2399 H              1 S1                 0.0000
     33 ****        -0.0294  -0.6244   2.3739 H              1 S1                 0.0000
     34 ****         2.2938  -0.1574   1.7242 H              1 S1                 0.0000
     35 ****         3.3156   2.1732  -0.6501 H              1 S1                 0.0000
     36 ****         3.6073   1.3409   0.8626 H              1 S1                 0.0000
     37 ****         5.7886   0.4976   0.0519 H              1 S1                 0.0000
     38 ****         5.7864   2.7605   1.1141 H              1 S1                 0.0000
     39 ****         5.5144   3.5035  -0.4614 H              1 S1                 0.0000
     40 ****         7.0181   2.6438  -0.1394 H              1 S1                 0.0000
     41 ****         5.5554  -0.8306  -1.8883 H              1 S1                 0.0000
     42 ****         5.1434  -0.9810  -4.3468 H              1 S1                 0.0000
     43 ****         6.5593   0.0075  -4.0004 H              1 S1                 0.0000
     44 ****         5.0371   0.7761  -4.4431 H              1 S1                 0.0000
     45 ****         3.1887  -1.0324  -2.5787 H              1 S1                 0.0000
     46 ****         3.0625   0.7075  -2.8028 H              1 S1                 0.0000
     47 ****        -1.0292  -0.7481  -1.8371 H              1 S1                 0.0000
     48 ****        -7.0624   0.6222   0.9126 LP             1 S1                 0.0000
     49 ****        -6.6324  -0.8564   0.3691 LP             1 S1                 0.0000
     50 ****        -3.0229  -0.0902   3.4751 LP             1 S1                 0.0000
     51 ****        -1.4577   0.0334   2.7436 LP             1 S1                 0.0000
     52 ****         3.6663  -0.6778  -0.3772 LP             1 S1                 0.0000
     53 ****         6.5454   1.2856  -2.0160 LP             1 S1                 0.0000
     54 ****         5.1040   1.9881  -2.3249 LP             1 S1                 0.0000
     55 ****         1.2007  -0.3087  -2.3502 LP             1 S1                 0.0000
@<TRIPOS>BOND
    1    1    2 1     
    2    1   23 1     
    3    1   24 1     
    4    1   25 1     
    5    2    3 1     
    6    3    4 1     
    7    3   26 1     
    8    3   27 1     
    9    4    5 1     
   10    4   28 1     
   11    4   29 1     
   12    5    6 1     
   13    5   30 1     
   14    5   31 1     
   15    6    7 2     
   16    6    8 am    
   17    8    9 1     
   18    8   32 1     
   19    9   22 ar    
   20    9   10 ar    
   21   10   11 ar    
   22   10   33 1     
   23   11   12 ar    
   24   11   34 1     
   25   12   13 1     
   26   12   21 ar    
   27   13   20 1     
   28   13   14 1     
   29   14   15 1     
   30   14   35 1     
   31   14   36 1     
   32   15   16 1     
   33   15   17 1     
   34   15   37 1     
   35   16   38 1     
   36   16   39 1     
   37   16   40 1     
   38   17   18 1     
   39   18   19 1     
   40   18   20 1     
   41   18   41 1     
   42   19   42 1     
   43   19   43 1     
   44   19   44 1     
   45   20   45 1     
   46   20   46 1     
   47   21   22 ar    
   48   22   47 1     
   49    2   48 1     
   50    2   49 1     
   51    7   50 1     
   52    7   51 1     
   53   13   52 1     
   54   17   53 1     
   55   17   54 1     
   56   21   55 1     
@<TRIPOS>SUBSTRUCTURE
      1 S1             1
@<TRIPOS>SET
LONE_PAIRS      STATIC     ATOMS    <user>   **** ""
8 48 49 50 51 52 53 54 55
DONOR_HYDROGENS      STATIC     ATOMS    <user>   **** ""
1 32
ATOM$BLUE        STATIC     ATOMS    COLORGROUP SYSTEM
8 48 49 50 51 52 53 54 55
ATOM$RED        STATIC     ATOMS    COLORGROUP SYSTEM
1 32
