AV-unprocessed.smi:2540|AV-procd|sdf|9988|dock2
  -GOLD-   2272014 33D 1   1.00000     0.00000
 Structure written by MMmdl.
 27 28  0  0  0  0  0  0  0  0  1 V2000
  152.7830  138.7066  155.0426 C   0  0  0  0  0  0  0  0  0  0  0  0
  151.9230  139.7870  154.7278 O   0  0  0  0  0  0  0  0  0  0  0  0
  150.5794  139.5459  155.1138 C   0  0  0  0  0  0  0  0  0  0  0  0
  150.4806  139.5094  156.6452 C   0  0  0  0  0  0  0  0  0  0  0  0
  150.8273  140.7895  157.2470 N   0  0  0  0  0  0  0  0  0  0  0  0
  150.3335  142.0160  156.9551 C   0  0  0  0  0  0  0  0  0  0  0  0
  149.3711  142.1578  155.9663 N   0  0  0  0  0  0  0  0  0  0  0  0
  150.8198  143.0373  157.6558 N   0  0  0  0  0  0  0  0  0  0  0  0
  151.7313  142.4128  158.4870 C   0  0  0  0  0  0  0  0  0  0  0  0
  152.5878  142.9485  159.4756 C   0  0  0  0  0  0  0  0  0  0  0  0
  153.4500  142.1049  160.2066 C   0  0  0  0  0  0  0  0  0  0  0  0
  153.4679  140.7164  159.9615 C   0  0  0  0  0  0  0  0  0  0  0  0
  152.6212  140.1608  158.9829 C   0  0  0  0  0  0  0  0  0  0  0  0
  151.7619  141.0064  158.2556 C   0  0  0  0  0  0  0  0  0  0  0  0
  153.7978  138.9425  154.7229 H   0  0  0  0  0  0  0  0  0  0  0  0
  152.4727  137.7930  154.5337 H   0  0  0  0  0  0  0  0  0  0  0  0
  152.8037  138.5202  156.1172 H   0  0  0  0  0  0  0  0  0  0  0  0
  149.9300  140.3272  154.7153 H   0  0  0  0  0  0  0  0  0  0  0  0
  150.2378  138.5957  154.7008 H   0  0  0  0  0  0  0  0  0  0  0  0
  149.4745  139.2261  156.9557 H   0  0  0  0  0  0  0  0  0  0  0  0
  151.1488  138.7453  157.0436 H   0  0  0  0  0  0  0  0  0  0  0  0
  149.0253  141.3599  155.4525 H   0  0  0  0  0  0  0  0  0  0  0  0
  148.9868  143.0602  155.7270 H   0  0  0  0  0  0  0  0  0  0  0  0
  152.5827  144.0107  159.6699 H   0  0  0  0  0  0  0  0  0  0  0  0
  154.1020  142.5256  160.9578 H   0  0  0  0  0  0  0  0  0  0  0  0
  154.1327  140.0778  160.5244 H   0  0  0  0  0  0  0  0  0  0  0  0
  152.6348  139.0985  158.7904 H   0  0  0  0  0  0  0  0  0  0  0  0
  1  2  1  0  0  0  0
  1 15  1  0  0  0  0
  1 16  1  0  0  0  0
  1 17  1  0  0  0  0
  2  3  1  0  0  0  0
  3  4  1  0  0  0  0
  3 18  1  0  0  0  0
  3 19  1  0  0  0  0
  4  5  1  0  0  0  0
  4 20  1  0  0  0  0
  4 21  1  0  0  0  0
  5 14  1  0  0  0  0
  5  6  1  0  0  0  0
  6  7  1  0  0  0  0
  6  8  2  0  0  0  0
  7 22  1  0  0  0  0
  7 23  1  0  0  0  0
  8  9  1  0  0  0  0
  9 14  2  0  0  0  0
  9 10  1  0  0  0  0
 10 11  2  0  0  0  0
 10 24  1  0  0  0  0
 11 12  1  0  0  0  0
 11 25  1  0  0  0  0
 12 13  2  0  0  0  0
 12 26  1  0  0  0  0
 13 14  1  0  0  0  0
 13 27  1  0  0  0  0
M  END
> <s_m_source_file>
AV-unprocessed.smi

> <i_m_source_file_index>
2540

> <i_lp_mmshare_version>
43012

> <i_f3d_flags>
0

> <s_epik_input>
W0NIM11PW0NIMl1bQ0gyXW4oYyhuMSlbTkgyXSljKGMxMilbY0hdW2NIXVtjSF1bY0hdMg==

> <s_epik_cmdline>
J2VwaWtfcHl0aG9uJywgJy1waCcsICc3LjAnLCAnLXRuJywgJzgnLCAnLW1hJywgJzIwMCcsICctbWV0YWxfYmluZGluZycsICctaW1hZScsICc8aW5maWxlLm1hZT4nLCAnLW9tYWUnLCAnPG91dGZpbGUubWFlPic=

> <r_epik_Ionization_Penalty>
0.602407

> <r_epik_Ionization_Penalty_Charging>
0

> <r_epik_Ionization_Penalty_Neutral>
0.602407

> <r_epik_State_Penalty>
0.616889

> <r_epik_Charging_Adjusted_Penalty>
0.616889

> <i_epik_Tot_Q>
0

> <i_epik_Tot_abs_Q>
0

> <r_epik_Metal_State_Penalty>
0.00108478

> <b_epik_Metal_Only>
0

> <s_lp_Force_Field>
OPLS_2005

> <r_lp_Energy>
6.7443

> <b_lp_Chiralities_Consistent>
1

> <s_lp_Variant>
AV-unprocessed.smi:2540-2

> <Gold.Version>
5.8.1

> <Gold.Id.Protein>
6NUR|6NUR_protein|mol2

> <Gold.PLP.Fitness>
35.9948

> <Gold.PLP.PLP>
-30.3107

> <Gold.PLP.part.hbond>
-2.0000

> <Gold.PLP.part.metal>
0.0000

> <Gold.PLP.part.buried>
-4.8160

> <Gold.PLP.part.nonpolar>
-24.3292

> <Gold.PLP.part.repulsive>
0.3089

> <Gold.PLP.ligand.clash>
0.0000

> <Gold.PLP.ligand.torsion>
0.0749

> <Gold.PLP.Chemscore.Hbond>
1.9440

> <Gold.PLP.Chemscore.CHOScore>
0.0000

> <Gold.PLP.Chemscore.Metal>
0.0000

> <Gold.Chemscore.Hbonds>
donor molecule, donor type, donor heavy atom, donor atom, acceptor molecule, acceptor atom, score
      L1  H     7    23       P1  8028  1.00
      P1  H  7989  7998       L1     2  0.94

> <Gold.PLP.Chemscore.Internal.Correction>
0.0018

> <Gold.Rescore>
     Score         DG    S(hbond)    S(metal)    S(lipo)     H(rot)  DE(clash)    DE(int)     intcor
     15.87     -17.02       1.94        0.00      75.21       1.46       0.00       1.15       ----

> <Gold.Chemscore.Fitness>
15.8713

> <Gold.Chemscore.DG>
-17.0226

> <Gold.Chemscore.ZeroCoef>
-5.4800

> <Gold.Chemscore.Hbond>
1.9400

> <Gold.Chemscore.Metal>
0.0000

> <Gold.Chemscore.Lipo>
75.2136

> <Gold.Chemscore.Internal_Hbond>
0.0000

> <Gold.Chemscore.DEClash>
0.0021

> <Gold.Chemscore.DEInternal>
1.1492

> <Gold.Chemscore.Rot>
1.4598

> <Gold.Chemscore.Internal.Correction>
   9.000000E+99

> <Gold.Chemscore.Hbonds>
donor molecule, donor type, donor heavy atom, donor atom, acceptor molecule, acceptor atom, score
      L1  H     7    23       P1  8028  0.99
      P1  H  7989  7998       L1     2  0.23

> <Gold.Chemscore.Hbond.Weighted>
-6.4797

> <Gold.Chemscore.Metal.Weighted>
-0.0000

> <Gold.Chemscore.Lipo.Weighted>
-8.8000

> <Gold.Chemscore.Internal_Hbond.Weighted>
0.0000

> <Gold.Chemscore.DEClash.Weighted>
0.0021

> <Gold.Chemscore.DEInternal.Weighted>
1.1492

> <Gold.Chemscore.Rot.Weighted>
3.7371

> <Gold.Chemscore.Internal.Correction.Weighted>
   9.000000E+99

> <Gold.Protein.RotatedTorsions>
[ 6907 6896 6895 6894 ] final  -14.07 input  -60.11 | X-H torsion
[ 7974 7965 7964 7962 ] final  -17.77 input  175.53 | X-H torsion
[ 8008 7997 7996 7995 ] final  123.85 input   59.86 | X-H torsion
[ 10167 10162 10161 10158 ] final  -56.55 input  -65.29 | X-H torsion
[ 10718 10713 10712 10709 ] final  139.95 input   66.30 | X-H torsion
[ 10763 10752 10751 10750 ] final  -55.57 input  -60.55 | X-H torsion
[ 11005 11000 10999 10996 ] final  -82.59 input  -57.11 | X-H torsion

> <Gold.Protein.ActiveResidues>
 VAL166  LYS551  ARG553  GLY616  TRP617  ASP618  TYR619  PRO620  LYS621  CYS622 
 ASP623  PHE694  ASN695  SER759  ASP760  ASP761  ALA762  ILE779  LEU786  VAL792 
 PHE793  MET794  SER795  GLU796  ALA797  LYS798  CYS799  TRP800  GLU811  SER814 

> <Gold.Protein.RotatedAtoms>
  151.3451  135.0872  159.9383 H   0  0  0  0  0  0  0  0  0  0  0  0  # atno 6907 bound_to 6896
  152.5201  133.9408  159.7636 H   0  0  0  0  0  0  0  0  0  0  0  0  # atno 6908 bound_to 6896
  150.9772  133.6229  159.2758 H   0  0  0  0  0  0  0  0  0  0  0  0  # atno 6909 bound_to 6896
  146.1925  140.3826  142.8453 H   0  0  0  0  0  0  0  0  0  0  0  0  # atno 7974 bound_to 7965
  156.2780  140.2753  156.1693 H   0  0  0  0  0  0  0  0  0  0  0  0  # atno 8008 bound_to 7997
  155.0672  140.0387  157.2614 H   0  0  0  0  0  0  0  0  0  0  0  0  # atno 8009 bound_to 7997
  154.7070  140.2661  155.6671 H   0  0  0  0  0  0  0  0  0  0  0  0  # atno 8010 bound_to 7997
  140.6311  143.2460  151.5239 H   0  0  0  0  0  0  0  0  0  0  0  0  # atno 10167 bound_to 10162
  157.4087  131.1025  151.0477 H   0  0  0  0  0  0  0  0  0  0  0  0  # atno 10718 bound_to 10713
  154.1930  135.6424  153.5065 H   0  0  0  0  0  0  0  0  0  0  0  0  # atno 10763 bound_to 10752
  153.0030  135.5433  154.6396 H   0  0  0  0  0  0  0  0  0  0  0  0  # atno 10764 bound_to 10752
  154.5789  135.2923  155.0725 H   0  0  0  0  0  0  0  0  0  0  0  0  # atno 10765 bound_to 10752
  141.1662  133.7252  156.8595 H   0  0  0  0  0  0  0  0  0  0  0  0  # atno 11005 bound_to 11000
  144.8514  140.7007  143.6166 LP  0  0  0  0  0  0  0  0  0  0  0  0  # atno 17320 bound_to 7965
  145.3748  139.1650  143.4312 LP  0  0  0  0  0  0  0  0  0  0  0  0  # atno 17321 bound_to 7965
  139.5525  144.2360  152.1555 LP  0  0  0  0  0  0  0  0  0  0  0  0  # atno 17342 bound_to 10162
  140.1603  144.5031  150.6636 LP  0  0  0  0  0  0  0  0  0  0  0  0  # atno 17343 bound_to 10162
  157.1449  130.6159  149.5566 LP  0  0  0  0  0  0  0  0  0  0  0  0  # atno 17370 bound_to 10713
  155.9844  130.4869  150.6981 LP  0  0  0  0  0  0  0  0  0  0  0  0  # atno 17371 bound_to 10713
  140.1859  134.9000  157.3003 LP  0  0  0  0  0  0  0  0  0  0  0  0  # atno 17394 bound_to 11000
  140.2344  134.3871  155.7507 LP  0  0  0  0  0  0  0  0  0  0  0  0  # atno 17395 bound_to 11000

$$$$
