#       Name:                AV-unprocessed.smi:2791
#       Creating user name   scv26
#       Creation time:       Fri Mar 27 15:20:48 2020


#       File generated by GOLD software.
#

@<TRIPOS>MOLECULE
AV-unprocessed.smi:2791
    40    41     1
SMALL
NO_CHARGES


@<TRIPOS>ATOM
      1 ****        -1.5650   1.2434  -3.0152 C.3            1 S1                 0.0000
      2 ****        -2.1500   0.6948  -1.8414 O.3            1 S1                 0.0000
      3 ****        -1.9317  -0.7001  -1.6266 C.3            1 S1                 0.0000
      4 ****        -0.4492  -1.0179  -1.3875 C.3            1 S1                 0.0000
      5 ****         0.0676  -0.2507  -0.2623 N.am           1 S1                 0.0000
      6 ****         1.3205  -0.3380   0.2012 C.2            1 S1                 0.0000
      7 ****         2.1706  -1.0841  -0.2852 O.2            1 S1                 0.0000
      8 ****         1.5083   0.4829   1.2492 N.am           1 S1                 0.0000
      9 ****         2.6338   0.6738   1.9877 C.2            1 S1                 0.0000
     10 ****         3.8813   0.1408   1.8084 C.2            1 S1                 0.0000
     11 ****         4.6187   0.7148   2.8834 C.2            1 S1                 0.0000
     12 ****         3.8884   1.5226   3.6423 N.2            1 S1                 0.0000
     13 ****         2.6559   1.5009   3.0895 N.pl3          1 S1                 0.0000
     14 ****         1.5850   2.2858   3.6723 C.3            1 S1                 0.0000
     15 ****        -2.9465  -1.1835  -0.5732 C.3            1 S1                 0.0000
     16 ****        -3.2459  -2.3865  -1.4694 C.3            1 S1                 0.0000
     17 ****        -2.7198  -1.5543  -2.6400 C.3            1 S1                 0.0000
     18 ****        -1.8949   2.2756  -3.1299 H              1 S1                 0.0000
     19 ****        -1.8616   0.6997  -3.9124 H              1 S1                 0.0000
     20 ****        -0.4769   1.2561  -2.9568 H              1 S1                 0.0000
     21 ****        -0.3213  -2.0802  -1.1739 H              1 S1                 0.0000
     22 ****         0.1490  -0.8174  -2.2769 H              1 S1                 0.0000
     23 ****        -0.5724   0.3883   0.1864 H              1 S1                 0.0000
     24 ****         0.7067   1.0236   1.5389 H              1 S1                 0.0000
     25 ****         4.2287  -0.5408   1.0470 H              1 S1                 0.0000
     26 ****         5.6594   0.5710   3.1334 H              1 S1                 0.0000
     27 ****         0.7458   1.6347   3.9184 H              1 S1                 0.0000
     28 ****         1.2536   3.0397   2.9581 H              1 S1                 0.0000
     29 ****         1.9239   2.7836   4.5818 H              1 S1                 0.0000
     30 ****        -2.5188  -1.4400   0.3965 H              1 S1                 0.0000
     31 ****        -3.8062  -0.5193  -0.4659 H              1 S1                 0.0000
     32 ****        -2.6177  -3.2503  -1.2453 H              1 S1                 0.0000
     33 ****        -4.3002  -2.6563  -1.5366 H              1 S1                 0.0000
     34 ****        -3.5143  -1.0032  -3.1466 H              1 S1                 0.0000
     35 ****        -2.1035  -2.1096  -3.3478 H              1 S1                 0.0000
     36 ****        -3.1373   0.8458  -1.8923 LP             1 S1                 0.0000
     37 ****        -1.7776   1.1875  -1.0550 LP             1 S1                 0.0000
     38 ****         1.9388  -1.6642  -1.0662 LP             1 S1                 0.0000
     39 ****         3.0928  -1.1100   0.1006 LP             1 S1                 0.0000
     40 ****         4.1857   2.0354   4.4476 LP             1 S1                 0.0000
@<TRIPOS>BOND
    1    1    2 1     
    2    1   18 1     
    3    1   19 1     
    4    1   20 1     
    5    2    3 1     
    6    3   17 1     
    7    3    4 1     
    8    3   15 1     
    9    4    5 1     
   10    4   21 1     
   11    4   22 1     
   12    5    6 am    
   13    5   23 1     
   14    6    7 2     
   15    6    8 am    
   16    8    9 1     
   17    8   24 1     
   18    9   13 1     
   19    9   10 2     
   20   10   11 1     
   21   10   25 1     
   22   11   12 2     
   23   11   26 1     
   24   12   13 1     
   25   13   14 1     
   26   14   27 1     
   27   14   28 1     
   28   14   29 1     
   29   15   16 1     
   30   15   30 1     
   31   15   31 1     
   32   16   17 1     
   33   16   32 1     
   34   16   33 1     
   35   17   34 1     
   36   17   35 1     
   37    2   36 1     
   38    2   37 1     
   39    7   38 1     
   40    7   39 1     
   41   12   40 1     
@<TRIPOS>SUBSTRUCTURE
      1 S1             1
@<TRIPOS>SET
LONE_PAIRS      STATIC     ATOMS    <user>   **** ""
5 36 37 38 39 40
DONOR_HYDROGENS      STATIC     ATOMS    <user>   **** ""
2 23 24
ATOM$BLUE        STATIC     ATOMS    COLORGROUP SYSTEM
5 36 37 38 39 40
ATOM$RED        STATIC     ATOMS    COLORGROUP SYSTEM
2 23 24
