AV-unprocessed.smi:1487|AV-procd|sdf|6012|dock9
  -GOLD-   22720 6113D 1   1.00000     0.00000
 Structure written by MMmdl.
 48 50  0  0  0  0  0  0  0  0  2 V2000
  153.1644  140.9901  159.4244 C   0  0  0  0  0  0  0  0  0  0  0  0
  152.1783  141.0456  158.2710 C   0  0  0  0  0  0  0  0  0  0  0  0
  152.1519  139.9843  157.3384 C   0  0  0  0  0  0  0  0  0  0  0  0
  151.2498  139.9969  156.2523 C   0  0  0  0  0  0  0  0  0  0  0  0
  151.0511  139.0766  155.2373 N   0  0  0  0  0  0  0  0  0  0  0  0
  150.0760  139.6519  154.5402 C   0  0  0  0  0  0  0  0  0  0  0  0
  149.6158  140.8366  154.9860 N   0  0  0  0  0  0  0  0  0  0  0  0
  148.5615  141.6424  154.3966 C   0  0  0  0  0  0  0  0  0  0  0  0
  147.1905  140.9402  154.4363 C   0  0  1  0  0  0  0  0  0  0  0  0
  146.1890  141.8361  153.9926 O   0  0  0  0  0  0  0  0  0  0  0  0
  147.1648  139.6914  153.5330 C   0  0  0  0  0  0  0  0  0  0  0  0
  145.8534  138.9933  153.5594 N   0  3  1  0  0  0  0  0  0  0  0  0
  145.8194  137.8194  152.6501 C   0  0  0  0  0  0  0  0  0  0  0  0
  144.4022  137.2329  152.5600 C   0  0  0  0  0  0  0  0  0  0  0  0
  143.8744  136.8513  153.9499 C   0  0  0  0  0  0  0  0  0  0  0  0
  143.9802  138.0353  154.9256 C   0  0  2  0  0  0  0  0  0  0  0  0
  143.0323  139.0323  154.5971 O   0  0  0  0  0  0  0  0  0  0  0  0
  145.3967  138.6436  154.9327 C   0  0  0  0  0  0  0  0  0  0  0  0
  150.3687  141.1100  156.1230 C   0  0  0  0  0  0  0  0  0  0  0  0
  150.3864  142.1726  157.0435 C   0  0  0  0  0  0  0  0  0  0  0  0
  151.2929  142.1435  158.1236 C   0  0  0  0  0  0  0  0  0  0  0  0
  151.3017  143.2937  159.1149 C   0  0  0  0  0  0  0  0  0  0  0  0
  153.7418  140.0652  159.4102 H   0  0  0  0  0  0  0  0  0  0  0  0
  152.6411  141.0422  160.3793 H   0  0  0  0  0  0  0  0  0  0  0  0
  153.8651  141.8234  159.3668 H   0  0  0  0  0  0  0  0  0  0  0  0
  152.8264  139.1481  157.4503 H   0  0  0  0  0  0  0  0  0  0  0  0
  149.6705  139.1840  153.6548 H   0  0  0  0  0  0  0  0  0  0  0  0
  148.5209  142.5991  154.9194 H   0  0  0  0  0  0  0  0  0  0  0  0
  148.8397  141.8643  153.3653 H   0  0  0  0  0  0  0  0  0  0  0  0
  146.9720  140.6705  155.4690 H   0  0  0  0  0  0  0  0  0  0  0  0
  145.4989  141.3372  153.5811 H   0  0  0  0  0  0  0  0  0  0  0  0
  147.3957  140.0038  152.5131 H   0  0  0  0  0  0  0  0  0  0  0  0
  147.9514  138.9920  153.8202 H   0  0  0  0  0  0  0  0  0  0  0  0
  146.1424  138.1157  151.6513 H   0  0  0  0  0  0  0  0  0  0  0  0
  146.5229  137.0628  153.0011 H   0  0  0  0  0  0  0  0  0  0  0  0
  143.7335  137.9598  152.0968 H   0  0  0  0  0  0  0  0  0  0  0  0
  144.4018  136.3574  151.9097 H   0  0  0  0  0  0  0  0  0  0  0  0
  142.8444  136.4987  153.8830 H   0  0  0  0  0  0  0  0  0  0  0  0
  144.4603  136.0159  154.3356 H   0  0  0  0  0  0  0  0  0  0  0  0
  143.7356  137.6877  155.9299 H   0  0  0  0  0  0  0  0  0  0  0  0
  143.2838  139.4345  153.7793 H   0  0  0  0  0  0  0  0  0  0  0  0
  146.0977  137.9280  155.3655 H   0  0  0  0  0  0  0  0  0  0  0  0
  145.4100  139.5192  155.5808 H   0  0  0  0  0  0  0  0  0  0  0  0
  149.7056  143.0021  156.9205 H   0  0  0  0  0  0  0  0  0  0  0  0
  150.5754  144.0598  158.8422 H   0  0  0  0  0  0  0  0  0  0  0  0
  152.2854  143.7624  159.1487 H   0  0  0  0  0  0  0  0  0  0  0  0
  151.0528  142.9375  160.1147 H   0  0  0  0  0  0  0  0  0  0  0  0
  145.1814  139.6503  153.1875 H   0  0  0  0  0  0  0  0  0  0  0  0
  1  2  1  0  0  0  0
  1 23  1  0  0  0  0
  1 24  1  0  0  0  0
  1 25  1  0  0  0  0
  2 21  1  0  0  0  0
  2  3  2  0  0  0  0
  3  4  1  0  0  0  0
  3 26  1  0  0  0  0
  4 19  2  0  0  0  0
  4  5  1  0  0  0  0
  5  6  2  0  0  0  0
  6  7  1  0  0  0  0
  6 27  1  0  0  0  0
  7  8  1  0  0  0  0
  7 19  1  0  0  0  0
  8  9  1  0  0  0  0
  8 28  1  0  0  0  0
  8 29  1  0  0  0  0
  9 10  1  0  0  0  0
  9 11  1  0  0  0  0
  9 30  1  0  0  0  0
 10 31  1  0  0  0  0
 11 12  1  0  0  0  0
 11 32  1  0  0  0  0
 11 33  1  0  0  0  0
 12 18  1  0  0  0  0
 12 13  1  0  0  0  0
 12 48  1  0  0  0  0
 13 14  1  0  0  0  0
 13 34  1  0  0  0  0
 13 35  1  0  0  0  0
 14 15  1  0  0  0  0
 14 36  1  0  0  0  0
 14 37  1  0  0  0  0
 15 16  1  0  0  0  0
 15 38  1  0  0  0  0
 15 39  1  0  0  0  0
 16 17  1  0  0  0  0
 16 18  1  0  0  0  0
 16 40  1  0  0  0  0
 17 41  1  0  0  0  0
 18 42  1  0  0  0  0
 18 43  1  0  0  0  0
 19 20  1  0  0  0  0
 20 21  2  0  0  0  0
 20 44  1  0  0  0  0
 21 22  1  0  0  0  0
 22 45  1  0  0  0  0
 22 46  1  0  0  0  0
 22 47  1  0  0  0  0
M  CHG  1  12   1
M  END
> <s_m_source_file>
AV-unprocessed.smi

> <i_m_source_file_index>
1487

> <i_lp_mmshare_version>
43012

> <i_f3d_flags>
0

> <s_epik_input>
W0NIM11jKFtjSF0xKWMoW0NIM10pW2NIXWMoYzEyKW4oW2NIXW4yKVtDSDJdW0NASF0oW09IXSlbQ0gyXU4zW0NIMl1bQ0gyXVtDSDJdW0NAQEhdKFtPSF0pW0NIMl0z

> <s_epik_cmdline>
J2VwaWtfcHl0aG9uJywgJy1waCcsICc3LjAnLCAnLXRuJywgJzgnLCAnLW1hJywgJzIwMCcsICctbWV0YWxfYmluZGluZycsICctaW1hZScsICc8aW5maWxlLm1hZT4nLCAnLW9tYWUnLCAnPG91dGZpbGUubWFlPic=

> <r_epik_Ionization_Penalty>
0.0940186

> <r_epik_Ionization_Penalty_Charging>
0.00679686

> <r_epik_Ionization_Penalty_Neutral>
0.0872218

> <r_epik_State_Penalty>
0.0799311

> <r_epik_Charging_Adjusted_Penalty>
0.086728

> <i_epik_Tot_Q>
1

> <i_epik_Tot_abs_Q>
1

> <r_epik_Metal_State_Penalty>
7.95545e-05

> <b_epik_Metal_Only>
0

> <s_lp_Force_Field>
OPLS_2005

> <r_lp_Energy>
22.2404

> <b_lp_Chiralities_Consistent>
1

> <s_lp_Variant>
AV-unprocessed.smi:1487-6

> <Gold.Version>
5.8.1

> <Gold.Id.Protein>
6NUR|6NUR_protein|mol2

> <Gold.PLP.Fitness>
51.4657

> <Gold.PLP.PLP>
-36.9077

> <Gold.PLP.part.hbond>
-2.9958

> <Gold.PLP.part.metal>
0.0000

> <Gold.PLP.part.buried>
-1.2468

> <Gold.PLP.part.nonpolar>
-32.4798

> <Gold.PLP.part.repulsive>
0.0666

> <Gold.PLP.ligand.clash>
0.0000

> <Gold.PLP.ligand.torsion>
0.0528

> <Gold.PLP.Chemscore.Hbond>
3.9913

> <Gold.PLP.Chemscore.CHOScore>
0.8848

> <Gold.PLP.Chemscore.Metal>
0.0000

> <Gold.Chemscore.Hbonds>
donor molecule, donor type, donor heavy atom, donor atom, acceptor molecule, acceptor atom, score
      L1  H    10    31       P1 10175  0.39
      L1  H    12    48       P1 10175  2.00
      L1  H    17    41       P1 10175  1.00
      L1  C     6    27       P1  7957  0.74

> <Gold.PLP.Chemscore.Internal.Correction>
0.0352

> <Gold.Rescore>
     Score         DG    S(hbond)    S(metal)    S(lipo)     H(rot)  DE(clash)    DE(int)     intcor
     18.28     -18.40       2.72        0.00      91.22       2.67       0.04       0.08       ----

> <Gold.Chemscore.Fitness>
18.2835

> <Gold.Chemscore.DG>
-18.4016

> <Gold.Chemscore.ZeroCoef>
-5.4800

> <Gold.Chemscore.Hbond>
2.7206

> <Gold.Chemscore.Metal>
0.0000

> <Gold.Chemscore.Lipo>
91.2235

> <Gold.Chemscore.Internal_Hbond>
0.0000

> <Gold.Chemscore.DEClash>
0.0419

> <Gold.Chemscore.DEInternal>
0.0763

> <Gold.Chemscore.Rot>
2.6712

> <Gold.Chemscore.Internal.Correction>
   9.000000E+99

> <Gold.Chemscore.Hbonds>
donor molecule, donor type, donor heavy atom, donor atom, acceptor molecule, acceptor atom, score
      L1  H    10    31       P1 10175  0.12
      L1  H    12    48       P1 10175  1.00
      L1  H    17    41       P1 10175  1.00

> <Gold.Chemscore.Hbond.Weighted>
-9.0868

> <Gold.Chemscore.Metal.Weighted>
-0.0000

> <Gold.Chemscore.Lipo.Weighted>
-10.6732

> <Gold.Chemscore.Internal_Hbond.Weighted>
0.0000

> <Gold.Chemscore.DEClash.Weighted>
0.0419

> <Gold.Chemscore.DEInternal.Weighted>
0.0763

> <Gold.Chemscore.Rot.Weighted>
6.8383

> <Gold.Chemscore.Internal.Correction.Weighted>
   9.000000E+99

> <Gold.Protein.RotatedTorsions>
[ 6907 6896 6895 6894 ] final  -56.00 input  -60.11 | X-H torsion
[ 7974 7965 7964 7962 ] final   45.07 input  175.53 | X-H torsion
[ 8008 7997 7996 7995 ] final   39.25 input   59.86 | X-H torsion
[ 10167 10162 10161 10158 ] final  151.35 input  -65.29 | X-H torsion
[ 10718 10713 10712 10709 ] final   39.77 input   66.30 | X-H torsion
[ 10763 10752 10751 10750 ] final  112.64 input  -60.55 | X-H torsion
[ 11005 11000 10999 10996 ] final  161.52 input  -57.11 | X-H torsion

> <Gold.Protein.ActiveResidues>
 VAL166  LYS551  ARG553  GLY616  TRP617  ASP618  TYR619  PRO620  LYS621  CYS622 
 ASP623  PHE694  ASN695  SER759  ASP760  ASP761  ALA762  ILE779  LEU786  VAL792 
 PHE793  MET794  SER795  GLU796  ALA797  LYS798  CYS799  TRP800  GLU811  SER814 

> <Gold.Protein.RotatedAtoms>
  150.8204  134.7408  159.6766 H   0  0  0  0  0  0  0  0  0  0  0  0  # atno 6907 bound_to 6896
  152.4320  134.5756  159.9943 H   0  0  0  0  0  0  0  0  0  0  0  0  # atno 6908 bound_to 6896
  151.5942  133.3326  159.3070 H   0  0  0  0  0  0  0  0  0  0  0  0  # atno 6909 bound_to 6896
  146.0512  139.5004  142.9717 H   0  0  0  0  0  0  0  0  0  0  0  0  # atno 7974 bound_to 7965
  155.2335  140.3340  155.4300 H   0  0  0  0  0  0  0  0  0  0  0  0  # atno 8008 bound_to 7997
  156.2285  140.1840  156.7348 H   0  0  0  0  0  0  0  0  0  0  0  0  # atno 8009 bound_to 7997
  154.5939  140.0633  156.9261 H   0  0  0  0  0  0  0  0  0  0  0  0  # atno 8010 bound_to 7997
  139.4841  144.5448  151.7503 H   0  0  0  0  0  0  0  0  0  0  0  0  # atno 10167 bound_to 10162
  157.3745  130.7719  149.7144 H   0  0  0  0  0  0  0  0  0  0  0  0  # atno 10718 bound_to 10713
  153.4808  135.3680  155.2441 H   0  0  0  0  0  0  0  0  0  0  0  0  # atno 10763 bound_to 10752
  154.8755  135.3954  154.3702 H   0  0  0  0  0  0  0  0  0  0  0  0  # atno 10764 bound_to 10752
  153.4306  135.7082  153.6299 H   0  0  0  0  0  0  0  0  0  0  0  0  # atno 10765 bound_to 10752
  140.2166  134.8227  157.3177 H   0  0  0  0  0  0  0  0  0  0  0  0  # atno 11005 bound_to 11000
  145.6721  141.0214  143.1652 LP  0  0  0  0  0  0  0  0  0  0  0  0  # atno 17320 bound_to 7965
  144.7124  139.8322  143.7410 LP  0  0  0  0  0  0  0  0  0  0  0  0  # atno 17321 bound_to 7965
  140.4992  144.1194  150.5967 LP  0  0  0  0  0  0  0  0  0  0  0  0  # atno 17342 bound_to 10162
  140.4081  143.2670  151.9866 LP  0  0  0  0  0  0  0  0  0  0  0  0  # atno 17343 bound_to 10162
  155.9762  130.4078  150.3794 LP  0  0  0  0  0  0  0  0  0  0  0  0  # atno 17370 bound_to 10713
  157.1889  131.0410  151.2710 LP  0  0  0  0  0  0  0  0  0  0  0  0  # atno 17371 bound_to 10713
  140.1894  134.4391  155.7725 LP  0  0  0  0  0  0  0  0  0  0  0  0  # atno 17394 bound_to 11000
  141.2224  133.7020  156.8001 LP  0  0  0  0  0  0  0  0  0  0  0  0  # atno 17395 bound_to 11000

$$$$
