AV-unprocessed.smi:66|AV-procd|sdf|625|dock3
  -GOLD-   2262016513D 1   1.00000     0.00000
 Structure written by MMmdl.
 27 29  0  0  0  0  0  0  0  0  3 V2000
  151.8214  137.2159  155.2205 O   0  0  0  0  0  0  0  0  0  0  0  0
  151.9957  138.4139  155.5340 C   0  0  0  0  0  0  0  0  0  0  0  0
  153.0615  139.0520  155.3813 O   0  5  0  0  0  0  0  0  0  0  0  0
  150.7907  139.1549  156.1372 C   0  0  2  0  0  0  0  0  0  0  0  0
  149.6668  139.3735  155.1099 C   0  0  0  0  0  0  0  0  0  0  0  0
  149.9141  140.7926  154.6012 C   0  0  1  0  0  0  0  0  0  0  0  0
  148.7461  141.3904  154.0784 O   0  0  0  0  0  0  0  0  0  0  0  0
  150.4448  141.5159  155.8397 C   0  0  0  0  0  0  0  0  0  0  0  0
  151.1585  140.4969  156.5985 N   0  0  0  0  0  0  0  0  0  0  0  0
  151.6808  140.7259  157.8950 C   0  0  0  0  0  0  0  0  0  0  0  0
  152.2385  139.6655  158.5353 N   0  0  0  0  0  0  0  0  0  0  0  0
  152.7416  139.8548  159.7588 C   0  0  0  0  0  0  0  0  0  0  0  0
  152.7600  140.9957  160.4514 N   0  0  0  0  0  0  0  0  0  0  0  0
  152.2124  142.0626  159.8359 C   0  0  0  0  0  0  0  0  0  0  0  0
  152.0650  143.3206  160.2185 N   0  5  0  0  0  0  0  0  0  0  0  0
  151.4464  143.9795  159.2072 C   0  0  0  0  0  0  0  0  0  0  0  0
  151.1701  143.1958  158.1459 N   0  0  0  0  0  0  0  0  0  0  0  0
  151.6578  141.9862  158.5565 C   0  0  0  0  0  0  0  0  0  0  0  0
  150.3953  138.5619  156.9630 H   0  0  0  0  0  0  0  0  0  0  0  0
  149.6534  138.6352  154.3067 H   0  0  0  0  0  0  0  0  0  0  0  0
  148.7036  139.3207  155.6197 H   0  0  0  0  0  0  0  0  0  0  0  0
  150.6837  140.7758  153.8284 H   0  0  0  0  0  0  0  0  0  0  0  0
  148.1149  140.7084  153.9094 H   0  0  0  0  0  0  0  0  0  0  0  0
  151.0963  142.3407  155.5511 H   0  0  0  0  0  0  0  0  0  0  0  0
  149.6274  141.9078  156.4475 H   0  0  0  0  0  0  0  0  0  0  0  0
  153.1772  138.9915  160.2397 H   0  0  0  0  0  0  0  0  0  0  0  0
  151.2249  145.0348  159.3079 H   0  0  0  0  0  0  0  0  0  0  0  0
  1  2  2  0  0  0  0
  2  3  1  0  0  0  0
  2  4  1  0  0  0  0
  4  5  1  0  0  0  0
  4 19  1  0  0  0  0
  4  9  1  0  0  0  0
  5  6  1  0  0  0  0
  5 20  1  0  0  0  0
  5 21  1  0  0  0  0
  6  7  1  0  0  0  0
  6  8  1  0  0  0  0
  6 22  1  0  0  0  0
  7 23  1  0  0  0  0
  8 24  1  0  0  0  0
  8 25  1  0  0  0  0
  8  9  1  0  0  0  0
  9 10  1  0  0  0  0
 10 11  1  0  0  0  0
 10 18  2  0  0  0  0
 11 12  2  0  0  0  0
 12 26  1  0  0  0  0
 12 13  1  0  0  0  0
 13 14  2  0  0  0  0
 14 15  1  0  0  0  0
 14 18  1  0  0  0  0
 15 16  1  0  0  0  0
 16 17  2  0  0  0  0
 16 27  1  0  0  0  0
 17 18  1  0  0  0  0
M  CHG  1   3  -1
M  CHG  1  15  -1
M  END
> <s_m_source_file>
AV-unprocessed.smi

> <i_m_source_file_index>
66

> <i_lp_mmshare_version>
43012

> <i_f3d_flags>
0

> <s_epik_input>
Tz1DKFtPSF0pW0NAQEhdMVtDSDJdW0NAQEhdKFtPSF0pW0NIMl1OMWMobltjSF1uMiljKGMyMylbbkhdW2NIXW4z

> <s_epik_cmdline>
J2VwaWtfcHl0aG9uJywgJy1waCcsICc3LjAnLCAnLXRuJywgJzgnLCAnLW1hJywgJzIwMCcsICctbWV0YWxfYmluZGluZycsICctaW1hZScsICc8aW5maWxlLm1hZT4nLCAnLW9tYWUnLCAnPG91dGZpbGUubWFlPic=

> <r_lp_tautomer_probability>
0.955585

> <r_epik_Ionization_Penalty>
7.65809

> <r_epik_Ionization_Penalty_Charging>
3.4974

> <r_epik_Ionization_Penalty_Neutral>
4.16069

> <r_epik_State_Penalty>
3.51624

> <r_epik_Charging_Adjusted_Penalty>
7.01364

> <i_epik_Tot_Q>
-2

> <i_epik_Tot_abs_Q>
2

> <r_epik_Metal_State_Penalty>
0.522662

> <b_epik_Metal_Only>
1

> <s_lp_Force_Field>
OPLS_2005

> <r_lp_Energy>
43.8287

> <b_lp_Chiralities_Consistent>
1

> <s_lp_Variant>
AV-unprocessed.smi:66-9

> <Gold.Version>
5.8.1

> <Gold.Id.Protein>
6NUR|6NUR_protein|mol2

> <Gold.PLP.Fitness>
43.8005

> <Gold.PLP.PLP>
-29.7805

> <Gold.PLP.part.hbond>
-4.1211

> <Gold.PLP.part.metal>
0.0000

> <Gold.PLP.part.buried>
-2.4513

> <Gold.PLP.part.nonpolar>
-22.4638

> <Gold.PLP.part.repulsive>
0.1742

> <Gold.PLP.ligand.clash>
0.0000

> <Gold.PLP.ligand.torsion>
0.2196

> <Gold.PLP.Chemscore.Hbond>
4.7680

> <Gold.PLP.Chemscore.CHOScore>
0.0000

> <Gold.PLP.Chemscore.Metal>
0.0000

> <Gold.Chemscore.Hbonds>
donor molecule, donor type, donor heavy atom, donor atom, acceptor molecule, acceptor atom, score
      P1  H  7997  8010       L1     3  2.00
      P1  H  8011  8017       L1     7  0.22
      P1  H 10752 10765       L1     1  1.89

> <Gold.PLP.Chemscore.Internal.Correction>
0.1553

> <Gold.Rescore>
     Score         DG    S(hbond)    S(metal)    S(lipo)     H(rot)  DE(clash)    DE(int)     intcor
      9.66     -11.17       1.93        0.00      32.48       1.78       0.02       1.48       ----

> <Gold.Chemscore.Fitness>
9.6630

> <Gold.Chemscore.DG>
-11.1699

> <Gold.Chemscore.ZeroCoef>
-5.4800

> <Gold.Chemscore.Hbond>
1.9266

> <Gold.Chemscore.Metal>
0.0000

> <Gold.Chemscore.Lipo>
32.4808

> <Gold.Chemscore.Internal_Hbond>
0.0000

> <Gold.Chemscore.DEClash>
0.0234

> <Gold.Chemscore.DEInternal>
1.4835

> <Gold.Chemscore.Rot>
1.7754

> <Gold.Chemscore.Internal.Correction>
   9.000000E+99

> <Gold.Chemscore.Hbonds>
donor molecule, donor type, donor heavy atom, donor atom, acceptor molecule, acceptor atom, score
      P1  H  7997  8010       L1     3  1.00
      P1  H  8011  8017       L1     7  0.03
      P1  H 10752 10765       L1     1  0.85

> <Gold.Chemscore.Hbond.Weighted>
-6.4348

> <Gold.Chemscore.Metal.Weighted>
-0.0000

> <Gold.Chemscore.Lipo.Weighted>
-3.8003

> <Gold.Chemscore.Internal_Hbond.Weighted>
0.0000

> <Gold.Chemscore.DEClash.Weighted>
0.0234

> <Gold.Chemscore.DEInternal.Weighted>
1.4835

> <Gold.Chemscore.Rot.Weighted>
4.5451

> <Gold.Chemscore.Internal.Correction.Weighted>
   9.000000E+99

> <Gold.Protein.RotatedTorsions>
[ 6907 6896 6895 6894 ] final   58.56 input  -60.11 | X-H torsion
[ 7974 7965 7964 7962 ] final -123.79 input  175.53 | X-H torsion
[ 8008 7997 7996 7995 ] final   94.94 input   59.86 | X-H torsion
[ 10167 10162 10161 10158 ] final -135.91 input  -65.29 | X-H torsion
[ 10718 10713 10712 10709 ] final  -40.60 input   66.30 | X-H torsion
[ 10763 10752 10751 10750 ] final -176.19 input  -60.55 | X-H torsion
[ 11005 11000 10999 10996 ] final   -8.04 input  -57.11 | X-H torsion

> <Gold.Protein.ActiveResidues>
 VAL166  LYS551  ARG553  GLY616  TRP617  ASP618  TYR619  PRO620  LYS621  CYS622 
 ASP623  PHE694  ASN695  SER759  ASP760  ASP761  ALA762  ILE779  LEU786  VAL792 
 PHE793  MET794  SER795  GLU796  ALA797  LYS798  CYS799  TRP800  GLU811  SER814 

> <Gold.Protein.RotatedAtoms>
  152.3835  134.6553  160.0133 H   0  0  0  0  0  0  0  0  0  0  0  0  # atno 6907 bound_to 6896
  151.6809  133.3306  159.3227 H   0  0  0  0  0  0  0  0  0  0  0  0  # atno 6908 bound_to 6896
  150.7767  134.6718  159.6440 H   0  0  0  0  0  0  0  0  0  0  0  0  # atno 6909 bound_to 6896
  145.0150  140.7938  143.4416 H   0  0  0  0  0  0  0  0  0  0  0  0  # atno 7974 bound_to 7965
  156.0635  140.3293  155.7490 H   0  0  0  0  0  0  0  0  0  0  0  0  # atno 8008 bound_to 7997
  155.5418  140.0602  157.2886 H   0  0  0  0  0  0  0  0  0  0  0  0  # atno 8009 bound_to 7997
  154.4493  140.1909  156.0587 H   0  0  0  0  0  0  0  0  0  0  0  0  # atno 8010 bound_to 7997
  139.8731  143.6932  152.2637 H   0  0  0  0  0  0  0  0  0  0  0  0  # atno 10167 bound_to 10162
  156.2796  130.4215  149.8351 H   0  0  0  0  0  0  0  0  0  0  0  0  # atno 10718 bound_to 10713
  154.5753  135.2831  155.0787 H   0  0  0  0  0  0  0  0  0  0  0  0  # atno 10763 bound_to 10752
  154.2143  135.6402  153.5129 H   0  0  0  0  0  0  0  0  0  0  0  0  # atno 10764 bound_to 10752
  153.0070  135.5499  154.6390 H   0  0  0  0  0  0  0  0  0  0  0  0  # atno 10765 bound_to 10752
  140.7193  133.8842  155.8808 H   0  0  0  0  0  0  0  0  0  0  0  0  # atno 11005 bound_to 11000
  145.1972  139.2270  143.5211 LP  0  0  0  0  0  0  0  0  0  0  0  0  # atno 17320 bound_to 7965
  146.3476  140.1782  142.8589 LP  0  0  0  0  0  0  0  0  0  0  0  0  # atno 17321 bound_to 7965
  139.7265  144.7592  151.0870 LP  0  0  0  0  0  0  0  0  0  0  0  0  # atno 17342 bound_to 10162
  140.7757  143.5142  150.9616 LP  0  0  0  0  0  0  0  0  0  0  0  0  # atno 17343 bound_to 10162
  156.5803  130.8463  151.3381 LP  0  0  0  0  0  0  0  0  0  0  0  0  # atno 17370 bound_to 10713
  157.7310  130.9694  150.1859 LP  0  0  0  0  0  0  0  0  0  0  0  0  # atno 17371 bound_to 10713
  141.0018  134.1140  157.4310 LP  0  0  0  0  0  0  0  0  0  0  0  0  # atno 17394 bound_to 11000
  139.8852  135.0070  156.6420 LP  0  0  0  0  0  0  0  0  0  0  0  0  # atno 17395 bound_to 11000

$$$$
