AV-unprocessed.smi:515|AV-procd|sdf|2782|dock6
  -GOLD-   2262023253D 1   1.00000     0.00000
 Structure written by MMmdl.
 46 48  0  0  0  0  0  0  0  0  2 V2000
  147.9177  141.6370  154.1711 C   0  0  0  0  0  0  0  0  0  0  0  0
  148.5090  140.9728  155.4165 C   0  0  0  0  0  0  0  0  0  0  0  0
  147.5202  140.1505  156.0127 O   0  0  0  0  0  0  0  0  0  0  0  0
  148.0073  139.4389  157.1379 C   0  0  0  0  0  0  0  0  0  0  0  0
  149.1842  138.5595  156.6985 C   0  0  0  0  0  0  0  0  0  0  0  0
  149.9661  138.1020  157.8425 N   0  0  0  0  0  0  0  0  0  0  0  0
  149.5506  137.3033  158.8611 C   0  0  0  0  0  0  0  0  0  0  0  0
  148.1468  136.7630  158.9489 C   0  0  0  0  0  0  0  0  0  0  0  0
  147.3885  137.1956  160.1238 N   0  0  0  0  0  0  0  0  0  0  0  0
  145.9581  136.9828  159.9369 C   0  0  0  0  0  0  0  0  0  0  0  0
  145.1474  137.4384  161.1627 C   0  0  0  0  0  0  0  0  0  0  0  0
  145.6140  136.7581  162.3237 O   0  0  0  0  0  0  0  0  0  0  0  0
  147.0011  136.9709  162.5664 C   0  0  0  0  0  0  0  0  0  0  0  0
  147.8138  136.5114  161.3441 C   0  0  0  0  0  0  0  0  0  0  0  0
  150.4875  137.0800  159.7895 N   0  0  0  0  0  0  0  0  0  0  0  0
  151.5853  137.7798  159.3144 C   0  0  0  0  0  0  0  0  0  0  0  0
  151.2943  138.4116  158.1476 C   0  0  0  0  0  0  0  0  0  0  0  0
  152.2537  139.2625  157.4100 C   0  0  0  0  0  0  0  0  0  0  0  0
  151.9279  139.8325  156.3705 O   0  0  0  0  0  0  0  0  0  0  0  0
  153.4763  139.3168  158.0276 N   0  5  0  0  0  0  0  0  0  0  0  0
  153.8177  138.6862  159.2052 C   0  0  0  0  0  0  0  0  0  0  0  0
  154.9443  138.7863  159.6933 O   0  0  0  0  0  0  0  0  0  0  0  0
  152.8888  137.9229  159.8630 N   0  0  0  0  0  0  0  0  0  0  0  0
  153.2213  137.2442  161.1187 C   0  0  0  0  0  0  0  0  0  0  0  0
  148.6543  142.2754  153.6830 H   0  0  0  0  0  0  0  0  0  0  0  0
  147.0573  142.2548  154.4290 H   0  0  0  0  0  0  0  0  0  0  0  0
  147.5901  140.8901  153.4474 H   0  0  0  0  0  0  0  0  0  0  0  0
  149.3800  140.3757  155.1419 H   0  0  0  0  0  0  0  0  0  0  0  0
  148.8402  141.7356  156.1228 H   0  0  0  0  0  0  0  0  0  0  0  0
  148.3274  140.1363  157.9134 H   0  0  0  0  0  0  0  0  0  0  0  0
  147.2132  138.8198  157.5582 H   0  0  0  0  0  0  0  0  0  0  0  0
  148.8199  137.7049  156.1321 H   0  0  0  0  0  0  0  0  0  0  0  0
  149.8334  139.0989  156.0103 H   0  0  0  0  0  0  0  0  0  0  0  0
  147.6277  137.0802  158.0437 H   0  0  0  0  0  0  0  0  0  0  0  0
  148.1704  135.6742  158.9278 H   0  0  0  0  0  0  0  0  0  0  0  0
  145.6149  137.5266  159.0562 H   0  0  0  0  0  0  0  0  0  0  0  0
  145.7625  135.9263  159.7470 H   0  0  0  0  0  0  0  0  0  0  0  0
  145.2355  138.5166  161.3051 H   0  0  0  0  0  0  0  0  0  0  0  0
  144.0890  137.2193  161.0208 H   0  0  0  0  0  0  0  0  0  0  0  0
  147.1838  138.0258  162.7764 H   0  0  0  0  0  0  0  0  0  0  0  0
  147.2989  136.4110  163.4528 H   0  0  0  0  0  0  0  0  0  0  0  0
  147.7007  135.4332  161.2222 H   0  0  0  0  0  0  0  0  0  0  0  0
  148.8715  136.6911  161.5344 H   0  0  0  0  0  0  0  0  0  0  0  0
  154.0295  136.5284  160.9623 H   0  0  0  0  0  0  0  0  0  0  0  0
  152.3769  136.6968  161.5373 H   0  0  0  0  0  0  0  0  0  0  0  0
  153.5444  137.9661  161.8702 H   0  0  0  0  0  0  0  0  0  0  0  0
  1  2  1  0  0  0  0
  1 25  1  0  0  0  0
  1 26  1  0  0  0  0
  1 27  1  0  0  0  0
  2  3  1  0  0  0  0
  2 28  1  0  0  0  0
  2 29  1  0  0  0  0
  3  4  1  0  0  0  0
  4  5  1  0  0  0  0
  4 30  1  0  0  0  0
  4 31  1  0  0  0  0
  5  6  1  0  0  0  0
  5 32  1  0  0  0  0
  5 33  1  0  0  0  0
  6 17  1  0  0  0  0
  6  7  1  0  0  0  0
  7  8  1  0  0  0  0
  7 15  2  0  0  0  0
  8  9  1  0  0  0  0
  8 34  1  0  0  0  0
  8 35  1  0  0  0  0
  9 14  1  0  0  0  0
  9 10  1  0  0  0  0
 10 11  1  0  0  0  0
 10 36  1  0  0  0  0
 10 37  1  0  0  0  0
 11 12  1  0  0  0  0
 11 38  1  0  0  0  0
 11 39  1  0  0  0  0
 12 13  1  0  0  0  0
 13 14  1  0  0  0  0
 13 40  1  0  0  0  0
 13 41  1  0  0  0  0
 14 42  1  0  0  0  0
 14 43  1  0  0  0  0
 15 16  1  0  0  0  0
 16 23  1  0  0  0  0
 16 17  2  0  0  0  0
 17 18  1  0  0  0  0
 18 19  2  0  0  0  0
 18 20  1  0  0  0  0
 20 21  1  0  0  0  0
 21 22  2  0  0  0  0
 21 23  1  0  0  0  0
 23 24  1  0  0  0  0
 24 44  1  0  0  0  0
 24 45  1  0  0  0  0
 24 46  1  0  0  0  0
M  CHG  1  20  -1
M  END
> <s_m_source_file>
AV-unprocessed.smi

> <i_m_source_file_index>
515

> <i_lp_mmshare_version>
43012

> <i_f3d_flags>
0

> <s_epik_input>
W0NIM11uMWMoPU8pW25IXWMoPU8pYyhjMTIpbihbQ0gyXVtDSDJdT1tDSDJdW0NIM10pYyhuMilbQ0gyXU4zW0NIMl1bQ0gyXU9bQ0gyXVtDSDJdMw==

> <s_epik_cmdline>
J2VwaWtfcHl0aG9uJywgJy1waCcsICc3LjAnLCAnLXRuJywgJzgnLCAnLW1hJywgJzIwMCcsICctbWV0YWxfYmluZGluZycsICctaW1hZScsICc8aW5maWxlLm1hZT4nLCAnLW9tYWUnLCAnPG91dGZpbGUubWFlPic=

> <r_epik_Ionization_Penalty>
4.8833

> <r_epik_Ionization_Penalty_Charging>
0.035962

> <r_epik_Ionization_Penalty_Neutral>
4.84734

> <r_epik_State_Penalty>
4.83718

> <r_epik_Charging_Adjusted_Penalty>
4.87314

> <i_epik_Tot_Q>
-1

> <i_epik_Tot_abs_Q>
1

> <r_epik_Metal_State_Penalty>
1.06056

> <b_epik_Metal_Only>
1

> <s_lp_Force_Field>
OPLS_2005

> <r_lp_Energy>
45.1348

> <b_lp_Chiralities_Consistent>
1

> <s_lp_Variant>
AV-unprocessed.smi:515-3

> <Gold.Version>
5.8.1

> <Gold.Id.Protein>
6NUR|6NUR_protein|mol2

> <Gold.PLP.Fitness>
41.9837

> <Gold.PLP.PLP>
-31.7982

> <Gold.PLP.part.hbond>
-3.4032

> <Gold.PLP.part.metal>
0.0000

> <Gold.PLP.part.buried>
-4.8137

> <Gold.PLP.part.nonpolar>
-23.8929

> <Gold.PLP.part.repulsive>
0.0126

> <Gold.PLP.ligand.clash>
0.0000

> <Gold.PLP.ligand.torsion>
0.2126

> <Gold.PLP.Chemscore.Hbond>
3.5230

> <Gold.PLP.Chemscore.CHOScore>
0.0000

> <Gold.PLP.Chemscore.Metal>
0.0000

> <Gold.Chemscore.Hbonds>
donor molecule, donor type, donor heavy atom, donor atom, acceptor molecule, acceptor atom, score
      P1  H  6896  6907       L1    15  0.81
      P1  H  6934  6947       L1     9  0.68
      P1  H  7997  8008       L1    20  2.00

> <Gold.PLP.Chemscore.Internal.Correction>
0.0418

> <Gold.Rescore>
     Score         DG    S(hbond)    S(metal)    S(lipo)     H(rot)  DE(clash)    DE(int)     intcor
     10.91     -11.05       1.57        0.00      48.64       2.10       0.00       0.15       ----

> <Gold.Chemscore.Fitness>
10.9076

> <Gold.Chemscore.DG>
-11.0535

> <Gold.Chemscore.ZeroCoef>
-5.4800

> <Gold.Chemscore.Hbond>
1.5739

> <Gold.Chemscore.Metal>
0.0000

> <Gold.Chemscore.Lipo>
48.6362

> <Gold.Chemscore.Internal_Hbond>
0.0000

> <Gold.Chemscore.DEClash>
0.0000

> <Gold.Chemscore.DEInternal>
0.1459

> <Gold.Chemscore.Rot>
2.0991

> <Gold.Chemscore.Internal.Correction>
   9.000000E+99

> <Gold.Chemscore.Hbonds>
donor molecule, donor type, donor heavy atom, donor atom, acceptor molecule, acceptor atom, score
      P1  H  6896  6907       L1    15  0.19
      P1  H  6934  6947       L1     9  0.02
      P1  H  7997  8008       L1    20  0.89

> <Gold.Chemscore.Hbond.Weighted>
-5.2568

> <Gold.Chemscore.Metal.Weighted>
-0.0000

> <Gold.Chemscore.Lipo.Weighted>
-5.6904

> <Gold.Chemscore.Internal_Hbond.Weighted>
0.0000

> <Gold.Chemscore.DEClash.Weighted>
0.0000

> <Gold.Chemscore.DEInternal.Weighted>
0.1459

> <Gold.Chemscore.Rot.Weighted>
5.3737

> <Gold.Chemscore.Internal.Correction.Weighted>
   9.000000E+99

> <Gold.Protein.RotatedTorsions>
[ 6907 6896 6895 6894 ] final  -13.25 input  -60.11 | X-H torsion
[ 7974 7965 7964 7962 ] final  -17.71 input  175.53 | X-H torsion
[ 8008 7997 7996 7995 ] final  -95.49 input   59.86 | X-H torsion
[ 10167 10162 10161 10158 ] final  -87.45 input  -65.29 | X-H torsion
[ 10718 10713 10712 10709 ] final  112.78 input   66.30 | X-H torsion
[ 10763 10752 10751 10750 ] final -112.29 input  -60.55 | X-H torsion
[ 11005 11000 10999 10996 ] final  168.35 input  -57.11 | X-H torsion

> <Gold.Protein.ActiveResidues>
 VAL166  LYS551  ARG553  GLY616  TRP617  ASP618  TYR619  PRO620  LYS621  CYS622 
 ASP623  PHE694  ASN695  SER759  ASP760  ASP761  ALA762  ILE779  LEU786  VAL792 
 PHE793  MET794  SER795  GLU796  ALA797  LYS798  CYS799  TRP800  GLU811  SER814 

> <Gold.Protein.RotatedAtoms>
  151.3579  135.0898  159.9424 H   0  0  0  0  0  0  0  0  0  0  0  0  # atno 6907 bound_to 6896
  152.5170  133.9288  159.7580 H   0  0  0  0  0  0  0  0  0  0  0  0  # atno 6908 bound_to 6896
  150.9676  133.6324  159.2773 H   0  0  0  0  0  0  0  0  0  0  0  0  # atno 6909 bound_to 6896
  146.1928  140.3817  142.8452 H   0  0  0  0  0  0  0  0  0  0  0  0  # atno 7974 bound_to 7965
  154.7621  140.0479  157.0981 H   0  0  0  0  0  0  0  0  0  0  0  0  # atno 8008 bound_to 7997
  154.9925  140.3115  155.4881 H   0  0  0  0  0  0  0  0  0  0  0  0  # atno 8009 bound_to 7997
  156.2906  140.2216  156.5031 H   0  0  0  0  0  0  0  0  0  0  0  0  # atno 8010 bound_to 7997
  140.3843  143.2734  151.9345 H   0  0  0  0  0  0  0  0  0  0  0  0  # atno 10167 bound_to 10162
  157.6374  131.0973  150.6945 H   0  0  0  0  0  0  0  0  0  0  0  0  # atno 10718 bound_to 10713
  154.8342  135.4496  154.1171 H   0  0  0  0  0  0  0  0  0  0  0  0  # atno 10763 bound_to 10752
  153.2417  135.6917  153.7782 H   0  0  0  0  0  0  0  0  0  0  0  0  # atno 10764 bound_to 10752
  153.7127  135.3354  155.3225 H   0  0  0  0  0  0  0  0  0  0  0  0  # atno 10765 bound_to 10752
  140.2863  134.7710  157.3801 H   0  0  0  0  0  0  0  0  0  0  0  0  # atno 11005 bound_to 11000
  144.8520  140.7015  143.6162 LP  0  0  0  0  0  0  0  0  0  0  0  0  # atno 17320 bound_to 7965
  145.3739  139.1652  143.4317 LP  0  0  0  0  0  0  0  0  0  0  0  0  # atno 17321 bound_to 7965
  139.4793  144.5789  151.7966 LP  0  0  0  0  0  0  0  0  0  0  0  0  # atno 17342 bound_to 10162
  140.4906  144.1316  150.5949 LP  0  0  0  0  0  0  0  0  0  0  0  0  # atno 17343 bound_to 10162
  156.7274  130.4699  149.5508 LP  0  0  0  0  0  0  0  0  0  0  0  0  # atno 17370 bound_to 10713
  156.1625  130.6383  151.0736 LP  0  0  0  0  0  0  0  0  0  0  0  0  # atno 17371 bound_to 10713
  140.1237  134.5186  155.8162 LP  0  0  0  0  0  0  0  0  0  0  0  0  # atno 17394 bound_to 11000
  141.2154  133.6765  156.6912 LP  0  0  0  0  0  0  0  0  0  0  0  0  # atno 17395 bound_to 11000

$$$$
