AV-unprocessed.smi:1867|AV-procd|sdf|7560|dock4
  -GOLD-   22720 9273D 1   1.00000     0.00000
 Structure written by MMmdl.
 52 55  0  0  0  0  0  0  0  0  2 V2000
  147.2298  136.1582  155.7948 O   0  0  0  0  0  0  0  0  0  0  0  0
  147.8329  136.1285  154.7246 C   0  0  0  0  0  0  0  0  0  0  0  0
  148.7834  137.0088  154.3543 N   0  0  0  0  0  0  0  0  0  0  0  0
  149.3460  138.0714  155.1106 C   0  0  0  0  0  0  0  0  0  0  0  0
  149.3319  138.1369  156.5228 C   0  0  0  0  0  0  0  0  0  0  0  0
  149.9462  139.2311  157.1613 C   0  0  0  0  0  0  0  0  0  0  0  0
  150.5679  140.2301  156.3749 C   0  0  0  0  0  0  0  0  0  0  0  0
  151.1883  141.3455  156.9723 N   0  0  0  0  0  0  0  0  0  0  0  0
  150.9730  142.7028  156.4979 C   0  0  0  0  0  0  0  0  0  0  0  0
  151.7212  143.5875  157.4949 C   0  0  0  0  0  0  0  0  0  0  0  0
  151.6213  142.8028  158.8030 C   0  0  0  0  0  0  0  0  0  0  0  0
  151.6390  141.3365  158.3581 C   0  0  0  0  0  0  0  0  0  0  0  0
  150.5861  140.1604  155.0224 N   0  0  0  0  0  0  0  0  0  0  0  0
  149.9981  139.1087  154.4152 C   0  0  0  0  0  0  0  0  0  0  0  0
  147.5457  135.2024  153.7929 N   0  0  0  0  0  0  0  0  0  0  0  0
  146.5722  134.1134  153.8761 C   0  0  2  0  0  0  0  0  0  0  0  0
  146.8445  133.1108  155.0148 C   0  0  0  0  0  0  0  0  0  0  0  0
  146.5038  131.7249  154.4310 C   0  0  0  0  0  0  0  0  0  0  0  0
  145.9688  131.9909  153.0820 N   0  3  2  0  0  0  0  0  0  0  0  0
  146.0628  130.8988  152.0888 C   0  0  0  0  0  0  0  0  0  0  0  0
  145.3795  131.3435  150.7796 C   0  0  0  0  0  0  0  0  0  0  0  0
  145.9365  132.6894  150.2707 C   0  0  0  0  0  0  0  0  0  0  0  0
  145.9012  133.7611  151.3777 C   0  0  0  0  0  0  0  0  0  0  0  0
  146.6183  133.2301  152.6296 C   0  0  1  0  0  0  0  0  0  0  0  0
  149.1148  136.9320  153.4041 H   0  0  0  0  0  0  0  0  0  0  0  0
  148.8787  137.3673  157.1281 H   0  0  0  0  0  0  0  0  0  0  0  0
  149.9327  139.2834  158.2394 H   0  0  0  0  0  0  0  0  0  0  0  0
  151.3467  142.8407  155.4828 H   0  0  0  0  0  0  0  0  0  0  0  0
  149.9055  142.9262  156.5096 H   0  0  0  0  0  0  0  0  0  0  0  0
  152.7674  143.6752  157.1986 H   0  0  0  0  0  0  0  0  0  0  0  0
  151.3044  144.5925  157.5659 H   0  0  0  0  0  0  0  0  0  0  0  0
  152.4198  143.0417  159.5059 H   0  0  0  0  0  0  0  0  0  0  0  0
  150.6699  143.0250  159.2882 H   0  0  0  0  0  0  0  0  0  0  0  0
  151.0039  140.7259  159.0010 H   0  0  0  0  0  0  0  0  0  0  0  0
  152.6518  140.9339  158.3940 H   0  0  0  0  0  0  0  0  0  0  0  0
  150.0473  139.0993  153.3361 H   0  0  0  0  0  0  0  0  0  0  0  0
  148.0251  135.2975  152.9090 H   0  0  0  0  0  0  0  0  0  0  0  0
  145.5622  134.5157  153.9797 H   0  0  0  0  0  0  0  0  0  0  0  0
  147.8908  133.1336  155.3241 H   0  0  0  0  0  0  0  0  0  0  0  0
  146.2394  133.3406  155.8927 H   0  0  0  0  0  0  0  0  0  0  0  0
  147.4065  131.1155  154.3637 H   0  0  0  0  0  0  0  0  0  0  0  0
  145.7750  131.1854  155.0365 H   0  0  0  0  0  0  0  0  0  0  0  0
  147.1093  130.6489  151.9079 H   0  0  0  0  0  0  0  0  0  0  0  0
  145.5791  130.0036  152.4810 H   0  0  0  0  0  0  0  0  0  0  0  0
  145.4999  130.5755  150.0152 H   0  0  0  0  0  0  0  0  0  0  0  0
  144.3063  131.4411  150.9495 H   0  0  0  0  0  0  0  0  0  0  0  0
  146.9643  132.5509  149.9328 H   0  0  0  0  0  0  0  0  0  0  0  0
  145.3690  133.0265  149.4027 H   0  0  0  0  0  0  0  0  0  0  0  0
  146.3774  134.6778  151.0284 H   0  0  0  0  0  0  0  0  0  0  0  0
  144.8670  134.0152  151.6146 H   0  0  0  0  0  0  0  0  0  0  0  0
  147.6597  133.0065  152.3855 H   0  0  0  0  0  0  0  0  0  0  0  0
  144.9892  132.2077  153.1986 H   0  0  0  0  0  0  0  0  0  0  0  0
  1  2  2  0  0  0  0
  2  3  1  0  0  0  0
  2 15  1  0  0  0  0
  3  4  1  0  0  0  0
  3 25  1  0  0  0  0
  4 14  1  0  0  0  0
  4  5  2  0  0  0  0
  5  6  1  0  0  0  0
  5 26  1  0  0  0  0
  6  7  2  0  0  0  0
  6 27  1  0  0  0  0
  7  8  1  0  0  0  0
  7 13  1  0  0  0  0
  8 12  1  0  0  0  0
  8  9  1  0  0  0  0
  9 10  1  0  0  0  0
  9 28  1  0  0  0  0
  9 29  1  0  0  0  0
 10 11  1  0  0  0  0
 10 30  1  0  0  0  0
 10 31  1  0  0  0  0
 11 12  1  0  0  0  0
 11 32  1  0  0  0  0
 11 33  1  0  0  0  0
 12 34  1  0  0  0  0
 12 35  1  0  0  0  0
 13 14  2  0  0  0  0
 14 36  1  0  0  0  0
 15 16  1  0  0  0  0
 15 37  1  0  0  0  0
 16 24  1  0  0  0  0
 16 17  1  0  0  0  0
 16 38  1  0  0  0  0
 17 18  1  0  0  0  0
 17 39  1  0  0  0  0
 17 40  1  0  0  0  0
 18 19  1  0  0  0  0
 18 41  1  0  0  0  0
 18 42  1  0  0  0  0
 19 24  1  0  0  0  0
 19 20  1  0  0  0  0
 19 52  1  0  0  0  0
 20 21  1  0  0  0  0
 20 43  1  0  0  0  0
 20 44  1  0  0  0  0
 21 22  1  0  0  0  0
 21 45  1  0  0  0  0
 21 46  1  0  0  0  0
 22 23  1  0  0  0  0
 22 47  1  0  0  0  0
 22 48  1  0  0  0  0
 23 24  1  0  0  0  0
 23 49  1  0  0  0  0
 23 50  1  0  0  0  0
 24 51  1  0  0  0  0
M  CHG  1  19   1
M  END
> <s_m_source_file>
AV-unprocessed.smi

> <i_m_source_file_index>
1867

> <i_lp_mmshare_version>
43012

> <i_f3d_flags>
0

> <s_epik_input>
W0NIMl0xW0NIMl1bQ0gyXVtDSDJdW0NASF0oTjEyKVtDQEBIXShbQ0gyXVtDSDJdMilbTkhdQyg9TylbTkhdYzNbY0hdW2NIXWMobltjSF0zKU40W0NIMl1bQ0gyXVtDSDJdW0NIMl00

> <s_epik_cmdline>
J2VwaWtfcHl0aG9uJywgJy1waCcsICc3LjAnLCAnLXRuJywgJzgnLCAnLW1hJywgJzIwMCcsICctbWV0YWxfYmluZGluZycsICctaW1hZScsICc8aW5maWxlLm1hZT4nLCAnLW9tYWUnLCAnPG91dGZpbGUubWFlPic=

> <r_lp_tautomer_probability>
1

> <r_epik_Ionization_Penalty>
0.0751123

> <r_epik_Ionization_Penalty_Charging>
0.000974069

> <r_epik_Ionization_Penalty_Neutral>
0.0741382

> <r_epik_State_Penalty>
0.0647261

> <r_epik_Charging_Adjusted_Penalty>
0.0657002

> <i_epik_Tot_Q>
1

> <i_epik_Tot_abs_Q>
1

> <r_epik_Metal_State_Penalty>
0.0580571

> <b_epik_Metal_Only>
0

> <s_lp_Force_Field>
OPLS_2005

> <r_lp_Energy>
71.0604

> <b_lp_Chiralities_Consistent>
1

> <s_lp_Variant>
AV-unprocessed.smi:1867-1

> <Gold.Version>
5.8.1

> <Gold.Id.Protein>
6NUR|6NUR_protein|mol2

> <Gold.PLP.Fitness>
43.8577

> <Gold.PLP.PLP>
-32.8830

> <Gold.PLP.part.hbond>
-3.0000

> <Gold.PLP.part.metal>
0.0000

> <Gold.PLP.part.buried>
-3.9583

> <Gold.PLP.part.nonpolar>
-25.7471

> <Gold.PLP.part.repulsive>
0.0898

> <Gold.PLP.ligand.clash>
0.0000

> <Gold.PLP.ligand.torsion>
0.5899

> <Gold.PLP.Chemscore.Hbond>
3.0000

> <Gold.PLP.Chemscore.CHOScore>
1.0000

> <Gold.PLP.Chemscore.Metal>
0.0000

> <Gold.Chemscore.Hbonds>
donor molecule, donor type, donor heavy atom, donor atom, acceptor molecule, acceptor atom, score
      L1  H     3    25       P1  7948  0.99
      L1  H    15    37       P1  7948  1.00
      P1  H  7989  7998       L1    13  1.00
      L1  C    14    36       P1  7957  1.00

> <Gold.PLP.Chemscore.Internal.Correction>
0.1545

> <Gold.Rescore>
     Score         DG    S(hbond)    S(metal)    S(lipo)     H(rot)  DE(clash)    DE(int)     intcor
     19.68     -21.59       2.20        0.00      96.81       1.00       0.25       1.67       ----

> <Gold.Chemscore.Fitness>
19.6752

> <Gold.Chemscore.DG>
-21.5913

> <Gold.Chemscore.ZeroCoef>
-5.4800

> <Gold.Chemscore.Hbond>
2.1989

> <Gold.Chemscore.Metal>
0.0000

> <Gold.Chemscore.Lipo>
96.8117

> <Gold.Chemscore.Internal_Hbond>
0.0000

> <Gold.Chemscore.DEClash>
0.2498

> <Gold.Chemscore.DEInternal>
1.6663

> <Gold.Chemscore.Rot>
1.0000

> <Gold.Chemscore.Internal.Correction>
   9.000000E+99

> <Gold.Chemscore.Hbonds>
donor molecule, donor type, donor heavy atom, donor atom, acceptor molecule, acceptor atom, score
      L1  H     3    25       P1  7948  0.94
      L1  H    15    37       P1  7948  0.95
      P1  H  7989  7998       L1    13  0.25

> <Gold.Chemscore.Hbond.Weighted>
-7.3443

> <Gold.Chemscore.Metal.Weighted>
-0.0000

> <Gold.Chemscore.Lipo.Weighted>
-11.3270

> <Gold.Chemscore.Internal_Hbond.Weighted>
0.0000

> <Gold.Chemscore.DEClash.Weighted>
0.2498

> <Gold.Chemscore.DEInternal.Weighted>
1.6663

> <Gold.Chemscore.Rot.Weighted>
2.5600

> <Gold.Chemscore.Internal.Correction.Weighted>
   9.000000E+99

> <Gold.Protein.RotatedTorsions>
[ 6907 6896 6895 6894 ] final  132.29 input  -60.11 | X-H torsion
[ 7974 7965 7964 7962 ] final  -92.17 input  175.53 | X-H torsion
[ 8008 7997 7996 7995 ] final  -88.65 input   59.86 | X-H torsion
[ 10167 10162 10161 10158 ] final   12.54 input  -65.29 | X-H torsion
[ 10718 10713 10712 10709 ] final  -39.45 input   66.30 | X-H torsion
[ 10763 10752 10751 10750 ] final   98.98 input  -60.55 | X-H torsion
[ 11005 11000 10999 10996 ] final   77.42 input  -57.11 | X-H torsion

> <Gold.Protein.ActiveResidues>
 VAL166  LYS551  ARG553  GLY616  TRP617  ASP618  TYR619  PRO620  LYS621  CYS622 
 ASP623  PHE694  ASN695  SER759  ASP760  ASP761  ALA762  ILE779  LEU786  VAL792 
 PHE793  MET794  SER795  GLU796  ALA797  LYS798  CYS799  TRP800  GLU811  SER814 

> <Gold.Protein.RotatedAtoms>
  152.3339  133.5989  159.5828 H   0  0  0  0  0  0  0  0  0  0  0  0  # atno 6907 bound_to 6896
  150.7439  133.9826  159.3590 H   0  0  0  0  0  0  0  0  0  0  0  0  # atno 6908 bound_to 6896
  151.7698  135.0790  160.0409 H   0  0  0  0  0  0  0  0  0  0  0  0  # atno 6909 bound_to 6896
  145.4033  140.9539  143.2275 H   0  0  0  0  0  0  0  0  0  0  0  0  # atno 7974 bound_to 7965
  154.6773  140.0551  157.0229 H   0  0  0  0  0  0  0  0  0  0  0  0  # atno 8008 bound_to 7997
  155.1002  140.3228  155.4530 H   0  0  0  0  0  0  0  0  0  0  0  0  # atno 8009 bound_to 7997
  156.2681  140.2032  156.6128 H   0  0  0  0  0  0  0  0  0  0  0  0  # atno 8010 bound_to 7997
  140.6061  143.8505  150.7015 H   0  0  0  0  0  0  0  0  0  0  0  0  # atno 10167 bound_to 10162
  156.2924  130.4230  149.8225 H   0  0  0  0  0  0  0  0  0  0  0  0  # atno 10718 bound_to 10713
  153.2957  135.4129  155.1207 H   0  0  0  0  0  0  0  0  0  0  0  0  # atno 10763 bound_to 10752
  154.8534  135.3529  154.5920 H   0  0  0  0  0  0  0  0  0  0  0  0  # atno 10764 bound_to 10752
  153.6344  135.7059  153.5322 H   0  0  0  0  0  0  0  0  0  0  0  0  # atno 10765 bound_to 10752
  139.9255  134.7681  156.1519 H   0  0  0  0  0  0  0  0  0  0  0  0  # atno 11005 bound_to 11000
  144.8359  139.5551  143.6922 LP  0  0  0  0  0  0  0  0  0  0  0  0  # atno 17320 bound_to 7965
  146.2741  139.6708  142.9275 LP  0  0  0  0  0  0  0  0  0  0  0  0  # atno 17321 bound_to 7965
  140.2062  143.3919  152.1753 LP  0  0  0  0  0  0  0  0  0  0  0  0  # atno 17342 bound_to 10162
  139.5326  144.7175  151.5003 LP  0  0  0  0  0  0  0  0  0  0  0  0  # atno 17343 bound_to 10162
  156.5634  130.8393  151.3335 LP  0  0  0  0  0  0  0  0  0  0  0  0  # atno 17370 bound_to 10713
  157.7346  130.9748  150.2037 LP  0  0  0  0  0  0  0  0  0  0  0  0  # atno 17371 bound_to 10713
  141.0810  133.6754  156.2335 LP  0  0  0  0  0  0  0  0  0  0  0  0  # atno 17394 bound_to 11000
  140.6348  134.5227  157.5563 LP  0  0  0  0  0  0  0  0  0  0  0  0  # atno 17395 bound_to 11000

$$$$
