#       Name:                AV-unprocessed.smi:809
#       Creating user name   scv26
#       Creation time:       Fri Mar 27 01:24:23 2020


#       File generated by GOLD software.
#

@<TRIPOS>MOLECULE
AV-unprocessed.smi:809
    45    46     1
SMALL
NO_CHARGES


@<TRIPOS>ATOM
      1 ****        -5.0244   4.4314   1.2574 C.3            1 S1                 0.0000
      2 ****        -4.8547   2.9581   1.4569 C.2            1 S1                 0.0000
      3 ****        -5.8504   2.0263   1.6220 C.2            1 S1                 0.0000
      4 ****        -5.2128   0.4157   1.8190 S.3            1 S1                 0.0000
      5 ****        -3.5940   1.0808   1.6686 C.2            1 S1                 0.0000
      6 ****        -2.4374   0.2604   1.7302 N.am           1 S1                 0.0000
      7 ****        -1.1487   0.6341   1.6490 C.2            1 S1                 0.0000
      8 ****        -0.7491   1.7932   1.5372 O.2            1 S1                 0.0000
      9 ****        -0.3331  -0.4284   1.7035 N.am           1 S1                 0.0000
     10 ****         1.1240  -0.3773   1.6111 C.3            1 S1                 0.0000
     11 ****         1.6593  -0.4745   0.1581 C.3            1 S1                 0.0000
     12 ****         1.5325   0.8120  -0.4209 O.3            1 S1                 0.0000
     13 ****         3.1653  -0.8193   0.1780 C.3            1 S1                 0.0000
     14 ****         3.7485  -1.0360  -1.2302 C.3            1 S1                 0.0000
     15 ****         2.9866  -2.0725  -1.9670 N.4            1 S1                 1.0000
     16 ****         3.6004  -2.4011  -3.2716 C.3            1 S1                 0.0000
     17 ****         1.5524  -1.7168  -2.0906 C.3            1 S1                 0.0000
     18 ****         0.9063  -1.5132  -0.7076 C.3            1 S1                 0.0000
     19 ****        -3.5709   2.4058   1.4843 N.2            1 S1                 0.0000
     20 ****        -6.0555   4.7411   1.4292 H              1 S1                 0.0000
     21 ****        -4.7569   4.7226   0.2415 H              1 S1                 0.0000
     22 ****        -4.3927   4.9981   1.9418 H              1 S1                 0.0000
     23 ****        -6.9178   2.1891   1.6381 H              1 S1                 0.0000
     24 ****        -2.6134  -0.7277   1.8367 H              1 S1                 0.0000
     25 ****        -0.7500  -1.3420   1.8053 H              1 S1                 0.0000
     26 ****         1.5193   0.5038   2.1205 H              1 S1                 0.0000
     27 ****         1.4836  -1.2328   2.1836 H              1 S1                 0.0000
     28 ****         1.8634   0.7870  -1.3052 H              1 S1                 0.0000
     29 ****         3.7266  -0.0387   0.6940 H              1 S1                 0.0000
     30 ****         3.3191  -1.7313   0.7566 H              1 S1                 0.0000
     31 ****         3.7413  -0.1025  -1.7954 H              1 S1                 0.0000
     32 ****         4.7916  -1.3430  -1.1450 H              1 S1                 0.0000
     33 ****         3.5922  -1.5372  -3.9376 H              1 S1                 0.0000
     34 ****         3.0603  -3.2139  -3.7581 H              1 S1                 0.0000
     35 ****         4.6342  -2.7222  -3.1406 H              1 S1                 0.0000
     36 ****         1.4496  -0.8135  -2.6942 H              1 S1                 0.0000
     37 ****         1.0248  -2.5101  -2.6213 H              1 S1                 0.0000
     38 ****         0.8869  -2.4698  -0.1834 H              1 S1                 0.0000
     39 ****        -0.1353  -1.2194  -0.8437 H              1 S1                 0.0000
     40 ****         3.0296  -2.9145  -1.4104 H              1 S1                 0.0000
     41 ****        -1.4053   2.5469   1.5002 LP             1 S1                 0.0000
     42 ****         0.2316   1.9809   1.4834 LP             1 S1                 0.0000
     43 ****         2.0577   1.4734   0.1146 LP             1 S1                 0.0000
     44 ****         0.5694   1.0811  -0.4312 LP             1 S1                 0.0000
     45 ****        -2.7319   2.9395   1.3784 LP             1 S1                 0.0000
@<TRIPOS>BOND
    1    1    2 1     
    2    1   20 1     
    3    1   21 1     
    4    1   22 1     
    5    2   19 1     
    6    2    3 2     
    7    3    4 1     
    8    3   23 1     
    9    4    5 1     
   10    5    6 1     
   11    5   19 2     
   12    6    7 am    
   13    6   24 1     
   14    7    8 2     
   15    7    9 am    
   16    9   10 1     
   17    9   25 1     
   18   10   11 1     
   19   10   26 1     
   20   10   27 1     
   21   11   18 1     
   22   11   12 1     
   23   11   13 1     
   24   12   28 1     
   25   13   14 1     
   26   13   29 1     
   27   13   30 1     
   28   14   15 1     
   29   14   31 1     
   30   14   32 1     
   31   15   16 1     
   32   15   17 1     
   33   15   40 1     
   34   16   33 1     
   35   16   34 1     
   36   16   35 1     
   37   17   18 1     
   38   17   36 1     
   39   17   37 1     
   40   18   38 1     
   41   18   39 1     
   42    8   41 1     
   43    8   42 1     
   44   12   43 1     
   45   12   44 1     
   46   19   45 1     
@<TRIPOS>SUBSTRUCTURE
      1 S1             1
@<TRIPOS>SET
LONE_PAIRS      STATIC     ATOMS    <user>   **** ""
5 41 42 43 44 45
DONOR_HYDROGENS      STATIC     ATOMS    <user>   **** ""
4 24 25 28 40
ATOM$BLUE        STATIC     ATOMS    COLORGROUP SYSTEM
5 41 42 43 44 45
ATOM$RED        STATIC     ATOMS    COLORGROUP SYSTEM
4 24 25 28 40
