AV-unprocessed.smi:2457|AV-procd|sdf|9706|dock5
  -GOLD-   2272013343D 1   1.00000     0.00000
 Structure written by MMmdl.
 40 41  0  0  0  0  0  0  0  0  1 V2000
  145.6054  136.3458  153.0733 C   0  0  0  0  0  0  0  0  0  0  0  0
  146.0741  137.7166  152.6997 C   0  0  0  0  0  0  0  0  0  0  0  0
  146.2274  138.2208  151.4324 C   0  0  0  0  0  0  0  0  0  0  0  0
  146.8012  139.8655  151.4530 S   0  0  0  0  0  0  0  0  0  0  0  0
  146.8148  139.8070  153.2127 C   0  0  0  0  0  0  0  0  0  0  0  0
  147.2175  140.9704  154.0675 C   0  0  2  0  0  0  0  0  0  0  0  0
  146.2590  142.1600  153.9160 C   0  0  0  0  0  0  0  0  0  0  0  0
  148.7013  141.3671  153.8954 C   0  0  0  0  0  0  0  0  0  0  0  0
  149.2080  142.1736  155.0027 N   0  0  0  0  0  0  0  0  0  0  0  0
  150.2460  141.8419  155.7820 C   0  0  0  0  0  0  0  0  0  0  0  0
  150.8745  140.7883  155.6814 O   0  0  0  0  0  0  0  0  0  0  0  0
  150.5310  142.8067  156.6670 N   0  0  0  0  0  0  0  0  0  0  0  0
  151.6393  142.7753  157.6166 C   0  0  1  0  0  0  0  0  0  0  0  0
  151.6229  144.0455  158.4928 C   0  0  0  0  0  0  0  0  0  0  0  0
  152.8025  144.0983  159.4768 C   0  0  0  0  0  0  0  0  0  0  0  0
  152.7973  142.9189  160.4594 C   0  0  0  0  0  0  0  0  0  0  0  0
  152.9621  141.3373  159.5877 S   0  0  0  0  0  0  0  0  0  0  0  0
  151.5462  141.4952  158.4643 C   0  0  0  0  0  0  0  0  0  0  0  0
  146.4067  138.6320  153.7019 N   0  0  0  0  0  0  0  0  0  0  0  0
  145.4204  135.7328  152.1909 H   0  0  0  0  0  0  0  0  0  0  0  0
  144.6781  136.3894  153.6449 H   0  0  0  0  0  0  0  0  0  0  0  0
  146.3468  135.8288  153.6831 H   0  0  0  0  0  0  0  0  0  0  0  0
  146.0395  137.7265  150.4909 H   0  0  0  0  0  0  0  0  0  0  0  0
  147.1046  140.6337  155.0986 H   0  0  0  0  0  0  0  0  0  0  0  0
  145.2331  141.8681  154.1423 H   0  0  0  0  0  0  0  0  0  0  0  0
  146.2770  142.5572  152.9007 H   0  0  0  0  0  0  0  0  0  0  0  0
  146.5291  142.9697  154.5942 H   0  0  0  0  0  0  0  0  0  0  0  0
  149.3146  140.4669  153.8465 H   0  0  0  0  0  0  0  0  0  0  0  0
  148.8509  141.8938  152.9515 H   0  0  0  0  0  0  0  0  0  0  0  0
  148.7566  143.0625  155.1618 H   0  0  0  0  0  0  0  0  0  0  0  0
  149.9546  143.6354  156.6690 H   0  0  0  0  0  0  0  0  0  0  0  0
  152.5772  142.7418  157.0586 H   0  0  0  0  0  0  0  0  0  0  0  0
  151.6579  144.9314  157.8573 H   0  0  0  0  0  0  0  0  0  0  0  0
  150.6834  144.1049  159.0440 H   0  0  0  0  0  0  0  0  0  0  0  0
  153.7433  144.1147  158.9252 H   0  0  0  0  0  0  0  0  0  0  0  0
  152.7608  145.0328  160.0372 H   0  0  0  0  0  0  0  0  0  0  0  0
  153.6206  143.0146  161.1676 H   0  0  0  0  0  0  0  0  0  0  0  0
  151.8745  142.9111  161.0404 H   0  0  0  0  0  0  0  0  0  0  0  0
  150.6271  141.4887  159.0516 H   0  0  0  0  0  0  0  0  0  0  0  0
  151.5216  140.6147  157.8214 H   0  0  0  0  0  0  0  0  0  0  0  0
  1  2  1  0  0  0  0
  1 20  1  0  0  0  0
  1 21  1  0  0  0  0
  1 22  1  0  0  0  0
  2 19  1  0  0  0  0
  2  3  2  0  0  0  0
  3  4  1  0  0  0  0
  3 23  1  0  0  0  0
  4  5  1  0  0  0  0
  5  6  1  0  0  0  0
  5 19  2  0  0  0  0
  6  7  1  0  0  0  0
  6  8  1  0  0  0  0
  6 24  1  0  0  0  0
  7 25  1  0  0  0  0
  7 26  1  0  0  0  0
  7 27  1  0  0  0  0
  8  9  1  0  0  0  0
  8 28  1  0  0  0  0
  8 29  1  0  0  0  0
  9 10  1  0  0  0  0
  9 30  1  0  0  0  0
 10 11  2  0  0  0  0
 10 12  1  0  0  0  0
 12 13  1  0  0  0  0
 12 31  1  0  0  0  0
 13 18  1  0  0  0  0
 13 14  1  0  0  0  0
 13 32  1  0  0  0  0
 14 15  1  0  0  0  0
 14 33  1  0  0  0  0
 14 34  1  0  0  0  0
 15 16  1  0  0  0  0
 15 35  1  0  0  0  0
 15 36  1  0  0  0  0
 16 17  1  0  0  0  0
 16 37  1  0  0  0  0
 16 38  1  0  0  0  0
 17 18  1  0  0  0  0
 18 39  1  0  0  0  0
 18 40  1  0  0  0  0
M  END
> <s_m_source_file>
AV-unprocessed.smi

> <i_m_source_file_index>
2457

> <i_lp_mmshare_version>
43012

> <i_f3d_flags>
0

> <s_epik_input>
W0NIM11jMVtjSF1zYyhuMSlbQ0BIXShbQ0gzXSlbQ0gyXVtOSF1DKD1PKVtOSF1bQ0BASF0yW0NIMl1bQ0gyXVtDSDJdU1tDSDJdMg==

> <s_epik_cmdline>
J2VwaWtfcHl0aG9uJywgJy1waCcsICc3LjAnLCAnLXRuJywgJzgnLCAnLW1hJywgJzIwMCcsICctbWV0YWxfYmluZGluZycsICctaW1hZScsICc8aW5maWxlLm1hZT4nLCAnLW9tYWUnLCAnPG91dGZpbGUubWFlPic=

> <r_epik_Ionization_Penalty>
0.00154805

> <r_epik_Ionization_Penalty_Charging>
0

> <r_epik_Ionization_Penalty_Neutral>
0.00154805

> <r_epik_State_Penalty>
0.00100357

> <r_epik_Charging_Adjusted_Penalty>
0.00100357

> <i_epik_Tot_Q>
0

> <i_epik_Tot_abs_Q>
0

> <r_epik_Metal_State_Penalty>
-0

> <b_epik_Metal_Only>
0

> <s_lp_Force_Field>
OPLS_2005

> <r_lp_Energy>
-7.39809

> <b_lp_Chiralities_Consistent>
1

> <s_lp_Variant>
AV-unprocessed.smi:2457-3

> <Gold.Version>
5.8.1

> <Gold.Id.Protein>
6NUR|6NUR_protein|mol2

> <Gold.PLP.Fitness>
46.7409

> <Gold.PLP.PLP>
-39.0050

> <Gold.PLP.part.hbond>
-2.6306

> <Gold.PLP.part.metal>
0.0000

> <Gold.PLP.part.buried>
1.9663

> <Gold.PLP.part.nonpolar>
-39.0335

> <Gold.PLP.part.repulsive>
0.4987

> <Gold.PLP.ligand.clash>
0.0000

> <Gold.PLP.ligand.torsion>
0.1677

> <Gold.PLP.Chemscore.Hbond>
2.1640

> <Gold.PLP.Chemscore.CHOScore>
0.4836

> <Gold.PLP.Chemscore.Metal>
0.0000

> <Gold.Chemscore.Hbonds>
donor molecule, donor type, donor heavy atom, donor atom, acceptor molecule, acceptor atom, score
      L1  H     9    30       P1  8028  0.99
      L1  H    12    31       P1  8028  0.91
      P1  H  7989  7998       L1    11  0.26
      L1  C     3    23       P1 10171  0.48

> <Gold.PLP.Chemscore.Internal.Correction>
0.1285

> <Gold.Rescore>
     Score         DG    S(hbond)    S(metal)    S(lipo)     H(rot)  DE(clash)    DE(int)     intcor
     19.56     -22.76       2.00        0.00     122.54       1.46       2.02       1.18       ----

> <Gold.Chemscore.Fitness>
19.5633

> <Gold.Chemscore.DG>
-22.7649

> <Gold.Chemscore.ZeroCoef>
-5.4800

> <Gold.Chemscore.Hbond>
2.0029

> <Gold.Chemscore.Metal>
0.0000

> <Gold.Chemscore.Lipo>
122.5380

> <Gold.Chemscore.Internal_Hbond>
0.0000

> <Gold.Chemscore.DEClash>
2.0207

> <Gold.Chemscore.DEInternal>
1.1809

> <Gold.Chemscore.Rot>
1.4616

> <Gold.Chemscore.Internal.Correction>
   9.000000E+99

> <Gold.Chemscore.Hbonds>
donor molecule, donor type, donor heavy atom, donor atom, acceptor molecule, acceptor atom, score
      L1  H     9    30       P1  8028  0.94
      L1  H    12    31       P1  8028  0.90
      P1  H  7989  7998       L1    11  0.09

> <Gold.Chemscore.Hbond.Weighted>
-6.6896

> <Gold.Chemscore.Metal.Weighted>
-0.0000

> <Gold.Chemscore.Lipo.Weighted>
-14.3369

> <Gold.Chemscore.Internal_Hbond.Weighted>
0.0000

> <Gold.Chemscore.DEClash.Weighted>
2.0207

> <Gold.Chemscore.DEInternal.Weighted>
1.1809

> <Gold.Chemscore.Rot.Weighted>
3.7416

> <Gold.Chemscore.Internal.Correction.Weighted>
   9.000000E+99

> <Gold.Protein.RotatedTorsions>
[ 6907 6896 6895 6894 ] final  -96.25 input  -60.11 | X-H torsion
[ 7974 7965 7964 7962 ] final  156.92 input  175.53 | X-H torsion
[ 8008 7997 7996 7995 ] final   45.25 input   59.86 | X-H torsion
[ 10167 10162 10161 10158 ] final -137.43 input  -65.29 | X-H torsion
[ 10718 10713 10712 10709 ] final  -23.77 input   66.30 | X-H torsion
[ 10763 10752 10751 10750 ] final  150.99 input  -60.55 | X-H torsion
[ 11005 11000 10999 10996 ] final -158.71 input  -57.11 | X-H torsion

> <Gold.Protein.ActiveResidues>
 VAL166  LYS551  ARG553  GLY616  TRP617  ASP618  TYR619  PRO620  LYS621  CYS622 
 ASP623  PHE694  ASN695  SER759  ASP760  ASP761  ALA762  ILE779  LEU786  VAL792 
 PHE793  MET794  SER795  GLU796  ALA797  LYS798  CYS799  TRP800  GLU811  SER814 

> <Gold.Protein.RotatedAtoms>
  150.6984  134.1532  159.4147 H   0  0  0  0  0  0  0  0  0  0  0  0  # atno 6907 bound_to 6896
  151.9514  135.0165  160.0551 H   0  0  0  0  0  0  0  0  0  0  0  0  # atno 6908 bound_to 6896
  152.2007  133.4804  159.5094 H   0  0  0  0  0  0  0  0  0  0  0  0  # atno 6909 bound_to 6896
  144.7934  139.7269  143.6212 H   0  0  0  0  0  0  0  0  0  0  0  0  # atno 7974 bound_to 7965
  155.3328  140.3403  155.4239 H   0  0  0  0  0  0  0  0  0  0  0  0  # atno 8008 bound_to 7997
  156.1853  140.1678  156.8234 H   0  0  0  0  0  0  0  0  0  0  0  0  # atno 8009 bound_to 7997
  154.5379  140.0731  156.8442 H   0  0  0  0  0  0  0  0  0  0  0  0  # atno 8010 bound_to 7997
  139.8579  143.7115  152.2652 H   0  0  0  0  0  0  0  0  0  0  0  0  # atno 10167 bound_to 10162
  156.4866  130.4557  149.6780 H   0  0  0  0  0  0  0  0  0  0  0  0  # atno 10718 bound_to 10713
  154.0965  135.2848  155.3260 H   0  0  0  0  0  0  0  0  0  0  0  0  # atno 10763 bound_to 10752
  154.6584  135.5343  153.7991 H   0  0  0  0  0  0  0  0  0  0  0  0  # atno 10764 bound_to 10752
  153.0394  135.6528  154.1131 H   0  0  0  0  0  0  0  0  0  0  0  0  # atno 10765 bound_to 10752
  140.6506  134.4455  157.5235 H   0  0  0  0  0  0  0  0  0  0  0  0  # atno 11005 bound_to 11000
  146.2194  139.5608  142.9628 LP  0  0  0  0  0  0  0  0  0  0  0  0  # atno 17320 bound_to 7965
  145.5735  141.0391  143.2161 LP  0  0  0  0  0  0  0  0  0  0  0  0  # atno 17321 bound_to 7965
  139.7402  144.7561  151.0664 LP  0  0  0  0  0  0  0  0  0  0  0  0  # atno 17342 bound_to 10162
  140.7779  143.4981  150.9806 LP  0  0  0  0  0  0  0  0  0  0  0  0  # atno 17343 bound_to 10162
  156.3468  130.7411  151.2365 LP  0  0  0  0  0  0  0  0  0  0  0  0  # atno 17370 bound_to 10713
  157.7478  131.0388  150.4520 LP  0  0  0  0  0  0  0  0  0  0  0  0  # atno 17371 bound_to 10713
  139.9047  134.8476  156.1753 LP  0  0  0  0  0  0  0  0  0  0  0  0  # atno 17394 bound_to 11000
  141.0539  133.6875  156.1824 LP  0  0  0  0  0  0  0  0  0  0  0  0  # atno 17395 bound_to 11000

$$$$
