AV-unprocessed.smi:1978|AV-procd|sdf|8009|dock1
  -GOLD-   2272010193D 1   1.00000     0.00000
 Structure written by MMmdl.
 44 45  0  0  0  0  0  0  0  0  3 V2000
  147.1837  135.1953  162.6142 C   0  0  0  0  0  0  0  0  0  0  0  0
  147.5290  135.5857  161.2181 C   0  0  0  0  0  0  0  0  0  0  0  0
  147.9105  134.8681  160.1198 C   0  0  0  0  0  0  0  0  0  0  0  0
  148.0840  135.8686  159.1262 C   0  0  0  0  0  0  0  0  0  0  0  0
  148.4923  135.5194  157.8117 N   0  0  0  0  0  0  0  0  0  0  0  0
  149.0979  134.3952  157.3874 C   0  0  0  0  0  0  0  0  0  0  0  0
  149.3956  133.5042  158.1918 O   0  0  0  0  0  0  0  0  0  0  0  0
  149.3102  134.4020  156.0431 N   0  5  0  0  0  0  0  0  0  0  0  0
  148.3575  134.9071  155.0549 C   0  0  0  0  0  0  0  0  0  0  0  0
  147.9239  133.7652  154.0823 C   0  0  1  0  0  0  0  0  0  0  0  0
  147.1862  132.6547  154.8926 C   0  0  0  0  0  0  0  0  0  0  0  0
  147.1276  134.3200  152.9260 N   0  3  1  0  0  0  0  0  0  0  0  0
  146.6568  133.2975  151.9352 C   0  0  0  0  0  0  0  0  0  0  0  0
  146.2216  133.9707  150.6226 C   0  0  0  0  0  0  0  0  0  0  0  0
  145.1278  135.0169  150.8643 C   0  0  0  0  0  0  0  0  0  0  0  0
  145.5683  136.0043  151.9559 C   0  0  0  0  0  0  0  0  0  0  0  0
  146.0271  135.2890  153.2453 C   0  0  1  0  0  0  0  0  0  0  0  0
  144.8335  134.6505  153.9971 C   0  0  0  0  0  0  0  0  0  0  0  0
  147.8307  137.0874  159.5794 N   0  0  0  0  0  0  0  0  0  0  0  0
  147.4738  136.9123  160.9216 O   0  0  0  0  0  0  0  0  0  0  0  0
  146.9533  134.1317  162.6751 H   0  0  0  0  0  0  0  0  0  0  0  0
  146.3147  135.7497  162.9691 H   0  0  0  0  0  0  0  0  0  0  0  0
  148.0151  135.4006  163.2884 H   0  0  0  0  0  0  0  0  0  0  0  0
  148.0451  133.7998  160.0418 H   0  0  0  0  0  0  0  0  0  0  0  0
  148.2922  136.2039  157.0979 H   0  0  0  0  0  0  0  0  0  0  0  0
  147.4692  135.3335  155.5224 H   0  0  0  0  0  0  0  0  0  0  0  0
  148.7959  135.7256  154.4850 H   0  0  0  0  0  0  0  0  0  0  0  0
  148.8164  133.3092  153.6498 H   0  0  0  0  0  0  0  0  0  0  0  0
  147.7877  132.2692  155.7187 H   0  0  0  0  0  0  0  0  0  0  0  0
  146.9568  131.7776  154.2924 H   0  0  0  0  0  0  0  0  0  0  0  0
  146.2450  133.0083  155.3186 H   0  0  0  0  0  0  0  0  0  0  0  0
  147.4322  132.5742  151.6885 H   0  0  0  0  0  0  0  0  0  0  0  0
  145.8423  132.7084  152.3558 H   0  0  0  0  0  0  0  0  0  0  0  0
  147.0855  134.4473  150.1573 H   0  0  0  0  0  0  0  0  0  0  0  0
  145.8672  133.2189  149.9167 H   0  0  0  0  0  0  0  0  0  0  0  0
  144.9123  135.5532  149.9396 H   0  0  0  0  0  0  0  0  0  0  0  0
  144.1999  134.5225  151.1521 H   0  0  0  0  0  0  0  0  0  0  0  0
  146.3902  136.6113  151.5734 H   0  0  0  0  0  0  0  0  0  0  0  0
  144.7578  136.6997  152.1771 H   0  0  0  0  0  0  0  0  0  0  0  0
  146.4303  136.0815  153.8739 H   0  0  0  0  0  0  0  0  0  0  0  0
  144.1397  135.4211  154.3337 H   0  0  0  0  0  0  0  0  0  0  0  0
  145.1417  134.0885  154.8767 H   0  0  0  0  0  0  0  0  0  0  0  0
  144.2634  133.9640  153.3732 H   0  0  0  0  0  0  0  0  0  0  0  0
  147.8068  134.8764  152.4266 H   0  0  0  0  0  0  0  0  0  0  0  0
  1  2  1  0  0  0  0
  1 21  1  0  0  0  0
  1 22  1  0  0  0  0
  1 23  1  0  0  0  0
  2 20  1  0  0  0  0
  2  3  2  0  0  0  0
  3  4  1  0  0  0  0
  3 24  1  0  0  0  0
  4  5  1  0  0  0  0
  4 19  2  0  0  0  0
  5  6  1  0  0  0  0
  5 25  1  0  0  0  0
  6  7  2  0  0  0  0
  6  8  1  0  0  0  0
  8  9  1  0  0  0  0
  9 10  1  0  0  0  0
  9 26  1  0  0  0  0
  9 27  1  0  0  0  0
 10 11  1  0  0  0  0
 10 12  1  0  0  0  0
 10 28  1  0  0  0  0
 11 29  1  0  0  0  0
 11 30  1  0  0  0  0
 11 31  1  0  0  0  0
 12 17  1  0  0  0  0
 12 13  1  0  0  0  0
 12 44  1  0  0  0  0
 13 14  1  0  0  0  0
 13 32  1  0  0  0  0
 13 33  1  0  0  0  0
 14 15  1  0  0  0  0
 14 34  1  0  0  0  0
 14 35  1  0  0  0  0
 15 16  1  0  0  0  0
 15 36  1  0  0  0  0
 15 37  1  0  0  0  0
 16 17  1  0  0  0  0
 16 38  1  0  0  0  0
 16 39  1  0  0  0  0
 17 18  1  0  0  0  0
 17 40  1  0  0  0  0
 18 41  1  0  0  0  0
 18 42  1  0  0  0  0
 18 43  1  0  0  0  0
 19 20  1  0  0  0  0
M  CHG  1   8  -1
M  CHG  1  12   1
M  END
> <s_m_source_file>
AV-unprocessed.smi

> <i_m_source_file_index>
1978

> <i_lp_mmshare_version>
43012

> <i_f3d_flags>
0

> <s_epik_input>
W0NIM11jMVtjSF1jKG5vMSlbTkhdQyg9TylbTkhdW0NIMl1bQ0BIXShbQ0gzXSlOMltDSDJdW0NIMl1bQ0gyXVtDSDJdW0NASF0yW0NIM10=

> <s_epik_cmdline>
J2VwaWtfcHl0aG9uJywgJy1waCcsICc3LjAnLCAnLXRuJywgJzgnLCAnLW1hJywgJzIwMCcsICctbWV0YWxfYmluZGluZycsICctaW1hZScsICc8aW5maWxlLm1hZT4nLCAnLW9tYWUnLCAnPG91dGZpbGUubWFlPic=

> <r_epik_Ionization_Penalty>
6.7666

> <r_epik_Ionization_Penalty_Charging>
6.7666

> <r_epik_Ionization_Penalty_Neutral>
5.77131e-06

> <r_epik_State_Penalty>
6.79217

> <r_epik_Charging_Adjusted_Penalty>
13.5588

> <i_epik_Tot_Q>
0

> <i_epik_Tot_abs_Q>
2

> <r_epik_Metal_State_Penalty>
2.72569

> <b_epik_Metal_Only>
1

> <s_lp_Force_Field>
OPLS_2005

> <r_lp_Energy>
25.8375

> <b_lp_Chiralities_Consistent>
1

> <s_lp_Variant>
AV-unprocessed.smi:1978-18

> <Gold.Version>
5.8.1

> <Gold.Id.Protein>
6NUR|6NUR_protein|mol2

> <Gold.PLP.Fitness>
41.0402

> <Gold.PLP.PLP>
-28.9521

> <Gold.PLP.part.hbond>
-4.8118

> <Gold.PLP.part.metal>
0.0000

> <Gold.PLP.part.buried>
-3.8587

> <Gold.PLP.part.nonpolar>
-20.4197

> <Gold.PLP.part.repulsive>
0.0789

> <Gold.PLP.ligand.clash>
0.0000

> <Gold.PLP.ligand.torsion>
0.5329

> <Gold.PLP.Chemscore.Hbond>
4.3408

> <Gold.PLP.Chemscore.CHOScore>
0.0000

> <Gold.PLP.Chemscore.Metal>
0.0000

> <Gold.Chemscore.Hbonds>
donor molecule, donor type, donor heavy atom, donor atom, acceptor molecule, acceptor atom, score
      L1  H    12    44       P1  7948  2.00
      P1  H  6896  6907       L1     7  1.00
      P1  H  6931  6943       L1    20  0.35
      P1  H  6934  6947       L1    20  0.19

> <Gold.PLP.Chemscore.Internal.Correction>
0.1315

> <Gold.Rescore>
     Score         DG    S(hbond)    S(metal)    S(lipo)     H(rot)  DE(clash)    DE(int)     intcor
     16.83     -17.87       2.89        0.00      56.61       1.52       0.15       0.89       ----

> <Gold.Chemscore.Fitness>
16.8280

> <Gold.Chemscore.DG>
-17.8721

> <Gold.Chemscore.ZeroCoef>
-5.4800

> <Gold.Chemscore.Hbond>
2.8914

> <Gold.Chemscore.Metal>
0.0000

> <Gold.Chemscore.Lipo>
56.6117

> <Gold.Chemscore.Internal_Hbond>
0.0000

> <Gold.Chemscore.DEClash>
0.1538

> <Gold.Chemscore.DEInternal>
0.8903

> <Gold.Chemscore.Rot>
1.5190

> <Gold.Chemscore.Internal.Correction>
   9.000000E+99

> <Gold.Chemscore.Hbonds>
donor molecule, donor type, donor heavy atom, donor atom, acceptor molecule, acceptor atom, score
      L1  H    12    44       P1  7948  0.85
      P1  H  6896  6907       L1     7  0.97
      P1  H  6931  6943       L1    20  0.07

> <Gold.Chemscore.Hbond.Weighted>
-9.6571

> <Gold.Chemscore.Metal.Weighted>
-0.0000

> <Gold.Chemscore.Lipo.Weighted>
-6.6236

> <Gold.Chemscore.Internal_Hbond.Weighted>
0.0000

> <Gold.Chemscore.DEClash.Weighted>
0.1538

> <Gold.Chemscore.DEInternal.Weighted>
0.8903

> <Gold.Chemscore.Rot.Weighted>
3.8886

> <Gold.Chemscore.Internal.Correction.Weighted>
   9.000000E+99

> <Gold.Protein.RotatedTorsions>
[ 6907 6896 6895 6894 ] final -125.22 input  -60.11 | X-H torsion
[ 7974 7965 7964 7962 ] final  158.36 input  175.53 | X-H torsion
[ 8008 7997 7996 7995 ] final  -21.92 input   59.86 | X-H torsion
[ 10167 10162 10161 10158 ] final -110.53 input  -65.29 | X-H torsion
[ 10718 10713 10712 10709 ] final  160.15 input   66.30 | X-H torsion
[ 10763 10752 10751 10750 ] final   76.77 input  -60.55 | X-H torsion
[ 11005 11000 10999 10996 ] final -103.67 input  -57.11 | X-H torsion

> <Gold.Protein.ActiveResidues>
 VAL166  LYS551  ARG553  GLY616  TRP617  ASP618  TYR619  PRO620  LYS621  CYS622 
 ASP623  PHE694  ASN695  SER759  ASP760  ASP761  ALA762  ILE779  LEU786  VAL792 
 PHE793  MET794  SER795  GLU796  ALA797  LYS798  CYS799  TRP800  GLU811  SER814 

> <Gold.Protein.RotatedAtoms>
  150.8846  133.7326  159.2922 H   0  0  0  0  0  0  0  0  0  0  0  0  # atno 6907 bound_to 6896
  151.4896  135.1055  159.9809 H   0  0  0  0  0  0  0  0  0  0  0  0  # atno 6908 bound_to 6896
  152.4781  133.8142  159.7075 H   0  0  0  0  0  0  0  0  0  0  0  0  # atno 6909 bound_to 6896
  144.7850  139.7468  143.6244 H   0  0  0  0  0  0  0  0  0  0  0  0  # atno 7974 bound_to 7965
  154.4675  140.2021  156.0079 H   0  0  0  0  0  0  0  0  0  0  0  0  # atno 8008 bound_to 7997
  156.0953  140.3252  155.7841 H   0  0  0  0  0  0  0  0  0  0  0  0  # atno 8009 bound_to 7997
  155.4888  140.0544  157.2947 H   0  0  0  0  0  0  0  0  0  0  0  0  # atno 8010 bound_to 7997
  140.1434  143.4260  152.1546 H   0  0  0  0  0  0  0  0  0  0  0  0  # atno 10167 bound_to 10162
  157.1543  131.0572  151.2264 H   0  0  0  0  0  0  0  0  0  0  0  0  # atno 10718 bound_to 10713
  153.0749  135.4939  154.8384 H   0  0  0  0  0  0  0  0  0  0  0  0  # atno 10763 bound_to 10752
  154.7074  135.3013  154.9252 H   0  0  0  0  0  0  0  0  0  0  0  0  # atno 10764 bound_to 10752
  153.9956  135.6772  153.4809 H   0  0  0  0  0  0  0  0  0  0  0  0  # atno 10765 bound_to 10752
  141.1135  133.8659  157.1514 H   0  0  0  0  0  0  0  0  0  0  0  0  # atno 11005 bound_to 11000
  146.2077  139.5413  142.9701 LP  0  0  0  0  0  0  0  0  0  0  0  0  # atno 17320 bound_to 7965
  145.5946  141.0364  143.2051 LP  0  0  0  0  0  0  0  0  0  0  0  0  # atno 17321 bound_to 7965
  139.5461  144.7299  151.4580 LP  0  0  0  0  0  0  0  0  0  0  0  0  # atno 17342 bound_to 10162
  140.6746  143.8217  150.7043 LP  0  0  0  0  0  0  0  0  0  0  0  0  # atno 17343 bound_to 10162
  157.4191  130.7427  149.6899 LP  0  0  0  0  0  0  0  0  0  0  0  0  # atno 17370 bound_to 10713
  155.9765  130.4075  150.3776 LP  0  0  0  0  0  0  0  0  0  0  0  0  # atno 17371 bound_to 10713
  140.0043  135.0015  157.0259 LP  0  0  0  0  0  0  0  0  0  0  0  0  # atno 17394 bound_to 11000
  140.4709  134.1387  155.7203 LP  0  0  0  0  0  0  0  0  0  0  0  0  # atno 17395 bound_to 11000

$$$$
