AV-unprocessed.smi:240|AV-procd|sdf|1830|dock10
  -GOLD-   2262020433D 1   1.00000     0.00000
 Structure written by MMmdl.
 55 59  0  0  0  0  0  0  0  0  1 V2000
  148.2918  142.8916  153.8613 O   0  0  0  0  0  0  0  0  0  0  0  0
  147.2137  141.9850  154.0059 C   0  0  2  0  0  0  0  0  0  0  0  0
  146.0561  142.7125  154.6974 C   0  0  0  0  0  0  0  0  0  0  0  0
  146.2688  142.5126  156.2024 C   0  0  0  0  0  0  0  0  0  0  0  0
  147.4148  141.5033  156.3422 C   0  0  0  0  0  0  0  0  0  0  0  0
  147.5734  140.8293  154.9662 C   0  0  2  0  0  0  0  0  0  0  0  0
  148.9363  140.0898  154.7405 C   0  0  1  0  0  0  0  0  0  0  0  0
  150.1151  140.9539  155.2632 C   0  0  0  0  0  0  0  0  0  0  0  0
  151.3595  140.2835  155.1075 O   0  0  0  0  0  0  0  0  0  0  0  0
  151.4044  139.0799  155.8571 C   0  0  0  0  0  0  0  0  0  0  0  0
  150.3215  138.1383  155.3221 C   0  0  0  0  0  0  0  0  0  0  0  0
  149.0089  138.7736  155.3995 N   0  0  0  0  0  0  0  0  0  0  0  0
  148.0438  137.8770  155.1027 C   0  0  0  0  0  0  0  0  0  0  0  0
  147.8210  136.8890  156.0036 N   0  0  0  0  0  0  0  0  0  0  0  0
  146.8719  135.9772  155.7716 C   0  0  0  0  0  0  0  0  0  0  0  0
  146.0521  135.8727  154.7232 N   0  0  0  0  0  0  0  0  0  0  0  0
  146.2863  136.8568  153.8081 C   0  0  0  0  0  0  0  0  0  0  0  0
  147.2594  137.8895  153.9146 C   0  0  0  0  0  0  0  0  0  0  0  0
  147.2075  138.7093  152.7940 N   0  0  0  0  0  0  0  0  0  0  0  0
  146.2535  138.1931  152.0681 C   0  0  0  0  0  0  0  0  0  0  0  0
  145.6475  137.0771  152.6003 N   0  0  0  0  0  0  0  0  0  0  0  0
  144.5591  136.3146  152.0077 C   0  0  0  0  0  0  0  0  0  0  0  0
  145.0238  135.3161  150.9224 C   0  0  1  0  0  0  0  0  0  0  0  0
  145.3639  136.0348  149.7488 O   0  0  0  0  0  0  0  0  0  0  0  0
  146.2181  134.4589  151.3316 C   0  0  0  0  0  0  0  0  0  0  0  0
  145.9721  133.1549  150.5857 C   0  0  0  0  0  0  0  0  0  0  0  0
  144.5688  132.9935  150.7001 O   0  0  0  0  0  0  0  0  0  0  0  0
  143.9522  134.2692  150.5574 C   0  0  0  0  0  0  0  0  0  0  0  0
  148.3334  143.4359  154.6332 H   0  0  0  0  0  0  0  0  0  0  0  0
  146.9039  141.6427  153.0202 H   0  0  0  0  0  0  0  0  0  0  0  0
  145.9892  143.7653  154.4191 H   0  0  0  0  0  0  0  0  0  0  0  0
  145.1141  142.2458  154.4063 H   0  0  0  0  0  0  0  0  0  0  0  0
  146.5211  143.4513  156.6969 H   0  0  0  0  0  0  0  0  0  0  0  0
  145.3571  142.1338  156.6659 H   0  0  0  0  0  0  0  0  0  0  0  0
  148.3299  142.0382  156.6003 H   0  0  0  0  0  0  0  0  0  0  0  0
  147.2192  140.7845  157.1388 H   0  0  0  0  0  0  0  0  0  0  0  0
  146.7790  140.0841  154.8942 H   0  0  0  0  0  0  0  0  0  0  0  0
  149.0935  139.9460  153.6713 H   0  0  0  0  0  0  0  0  0  0  0  0
  150.1907  141.8881  154.7076 H   0  0  0  0  0  0  0  0  0  0  0  0
  149.9683  141.2198  156.3117 H   0  0  0  0  0  0  0  0  0  0  0  0
  152.3888  138.6258  155.7449 H   0  0  0  0  0  0  0  0  0  0  0  0
  151.2621  139.2834  156.9197 H   0  0  0  0  0  0  0  0  0  0  0  0
  150.5479  137.8755  154.2882 H   0  0  0  0  0  0  0  0  0  0  0  0
  150.3246  137.2116  155.8981 H   0  0  0  0  0  0  0  0  0  0  0  0
  146.7505  135.2245  156.5367 H   0  0  0  0  0  0  0  0  0  0  0  0
  145.9641  138.6141  151.1160 H   0  0  0  0  0  0  0  0  0  0  0  0
  144.0378  135.7853  152.8065 H   0  0  0  0  0  0  0  0  0  0  0  0
  143.8386  137.0179  151.5880 H   0  0  0  0  0  0  0  0  0  0  0  0
  145.9224  135.4898  149.2155 H   0  0  0  0  0  0  0  0  0  0  0  0
  147.1852  134.9107  151.1065 H   0  0  0  0  0  0  0  0  0  0  0  0
  146.1874  134.2557  152.4026 H   0  0  0  0  0  0  0  0  0  0  0  0
  146.2504  133.2432  149.5345 H   0  0  0  0  0  0  0  0  0  0  0  0
  146.5106  132.3116  151.0187 H   0  0  0  0  0  0  0  0  0  0  0  0
  143.0840  134.3179  151.2155 H   0  0  0  0  0  0  0  0  0  0  0  0
  143.5917  134.3887  149.5344 H   0  0  0  0  0  0  0  0  0  0  0  0
  1  2  1  0  0  0  0
  1 29  1  0  0  0  0
  2  6  1  0  0  0  0
  2  3  1  0  0  0  0
  2 30  1  0  0  0  0
  3  4  1  0  0  0  0
  3 31  1  0  0  0  0
  3 32  1  0  0  0  0
  4  5  1  0  0  0  0
  4 33  1  0  0  0  0
  4 34  1  0  0  0  0
  5  6  1  0  0  0  0
  5 35  1  0  0  0  0
  5 36  1  0  0  0  0
  6  7  1  0  0  0  0
  6 37  1  0  0  0  0
  7 12  1  0  0  0  0
  7  8  1  0  0  0  0
  7 38  1  0  0  0  0
  8  9  1  0  0  0  0
  8 39  1  0  0  0  0
  8 40  1  0  0  0  0
  9 10  1  0  0  0  0
 10 11  1  0  0  0  0
 10 41  1  0  0  0  0
 10 42  1  0  0  0  0
 11 12  1  0  0  0  0
 11 43  1  0  0  0  0
 11 44  1  0  0  0  0
 12 13  1  0  0  0  0
 13 18  1  0  0  0  0
 13 14  2  0  0  0  0
 14 15  1  0  0  0  0
 15 16  2  0  0  0  0
 15 45  1  0  0  0  0
 16 17  1  0  0  0  0
 17 21  1  0  0  0  0
 17 18  2  0  0  0  0
 18 19  1  0  0  0  0
 19 20  2  0  0  0  0
 20 21  1  0  0  0  0
 20 46  1  0  0  0  0
 21 22  1  0  0  0  0
 22 23  1  0  0  0  0
 22 47  1  0  0  0  0
 22 48  1  0  0  0  0
 23 28  1  0  0  0  0
 23 24  1  0  0  0  0
 23 25  1  0  0  0  0
 24 49  1  0  0  0  0
 25 26  1  0  0  0  0
 25 50  1  0  0  0  0
 25 51  1  0  0  0  0
 26 27  1  0  0  0  0
 26 52  1  0  0  0  0
 26 53  1  0  0  0  0
 27 28  1  0  0  0  0
 28 54  1  0  0  0  0
 28 55  1  0  0  0  0
M  END
> <s_m_source_file>
AV-unprocessed.smi

> <i_m_source_file_index>
240

> <i_lp_mmshare_version>
43012

> <i_f3d_flags>
0

> <s_epik_input>
W09IXVtDQEBIXTFbQ0gyXVtDSDJdW0NIMl1bQ0BIXTFbQ0BASF0yW0NIMl1PW0NIMl1bQ0gyXU4yYyhuW2NIXW4zKWMoYzM0KW5bY0hdbjRbQ0gyXVtDQEBdNShbT0hdKVtDSDJdW0NIMl1PW0NIMl01

> <s_epik_cmdline>
J2VwaWtfcHl0aG9uJywgJy1waCcsICc3LjAnLCAnLXRuJywgJzgnLCAnLW1hJywgJzIwMCcsICctbWV0YWxfYmluZGluZycsICctaW1hZScsICc8aW5maWxlLm1hZT4nLCAnLW9tYWUnLCAnPG91dGZpbGUubWFlPic=

> <r_lp_tautomer_probability>
1

> <r_epik_Ionization_Penalty>
0.000130618

> <r_epik_Ionization_Penalty_Charging>
0

> <r_epik_Ionization_Penalty_Neutral>
0.000130618

> <r_epik_State_Penalty>
-0

> <r_epik_Charging_Adjusted_Penalty>
0

> <i_epik_Tot_Q>
0

> <i_epik_Tot_abs_Q>
0

> <r_epik_Metal_State_Penalty>
-0

> <b_epik_Metal_Only>
0

> <s_lp_Force_Field>
OPLS_2005

> <r_lp_Energy>
63.9037

> <b_lp_Chiralities_Consistent>
1

> <s_lp_Variant>
AV-unprocessed.smi:240-7

> <Gold.Version>
5.8.1

> <Gold.Id.Protein>
6NUR|6NUR_protein|mol2

> <Gold.PLP.Fitness>
48.7329

> <Gold.PLP.PLP>
-38.7322

> <Gold.PLP.part.hbond>
-5.9159

> <Gold.PLP.part.metal>
0.0000

> <Gold.PLP.part.buried>
-2.8539

> <Gold.PLP.part.nonpolar>
-30.9544

> <Gold.PLP.part.repulsive>
0.5948

> <Gold.PLP.ligand.clash>
0.0000

> <Gold.PLP.ligand.torsion>
1.1366

> <Gold.PLP.Chemscore.Hbond>
2.9840

> <Gold.PLP.Chemscore.CHOScore>
1.0000

> <Gold.PLP.Chemscore.Metal>
0.0000

> <Gold.Chemscore.Hbonds>
donor molecule, donor type, donor heavy atom, donor atom, acceptor molecule, acceptor atom, score
      L1  H     1    29       P1  8028  1.00
      L1  H    24    49       P1  7921  0.90
      P1  H  7989  7998       L1     9  0.75
      L1  C    20    46       P1 10171  1.00

> <Gold.PLP.Chemscore.Internal.Correction>
0.3219

> <Gold.Rescore>
     Score         DG    S(hbond)    S(metal)    S(lipo)     H(rot)  DE(clash)    DE(int)     intcor
     11.87     -14.98       2.44        0.00      77.15       3.00       0.61       2.49       ----

> <Gold.Chemscore.Fitness>
11.8695

> <Gold.Chemscore.DG>
-14.9757

> <Gold.Chemscore.ZeroCoef>
-5.4800

> <Gold.Chemscore.Hbond>
2.4428

> <Gold.Chemscore.Metal>
0.0000

> <Gold.Chemscore.Lipo>
77.1519

> <Gold.Chemscore.Internal_Hbond>
0.0000

> <Gold.Chemscore.DEClash>
0.6133

> <Gold.Chemscore.DEInternal>
2.4929

> <Gold.Chemscore.Rot>
3.0039

> <Gold.Chemscore.Internal.Correction>
   9.000000E+99

> <Gold.Chemscore.Hbonds>
donor molecule, donor type, donor heavy atom, donor atom, acceptor molecule, acceptor atom, score
      L1  H     1    29       P1  8028  0.97
      L1  H    24    49       P1  7921  0.85
      P1  H  7989  7998       L1     9  0.09
      P1  H  8011  8017       L1     1  0.02

> <Gold.Chemscore.Hbond.Weighted>
-8.1588

> <Gold.Chemscore.Metal.Weighted>
-0.0000

> <Gold.Chemscore.Lipo.Weighted>
-9.0268

> <Gold.Chemscore.Internal_Hbond.Weighted>
0.0000

> <Gold.Chemscore.DEClash.Weighted>
0.6133

> <Gold.Chemscore.DEInternal.Weighted>
2.4929

> <Gold.Chemscore.Rot.Weighted>
7.6899

> <Gold.Chemscore.Internal.Correction.Weighted>
   9.000000E+99

> <Gold.Protein.RotatedTorsions>
[ 6907 6896 6895 6894 ] final   60.60 input  -60.11 | X-H torsion
[ 7974 7965 7964 7962 ] final -175.59 input  175.53 | X-H torsion
[ 8008 7997 7996 7995 ] final  141.74 input   59.86 | X-H torsion
[ 10167 10162 10161 10158 ] final   15.76 input  -65.29 | X-H torsion
[ 10718 10713 10712 10709 ] final   12.22 input   66.30 | X-H torsion
[ 10763 10752 10751 10750 ] final  -66.87 input  -60.55 | X-H torsion
[ 11005 11000 10999 10996 ] final -118.56 input  -57.11 | X-H torsion

> <Gold.Protein.ActiveResidues>
 VAL166  LYS551  ARG553  GLY616  TRP617  ASP618  TYR619  PRO620  LYS621  CYS622 
 ASP623  PHE694  ASN695  SER759  ASP760  ASP761  ALA762  ILE779  LEU786  VAL792 
 PHE793  MET794  SER795  GLU796  ALA797  LYS798  CYS799  TRP800  GLU811  SER814 

> <Gold.Protein.RotatedAtoms>
  152.4016  134.6276  160.0066 H   0  0  0  0  0  0  0  0  0  0  0  0  # atno 6907 bound_to 6896
  151.6479  133.3317  159.3153 H   0  0  0  0  0  0  0  0  0  0  0  0  # atno 6908 bound_to 6896
  150.7916  134.6987  159.6582 H   0  0  0  0  0  0  0  0  0  0  0  0  # atno 6909 bound_to 6896
  144.7128  140.1299  143.6399 H   0  0  0  0  0  0  0  0  0  0  0  0  # atno 7974 bound_to 7965
  156.2961  140.2307  156.4614 H   0  0  0  0  0  0  0  0  0  0  0  0  # atno 8008 bound_to 7997
  154.8015  140.0448  157.1297 H   0  0  0  0  0  0  0  0  0  0  0  0  # atno 8009 bound_to 7997
  154.9528  140.3044  155.5070 H   0  0  0  0  0  0  0  0  0  0  0  0  # atno 8010 bound_to 7997
  140.5845  143.8917  150.6818 H   0  0  0  0  0  0  0  0  0  0  0  0  # atno 10167 bound_to 10162
  157.0069  130.6102  149.5703 H   0  0  0  0  0  0  0  0  0  0  0  0  # atno 10718 bound_to 10713
  154.3662  135.6105  153.5716 H   0  0  0  0  0  0  0  0  0  0  0  0  # atno 10763 bound_to 10752
  152.9791  135.5827  154.4575 H   0  0  0  0  0  0  0  0  0  0  0  0  # atno 10764 bound_to 10752
  154.4321  135.2848  155.1883 H   0  0  0  0  0  0  0  0  0  0  0  0  # atno 10765 bound_to 10752
  141.0277  134.0029  157.3190 H   0  0  0  0  0  0  0  0  0  0  0  0  # atno 11005 bound_to 11000
  145.9296  139.2598  143.1333 LP  0  0  0  0  0  0  0  0  0  0  0  0  # atno 17320 bound_to 7965
  145.9536  140.8890  143.0246 LP  0  0  0  0  0  0  0  0  0  0  0  0  # atno 17321 bound_to 7965
  140.2425  143.3653  152.1475 LP  0  0  0  0  0  0  0  0  0  0  0  0  # atno 17342 bound_to 10162
  139.5189  144.7012  151.5487 LP  0  0  0  0  0  0  0  0  0  0  0  0  # atno 17343 bound_to 10162
  156.0150  130.5244  150.8107 LP  0  0  0  0  0  0  0  0  0  0  0  0  # atno 17370 bound_to 10713
  157.5349  131.0938  150.9906 LP  0  0  0  0  0  0  0  0  0  0  0  0  # atno 17371 bound_to 10713
  139.9187  135.0199  156.7981 LP  0  0  0  0  0  0  0  0  0  0  0  0  # atno 17394 bound_to 11000
  140.6462  133.9773  155.7732 LP  0  0  0  0  0  0  0  0  0  0  0  0  # atno 17395 bound_to 11000

$$$$
