AV-unprocessed.smi:1679|AV-procd|sdf|6730|dock5
  -GOLD-   22720 7473D 1   1.00000     0.00000
 Structure written by MMmdl.
 45 46  0  0  0  0  0  0  0  0  1 V2000
  151.2998  145.3022  159.2660 C   0  0  0  0  0  0  0  0  0  0  0  0
  152.2719  144.2706  159.8595 C   0  0  1  0  0  0  0  0  0  0  0  0
  151.9513  143.9701  161.3392 C   0  0  0  0  0  0  0  0  0  0  0  0
  152.9506  142.9695  161.9426 C   0  0  0  0  0  0  0  0  0  0  0  0
  153.0275  141.6792  161.1120 C   0  0  0  0  0  0  0  0  0  0  0  0
  153.3424  141.9839  159.6395 C   0  0  0  0  0  0  0  0  0  0  0  0
  152.3161  142.9656  159.0318 C   0  0  1  0  0  0  0  0  0  0  0  0
  150.9970  142.4322  159.0241 O   0  0  0  0  0  0  0  0  0  0  0  0
  150.6933  141.4907  158.0065 C   0  0  0  0  0  0  0  0  0  0  0  0
  150.9672  142.1363  156.6386 C   0  0  0  0  0  0  0  0  0  0  0  0
  149.7583  142.2022  155.8216 N   0  0  0  0  0  0  0  0  0  0  0  0
  149.4254  141.3130  154.8719 C   0  0  0  0  0  0  0  0  0  0  0  0
  150.0927  140.3070  154.6269 O   0  0  0  0  0  0  0  0  0  0  0  0
  148.1354  141.5853  154.0883 C   0  0  0  0  0  0  0  0  0  0  0  0
  147.3491  140.3569  153.9079 N   0  0  0  0  0  0  0  0  0  0  0  0
  147.1784  139.8125  152.6428 C   0  0  0  0  0  0  0  0  0  0  0  0
  146.4235  138.7151  152.3987 C   0  0  0  0  0  0  0  0  0  0  0  0
  145.7335  138.0361  153.4902 C   0  0  0  0  0  0  0  0  0  0  0  0
  145.0233  137.0403  153.3702 O   0  0  0  0  0  0  0  0  0  0  0  0
  145.9342  138.6106  154.7478 N   0  0  0  0  0  0  0  0  0  0  0  0
  146.7123  139.7398  155.0062 C   0  0  0  0  0  0  0  0  0  0  0  0
  146.8192  140.1656  156.1553 O   0  0  0  0  0  0  0  0  0  0  0  0
  145.4756  138.1742  155.5344 H   0  0  0  0  0  0  0  0  0  0  0  0
  150.2701  144.9440  159.2941 H   0  0  0  0  0  0  0  0  0  0  0  0
  151.5475  145.5238  158.2278 H   0  0  0  0  0  0  0  0  0  0  0  0
  151.3374  146.2396  159.8211 H   0  0  0  0  0  0  0  0  0  0  0  0
  153.2669  144.7164  159.8230 H   0  0  0  0  0  0  0  0  0  0  0  0
  151.9650  144.8922  161.9207 H   0  0  0  0  0  0  0  0  0  0  0  0
  150.9396  143.5713  161.4256 H   0  0  0  0  0  0  0  0  0  0  0  0
  153.9385  143.4286  161.9925 H   0  0  0  0  0  0  0  0  0  0  0  0
  152.6681  142.7344  162.9687 H   0  0  0  0  0  0  0  0  0  0  0  0
  153.7866  141.0154  161.5261 H   0  0  0  0  0  0  0  0  0  0  0  0
  152.0811  141.1426  161.1747 H   0  0  0  0  0  0  0  0  0  0  0  0
  154.3381  142.4241  159.5730 H   0  0  0  0  0  0  0  0  0  0  0  0
  153.3933  141.0599  159.0647 H   0  0  0  0  0  0  0  0  0  0  0  0
  152.6056  143.2023  158.0068 H   0  0  0  0  0  0  0  0  0  0  0  0
  151.3114  140.5996  158.1227 H   0  0  0  0  0  0  0  0  0  0  0  0
  149.6500  141.1809  158.0660 H   0  0  0  0  0  0  0  0  0  0  0  0
  151.4007  143.1295  156.7671 H   0  0  0  0  0  0  0  0  0  0  0  0
  151.7078  141.5462  156.0984 H   0  0  0  0  0  0  0  0  0  0  0  0
  149.1516  142.9967  155.9641 H   0  0  0  0  0  0  0  0  0  0  0  0
  147.5518  142.3245  154.6390 H   0  0  0  0  0  0  0  0  0  0  0  0
  148.3586  142.0545  153.1278 H   0  0  0  0  0  0  0  0  0  0  0  0
  147.6633  140.2901  151.8031 H   0  0  0  0  0  0  0  0  0  0  0  0
  146.3257  138.3413  151.3897 H   0  0  0  0  0  0  0  0  0  0  0  0
  1  2  1  0  0  0  0
  1 24  1  0  0  0  0
  1 25  1  0  0  0  0
  1 26  1  0  0  0  0
  2  7  1  0  0  0  0
  2  3  1  0  0  0  0
  2 27  1  0  0  0  0
  3  4  1  0  0  0  0
  3 28  1  0  0  0  0
  3 29  1  0  0  0  0
  4  5  1  0  0  0  0
  4 30  1  0  0  0  0
  4 31  1  0  0  0  0
  5  6  1  0  0  0  0
  5 32  1  0  0  0  0
  5 33  1  0  0  0  0
  6  7  1  0  0  0  0
  6 34  1  0  0  0  0
  6 35  1  0  0  0  0
  7  8  1  0  0  0  0
  7 36  1  0  0  0  0
  8  9  1  0  0  0  0
  9 10  1  0  0  0  0
  9 37  1  0  0  0  0
  9 38  1  0  0  0  0
 10 11  1  0  0  0  0
 10 39  1  0  0  0  0
 10 40  1  0  0  0  0
 11 12  1  0  0  0  0
 11 41  1  0  0  0  0
 12 13  2  0  0  0  0
 12 14  1  0  0  0  0
 14 15  1  0  0  0  0
 14 42  1  0  0  0  0
 14 43  1  0  0  0  0
 15 21  1  0  0  0  0
 15 16  1  0  0  0  0
 16 17  2  0  0  0  0
 16 44  1  0  0  0  0
 17 18  1  0  0  0  0
 17 45  1  0  0  0  0
 18 19  2  0  0  0  0
 18 20  1  0  0  0  0
 20 23  1  0  0  0  0
 20 21  1  0  0  0  0
 21 22  2  0  0  0  0
M  END
> <s_m_source_file>
AV-unprocessed.smi

> <i_m_source_file_index>
1679

> <i_lp_mmshare_version>
43012

> <i_f3d_flags>
0

> <s_epik_input>
W0NIM11bQ0BASF0xW0NIMl1bQ0gyXVtDSDJdW0NIMl1bQ0BIXTFPW0NIMl1bQ0gyXVtOSF1DKD1PKVtDSDJdbjJbY0hdW2NIXWMoPU8pW25IXWMyPU8=

> <s_epik_cmdline>
J2VwaWtfcHl0aG9uJywgJy1waCcsICc3LjAnLCAnLXRuJywgJzgnLCAnLW1hJywgJzIwMCcsICctbWV0YWxfYmluZGluZycsICctaW1hZScsICc8aW5maWxlLm1hZT4nLCAnLW9tYWUnLCAnPG91dGZpbGUubWFlPic=

> <r_lp_tautomer_probability>
0.999537

> <r_epik_Ionization_Penalty>
0.0033132

> <r_epik_Ionization_Penalty_Charging>
0.00331317

> <r_epik_Ionization_Penalty_Neutral>
2.78599e-08

> <r_epik_State_Penalty>
0.002342

> <r_epik_Charging_Adjusted_Penalty>
0.00565517

> <i_epik_Tot_Q>
0

> <i_epik_Tot_abs_Q>
0

> <r_epik_Metal_State_Penalty>
0.365595

> <b_epik_Metal_Only>
0

> <s_lp_Force_Field>
OPLS_2005

> <r_lp_Energy>
9.24545

> <b_lp_Chiralities_Consistent>
1

> <s_lp_Variant>
AV-unprocessed.smi:1679-2

> <Gold.Version>
5.8.1

> <Gold.Id.Protein>
6NUR|6NUR_protein|mol2

> <Gold.PLP.Fitness>
54.8787

> <Gold.PLP.PLP>
-48.3235

> <Gold.PLP.part.hbond>
-2.0000

> <Gold.PLP.part.metal>
0.0000

> <Gold.PLP.part.buried>
-4.4388

> <Gold.PLP.part.nonpolar>
-42.4863

> <Gold.PLP.part.repulsive>
0.4105

> <Gold.PLP.ligand.clash>
0.0000

> <Gold.PLP.ligand.torsion>
1.0069

> <Gold.PLP.Chemscore.Hbond>
1.8880

> <Gold.PLP.Chemscore.CHOScore>
0.9339

> <Gold.PLP.Chemscore.Metal>
0.0000

> <Gold.Chemscore.Hbonds>
donor molecule, donor type, donor heavy atom, donor atom, acceptor molecule, acceptor atom, score
      L1  H    11    41       P1  8028  0.93
      P1  H  7989  7998       L1    13  1.00
      L1  C    16    44       P1  7957  0.98

> <Gold.PLP.Chemscore.Internal.Correction>
0.1032

> <Gold.Rescore>
     Score         DG    S(hbond)    S(metal)    S(lipo)     H(rot)  DE(clash)    DE(int)     intcor
     17.35     -18.61       1.64        0.00     120.51       2.52       0.35       0.91       ----

> <Gold.Chemscore.Fitness>
17.3467

> <Gold.Chemscore.DG>
-18.6072

> <Gold.Chemscore.ZeroCoef>
-5.4800

> <Gold.Chemscore.Hbond>
1.6392

> <Gold.Chemscore.Metal>
0.0000

> <Gold.Chemscore.Lipo>
120.5082

> <Gold.Chemscore.Internal_Hbond>
0.0000

> <Gold.Chemscore.DEClash>
0.3478

> <Gold.Chemscore.DEInternal>
0.9126

> <Gold.Chemscore.Rot>
2.5185

> <Gold.Chemscore.Internal.Correction>
   9.000000E+99

> <Gold.Chemscore.Hbonds>
donor molecule, donor type, donor heavy atom, donor atom, acceptor molecule, acceptor atom, score
      L1  H    11    41       P1  8028  0.91
      P1  H  7989  7998       L1    13  0.55

> <Gold.Chemscore.Hbond.Weighted>
-5.4750

> <Gold.Chemscore.Metal.Weighted>
-0.0000

> <Gold.Chemscore.Lipo.Weighted>
-14.0995

> <Gold.Chemscore.Internal_Hbond.Weighted>
0.0000

> <Gold.Chemscore.DEClash.Weighted>
0.3478

> <Gold.Chemscore.DEInternal.Weighted>
0.9126

> <Gold.Chemscore.Rot.Weighted>
6.4472

> <Gold.Chemscore.Internal.Correction.Weighted>
   9.000000E+99

> <Gold.Protein.RotatedTorsions>
[ 6907 6896 6895 6894 ] final  131.97 input  -60.11 | X-H torsion
[ 7974 7965 7964 7962 ] final -159.53 input  175.53 | X-H torsion
[ 8008 7997 7996 7995 ] final  -89.63 input   59.86 | X-H torsion
[ 10167 10162 10161 10158 ] final  162.03 input  -65.29 | X-H torsion
[ 10718 10713 10712 10709 ] final   71.08 input   66.30 | X-H torsion
[ 10763 10752 10751 10750 ] final  -35.91 input  -60.55 | X-H torsion
[ 11005 11000 10999 10996 ] final -139.42 input  -57.11 | X-H torsion

> <Gold.Protein.ActiveResidues>
 VAL166  LYS551  ARG553  GLY616  TRP617  ASP618  TYR619  PRO620  LYS621  CYS622 
 ASP623  PHE694  ASN695  SER759  ASP760  ASP761  ALA762  ILE779  LEU786  VAL792 
 PHE793  MET794  SER795  GLU796  ALA797  LYS798  CYS799  TRP800  GLU811  SER814 

> <Gold.Protein.RotatedAtoms>
  152.3372  133.6025  159.5850 H   0  0  0  0  0  0  0  0  0  0  0  0  # atno 6907 bound_to 6896
  150.7457  133.9777  159.3575 H   0  0  0  0  0  0  0  0  0  0  0  0  # atno 6908 bound_to 6896
  151.7646  135.0802  160.0402 H   0  0  0  0  0  0  0  0  0  0  0  0  # atno 6909 bound_to 6896
  144.7461  140.3671  143.6084 H   0  0  0  0  0  0  0  0  0  0  0  0  # atno 7974 bound_to 7965
  154.6889  140.0539  157.0343 H   0  0  0  0  0  0  0  0  0  0  0  0  # atno 8008 bound_to 7997
  155.0845  140.3213  155.4573 H   0  0  0  0  0  0  0  0  0  0  0  0  # atno 8009 bound_to 7997
  156.2721  140.2059  156.5973 H   0  0  0  0  0  0  0  0  0  0  0  0  # atno 8010 bound_to 7997
  139.4856  144.4478  151.8869 H   0  0  0  0  0  0  0  0  0  0  0  0  # atno 10167 bound_to 10162
  157.6433  130.9510  150.0739 H   0  0  0  0  0  0  0  0  0  0  0  0  # atno 10718 bound_to 10713
  153.8710  135.6831  153.4774 H   0  0  0  0  0  0  0  0  0  0  0  0  # atno 10763 bound_to 10752
  153.1287  135.4707  154.9312 H   0  0  0  0  0  0  0  0  0  0  0  0  # atno 10764 bound_to 10752
  154.7714  135.3240  154.8132 H   0  0  0  0  0  0  0  0  0  0  0  0  # atno 10765 bound_to 10752
  140.8521  134.2272  157.4754 H   0  0  0  0  0  0  0  0  0  0  0  0  # atno 11005 bound_to 11000
  145.7117  139.1686  143.2535 LP  0  0  0  0  0  0  0  0  0  0  0  0  # atno 17320 bound_to 7965
  146.1342  140.7145  142.9397 LP  0  0  0  0  0  0  0  0  0  0  0  0  # atno 17321 bound_to 7965
  140.3933  144.2587  150.5898 LP  0  0  0  0  0  0  0  0  0  0  0  0  # atno 17342 bound_to 10162
  140.5125  143.2287  151.8513 LP  0  0  0  0  0  0  0  0  0  0  0  0  # atno 17343 bound_to 10162
  156.1735  130.3647  149.9132 LP  0  0  0  0  0  0  0  0  0  0  0  0  # atno 17370 bound_to 10713
  156.7101  130.8967  151.3608 LP  0  0  0  0  0  0  0  0  0  0  0  0  # atno 17371 bound_to 10713
  139.8704  134.9688  156.4645 LP  0  0  0  0  0  0  0  0  0  0  0  0  # atno 17394 bound_to 11000
  140.8778  133.7940  155.9433 LP  0  0  0  0  0  0  0  0  0  0  0  0  # atno 17395 bound_to 11000

$$$$
