AV-unprocessed.smi:3266|AV-procd|sdf|12500|dock5
  -GOLD-   2272018403D 1   1.00000     0.00000
 Structure written by MMmdl.
 38 39  0  0  0  0  0  0  0  0  1 V2000
  154.3248  139.5918  158.8801 O   0  0  0  0  0  0  0  0  0  0  0  0
  154.2257  140.0891  160.0020 C   0  0  0  0  0  0  0  0  0  0  0  0
  154.0882  141.6043  160.1620 C   0  0  0  0  0  0  0  0  0  0  0  0
  152.8130  142.1453  159.4909 C   0  0  0  0  0  0  0  0  0  0  0  0
  152.6994  143.6739  159.5810 C   0  0  2  0  0  0  0  0  0  0  0  0
  151.9539  144.1647  160.8205 C   0  0  0  0  0  0  0  0  0  0  0  0
  151.4774  145.5256  160.3672 C   0  0  0  0  0  0  0  0  0  0  0  0
  151.1135  145.2591  158.9090 C   0  0  0  0  0  0  0  0  0  0  0  0
  151.9587  144.1942  158.4796 O   0  0  0  0  0  0  0  0  0  0  0  0
  154.2135  139.3657  161.1331 N   0  0  0  0  0  0  0  0  0  0  0  0
  154.2501  137.9070  161.2083 C   0  0  0  0  0  0  0  0  0  0  0  0
  153.8886  137.3864  162.6135 C   0  0  0  0  0  0  0  0  0  0  0  0
  154.0841  135.8887  162.7795 C   0  0  0  0  0  0  0  0  0  0  0  0
  153.8056  135.2563  164.0107 C   0  0  0  0  0  0  0  0  0  0  0  0
  153.9693  133.8606  164.0999 C   0  0  0  0  0  0  0  0  0  0  0  0
  154.4076  133.1553  162.9628 C   0  0  0  0  0  0  0  0  0  0  0  0
  154.6641  133.8804  161.7819 C   0  0  0  0  0  0  0  0  0  0  0  0
  154.5096  135.2185  161.6851 N   0  0  0  0  0  0  0  0  0  0  0  0
  154.0826  141.8621  161.2221 H   0  0  0  0  0  0  0  0  0  0  0  0
  154.9702  142.0778  159.7298 H   0  0  0  0  0  0  0  0  0  0  0  0
  152.7834  141.8417  158.4432 H   0  0  0  0  0  0  0  0  0  0  0  0
  151.9384  141.6973  159.9653 H   0  0  0  0  0  0  0  0  0  0  0  0
  153.6919  144.1272  159.5626 H   0  0  0  0  0  0  0  0  0  0  0  0
  151.0978  143.5235  161.0365 H   0  0  0  0  0  0  0  0  0  0  0  0
  152.5849  144.2044  161.7089 H   0  0  0  0  0  0  0  0  0  0  0  0
  150.6409  145.9068  160.9535 H   0  0  0  0  0  0  0  0  0  0  0  0
  152.2944  146.2462  160.4261 H   0  0  0  0  0  0  0  0  0  0  0  0
  150.0768  144.9301  158.8283 H   0  0  0  0  0  0  0  0  0  0  0  0
  151.2374  146.1431  158.2832 H   0  0  0  0  0  0  0  0  0  0  0  0
  154.1360  139.8629  162.0086 H   0  0  0  0  0  0  0  0  0  0  0  0
  153.5884  137.4638  160.4621 H   0  0  0  0  0  0  0  0  0  0  0  0
  155.2577  137.5814  160.9495 H   0  0  0  0  0  0  0  0  0  0  0  0
  154.4926  137.9035  163.3601 H   0  0  0  0  0  0  0  0  0  0  0  0
  152.8517  137.6370  162.8408 H   0  0  0  0  0  0  0  0  0  0  0  0
  153.4613  135.8239  164.8625 H   0  0  0  0  0  0  0  0  0  0  0  0
  153.7594  133.3401  165.0225 H   0  0  0  0  0  0  0  0  0  0  0  0
  154.5432  132.0844  162.9941 H   0  0  0  0  0  0  0  0  0  0  0  0
  155.0016  133.3719  160.8909 H   0  0  0  0  0  0  0  0  0  0  0  0
  1  2  2  0  0  0  0
  2  3  1  0  0  0  0
  2 10  1  0  0  0  0
  3  4  1  0  0  0  0
  3 19  1  0  0  0  0
  3 20  1  0  0  0  0
  4  5  1  0  0  0  0
  4 21  1  0  0  0  0
  4 22  1  0  0  0  0
  5  9  1  0  0  0  0
  5  6  1  0  0  0  0
  5 23  1  0  0  0  0
  6  7  1  0  0  0  0
  6 24  1  0  0  0  0
  6 25  1  0  0  0  0
  7  8  1  0  0  0  0
  7 26  1  0  0  0  0
  7 27  1  0  0  0  0
  8  9  1  0  0  0  0
  8 28  1  0  0  0  0
  8 29  1  0  0  0  0
 10 11  1  0  0  0  0
 10 30  1  0  0  0  0
 11 12  1  0  0  0  0
 11 31  1  0  0  0  0
 11 32  1  0  0  0  0
 12 13  1  0  0  0  0
 12 33  1  0  0  0  0
 12 34  1  0  0  0  0
 13 18  1  0  0  0  0
 13 14  2  0  0  0  0
 14 15  1  0  0  0  0
 14 35  1  0  0  0  0
 15 16  2  0  0  0  0
 15 36  1  0  0  0  0
 16 17  1  0  0  0  0
 16 37  1  0  0  0  0
 17 18  2  0  0  0  0
 17 38  1  0  0  0  0
M  END
> <s_m_source_file>
AV-unprocessed.smi

> <i_m_source_file_index>
3266

> <i_lp_mmshare_version>
43012

> <i_f3d_flags>
0

> <s_epik_input>
TzFbQ0gyXVtDSDJdW0NIMl1bQ0BIXTFbQ0gyXVtDSDJdQyg9TylbTkhdW0NIMl1bQ0gyXWMyW2NIXVtjSF1bY0hdW2NIXW4y

> <s_epik_cmdline>
J2VwaWtfcHl0aG9uJywgJy1waCcsICc3LjAnLCAnLXRuJywgJzgnLCAnLW1hJywgJzIwMCcsICctbWV0YWxfYmluZGluZycsICctaW1hZScsICc8aW5maWxlLm1hZT4nLCAnLW9tYWUnLCAnPG91dGZpbGUubWFlPic=

> <r_epik_Ionization_Penalty>
0.0267142

> <r_epik_Ionization_Penalty_Charging>
0

> <r_epik_Ionization_Penalty_Neutral>
0.0267142

> <r_epik_State_Penalty>
0.0218233

> <r_epik_Charging_Adjusted_Penalty>
0.0218233

> <i_epik_Tot_Q>
0

> <i_epik_Tot_abs_Q>
0

> <r_epik_Metal_State_Penalty>
0.0208786

> <b_epik_Metal_Only>
0

> <s_lp_Force_Field>
OPLS_2005

> <r_lp_Energy>
16.3587

> <b_lp_Chiralities_Consistent>
1

> <s_lp_Variant>
AV-unprocessed.smi:3266-1

> <Gold.Version>
5.8.1

> <Gold.Id.Protein>
6NUR|6NUR_protein|mol2

> <Gold.PLP.Fitness>
46.3425

> <Gold.PLP.PLP>
-44.1958

> <Gold.PLP.part.hbond>
-1.0000

> <Gold.PLP.part.metal>
0.0000

> <Gold.PLP.part.buried>
-5.2803

> <Gold.PLP.part.nonpolar>
-37.4823

> <Gold.PLP.part.repulsive>
0.0678

> <Gold.PLP.ligand.clash>
0.0000

> <Gold.PLP.ligand.torsion>
0.4662

> <Gold.PLP.Chemscore.Hbond>
1.0000

> <Gold.PLP.Chemscore.CHOScore>
0.0000

> <Gold.PLP.Chemscore.Metal>
0.0000

> <Gold.Chemscore.Hbonds>
donor molecule, donor type, donor heavy atom, donor atom, acceptor molecule, acceptor atom, score
      P1  H  7997  8010       L1     1  1.00

> <Gold.PLP.Chemscore.Internal.Correction>
0.0792

> <Gold.Rescore>
     Score         DG    S(hbond)    S(metal)    S(lipo)     H(rot)  DE(clash)    DE(int)     intcor
     18.73     -19.15       1.00        0.00     125.81       1.71       0.11       0.32       ----

> <Gold.Chemscore.Fitness>
18.7311

> <Gold.Chemscore.DG>
-19.1547

> <Gold.Chemscore.ZeroCoef>
-5.4800

> <Gold.Chemscore.Hbond>
0.9998

> <Gold.Chemscore.Metal>
0.0000

> <Gold.Chemscore.Lipo>
125.8102

> <Gold.Chemscore.Internal_Hbond>
0.0000

> <Gold.Chemscore.DEClash>
0.1083

> <Gold.Chemscore.DEInternal>
0.3153

> <Gold.Chemscore.Rot>
1.7127

> <Gold.Chemscore.Internal.Correction>
   9.000000E+99

> <Gold.Chemscore.Hbonds>
donor molecule, donor type, donor heavy atom, donor atom, acceptor molecule, acceptor atom, score
      P1  H  7997  8010       L1     1  1.00

> <Gold.Chemscore.Hbond.Weighted>
-3.3395

> <Gold.Chemscore.Metal.Weighted>
-0.0000

> <Gold.Chemscore.Lipo.Weighted>
-14.7198

> <Gold.Chemscore.Internal_Hbond.Weighted>
0.0000

> <Gold.Chemscore.DEClash.Weighted>
0.1083

> <Gold.Chemscore.DEInternal.Weighted>
0.3153

> <Gold.Chemscore.Rot.Weighted>
4.3846

> <Gold.Chemscore.Internal.Correction.Weighted>
   9.000000E+99

> <Gold.Protein.RotatedTorsions>
[ 6907 6896 6895 6894 ] final  -43.25 input  -60.11 | X-H torsion
[ 7974 7965 7964 7962 ] final   -6.23 input  175.53 | X-H torsion
[ 8008 7997 7996 7995 ] final    3.03 input   59.86 | X-H torsion
[ 10167 10162 10161 10158 ] final  142.55 input  -65.29 | X-H torsion
[ 10718 10713 10712 10709 ] final  127.17 input   66.30 | X-H torsion
[ 10763 10752 10751 10750 ] final -142.17 input  -60.55 | X-H torsion
[ 11005 11000 10999 10996 ] final  129.81 input  -57.11 | X-H torsion

> <Gold.Protein.ActiveResidues>
 VAL166  LYS551  ARG553  GLY616  TRP617  ASP618  TYR619  PRO620  LYS621  CYS622 
 ASP623  PHE694  ASN695  SER759  ASP760  ASP761  ALA762  ILE779  LEU786  VAL792 
 PHE793  MET794  SER795  GLU796  ALA797  LYS798  CYS799  TRP800  GLU811  SER814 

> <Gold.Protein.RotatedAtoms>
  150.9460  134.8865  159.7641 H   0  0  0  0  0  0  0  0  0  0  0  0  # atno 6907 bound_to 6896
  152.5100  134.3874  159.9382 H   0  0  0  0  0  0  0  0  0  0  0  0  # atno 6908 bound_to 6896
  151.3892  133.3754  159.2754 H   0  0  0  0  0  0  0  0  0  0  0  0  # atno 6909 bound_to 6896
  146.2335  140.2139  142.8336 H   0  0  0  0  0  0  0  0  0  0  0  0  # atno 7974 bound_to 7965
  154.6987  140.2668  155.6741 H   0  0  0  0  0  0  0  0  0  0  0  0  # atno 8008 bound_to 7997
  156.2757  140.2776  156.1514 H   0  0  0  0  0  0  0  0  0  0  0  0  # atno 8009 bound_to 7997
  155.0795  140.0372  157.2624 H   0  0  0  0  0  0  0  0  0  0  0  0  # atno 8010 bound_to 7997
  139.4991  144.6099  151.6295 H   0  0  0  0  0  0  0  0  0  0  0  0  # atno 10167 bound_to 10162
  157.5356  131.1097  150.8941 H   0  0  0  0  0  0  0  0  0  0  0  0  # atno 10718 bound_to 10713
  154.8519  135.3503  154.5985 H   0  0  0  0  0  0  0  0  0  0  0  0  # atno 10763 bound_to 10752
  153.6594  135.6990  153.5187 H   0  0  0  0  0  0  0  0  0  0  0  0  # atno 10764 bound_to 10752
  153.2830  135.4258  155.1053 H   0  0  0  0  0  0  0  0  0  0  0  0  # atno 10765 bound_to 10752
  139.9636  134.9596  156.9202 H   0  0  0  0  0  0  0  0  0  0  0  0  # atno 11005 bound_to 11000
  144.9685  140.8345  143.5470 LP  0  0  0  0  0  0  0  0  0  0  0  0  # atno 17320 bound_to 7965
  145.2118  139.2201  143.5139 LP  0  0  0  0  0  0  0  0  0  0  0  0  # atno 17321 bound_to 7965
  140.5771  144.0010  150.6247 LP  0  0  0  0  0  0  0  0  0  0  0  0  # atno 17342 bound_to 10162
  140.3146  143.3176  152.0844 LP  0  0  0  0  0  0  0  0  0  0  0  0  # atno 17343 bound_to 10162
  156.9509  130.5419  149.5282 LP  0  0  0  0  0  0  0  0  0  0  0  0  # atno 17370 bound_to 10713
  156.0456  130.5533  150.8873 LP  0  0  0  0  0  0  0  0  0  0  0  0  # atno 17371 bound_to 10713
  140.5445  134.0687  155.7351 LP  0  0  0  0  0  0  0  0  0  0  0  0  # atno 17394 bound_to 11000
  141.1315  133.9294  157.2526 LP  0  0  0  0  0  0  0  0  0  0  0  0  # atno 17395 bound_to 11000

$$$$
