AV-unprocessed.smi:1340|AV-procd|sdf|5503|dock6
  -GOLD-   22720 5 83D 1   1.00000     0.00000
 Structure written by MMmdl.
 40 41  0  0  0  0  0  0  0  0  1 V2000
  152.4506  144.1791  158.7128 C   0  0  0  0  0  0  0  0  0  0  0  0
  151.8033  142.8595  158.2793 C   0  0  0  0  0  0  0  0  0  0  0  0
  150.8859  143.0227  157.0530 C   0  0  0  0  0  0  0  0  0  0  0  0
  150.3347  141.6905  156.5064 C   0  0  2  0  0  0  0  0  0  0  0  0
  151.4591  140.7575  156.0324 C   0  0  0  0  0  0  0  0  0  0  0  0
  149.4107  141.9553  155.4083 N   0  0  0  0  0  0  0  0  0  0  0  0
  148.8076  141.0336  154.6407 C   0  0  0  0  0  0  0  0  0  0  0  0
  149.0527  139.8290  154.7018 O   0  0  0  0  0  0  0  0  0  0  0  0
  147.7469  141.5557  153.6675 C   0  0  0  0  0  0  0  0  0  0  0  0
  146.5128  141.9569  154.4256 C   0  0  0  0  0  0  0  0  0  0  0  0
  145.9172  141.2711  155.4561 C   0  0  0  0  0  0  0  0  0  0  0  0
  144.5417  142.1258  156.1011 S   0  0  0  0  0  0  0  0  0  0  0  0
  144.8282  143.4085  154.9219 C   0  0  0  0  0  0  0  0  0  0  0  0
  144.0967  144.6260  154.7955 N   0  0  0  0  0  0  0  0  0  0  0  0
  143.3057  145.1629  155.8986 C   0  0  0  0  0  0  0  0  0  0  0  0
  142.6546  146.4099  155.3090 C   0  0  0  0  0  0  0  0  0  0  0  0
  143.1790  146.4187  153.9635 N   0  0  0  0  0  0  0  0  0  0  0  0
  143.9945  145.3967  153.6946 C   0  0  0  0  0  0  0  0  0  0  0  0
  144.5460  145.2240  152.6094 O   0  0  0  0  0  0  0  0  0  0  0  0
  145.8628  143.1566  154.1144 N   0  0  0  0  0  0  0  0  0  0  0  0
  153.0868  144.0302  159.5856 H   0  0  0  0  0  0  0  0  0  0  0  0
  151.6956  144.9203  158.9763 H   0  0  0  0  0  0  0  0  0  0  0  0
  153.0680  144.5958  157.9167 H   0  0  0  0  0  0  0  0  0  0  0  0
  152.5836  142.1307  158.0573 H   0  0  0  0  0  0  0  0  0  0  0  0
  151.2406  142.4572  159.1211 H   0  0  0  0  0  0  0  0  0  0  0  0
  150.0553  143.6822  157.3091 H   0  0  0  0  0  0  0  0  0  0  0  0
  151.4417  143.5295  156.2632 H   0  0  0  0  0  0  0  0  0  0  0  0
  149.7988  141.1932  157.3172 H   0  0  0  0  0  0  0  0  0  0  0  0
  152.1526  140.5367  156.8441 H   0  0  0  0  0  0  0  0  0  0  0  0
  152.0306  141.2051  155.2186 H   0  0  0  0  0  0  0  0  0  0  0  0
  151.0590  139.8075  155.6763 H   0  0  0  0  0  0  0  0  0  0  0  0
  149.1415  142.9192  155.2722 H   0  0  0  0  0  0  0  0  0  0  0  0
  148.1538  142.4004  153.1101 H   0  0  0  0  0  0  0  0  0  0  0  0
  147.5150  140.7826  152.9337 H   0  0  0  0  0  0  0  0  0  0  0  0
  146.2152  140.3265  155.8867 H   0  0  0  0  0  0  0  0  0  0  0  0
  142.5577  144.4409  156.2289 H   0  0  0  0  0  0  0  0  0  0  0  0
  143.9477  145.4111  156.7452 H   0  0  0  0  0  0  0  0  0  0  0  0
  141.5664  146.3361  155.2955 H   0  0  0  0  0  0  0  0  0  0  0  0
  142.9447  147.3160  155.8421 H   0  0  0  0  0  0  0  0  0  0  0  0
  142.9436  147.1393  153.2963 H   0  0  0  0  0  0  0  0  0  0  0  0
  1  2  1  0  0  0  0
  1 21  1  0  0  0  0
  1 22  1  0  0  0  0
  1 23  1  0  0  0  0
  2  3  1  0  0  0  0
  2 24  1  0  0  0  0
  2 25  1  0  0  0  0
  3  4  1  0  0  0  0
  3 26  1  0  0  0  0
  3 27  1  0  0  0  0
  4  5  1  0  0  0  0
  4  6  1  0  0  0  0
  4 28  1  0  0  0  0
  5 29  1  0  0  0  0
  5 30  1  0  0  0  0
  5 31  1  0  0  0  0
  6  7  1  0  0  0  0
  6 32  1  0  0  0  0
  7  8  2  0  0  0  0
  7  9  1  0  0  0  0
  9 10  1  0  0  0  0
  9 33  1  0  0  0  0
  9 34  1  0  0  0  0
 10 20  1  0  0  0  0
 10 11  2  0  0  0  0
 11 12  1  0  0  0  0
 11 35  1  0  0  0  0
 12 13  1  0  0  0  0
 13 14  1  0  0  0  0
 13 20  2  0  0  0  0
 14 18  1  0  0  0  0
 14 15  1  0  0  0  0
 15 16  1  0  0  0  0
 15 36  1  0  0  0  0
 15 37  1  0  0  0  0
 16 17  1  0  0  0  0
 16 38  1  0  0  0  0
 16 39  1  0  0  0  0
 17 18  1  0  0  0  0
 17 40  1  0  0  0  0
 18 19  2  0  0  0  0
M  END
> <s_m_source_file>
AV-unprocessed.smi

> <i_m_source_file_index>
1340

> <i_lp_mmshare_version>
43012

> <i_f3d_flags>
0

> <s_epik_input>
W0NIM11bQ0gyXVtDSDJdW0NASF0oW0NIM10pW05IXUMoPU8pW0NIMl1jMVtjSF1zYyhuMSlOMltDSDJdW0NIMl1bTkhdQzI9Tw==

> <s_epik_cmdline>
J2VwaWtfcHl0aG9uJywgJy1waCcsICc3LjAnLCAnLXRuJywgJzgnLCAnLW1hJywgJzIwMCcsICctbWV0YWxfYmluZGluZycsICctaW1hZScsICc8aW5maWxlLm1hZT4nLCAnLW9tYWUnLCAnPG91dGZpbGUubWFlPic=

> <r_lp_tautomer_probability>
1

> <r_epik_Ionization_Penalty>
0.00012151

> <r_epik_Ionization_Penalty_Charging>
0

> <r_epik_Ionization_Penalty_Neutral>
0.00012151

> <r_epik_State_Penalty>
-0

> <r_epik_Charging_Adjusted_Penalty>
0

> <i_epik_Tot_Q>
0

> <i_epik_Tot_abs_Q>
0

> <r_epik_Metal_State_Penalty>
-0

> <b_epik_Metal_Only>
0

> <s_lp_Force_Field>
OPLS_2005

> <r_lp_Energy>
29.8855

> <b_lp_Chiralities_Consistent>
1

> <s_lp_Variant>
AV-unprocessed.smi:1340-1

> <Gold.Version>
5.8.1

> <Gold.Id.Protein>
6NUR|6NUR_protein|mol2

> <Gold.PLP.Fitness>
42.8313

> <Gold.PLP.PLP>
-41.0822

> <Gold.PLP.part.hbond>
-3.0000

> <Gold.PLP.part.metal>
0.0000

> <Gold.PLP.part.buried>
-5.9339

> <Gold.PLP.part.nonpolar>
-33.1576

> <Gold.PLP.part.repulsive>
0.7578

> <Gold.PLP.ligand.clash>
0.0000

> <Gold.PLP.ligand.torsion>
0.6389

> <Gold.PLP.Chemscore.Hbond>
1.0000

> <Gold.PLP.Chemscore.CHOScore>
0.0000

> <Gold.PLP.Chemscore.Metal>
0.0000

> <Gold.Chemscore.Hbonds>
donor molecule, donor type, donor heavy atom, donor atom, acceptor molecule, acceptor atom, score
      L1  H     6    32       P1  8028  1.00

> <Gold.PLP.Chemscore.Internal.Correction>
0.0270

> <Gold.Rescore>
     Score         DG    S(hbond)    S(metal)    S(lipo)     H(rot)  DE(clash)    DE(int)     intcor
      8.62     -13.00       1.00        0.00      77.79       1.92       1.50       2.88       ----

> <Gold.Chemscore.Fitness>
8.6216

> <Gold.Chemscore.DG>
-13.0015

> <Gold.Chemscore.ZeroCoef>
-5.4800

> <Gold.Chemscore.Hbond>
0.9968

> <Gold.Chemscore.Metal>
0.0000

> <Gold.Chemscore.Lipo>
77.7878

> <Gold.Chemscore.Internal_Hbond>
0.0000

> <Gold.Chemscore.DEClash>
1.4976

> <Gold.Chemscore.DEInternal>
2.8823

> <Gold.Chemscore.Rot>
1.9176

> <Gold.Chemscore.Internal.Correction>
   9.000000E+99

> <Gold.Chemscore.Hbonds>
donor molecule, donor type, donor heavy atom, donor atom, acceptor molecule, acceptor atom, score
      L1  H     6    32       P1  8028  1.00

> <Gold.Chemscore.Hbond.Weighted>
-3.3294

> <Gold.Chemscore.Metal.Weighted>
-0.0000

> <Gold.Chemscore.Lipo.Weighted>
-9.1012

> <Gold.Chemscore.Internal_Hbond.Weighted>
0.0000

> <Gold.Chemscore.DEClash.Weighted>
1.4976

> <Gold.Chemscore.DEInternal.Weighted>
2.8823

> <Gold.Chemscore.Rot.Weighted>
4.9091

> <Gold.Chemscore.Internal.Correction.Weighted>
   9.000000E+99

> <Gold.Protein.RotatedTorsions>
[ 6907 6896 6895 6894 ] final  128.18 input  -60.11 | X-H torsion
[ 7974 7965 7964 7962 ] final  -83.39 input  175.53 | X-H torsion
[ 8008 7997 7996 7995 ] final  -19.38 input   59.86 | X-H torsion
[ 10167 10162 10161 10158 ] final   60.34 input  -65.29 | X-H torsion
[ 10718 10713 10712 10709 ] final   55.53 input   66.30 | X-H torsion
[ 10763 10752 10751 10750 ] final -169.90 input  -60.55 | X-H torsion
[ 11005 11000 10999 10996 ] final -168.82 input  -57.11 | X-H torsion

> <Gold.Protein.ActiveResidues>
 VAL166  LYS551  ARG553  GLY616  TRP617  ASP618  TYR619  PRO620  LYS621  CYS622 
 ASP623  PHE694  ASN695  SER759  ASP760  ASP761  ALA762  ILE779  LEU786  VAL792 
 PHE793  MET794  SER795  GLU796  ALA797  LYS798  CYS799  TRP800  GLU811  SER814 

> <Gold.Protein.RotatedAtoms>
  152.3744  133.6461  159.6111 H   0  0  0  0  0  0  0  0  0  0  0  0  # atno 6907 bound_to 6896
  150.7692  133.9218  159.3409 H   0  0  0  0  0  0  0  0  0  0  0  0  # atno 6908 bound_to 6896
  151.7035  135.0927  160.0306 H   0  0  0  0  0  0  0  0  0  0  0  0  # atno 6909 bound_to 6896
  145.5206  140.9531  143.1657 H   0  0  0  0  0  0  0  0  0  0  0  0  # atno 7974 bound_to 7965
  154.4840  140.2090  155.9697 H   0  0  0  0  0  0  0  0  0  0  0  0  # atno 8008 bound_to 7997
  156.1209  140.3213  155.8175 H   0  0  0  0  0  0  0  0  0  0  0  0  # atno 8009 bound_to 7997
  155.4470  140.0514  157.2995 H   0  0  0  0  0  0  0  0  0  0  0  0  # atno 8010 bound_to 7997
  140.1666  144.4318  150.6682 H   0  0  0  0  0  0  0  0  0  0  0  0  # atno 10167 bound_to 10162
  157.5353  130.8659  149.8745 H   0  0  0  0  0  0  0  0  0  0  0  0  # atno 10718 bound_to 10713
  154.6473  135.2906  155.0030 H   0  0  0  0  0  0  0  0  0  0  0  0  # atno 10763 bound_to 10752
  154.1135  135.6559  153.4893 H   0  0  0  0  0  0  0  0  0  0  0  0  # atno 10764 bound_to 10752
  153.0358  135.5271  154.7366 H   0  0  0  0  0  0  0  0  0  0  0  0  # atno 10765 bound_to 10752
  140.5377  134.5553  157.5091 H   0  0  0  0  0  0  0  0  0  0  0  0  # atno 11005 bound_to 11000
  144.7678  139.6805  143.7207 LP  0  0  0  0  0  0  0  0  0  0  0  0  # atno 17320 bound_to 7965
  146.2108  139.5463  142.9682 LP  0  0  0  0  0  0  0  0  0  0  0  0  # atno 17321 bound_to 7965
  140.6609  143.2252  151.5858 LP  0  0  0  0  0  0  0  0  0  0  0  0  # atno 17342 bound_to 10162
  139.5357  144.2789  152.1245 LP  0  0  0  0  0  0  0  0  0  0  0  0  # atno 17343 bound_to 10162
  156.0454  130.3729  150.1331 LP  0  0  0  0  0  0  0  0  0  0  0  0  # atno 17370 bound_to 10713
  156.9514  130.9776  151.3497 LP  0  0  0  0  0  0  0  0  0  0  0  0  # atno 17371 bound_to 10713
  139.9520  134.7600  156.0426 LP  0  0  0  0  0  0  0  0  0  0  0  0  # atno 17394 bound_to 11000
  141.1245  133.6603  156.3300 LP  0  0  0  0  0  0  0  0  0  0  0  0  # atno 17395 bound_to 11000

$$$$
