AV-unprocessed.smi:1881|AV-procd|sdf|7640|dock4
  -GOLD-   22720 9363D 1   1.00000     0.00000
 Structure written by MMmdl.
 51 52  0  0  0  0  0  0  0  0  2 V2000
  156.2884  130.5895  160.6147 C   0  0  0  0  0  0  0  0  0  0  0  0
  156.5856  132.0469  160.1797 C   0  0  0  0  0  0  0  0  0  0  0  0
  158.1295  132.1379  160.0413 C   0  0  0  0  0  0  0  0  0  0  0  0
  156.0155  132.3775  158.7809 C   0  0  0  0  0  0  0  0  0  0  0  0
  156.1059  133.0906  161.2412 C   0  0  0  0  0  0  0  0  0  0  0  0
  155.5680  132.6558  162.2623 O   0  0  0  0  0  0  0  0  0  0  0  0
  156.2548  134.4362  161.0773 N   0  0  0  0  0  0  0  0  0  0  0  0
  156.8440  135.1617  159.9437 C   0  0  0  0  0  0  0  0  0  0  0  0
  155.7242  135.8807  159.1692 C   0  0  0  0  0  0  0  0  0  0  0  0
  154.9415  136.8430  160.0925 C   0  0  0  0  0  0  0  0  0  0  0  0
  153.7344  137.4401  159.3590 C   0  0  0  0  0  0  0  0  0  0  0  0
  152.7937  136.7198  159.0228 O   0  0  0  0  0  0  0  0  0  0  0  0
  153.7846  138.7556  159.0943 N   0  0  0  0  0  0  0  0  0  0  0  0
  152.7597  139.5189  158.3861 C   0  0  0  0  0  0  0  0  0  0  0  0
  151.6097  139.9798  159.3049 C   0  0  0  0  0  0  0  0  0  0  0  0
  151.6918  141.4415  159.7117 C   0  0  0  0  0  0  0  0  0  0  0  0
  152.5369  141.8798  160.7538 C   0  0  0  0  0  0  0  0  0  0  0  0
  152.5416  143.2443  161.1098 C   0  0  0  0  0  0  0  0  0  0  0  0
  151.7020  144.1416  160.4181 C   0  0  0  0  0  0  0  0  0  0  0  0
  150.8780  143.6507  159.3851 C   0  0  0  0  0  0  0  0  0  0  0  0
  150.9031  142.3366  159.0724 N   0  3  0  0  0  0  0  0  0  0  0  0
  154.5098  136.1268  161.3930 C   0  0  0  0  0  0  0  0  0  0  0  0
  155.6999  135.3992  162.0440 C   0  0  0  0  0  0  0  0  0  0  0  0
  156.9637  129.8853  160.1276 H   0  0  0  0  0  0  0  0  0  0  0  0
  155.2886  130.2522  160.3529 H   0  0  0  0  0  0  0  0  0  0  0  0
  156.4176  130.4565  161.6896 H   0  0  0  0  0  0  0  0  0  0  0  0
  158.6347  131.9159  160.9828 H   0  0  0  0  0  0  0  0  0  0  0  0
  158.4544  133.1274  159.7151 H   0  0  0  0  0  0  0  0  0  0  0  0
  158.5076  131.4294  159.3030 H   0  0  0  0  0  0  0  0  0  0  0  0
  156.4537  131.7309  158.0200 H   0  0  0  0  0  0  0  0  0  0  0  0
  156.2425  133.4061  158.4971 H   0  0  0  0  0  0  0  0  0  0  0  0
  154.9382  132.2578  158.7030 H   0  0  0  0  0  0  0  0  0  0  0  0
  157.5560  135.8966  160.3222 H   0  0  0  0  0  0  0  0  0  0  0  0
  157.4277  134.5489  159.2700 H   0  0  0  0  0  0  0  0  0  0  0  0
  156.1544  136.4336  158.3331 H   0  0  0  0  0  0  0  0  0  0  0  0
  155.0519  135.1398  158.7339 H   0  0  0  0  0  0  0  0  0  0  0  0
  155.6148  137.6557  160.3717 H   0  0  0  0  0  0  0  0  0  0  0  0
  154.5935  139.2692  159.4137 H   0  0  0  0  0  0  0  0  0  0  0  0
  153.2032  140.3781  157.8798 H   0  0  0  0  0  0  0  0  0  0  0  0
  152.3572  138.8817  157.5985 H   0  0  0  0  0  0  0  0  0  0  0  0
  150.6562  139.8125  158.8029 H   0  0  0  0  0  0  0  0  0  0  0  0
  151.5875  139.3618  160.2037 H   0  0  0  0  0  0  0  0  0  0  0  0
  153.1670  141.1786  161.2814 H   0  0  0  0  0  0  0  0  0  0  0  0
  153.1787  143.5980  161.9073 H   0  0  0  0  0  0  0  0  0  0  0  0
  151.6889  145.1899  160.6783 H   0  0  0  0  0  0  0  0  0  0  0  0
  150.2023  144.2637  158.8069 H   0  0  0  0  0  0  0  0  0  0  0  0
  154.0913  136.8484  162.0959 H   0  0  0  0  0  0  0  0  0  0  0  0
  153.7199  135.4021  161.1873 H   0  0  0  0  0  0  0  0  0  0  0  0
  155.3785  134.9433  162.9808 H   0  0  0  0  0  0  0  0  0  0  0  0
  156.4691  136.1189  162.3285 H   0  0  0  0  0  0  0  0  0  0  0  0
  150.2928  142.0018  158.3267 H   0  0  0  0  0  0  0  0  0  0  0  0
  1  2  1  0  0  0  0
  1 24  1  0  0  0  0
  1 25  1  0  0  0  0
  1 26  1  0  0  0  0
  2  3  1  0  0  0  0
  2  4  1  0  0  0  0
  2  5  1  0  0  0  0
  3 27  1  0  0  0  0
  3 28  1  0  0  0  0
  3 29  1  0  0  0  0
  4 30  1  0  0  0  0
  4 31  1  0  0  0  0
  4 32  1  0  0  0  0
  5  6  2  0  0  0  0
  5  7  1  0  0  0  0
  7 23  1  0  0  0  0
  7  8  1  0  0  0  0
  8  9  1  0  0  0  0
  8 33  1  0  0  0  0
  8 34  1  0  0  0  0
  9 10  1  0  0  0  0
  9 35  1  0  0  0  0
  9 36  1  0  0  0  0
 10 11  1  0  0  0  0
 10 22  1  0  0  0  0
 10 37  1  0  0  0  0
 11 12  2  0  0  0  0
 11 13  1  0  0  0  0
 13 14  1  0  0  0  0
 13 38  1  0  0  0  0
 14 15  1  0  0  0  0
 14 39  1  0  0  0  0
 14 40  1  0  0  0  0
 15 16  1  0  0  0  0
 15 41  1  0  0  0  0
 15 42  1  0  0  0  0
 16 21  1  0  0  0  0
 16 17  2  0  0  0  0
 17 18  1  0  0  0  0
 17 43  1  0  0  0  0
 18 19  2  0  0  0  0
 18 44  1  0  0  0  0
 19 20  1  0  0  0  0
 19 45  1  0  0  0  0
 20 21  2  0  0  0  0
 20 46  1  0  0  0  0
 21 51  1  0  0  0  0
 22 23  1  0  0  0  0
 22 47  1  0  0  0  0
 22 48  1  0  0  0  0
 23 49  1  0  0  0  0
 23 50  1  0  0  0  0
M  CHG  1  21   1
M  END
> <s_m_source_file>
AV-unprocessed.smi

> <i_m_source_file_index>
1881

> <i_lp_mmshare_version>
43012

> <i_f3d_flags>
0

> <s_epik_input>
W0NIM11DKFtDSDNdKShbQ0gzXSlDKD1PKU4xW0NIMl1bQ0gyXVtDSF0oW0NIMl1bQ0gyXTEpQyg9TylbTkhdW0NIMl1bQ0gyXWMyW2NIXVtjSF1bY0hdW2NIXW4y

> <s_epik_cmdline>
J2VwaWtfcHl0aG9uJywgJy1waCcsICc3LjAnLCAnLXRuJywgJzgnLCAnLW1hJywgJzIwMCcsICctbWV0YWxfYmluZGluZycsICctaW1hZScsICc8aW5maWxlLm1hZT4nLCAnLW9tYWUnLCAnPG91dGZpbGUubWFlPic=

> <r_epik_Ionization_Penalty>
1.84673

> <r_epik_Ionization_Penalty_Charging>
1.84673

> <r_epik_Ionization_Penalty_Neutral>
1.24553e-07

> <r_epik_State_Penalty>
1.9639

> <r_epik_Charging_Adjusted_Penalty>
3.81063

> <i_epik_Tot_Q>
1

> <i_epik_Tot_abs_Q>
1

> <r_epik_Metal_State_Penalty>
1.98977

> <b_epik_Metal_Only>
0

> <s_lp_Force_Field>
OPLS_2005

> <r_lp_Energy>
43.8057

> <b_lp_Chiralities_Consistent>
1

> <s_lp_Variant>
AV-unprocessed.smi:1881-2

> <Gold.Version>
5.8.1

> <Gold.Id.Protein>
6NUR|6NUR_protein|mol2

> <Gold.PLP.Fitness>
43.6800

> <Gold.PLP.PLP>
-42.3308

> <Gold.PLP.part.hbond>
-1.0000

> <Gold.PLP.part.metal>
0.0000

> <Gold.PLP.part.buried>
-4.9960

> <Gold.PLP.part.nonpolar>
-37.8416

> <Gold.PLP.part.repulsive>
0.5440

> <Gold.PLP.ligand.clash>
0.0000

> <Gold.PLP.ligand.torsion>
0.8754

> <Gold.PLP.Chemscore.Hbond>
1.0000

> <Gold.PLP.Chemscore.CHOScore>
0.0000

> <Gold.PLP.Chemscore.Metal>
0.0000

> <Gold.Chemscore.Hbonds>
donor molecule, donor type, donor heavy atom, donor atom, acceptor molecule, acceptor atom, score
      P1  H  6896  6907       L1    12  0.60

> <Gold.PLP.Chemscore.Internal.Correction>
0.0999

> <Gold.Rescore>
     Score         DG    S(hbond)    S(metal)    S(lipo)     H(rot)  DE(clash)    DE(int)     intcor
     17.11     -17.46       0.99        0.00     110.39       1.65       0.05       0.30       ----

> <Gold.Chemscore.Fitness>
17.1085

> <Gold.Chemscore.DG>
-17.4560

> <Gold.Chemscore.ZeroCoef>
-5.4800

> <Gold.Chemscore.Hbond>
0.9863

> <Gold.Chemscore.Metal>
0.0000

> <Gold.Chemscore.Lipo>
110.3917

> <Gold.Chemscore.Internal_Hbond>
0.0000

> <Gold.Chemscore.DEClash>
0.0456

> <Gold.Chemscore.DEInternal>
0.3019

> <Gold.Chemscore.Rot>
1.6540

> <Gold.Chemscore.Internal.Correction>
   9.000000E+99

> <Gold.Chemscore.Hbonds>
donor molecule, donor type, donor heavy atom, donor atom, acceptor molecule, acceptor atom, score
      P1  H  6896  6907       L1    12  0.59

> <Gold.Chemscore.Hbond.Weighted>
-3.2944

> <Gold.Chemscore.Metal.Weighted>
-0.0000

> <Gold.Chemscore.Lipo.Weighted>
-12.9158

> <Gold.Chemscore.Internal_Hbond.Weighted>
0.0000

> <Gold.Chemscore.DEClash.Weighted>
0.0456

> <Gold.Chemscore.DEInternal.Weighted>
0.3019

> <Gold.Chemscore.Rot.Weighted>
4.2342

> <Gold.Chemscore.Internal.Correction.Weighted>
   9.000000E+99

> <Gold.Protein.RotatedTorsions>
[ 6907 6896 6895 6894 ] final    7.22 input  -60.11 | X-H torsion
[ 7974 7965 7964 7962 ] final   -5.60 input  175.53 | X-H torsion
[ 8008 7997 7996 7995 ] final   39.51 input   59.86 | X-H torsion
[ 10167 10162 10161 10158 ] final  -86.75 input  -65.29 | X-H torsion
[ 10718 10713 10712 10709 ] final  -56.24 input   66.30 | X-H torsion
[ 10763 10752 10751 10750 ] final   92.33 input  -60.55 | X-H torsion
[ 11005 11000 10999 10996 ] final -164.46 input  -57.11 | X-H torsion

> <Gold.Protein.ActiveResidues>
 VAL166  LYS551  ARG553  GLY616  TRP617  ASP618  TYR619  PRO620  LYS621  CYS622 
 ASP623  PHE694  ASN695  SER759  ASP760  ASP761  ALA762  ILE779  LEU786  VAL792 
 PHE793  MET794  SER795  GLU796  ALA797  LYS798  CYS799  TRP800  GLU811  SER814 

> <Gold.Protein.RotatedAtoms>
  151.6863  135.0953  160.0225 H   0  0  0  0  0  0  0  0  0  0  0  0  # atno 6907 bound_to 6896
  152.3805  133.6535  159.6166 H   0  0  0  0  0  0  0  0  0  0  0  0  # atno 6908 bound_to 6896
  150.7743  133.9038  159.3390 H   0  0  0  0  0  0  0  0  0  0  0  0  # atno 6909 bound_to 6896
  146.2349  140.2045  142.8334 H   0  0  0  0  0  0  0  0  0  0  0  0  # atno 7974 bound_to 7965
  155.2378  140.3343  155.4295 H   0  0  0  0  0  0  0  0  0  0  0  0  # atno 8008 bound_to 7997
  156.2268  140.1833  156.7388 H   0  0  0  0  0  0  0  0  0  0  0  0  # atno 8009 bound_to 7997
  154.5912  140.0637  156.9226 H   0  0  0  0  0  0  0  0  0  0  0  0  # atno 8010 bound_to 7997
  140.3911  143.2704  151.9263 H   0  0  0  0  0  0  0  0  0  0  0  0  # atno 10167 bound_to 10162
  156.1304  130.4160  150.0279 H   0  0  0  0  0  0  0  0  0  0  0  0  # atno 10718 bound_to 10713
  153.2180  135.4365  155.0457 H   0  0  0  0  0  0  0  0  0  0  0  0  # atno 10763 bound_to 10752
  154.8235  135.3349  154.6969 H   0  0  0  0  0  0  0  0  0  0  0  0  # atno 10764 bound_to 10752
  153.7403  135.7005  153.5024 H   0  0  0  0  0  0  0  0  0  0  0  0  # atno 10765 bound_to 10752
  140.5866  134.5087  157.5186 H   0  0  0  0  0  0  0  0  0  0  0  0  # atno 11005 bound_to 11000
  144.9756  140.8410  143.5429 LP  0  0  0  0  0  0  0  0  0  0  0  0  # atno 17320 bound_to 7965
  145.2032  139.2242  143.5182 LP  0  0  0  0  0  0  0  0  0  0  0  0  # atno 17321 bound_to 7965
  139.4789  144.5726  151.8063 LP  0  0  0  0  0  0  0  0  0  0  0  0  # atno 17342 bound_to 10162
  140.4839  144.1410  150.5937 LP  0  0  0  0  0  0  0  0  0  0  0  0  # atno 17343 bound_to 10162
  156.8193  130.9353  151.3642 LP  0  0  0  0  0  0  0  0  0  0  0  0  # atno 17370 bound_to 10713
  157.6482  130.8862  149.9581 LP  0  0  0  0  0  0  0  0  0  0  0  0  # atno 17371 bound_to 10713
  139.9293  134.7995  156.0977 LP  0  0  0  0  0  0  0  0  0  0  0  0  # atno 17394 bound_to 11000
  141.0962  133.6695  156.2650 LP  0  0  0  0  0  0  0  0  0  0  0  0  # atno 17395 bound_to 11000

$$$$
