AV-unprocessed.smi:1717|AV-procd|sdf|6920|dock8
  -GOLD-   22720 8123D 1   1.00000     0.00000
 Structure written by MMmdl.
 40 41  0  0  0  0  0  0  0  0  3 V2000
  151.1933  141.0915  157.0459 C   0  0  0  0  0  0  0  0  0  0  0  0
  149.9712  141.0919  156.2506 N   0  5  0  0  0  0  0  0  0  0  0  0
  149.8937  140.5769  154.9943 C   0  0  0  0  0  0  0  0  0  0  0  0
  150.6607  139.8261  154.3819 O   0  0  0  0  0  0  0  0  0  0  0  0
  148.6071  141.0244  154.2915 C   0  0  0  0  0  0  0  0  0  0  0  0
  148.1081  139.9428  153.4063 N   0  3  2  0  0  0  0  0  0  0  0  0
  147.1332  140.4396  152.4027 C   0  0  0  0  0  0  0  0  0  0  0  0
  146.7490  139.3329  151.4061 C   0  0  0  0  0  0  0  0  0  0  0  0
  146.1924  138.0977  152.1324 C   0  0  1  0  0  0  0  0  0  0  0  0
  145.9263  137.0330  151.1693 N   0  0  0  0  0  0  0  0  0  0  0  0
  145.1690  135.9517  151.4041 C   0  0  0  0  0  0  0  0  0  0  0  0
  144.5992  135.7398  152.4744 O   0  0  0  0  0  0  0  0  0  0  0  0
  145.1230  135.1453  150.3313 N   0  0  0  0  0  0  0  0  0  0  0  0
  144.4140  133.9244  150.2060 C   0  0  0  0  0  0  0  0  0  0  0  0
  144.3413  133.0322  149.0959 C   0  0  0  0  0  0  0  0  0  0  0  0
  143.5720  131.9879  149.3698 N   0  0  0  0  0  0  0  0  0  0  0  0
  143.1553  132.2031  150.6378 N   0  0  0  0  0  0  0  0  0  0  0  0
  143.6440  133.3692  151.1841 C   0  0  0  0  0  0  0  0  0  0  0  0
  147.2001  137.6281  153.1971 C   0  0  0  0  0  0  0  0  0  0  0  0
  147.5747  138.7719  154.1532 C   0  0  0  0  0  0  0  0  0  0  0  0
  142.5451  131.5516  151.1108 H   0  0  0  0  0  0  0  0  0  0  0  0
  151.0603  141.6132  157.9936 H   0  0  0  0  0  0  0  0  0  0  0  0
  152.0229  141.5829  156.5371 H   0  0  0  0  0  0  0  0  0  0  0  0
  151.5263  140.0829  157.2924 H   0  0  0  0  0  0  0  0  0  0  0  0
  147.8281  141.3409  154.9888 H   0  0  0  0  0  0  0  0  0  0  0  0
  148.8624  141.9041  153.6988 H   0  0  0  0  0  0  0  0  0  0  0  0
  146.2445  140.8153  152.9122 H   0  0  0  0  0  0  0  0  0  0  0  0
  147.5638  141.2785  151.8544 H   0  0  0  0  0  0  0  0  0  0  0  0
  146.0118  139.7152  150.6988 H   0  0  0  0  0  0  0  0  0  0  0  0
  147.6263  139.0562  150.8192 H   0  0  0  0  0  0  0  0  0  0  0  0
  145.2595  138.3812  152.6240 H   0  0  0  0  0  0  0  0  0  0  0  0
  146.3550  137.1237  150.2598 H   0  0  0  0  0  0  0  0  0  0  0  0
  145.6466  135.4350  149.5182 H   0  0  0  0  0  0  0  0  0  0  0  0
  144.8055  133.0959  148.1230 H   0  0  0  0  0  0  0  0  0  0  0  0
  143.4078  133.6898  152.1882 H   0  0  0  0  0  0  0  0  0  0  0  0
  146.7857  136.7963  153.7683 H   0  0  0  0  0  0  0  0  0  0  0  0
  148.1032  137.2517  152.7144 H   0  0  0  0  0  0  0  0  0  0  0  0
  148.3148  138.4073  154.8657 H   0  0  0  0  0  0  0  0  0  0  0  0
  146.7023  139.0758  154.7339 H   0  0  0  0  0  0  0  0  0  0  0  0
  148.9135  139.6200  152.8887 H   0  0  0  0  0  0  0  0  0  0  0  0
  1  2  1  0  0  0  0
  1 22  1  0  0  0  0
  1 23  1  0  0  0  0
  1 24  1  0  0  0  0
  2  3  1  0  0  0  0
  3  4  2  0  0  0  0
  3  5  1  0  0  0  0
  5  6  1  0  0  0  0
  5 25  1  0  0  0  0
  5 26  1  0  0  0  0
  6 20  1  0  0  0  0
  6  7  1  0  0  0  0
  6 40  1  0  0  0  0
  7  8  1  0  0  0  0
  7 27  1  0  0  0  0
  7 28  1  0  0  0  0
  8  9  1  0  0  0  0
  8 29  1  0  0  0  0
  8 30  1  0  0  0  0
  9 10  1  0  0  0  0
  9 19  1  0  0  0  0
  9 31  1  0  0  0  0
 10 11  1  0  0  0  0
 10 32  1  0  0  0  0
 11 12  2  0  0  0  0
 11 13  1  0  0  0  0
 13 14  1  0  0  0  0
 13 33  1  0  0  0  0
 14 18  2  0  0  0  0
 14 15  1  0  0  0  0
 15 16  2  0  0  0  0
 15 34  1  0  0  0  0
 16 17  1  0  0  0  0
 17 21  1  0  0  0  0
 17 18  1  0  0  0  0
 18 35  1  0  0  0  0
 19 20  1  0  0  0  0
 19 36  1  0  0  0  0
 19 37  1  0  0  0  0
 20 38  1  0  0  0  0
 20 39  1  0  0  0  0
M  CHG  1   2  -1
M  CHG  1   6   1
M  END
> <s_m_source_file>
AV-unprocessed.smi

> <i_m_source_file_index>
1717

> <i_lp_mmshare_version>
43012

> <i_f3d_flags>
0

> <s_epik_input>
W0NIM11bTkhdQyg9TylbQ0gyXU4xW0NIMl1bQ0gyXVtDSF0oW0NIMl1bQ0gyXTEpW05IXUMoPU8pW05IXWMyW2NIXW5bbkhdW2NIXTI=

> <s_epik_cmdline>
J2VwaWtfcHl0aG9uJywgJy1waCcsICc3LjAnLCAnLXRuJywgJzgnLCAnLW1hJywgJzIwMCcsICctbWV0YWxfYmluZGluZycsICctaW1hZScsICc8aW5maWxlLm1hZT4nLCAnLW9tYWUnLCAnPG91dGZpbGUubWFlPic=

> <r_lp_tautomer_probability>
0.5

> <r_epik_Ionization_Penalty>
6.1395

> <r_epik_Ionization_Penalty_Charging>
6.13946

> <r_epik_Ionization_Penalty_Neutral>
4.21226e-05

> <r_epik_State_Penalty>
6.9595

> <r_epik_Charging_Adjusted_Penalty>
13.099

> <i_epik_Tot_Q>
0

> <i_epik_Tot_abs_Q>
2

> <r_epik_Metal_State_Penalty>
2.89141

> <b_epik_Metal_Only>
1

> <s_lp_Force_Field>
OPLS_2005

> <r_lp_Energy>
12.4493

> <b_lp_Chiralities_Consistent>
1

> <s_lp_Variant>
AV-unprocessed.smi:1717-4

> <Gold.Version>
5.8.1

> <Gold.Id.Protein>
6NUR|6NUR_protein|mol2

> <Gold.PLP.Fitness>
44.1914

> <Gold.PLP.PLP>
-32.6754

> <Gold.PLP.part.hbond>
-6.3805

> <Gold.PLP.part.metal>
0.0000

> <Gold.PLP.part.buried>
3.8034

> <Gold.PLP.part.nonpolar>
-30.1961

> <Gold.PLP.part.repulsive>
0.8456

> <Gold.PLP.ligand.clash>
0.0000

> <Gold.PLP.ligand.torsion>
0.7005

> <Gold.PLP.Chemscore.Hbond>
3.4640

> <Gold.PLP.Chemscore.CHOScore>
0.8266

> <Gold.PLP.Chemscore.Metal>
0.0000

> <Gold.Chemscore.Hbonds>
donor molecule, donor type, donor heavy atom, donor atom, acceptor molecule, acceptor atom, score
      L1  H     6    40       P1  7957  0.66
      L1  H    13    33       P1  7921  0.84
      P1  H  7989  7998       L1     4  1.00
      P1  H 10785 10796       L1    16  0.96
      L1  C    15    34       P1  7921  0.83

> <Gold.PLP.Chemscore.Internal.Correction>
0.0451

> <Gold.Rescore>
     Score         DG    S(hbond)    S(metal)    S(lipo)     H(rot)  DE(clash)    DE(int)     intcor
     17.38     -21.64       3.49        0.00      76.88       1.75       2.40       1.86       ----

> <Gold.Chemscore.Fitness>
17.3752

> <Gold.Chemscore.DG>
-21.6404

> <Gold.Chemscore.ZeroCoef>
-5.4800

> <Gold.Chemscore.Hbond>
3.4901

> <Gold.Chemscore.Metal>
0.0000

> <Gold.Chemscore.Lipo>
76.8813

> <Gold.Chemscore.Internal_Hbond>
0.0000

> <Gold.Chemscore.DEClash>
2.4006

> <Gold.Chemscore.DEInternal>
1.8646

> <Gold.Chemscore.Rot>
1.7546

> <Gold.Chemscore.Internal.Correction>
   9.000000E+99

> <Gold.Chemscore.Hbonds>
donor molecule, donor type, donor heavy atom, donor atom, acceptor molecule, acceptor atom, score
      L1  H     6    40       P1  7957  0.66
      L1  H    13    33       P1  7921  0.77
      P1  H  7989  7998       L1     4  0.45
      P1  H 10785 10796       L1    16  0.77

> <Gold.Chemscore.Hbond.Weighted>
-11.6570

> <Gold.Chemscore.Metal.Weighted>
-0.0000

> <Gold.Chemscore.Lipo.Weighted>
-8.9951

> <Gold.Chemscore.Internal_Hbond.Weighted>
0.0000

> <Gold.Chemscore.DEClash.Weighted>
2.4006

> <Gold.Chemscore.DEInternal.Weighted>
1.8646

> <Gold.Chemscore.Rot.Weighted>
4.4917

> <Gold.Chemscore.Internal.Correction.Weighted>
   9.000000E+99

> <Gold.Protein.RotatedTorsions>
[ 6907 6896 6895 6894 ] final -178.98 input  -60.11 | X-H torsion
[ 7974 7965 7964 7962 ] final  142.35 input  175.53 | X-H torsion
[ 8008 7997 7996 7995 ] final -143.05 input   59.86 | X-H torsion
[ 10167 10162 10161 10158 ] final -174.05 input  -65.29 | X-H torsion
[ 10718 10713 10712 10709 ] final -105.61 input   66.30 | X-H torsion
[ 10763 10752 10751 10750 ] final  -90.20 input  -60.55 | X-H torsion
[ 11005 11000 10999 10996 ] final  139.64 input  -57.11 | X-H torsion

> <Gold.Protein.ActiveResidues>
 VAL166  LYS551  ARG553  GLY616  TRP617  ASP618  TYR619  PRO620  LYS621  CYS622 
 ASP623  PHE694  ASN695  SER759  ASP760  ASP761  ALA762  ILE779  LEU786  VAL792 
 PHE793  MET794  SER795  GLU796  ALA797  LYS798  CYS799  TRP800  GLU811  SER814 

> <Gold.Protein.RotatedAtoms>
  151.6460  133.3323  159.3140 H   0  0  0  0  0  0  0  0  0  0  0  0  # atno 6907 bound_to 6896
  150.7984  134.7064  159.6588 H   0  0  0  0  0  0  0  0  0  0  0  0  # atno 6908 bound_to 6896
  152.4074  134.6188  160.0096 H   0  0  0  0  0  0  0  0  0  0  0  0  # atno 6909 bound_to 6896
  144.9015  139.5416  143.5751 H   0  0  0  0  0  0  0  0  0  0  0  0  # atno 7974 bound_to 7965
  155.5043  140.0578  157.2934 H   0  0  0  0  0  0  0  0  0  0  0  0  # atno 8008 bound_to 7997
  154.4575  140.1980  156.0287 H   0  0  0  0  0  0  0  0  0  0  0  0  # atno 8009 bound_to 7997
  156.0827  140.3244  155.7719 H   0  0  0  0  0  0  0  0  0  0  0  0  # atno 8010 bound_to 7997
  139.5655  144.1766  152.1305 H   0  0  0  0  0  0  0  0  0  0  0  0  # atno 10167 bound_to 10162
  156.0353  130.5572  150.7563 H   0  0  0  0  0  0  0  0  0  0  0  0  # atno 10718 bound_to 10713
  154.6632  135.5313  153.8045 H   0  0  0  0  0  0  0  0  0  0  0  0  # atno 10763 bound_to 10752
  153.0455  135.6511  154.0839 H   0  0  0  0  0  0  0  0  0  0  0  0  # atno 10764 bound_to 10752
  154.0745  135.2951  155.3282 H   0  0  0  0  0  0  0  0  0  0  0  0  # atno 10765 bound_to 10752
  140.0270  134.9370  157.0587 H   0  0  0  0  0  0  0  0  0  0  0  0  # atno 11005 bound_to 11000
  146.3111  139.7749  142.9019 LP  0  0  0  0  0  0  0  0  0  0  0  0  # atno 17320 bound_to 7965
  145.3608  141.0325  143.3286 LP  0  0  0  0  0  0  0  0  0  0  0  0  # atno 17321 bound_to 7965
  140.1288  144.5307  150.6815 LP  0  0  0  0  0  0  0  0  0  0  0  0  # atno 17342 bound_to 10162
  140.6938  143.2391  151.5058 LP  0  0  0  0  0  0  0  0  0  0  0  0  # atno 17343 bound_to 10162
  157.5094  131.0924  151.0216 LP  0  0  0  0  0  0  0  0  0  0  0  0  # atno 17370 bound_to 10713
  157.0576  130.5812  149.5380 LP  0  0  0  0  0  0  0  0  0  0  0  0  # atno 17371 bound_to 10713
  140.4290  134.1800  155.7167 LP  0  0  0  0  0  0  0  0  0  0  0  0  # atno 17394 bound_to 11000
  141.1808  133.8417  157.1263 LP  0  0  0  0  0  0  0  0  0  0  0  0  # atno 17395 bound_to 11000

$$$$
