#       Name:                AV-unprocessed.smi:239
#       Creating user name   scv26
#       Creation time:       Thu Mar 26 20:41:32 2020


#       File generated by GOLD software.
#

@<TRIPOS>MOLECULE
AV-unprocessed.smi:239
    64    68     1
SMALL
NO_CHARGES


@<TRIPOS>ATOM
      1 ****        -4.7514  -0.7826   1.4782 C.3            1 S1                 0.0000
      2 ****        -4.0502   0.2282   0.5651 C.3            1 S1                 0.0000
      3 ****        -2.5436   0.3211   0.8623 C.3            1 S1                 0.0000
      4 ****        -1.9355   1.3685   0.0494 N.3            1 S1                 0.0000
      5 ****        -0.5801   1.3314  -0.0193 C.ar           1 S1                 0.0000
      6 ****         0.1517   2.3854   0.4329 N.ar           1 S1                 0.0000
      7 ****         1.4865   2.3537   0.3830 C.ar           1 S1                 0.0000
      8 ****         2.2814   1.3844  -0.0735 N.ar           1 S1                 0.0000
      9 ****         1.5551   0.3278  -0.5376 C.ar           1 S1                 0.0000
     10 ****         0.1353   0.2210  -0.5516 C.ar           1 S1                 0.0000
     11 ****        -0.2400  -0.9929  -1.1158 N.2            1 S1                 0.0000
     12 ****         0.8917  -1.5768  -1.4009 C.2            1 S1                 0.0000
     13 ****         2.0202  -0.8576  -1.0797 N.pl3          1 S1                 0.0000
     14 ****         3.4013  -1.2691  -1.2807 C.3            1 S1                 0.0000
     15 ****         3.9718  -2.1297  -0.1261 C.3            1 S1                 0.0000
     16 ****         3.2304  -3.3373  -0.0835 O.3            1 S1                 0.0000
     17 ****         5.4505  -2.4759  -0.3924 C.3            1 S1                 0.0000
     18 ****         6.1064  -3.1843   0.8064 C.3            1 S1                 0.0000
     19 ****         5.9636  -2.3916   1.9787 O.3            1 S1                 0.0000
     20 ****         4.6041  -2.2026   2.3520 C.3            1 S1                 0.0000
     21 ****         3.8542  -1.4353   1.2486 C.3            1 S1                 0.0000
     22 ****        -2.5821   2.6683   0.2151 C.3            1 S1                 0.0000
     23 ****        -4.1004   2.5581  -0.0223 C.3            1 S1                 0.0000
     24 ****        -4.4651   2.4149  -1.4933 C.3            1 S1                 0.0000
     25 ****        -4.8042   3.6249  -2.3316 C.3            1 S1                 0.0000
     26 ****        -5.8848   2.6380  -1.9574 C.3            1 S1                 0.0000
     27 ****        -4.6532   1.5053   0.7705 O.3            1 S1                 0.0000
     28 ****        -4.3338  -1.7816   1.3507 H              1 S1                 0.0000
     29 ****        -5.8169  -0.8366   1.2537 H              1 S1                 0.0000
     30 ****        -4.6446  -0.5068   2.5277 H              1 S1                 0.0000
     31 ****        -4.2003  -0.0875  -0.4679 H              1 S1                 0.0000
     32 ****        -2.3827   0.5574   1.9151 H              1 S1                 0.0000
     33 ****        -2.0793  -0.6478   0.6840 H              1 S1                 0.0000
     34 ****         1.9893   3.2294   0.7661 H              1 S1                 0.0000
     35 ****         0.9358  -2.5575  -1.8520 H              1 S1                 0.0000
     36 ****         3.4610  -1.8131  -2.2245 H              1 S1                 0.0000
     37 ****         4.0061  -0.3708  -1.4112 H              1 S1                 0.0000
     38 ****         3.5737  -3.8756   0.6131 H              1 S1                 0.0000
     39 ****         5.5445  -3.0908  -1.2884 H              1 S1                 0.0000
     40 ****         6.0043  -1.5577  -0.5931 H              1 S1                 0.0000
     41 ****         5.6724  -4.1724   0.9666 H              1 S1                 0.0000
     42 ****         7.1688  -3.3348   0.6132 H              1 S1                 0.0000
     43 ****         4.1329  -3.1663   2.5519 H              1 S1                 0.0000
     44 ****         4.5720  -1.6380   3.2839 H              1 S1                 0.0000
     45 ****         4.2742  -0.4310   1.1798 H              1 S1                 0.0000
     46 ****         2.8094  -1.3112   1.5357 H              1 S1                 0.0000
     47 ****        -2.3970   3.0273   1.2285 H              1 S1                 0.0000
     48 ****        -2.1520   3.4003  -0.4698 H              1 S1                 0.0000
     49 ****        -4.5608   3.4800   0.3349 H              1 S1                 0.0000
     50 ****        -3.9250   1.6241  -2.0102 H              1 S1                 0.0000
     51 ****        -4.8200   4.5964  -1.8413 H              1 S1                 0.0000
     52 ****        -4.4640   3.6302  -3.3651 H              1 S1                 0.0000
     53 ****        -6.2648   1.9860  -2.7413 H              1 S1                 0.0000
     54 ****        -6.6167   2.9509  -1.2155 H              1 S1                 0.0000
     55 ****        -2.1487   1.1473  -0.9022 LP             1 S1                 0.0000
     56 ****        -0.3125   3.1892   0.8050 LP             1 S1                 0.0000
     57 ****         3.2805   1.4273  -0.0751 LP             1 S1                 0.0000
     58 ****        -1.1656  -1.3394  -1.2683 LP             1 S1                 0.0000
     59 ****         3.3184  -3.8180  -0.9560 LP             1 S1                 0.0000
     60 ****         2.2665  -3.1353   0.0901 LP             1 S1                 0.0000
     61 ****         6.3768  -1.4964   1.8117 LP             1 S1                 0.0000
     62 ****         6.4419  -2.8443   2.7312 LP             1 S1                 0.0000
     63 ****        -4.5447   1.7503   1.7339 LP             1 S1                 0.0000
     64 ****        -5.6264   1.4294   0.5535 LP             1 S1                 0.0000
@<TRIPOS>BOND
    1    1    2 1     
    2    1   28 1     
    3    1   29 1     
    4    1   30 1     
    5    2   27 1     
    6    2    3 1     
    7    2   31 1     
    8    3    4 1     
    9    3   32 1     
   10    3   33 1     
   11    4    5 1     
   12    4   22 1     
   13    5   10 ar    
   14    5    6 ar    
   15    6    7 ar    
   16    7    8 ar    
   17    7   34 1     
   18    8    9 ar    
   19    9   13 1     
   20    9   10 ar    
   21   10   11 1     
   22   11   12 2     
   23   12   13 1     
   24   12   35 1     
   25   13   14 1     
   26   14   15 1     
   27   14   36 1     
   28   14   37 1     
   29   15   21 1     
   30   15   16 1     
   31   15   17 1     
   32   16   38 1     
   33   17   18 1     
   34   17   39 1     
   35   17   40 1     
   36   18   19 1     
   37   18   41 1     
   38   18   42 1     
   39   19   20 1     
   40   20   21 1     
   41   20   43 1     
   42   20   44 1     
   43   21   45 1     
   44   21   46 1     
   45   22   23 1     
   46   22   47 1     
   47   22   48 1     
   48   23   24 1     
   49   23   27 1     
   50   23   49 1     
   51   24   26 1     
   52   24   25 1     
   53   24   50 1     
   54   25   26 1     
   55   25   51 1     
   56   25   52 1     
   57   26   53 1     
   58   26   54 1     
   59    4   55 1     
   60    6   56 1     
   61    8   57 1     
   62   11   58 1     
   63   16   59 1     
   64   16   60 1     
   65   19   61 1     
   66   19   62 1     
   67   27   63 1     
   68   27   64 1     
@<TRIPOS>SUBSTRUCTURE
      1 S1             1
@<TRIPOS>SET
LONE_PAIRS      STATIC     ATOMS    <user>   **** ""
10 55 56 57 58 59 60 61 62 63 64
DONOR_HYDROGENS      STATIC     ATOMS    <user>   **** ""
1 38
ATOM$BLUE        STATIC     ATOMS    COLORGROUP SYSTEM
10 55 56 57 58 59 60 61 62 63 64
ATOM$RED        STATIC     ATOMS    COLORGROUP SYSTEM
1 38
