#       Name:                AV-unprocessed.smi:1753
#       Creating user name   scv26
#       Creation time:       Fri Mar 27 08:28:09 2020


#       File generated by GOLD software.
#

@<TRIPOS>MOLECULE
AV-unprocessed.smi:1753
    40    41     1
SMALL
NO_CHARGES


@<TRIPOS>ATOM
      1 ****        -5.8713  -0.3784   0.6485 C.3            1 S1                 0.0000
      2 ****        -4.5275   0.2263   0.9300 C.2            1 S1                 0.0000
      3 ****        -3.2435  -0.3629   0.7433 C.2            1 S1                 0.0000
      4 ****        -2.3937   0.6270   1.1561 C.2            1 S1                 0.0000
      5 ****        -1.0346   0.6198   1.1998 N.am           1 S1                 0.0000
      6 ****        -0.1848  -0.3560   0.8342 C.2            1 S1                 0.0000
      7 ****        -0.5089  -1.4475   0.3661 O.2            1 S1                 0.0000
      8 ****         1.0882   0.0118   1.0402 N.am           1 S1                 0.0000
      9 ****         2.2650  -0.8043   0.7555 C.3            1 S1                 0.0000
     10 ****         2.9234  -0.4180  -0.5828 C.3            1 S1                 0.0000
     11 ****         4.2385  -1.1826  -0.8289 C.3            1 S1                 0.0000
     12 ****         4.6857  -0.9356  -2.2730 C.3            1 S1                 0.0000
     13 ****         3.1424  -0.8088  -3.2496 S.o2           1 S1                 0.0000
     14 ****         3.1598   0.4493  -4.0109 O.2            1 S1                 0.0000
     15 ****         2.8756  -2.0933  -3.9142 O.2            1 S1                 0.0000
     16 ****         2.0208  -0.6398  -1.8093 C.3            1 S1                 0.0000
     17 ****        -3.1403   1.7149   1.5565 N.pl3          1 S1                 0.0000
     18 ****        -2.7180   3.0029   2.0725 C.3            1 S1                 0.0000
     19 ****        -4.4587   1.4618   1.4121 N.2            1 S1                 0.0000
     20 ****        -5.7851  -1.4415   0.4226 H              1 S1                 0.0000
     21 ****        -6.3464   0.1047  -0.2054 H              1 S1                 0.0000
     22 ****        -6.5380  -0.2752   1.5051 H              1 S1                 0.0000
     23 ****        -3.0094  -1.3477   0.3683 H              1 S1                 0.0000
     24 ****        -0.6131   1.4635   1.5589 H              1 S1                 0.0000
     25 ****         1.2585   0.9287   1.4271 H              1 S1                 0.0000
     26 ****         2.9750  -0.6503   1.5686 H              1 S1                 0.0000
     27 ****         2.0175  -1.8673   0.7679 H              1 S1                 0.0000
     28 ****         3.1735   0.6436  -0.5489 H              1 S1                 0.0000
     29 ****         5.0138  -0.8941  -0.1185 H              1 S1                 0.0000
     30 ****         4.0632  -2.2508  -0.6927 H              1 S1                 0.0000
     31 ****         5.2173   0.0125  -2.3569 H              1 S1                 0.0000
     32 ****         5.3203  -1.7292  -2.6675 H              1 S1                 0.0000
     33 ****         1.4566  -1.5686  -1.7184 H              1 S1                 0.0000
     34 ****         1.3177   0.1766  -1.9749 H              1 S1                 0.0000
     35 ****        -1.6360   3.0320   2.2005 H              1 S1                 0.0000
     36 ****        -3.1900   3.1850   3.0386 H              1 S1                 0.0000
     37 ****        -3.0122   3.7902   1.3780 H              1 S1                 0.0000
     38 ****        -1.4752  -1.6663   0.2305 LP             1 S1                 0.0000
     39 ****         0.1941  -2.1153   0.1216 LP             1 S1                 0.0000
     40 ****        -5.2207   2.0741   1.6232 LP             1 S1                 0.0000
@<TRIPOS>BOND
    1    1    2 1     
    2    1   20 1     
    3    1   21 1     
    4    1   22 1     
    5    2   19 2     
    6    2    3 1     
    7    3    4 2     
    8    3   23 1     
    9    4    5 1     
   10    4   17 1     
   11    5    6 am    
   12    5   24 1     
   13    6    7 2     
   14    6    8 am    
   15    8    9 1     
   16    8   25 1     
   17    9   10 1     
   18    9   26 1     
   19    9   27 1     
   20   10   16 1     
   21   10   11 1     
   22   10   28 1     
   23   11   12 1     
   24   11   29 1     
   25   11   30 1     
   26   12   13 1     
   27   12   31 1     
   28   12   32 1     
   29   13   14 2     
   30   13   15 2     
   31   13   16 1     
   32   16   33 1     
   33   16   34 1     
   34   17   18 1     
   35   17   19 1     
   36   18   35 1     
   37   18   36 1     
   38   18   37 1     
   39    7   38 1     
   40    7   39 1     
   41   19   40 1     
@<TRIPOS>SUBSTRUCTURE
      1 S1             1
@<TRIPOS>SET
LONE_PAIRS      STATIC     ATOMS    <user>   **** ""
5 38 39 14 15 40
DONOR_HYDROGENS      STATIC     ATOMS    <user>   **** ""
2 24 25
ATOM$BLUE        STATIC     ATOMS    COLORGROUP SYSTEM
5 38 39 14 15 40
ATOM$RED        STATIC     ATOMS    COLORGROUP SYSTEM
2 24 25
