AV-unprocessed.smi:234|AV-procd|sdf|1793|dock5
  -GOLD-   2262020353D 1   1.00000     0.00000
 Structure written by MMmdl.
 59 62  0  0  0  0  0  0  0  0  1 V2000
  145.8403  129.2778  152.2625 C   0  0  0  0  0  0  0  0  0  0  0  0
  145.3298  130.5400  151.5647 C   0  0  0  0  0  0  0  0  0  0  0  0
  145.5706  131.6573  152.4044 O   0  0  0  0  0  0  0  0  0  0  0  0
  145.8069  132.8587  151.6799 C   0  0  2  0  0  0  0  0  0  0  0  0
  146.1492  134.0316  152.6036 C   0  0  0  0  0  0  0  0  0  0  0  0
  144.6380  134.2919  152.6803 C   0  0  1  0  0  0  0  0  0  0  0  0
  144.2710  135.7122  152.6951 N   0  0  0  0  0  0  0  0  0  0  0  0
  142.8631  136.0545  152.5229 C   0  0  0  0  0  0  0  0  0  0  0  0
  144.8895  136.5227  153.5904 C   0  0  0  0  0  0  0  0  0  0  0  0
  144.7339  136.3136  154.9252 N   0  0  0  0  0  0  0  0  0  0  0  0
  145.3339  137.1188  155.8065 C   0  0  0  0  0  0  0  0  0  0  0  0
  146.1181  138.1732  155.5745 N   0  0  0  0  0  0  0  0  0  0  0  0
  146.2747  138.3890  154.2370 C   0  0  0  0  0  0  0  0  0  0  0  0
  145.6947  137.6231  153.1871 C   0  0  0  0  0  0  0  0  0  0  0  0
  146.0737  138.1418  151.9551 N   0  0  0  0  0  0  0  0  0  0  0  0
  146.8375  139.1554  152.2596 C   0  0  0  0  0  0  0  0  0  0  0  0
  147.0231  139.3684  153.6074 N   0  0  0  0  0  0  0  0  0  0  0  0
  147.8332  140.4101  154.2204 C   0  0  0  0  0  0  0  0  0  0  0  0
  149.0954  139.8698  154.9374 C   0  0  1  0  0  0  0  0  0  0  0  0
  150.0068  139.4142  153.9512 O   0  0  0  0  0  0  0  0  0  0  0  0
  149.7947  140.9512  155.7684 C   0  0  0  0  0  0  0  0  0  0  0  0
  149.5867  140.5048  157.2111 C   0  0  0  0  0  0  0  0  0  0  0  0
  149.5831  139.0924  157.1075 O   0  0  0  0  0  0  0  0  0  0  0  0
  148.7864  138.7628  155.9792 C   0  0  2  0  0  0  0  0  0  0  0  0
  149.0295  137.3060  155.5509 C   0  0  0  0  0  0  0  0  0  0  0  0
  144.4972  133.5948  151.2977 C   0  0  0  0  0  0  0  0  0  0  0  0
  144.6186  134.4716  150.0401 C   0  0  0  0  0  0  0  0  0  0  0  0
  143.2658  132.7072  151.0961 C   0  0  0  0  0  0  0  0  0  0  0  0
  145.6685  128.3954  151.6458 H   0  0  0  0  0  0  0  0  0  0  0  0
  145.3318  129.1251  153.2148 H   0  0  0  0  0  0  0  0  0  0  0  0
  146.9105  129.3457  152.4599 H   0  0  0  0  0  0  0  0  0  0  0  0
  145.8355  130.6633  150.6064 H   0  0  0  0  0  0  0  0  0  0  0  0
  144.2617  130.4466  151.3633 H   0  0  0  0  0  0  0  0  0  0  0  0
  146.4925  132.7283  150.8407 H   0  0  0  0  0  0  0  0  0  0  0  0
  146.6092  133.7608  153.5540 H   0  0  0  0  0  0  0  0  0  0  0  0
  146.7091  134.8206  152.0988 H   0  0  0  0  0  0  0  0  0  0  0  0
  144.1706  133.7120  153.4783 H   0  0  0  0  0  0  0  0  0  0  0  0
  142.4589  136.5715  153.3949 H   0  0  0  0  0  0  0  0  0  0  0  0
  142.2568  135.1633  152.3645 H   0  0  0  0  0  0  0  0  0  0  0  0
  142.7409  136.7032  151.6555 H   0  0  0  0  0  0  0  0  0  0  0  0
  145.1609  136.8842  156.8465 H   0  0  0  0  0  0  0  0  0  0  0  0
  147.2993  139.7746  151.5040 H   0  0  0  0  0  0  0  0  0  0  0  0
  148.1139  141.1237  153.4445 H   0  0  0  0  0  0  0  0  0  0  0  0
  147.2078  140.9591  154.9257 H   0  0  0  0  0  0  0  0  0  0  0  0
  149.6399  139.5986  153.0999 H   0  0  0  0  0  0  0  0  0  0  0  0
  150.8655  140.9779  155.5585 H   0  0  0  0  0  0  0  0  0  0  0  0
  149.4064  141.9547  155.5913 H   0  0  0  0  0  0  0  0  0  0  0  0
  150.3714  140.8592  157.8801 H   0  0  0  0  0  0  0  0  0  0  0  0
  148.6242  140.8493  157.5931 H   0  0  0  0  0  0  0  0  0  0  0  0
  147.7507  138.8573  156.3074 H   0  0  0  0  0  0  0  0  0  0  0  0
  148.4400  137.0491  154.6705 H   0  0  0  0  0  0  0  0  0  0  0  0
  148.7457  136.6190  156.3483 H   0  0  0  0  0  0  0  0  0  0  0  0
  150.0793  137.1235  155.3203 H   0  0  0  0  0  0  0  0  0  0  0  0
  143.7134  135.0522  149.8611 H   0  0  0  0  0  0  0  0  0  0  0  0
  144.7951  133.8652  149.1513 H   0  0  0  0  0  0  0  0  0  0  0  0
  145.4438  135.1804  150.1111 H   0  0  0  0  0  0  0  0  0  0  0  0
  142.3763  133.2928  150.8636 H   0  0  0  0  0  0  0  0  0  0  0  0
  143.0379  132.1245  151.9890 H   0  0  0  0  0  0  0  0  0  0  0  0
  143.4158  132.0013  150.2788 H   0  0  0  0  0  0  0  0  0  0  0  0
  1  2  1  0  0  0  0
  1 29  1  0  0  0  0
  1 30  1  0  0  0  0
  1 31  1  0  0  0  0
  2  3  1  0  0  0  0
  2 32  1  0  0  0  0
  2 33  1  0  0  0  0
  3  4  1  0  0  0  0
  4 26  1  0  0  0  0
  4  5  1  0  0  0  0
  4 34  1  0  0  0  0
  5  6  1  0  0  0  0
  5 35  1  0  0  0  0
  5 36  1  0  0  0  0
  6  7  1  0  0  0  0
  6 26  1  0  0  0  0
  6 37  1  0  0  0  0
  7  8  1  0  0  0  0
  7  9  1  0  0  0  0
  8 38  1  0  0  0  0
  8 39  1  0  0  0  0
  8 40  1  0  0  0  0
  9 14  1  0  0  0  0
  9 10  2  0  0  0  0
 10 11  1  0  0  0  0
 11 12  2  0  0  0  0
 11 41  1  0  0  0  0
 12 13  1  0  0  0  0
 13 17  1  0  0  0  0
 13 14  2  0  0  0  0
 14 15  1  0  0  0  0
 15 16  2  0  0  0  0
 16 17  1  0  0  0  0
 16 42  1  0  0  0  0
 17 18  1  0  0  0  0
 18 19  1  0  0  0  0
 18 43  1  0  0  0  0
 18 44  1  0  0  0  0
 19 24  1  0  0  0  0
 19 20  1  0  0  0  0
 19 21  1  0  0  0  0
 20 45  1  0  0  0  0
 21 22  1  0  0  0  0
 21 46  1  0  0  0  0
 21 47  1  0  0  0  0
 22 23  1  0  0  0  0
 22 48  1  0  0  0  0
 22 49  1  0  0  0  0
 23 24  1  0  0  0  0
 24 25  1  0  0  0  0
 24 50  1  0  0  0  0
 25 51  1  0  0  0  0
 25 52  1  0  0  0  0
 25 53  1  0  0  0  0
 26 27  1  0  0  0  0
 26 28  1  0  0  0  0
 27 54  1  0  0  0  0
 27 55  1  0  0  0  0
 27 56  1  0  0  0  0
 28 57  1  0  0  0  0
 28 58  1  0  0  0  0
 28 59  1  0  0  0  0
M  END
> <s_m_source_file>
AV-unprocessed.smi

> <i_m_source_file_index>
234

> <i_lp_mmshare_version>
43012

> <i_f3d_flags>
0

> <s_epik_input>
W0NIM11bQ0gyXU9bQ0BASF0oQzEoW0NIM10pW0NIM10pW0NIMl1bQ0BIXTFOKFtDSDNdKWMobltjSF1uMiljKGMyMyluW2NIXW4zW0NIMl1bQ0BAXTQoW09IXSlbQ0gyXVtDSDJdT1tDQEhdNFtDSDNd

> <s_epik_cmdline>
J2VwaWtfcHl0aG9uJywgJy1waCcsICc3LjAnLCAnLXRuJywgJzgnLCAnLW1hJywgJzIwMCcsICctbWV0YWxfYmluZGluZycsICctaW1hZScsICc8aW5maWxlLm1hZT4nLCAnLW9tYWUnLCAnPG91dGZpbGUubWFlPic=

> <r_lp_tautomer_probability>
1

> <r_epik_Ionization_Penalty>
0.00349132

> <r_epik_Ionization_Penalty_Charging>
0

> <r_epik_Ionization_Penalty_Neutral>
0.00349132

> <r_epik_State_Penalty>
0.00242418

> <r_epik_Charging_Adjusted_Penalty>
0.00242418

> <i_epik_Tot_Q>
0

> <i_epik_Tot_abs_Q>
0

> <r_epik_Metal_State_Penalty>
-0

> <b_epik_Metal_Only>
0

> <s_lp_Force_Field>
OPLS_2005

> <r_lp_Energy>
48.0221

> <b_lp_Chiralities_Consistent>
1

> <s_lp_Variant>
AV-unprocessed.smi:234-9

> <Gold.Version>
5.8.1

> <Gold.Id.Protein>
6NUR|6NUR_protein|mol2

> <Gold.PLP.Fitness>
43.1181

> <Gold.PLP.PLP>
-36.1250

> <Gold.PLP.part.hbond>
-1.9444

> <Gold.PLP.part.metal>
0.0000

> <Gold.PLP.part.buried>
-4.4531

> <Gold.PLP.part.nonpolar>
-31.2752

> <Gold.PLP.part.repulsive>
0.7586

> <Gold.PLP.ligand.clash>
0.0000

> <Gold.PLP.ligand.torsion>
1.0132

> <Gold.PLP.Chemscore.Hbond>
1.8320

> <Gold.PLP.Chemscore.CHOScore>
0.7690

> <Gold.PLP.Chemscore.Metal>
0.0000

> <Gold.Chemscore.Hbonds>
donor molecule, donor type, donor heavy atom, donor atom, acceptor molecule, acceptor atom, score
      L1  H    20    45       P1  7957  1.00
      P1  H  7989  7998       L1    20  0.19
      L1  C    16    42       P1  7957  0.94

> <Gold.PLP.Chemscore.Internal.Correction>
1.2164

> <Gold.Rescore>
     Score         DG    S(hbond)    S(metal)    S(lipo)     H(rot)  DE(clash)    DE(int)     intcor
     11.53     -14.42       1.41        0.00      93.41       2.62       1.42       1.46       ----

> <Gold.Chemscore.Fitness>
11.5350

> <Gold.Chemscore.DG>
-14.4208

> <Gold.Chemscore.ZeroCoef>
-5.4800

> <Gold.Chemscore.Hbond>
1.4143

> <Gold.Chemscore.Metal>
0.0000

> <Gold.Chemscore.Lipo>
93.4106

> <Gold.Chemscore.Internal_Hbond>
0.0000

> <Gold.Chemscore.DEClash>
1.4219

> <Gold.Chemscore.DEInternal>
1.4639

> <Gold.Chemscore.Rot>
2.6219

> <Gold.Chemscore.Internal.Correction>
   9.000000E+99

> <Gold.Chemscore.Hbonds>
donor molecule, donor type, donor heavy atom, donor atom, acceptor molecule, acceptor atom, score
      L1  H    20    45       P1  7957  0.97

> <Gold.Chemscore.Hbond.Weighted>
-4.7239

> <Gold.Chemscore.Metal.Weighted>
-0.0000

> <Gold.Chemscore.Lipo.Weighted>
-10.9290

> <Gold.Chemscore.Internal_Hbond.Weighted>
0.0000

> <Gold.Chemscore.DEClash.Weighted>
1.4219

> <Gold.Chemscore.DEInternal.Weighted>
1.4639

> <Gold.Chemscore.Rot.Weighted>
6.7121

> <Gold.Chemscore.Internal.Correction.Weighted>
   9.000000E+99

> <Gold.Protein.RotatedTorsions>
[ 6907 6896 6895 6894 ] final  -26.22 input  -60.11 | X-H torsion
[ 7974 7965 7964 7962 ] final  122.40 input  175.53 | X-H torsion
[ 8008 7997 7996 7995 ] final  125.92 input   59.86 | X-H torsion
[ 10167 10162 10161 10158 ] final  -99.68 input  -65.29 | X-H torsion
[ 10718 10713 10712 10709 ] final -173.92 input   66.30 | X-H torsion
[ 10763 10752 10751 10750 ] final  -35.25 input  -60.55 | X-H torsion
[ 11005 11000 10999 10996 ] final   71.11 input  -57.11 | X-H torsion

> <Gold.Protein.ActiveResidues>
 VAL166  LYS551  ARG553  GLY616  TRP617  ASP618  TYR619  PRO620  LYS621  CYS622 
 ASP623  PHE694  ASN695  SER759  ASP760  ASP761  ALA762  ILE779  LEU786  VAL792 
 PHE793  MET794  SER795  GLU796  ALA797  LYS798  CYS799  TRP800  GLU811  SER814 

> <Gold.Protein.RotatedAtoms>
  151.1641  135.0287  159.8722 H   0  0  0  0  0  0  0  0  0  0  0  0  # atno 6907 bound_to 6896
  152.5451  134.1245  159.8423 H   0  0  0  0  0  0  0  0  0  0  0  0  # atno 6908 bound_to 6896
  151.1344  133.4968  159.2631 H   0  0  0  0  0  0  0  0  0  0  0  0  # atno 6909 bound_to 6896
  145.1080  139.3472  143.4777 H   0  0  0  0  0  0  0  0  0  0  0  0  # atno 7974 bound_to 7965
  156.2848  140.2705  156.2027 H   0  0  0  0  0  0  0  0  0  0  0  0  # atno 8008 bound_to 7997
  155.0345  140.0386  157.2504 H   0  0  0  0  0  0  0  0  0  0  0  0  # atno 8009 bound_to 7997
  154.7326  140.2709  155.6447 H   0  0  0  0  0  0  0  0  0  0  0  0  # atno 8010 bound_to 7997
  140.2598  143.3415  152.0636 H   0  0  0  0  0  0  0  0  0  0  0  0  # atno 10167 bound_to 10162
  156.7774  130.9471  151.3120 H   0  0  0  0  0  0  0  0  0  0  0  0  # atno 10718 bound_to 10713
  153.8601  135.6841  153.4783 H   0  0  0  0  0  0  0  0  0  0  0  0  # atno 10763 bound_to 10752
  153.1347  135.4683  154.9401 H   0  0  0  0  0  0  0  0  0  0  0  0  # atno 10764 bound_to 10752
  154.7762  135.3254  154.8035 H   0  0  0  0  0  0  0  0  0  0  0  0  # atno 10765 bound_to 10752
  139.9561  134.7141  156.0750 H   0  0  0  0  0  0  0  0  0  0  0  0  # atno 11005 bound_to 11000
  146.3527  140.0987  142.8609 LP  0  0  0  0  0  0  0  0  0  0  0  0  # atno 17320 bound_to 7965
  145.0879  140.9265  143.4786 LP  0  0  0  0  0  0  0  0  0  0  0  0  # atno 17321 bound_to 7965
  139.5020  144.6726  151.6207 LP  0  0  0  0  0  0  0  0  0  0  0  0  # atno 17342 bound_to 10162
  140.5974  143.9670  150.6364 LP  0  0  0  0  0  0  0  0  0  0  0  0  # atno 17343 bound_to 10162
  157.6662  130.9010  149.9938 LP  0  0  0  0  0  0  0  0  0  0  0  0  # atno 17370 bound_to 10713
  156.1239  130.3645  149.9841 LP  0  0  0  0  0  0  0  0  0  0  0  0  # atno 17371 bound_to 10713
  141.1233  133.6606  156.3270 LP  0  0  0  0  0  0  0  0  0  0  0  0  # atno 17394 bound_to 11000
  140.5606  134.5938  157.5432 LP  0  0  0  0  0  0  0  0  0  0  0  0  # atno 17395 bound_to 11000

$$$$
