AV-unprocessed.smi:3303|AV-procd|sdf|12668|dock1
  -GOLD-   2272019 03D 1   1.00000     0.00000
 Structure written by MMmdl.
 45 46  0  0  0  0  0  0  0  0  3 V2000
  152.1883  140.9486  158.0383 C   0  0  0  0  0  0  0  0  0  0  0  0
  151.4420  141.9065  158.9843 C   0  0  1  0  0  0  0  0  0  0  0  0
  152.4292  142.5151  160.0037 C   0  0  0  0  0  0  0  0  0  0  0  0
  151.7504  143.4514  160.9343 N   0  3  1  0  0  0  0  0  0  0  0  0
  152.6242  143.8903  162.0466 C   0  0  0  0  0  0  0  0  0  0  0  0
  151.0418  144.5628  160.2387 C   0  0  1  0  0  0  0  0  0  0  0  0
  151.9897  145.6015  159.6005 C   0  0  0  0  0  0  0  0  0  0  0  0
  150.0333  143.9893  159.2234 C   0  0  0  0  0  0  0  0  0  0  0  0
  150.6880  143.0179  158.2168 C   0  0  2  0  0  0  0  0  0  0  0  0
  149.6677  142.4278  157.3182 N   0  3  0  0  0  0  0  0  0  0  0  0
  148.5725  141.7039  157.9967 C   0  0  0  0  0  0  0  0  0  0  0  0
  147.9106  140.6948  157.0487 C   0  0  0  0  0  0  0  0  0  0  0  0
  147.3574  141.3613  155.8038 C   0  0  0  0  0  0  0  0  0  0  0  0
  146.3999  142.3933  155.9018 C   0  0  0  0  0  0  0  0  0  0  0  0
  145.9121  142.9699  154.7129 C   0  0  0  0  0  0  0  0  0  0  0  0
  146.3970  142.4937  153.4797 C   0  0  0  0  0  0  0  0  0  0  0  0
  147.3519  141.4577  153.4893 C   0  0  0  0  0  0  0  0  0  0  0  0
  147.8253  140.8970  154.6235 N   0  0  0  0  0  0  0  0  0  0  0  0
  152.9230  141.4806  157.4328 H   0  0  0  0  0  0  0  0  0  0  0  0
  151.5059  140.4365  157.3594 H   0  0  0  0  0  0  0  0  0  0  0  0
  152.7185  140.1786  158.5996 H   0  0  0  0  0  0  0  0  0  0  0  0
  150.7105  141.3187  159.5419 H   0  0  0  0  0  0  0  0  0  0  0  0
  152.8851  141.7120  160.5849 H   0  0  0  0  0  0  0  0  0  0  0  0
  153.2462  143.0248  159.4914 H   0  0  0  0  0  0  0  0  0  0  0  0
  153.5106  144.4095  161.6809 H   0  0  0  0  0  0  0  0  0  0  0  0
  152.9582  143.0300  162.6274 H   0  0  0  0  0  0  0  0  0  0  0  0
  152.0872  144.5564  162.7229 H   0  0  0  0  0  0  0  0  0  0  0  0
  150.4614  145.0898  160.9976 H   0  0  0  0  0  0  0  0  0  0  0  0
  151.4193  146.3837  159.0991 H   0  0  0  0  0  0  0  0  0  0  0  0
  152.6540  145.1609  158.8579 H   0  0  0  0  0  0  0  0  0  0  0  0
  152.6092  146.0966  160.3479 H   0  0  0  0  0  0  0  0  0  0  0  0
  149.2461  143.4641  159.7670 H   0  0  0  0  0  0  0  0  0  0  0  0
  149.5405  144.8115  158.7043 H   0  0  0  0  0  0  0  0  0  0  0  0
  151.4087  143.5602  157.6027 H   0  0  0  0  0  0  0  0  0  0  0  0
  149.2447  143.1840  156.7988 H   0  0  0  0  0  0  0  0  0  0  0  0
  148.9606  141.1844  158.8727 H   0  0  0  0  0  0  0  0  0  0  0  0
  147.8292  142.4206  158.3485 H   0  0  0  0  0  0  0  0  0  0  0  0
  148.6295  139.9281  156.7563 H   0  0  0  0  0  0  0  0  0  0  0  0
  147.0987  140.1755  157.5606 H   0  0  0  0  0  0  0  0  0  0  0  0
  146.0450  142.7374  156.8623 H   0  0  0  0  0  0  0  0  0  0  0  0
  145.1792  143.7626  154.7463 H   0  0  0  0  0  0  0  0  0  0  0  0
  146.0456  142.9123  152.5481 H   0  0  0  0  0  0  0  0  0  0  0  0
  147.7449  141.0680  152.5616 H   0  0  0  0  0  0  0  0  0  0  0  0
  150.1215  141.8068  156.6633 H   0  0  0  0  0  0  0  0  0  0  0  0
  151.0212  142.9090  161.3754 H   0  0  0  0  0  0  0  0  0  0  0  0
  1  2  1  0  0  0  0
  1 19  1  0  0  0  0
  1 20  1  0  0  0  0
  1 21  1  0  0  0  0
  2  9  1  0  0  0  0
  2  3  1  0  0  0  0
  2 22  1  0  0  0  0
  3  4  1  0  0  0  0
  3 23  1  0  0  0  0
  3 24  1  0  0  0  0
  4  5  1  0  0  0  0
  4  6  1  0  0  0  0
  4 45  1  0  0  0  0
  5 25  1  0  0  0  0
  5 26  1  0  0  0  0
  5 27  1  0  0  0  0
  6  7  1  0  0  0  0
  6  8  1  0  0  0  0
  6 28  1  0  0  0  0
  7 29  1  0  0  0  0
  7 30  1  0  0  0  0
  7 31  1  0  0  0  0
  8  9  1  0  0  0  0
  8 32  1  0  0  0  0
  8 33  1  0  0  0  0
  9 10  1  0  0  0  0
  9 34  1  0  0  0  0
 10 11  1  0  0  0  0
 10 35  1  0  0  0  0
 10 44  1  0  0  0  0
 11 12  1  0  0  0  0
 11 36  1  0  0  0  0
 11 37  1  0  0  0  0
 12 13  1  0  0  0  0
 12 38  1  0  0  0  0
 12 39  1  0  0  0  0
 13 18  1  0  0  0  0
 13 14  2  0  0  0  0
 14 15  1  0  0  0  0
 14 40  1  0  0  0  0
 15 16  2  0  0  0  0
 15 41  1  0  0  0  0
 16 17  1  0  0  0  0
 16 42  1  0  0  0  0
 17 18  2  0  0  0  0
 17 43  1  0  0  0  0
M  CHG  1   4   1
M  CHG  1  10   1
M  END
> <s_m_source_file>
AV-unprocessed.smi

> <i_m_source_file_index>
3303

> <i_lp_mmshare_version>
43012

> <i_f3d_flags>
0

> <s_epik_input>
W0NIM11bQ0BASF0xW0NIMl1OKFtDSDNdKVtDQEBIXShbQ0gzXSlbQ0gyXVtDQEhdMVtOSF1bQ0gyXVtDSDJdYzJbY0hdW2NIXVtjSF1bY0hdbjI=

> <s_epik_cmdline>
J2VwaWtfcHl0aG9uJywgJy1waCcsICc3LjAnLCAnLXRuJywgJzgnLCAnLW1hJywgJzIwMCcsICctbWV0YWxfYmluZGluZycsICctaW1hZScsICc8aW5maWxlLm1hZT4nLCAnLW9tYWUnLCAnPG91dGZpbGUubWFlPic=

> <r_epik_Ionization_Penalty>
0.0769462

> <r_epik_Ionization_Penalty_Charging>
0.0759813

> <r_epik_Ionization_Penalty_Neutral>
0.000964829

> <r_epik_State_Penalty>
0.0654373

> <r_epik_Charging_Adjusted_Penalty>
0.141419

> <i_epik_Tot_Q>
2

> <i_epik_Tot_abs_Q>
2

> <r_epik_Metal_State_Penalty>
0.0656439

> <b_epik_Metal_Only>
0

> <s_lp_Force_Field>
OPLS_2005

> <r_lp_Energy>
28.3662

> <b_lp_Chiralities_Consistent>
1

> <s_lp_Variant>
AV-unprocessed.smi:3303-12

> <Gold.Version>
5.8.1

> <Gold.Id.Protein>
6NUR|6NUR_protein|mol2

> <Gold.PLP.Fitness>
44.1809

> <Gold.PLP.PLP>
-35.4053

> <Gold.PLP.part.hbond>
-1.0000

> <Gold.PLP.part.metal>
0.0000

> <Gold.PLP.part.buried>
-7.6568

> <Gold.PLP.part.nonpolar>
-26.7567

> <Gold.PLP.part.repulsive>
0.2337

> <Gold.PLP.ligand.clash>
0.0000

> <Gold.PLP.ligand.torsion>
0.1278

> <Gold.PLP.Chemscore.Hbond>
2.0000

> <Gold.PLP.Chemscore.CHOScore>
1.0000

> <Gold.PLP.Chemscore.Metal>
0.0000

> <Gold.Chemscore.Hbonds>
donor molecule, donor type, donor heavy atom, donor atom, acceptor molecule, acceptor atom, score
      L1  H    10    35       P1  8028  2.00
      L1  C    17    43       P1  7957  1.00

> <Gold.PLP.Chemscore.Internal.Correction>
0.0312

> <Gold.Rescore>
     Score         DG    S(hbond)    S(metal)    S(lipo)     H(rot)  DE(clash)    DE(int)     intcor
     17.15     -17.66       0.95        0.00     107.20       1.37       0.36       0.15       ----

> <Gold.Chemscore.Fitness>
17.1535

> <Gold.Chemscore.DG>
-17.6610

> <Gold.Chemscore.ZeroCoef>
-5.4800

> <Gold.Chemscore.Hbond>
0.9454

> <Gold.Chemscore.Metal>
0.0000

> <Gold.Chemscore.Lipo>
107.1951

> <Gold.Chemscore.Internal_Hbond>
0.0000

> <Gold.Chemscore.DEClash>
0.3572

> <Gold.Chemscore.DEInternal>
0.1503

> <Gold.Chemscore.Rot>
1.3744

> <Gold.Chemscore.Internal.Correction>
   9.000000E+99

> <Gold.Chemscore.Hbonds>
donor molecule, donor type, donor heavy atom, donor atom, acceptor molecule, acceptor atom, score
      L1  H    10    35       P1  8028  0.97

> <Gold.Chemscore.Hbond.Weighted>
-3.1577

> <Gold.Chemscore.Metal.Weighted>
-0.0000

> <Gold.Chemscore.Lipo.Weighted>
-12.5418

> <Gold.Chemscore.Internal_Hbond.Weighted>
0.0000

> <Gold.Chemscore.DEClash.Weighted>
0.3572

> <Gold.Chemscore.DEInternal.Weighted>
0.1503

> <Gold.Chemscore.Rot.Weighted>
3.5185

> <Gold.Chemscore.Internal.Correction.Weighted>
   9.000000E+99

> <Gold.Protein.RotatedTorsions>
[ 6907 6896 6895 6894 ] final  135.76 input  -60.11 | X-H torsion
[ 7974 7965 7964 7962 ] final  119.36 input  175.53 | X-H torsion
[ 8008 7997 7996 7995 ] final   22.67 input   59.86 | X-H torsion
[ 10167 10162 10161 10158 ] final -164.36 input  -65.29 | X-H torsion
[ 10718 10713 10712 10709 ] final    2.33 input   66.30 | X-H torsion
[ 10763 10752 10751 10750 ] final   27.29 input  -60.55 | X-H torsion
[ 11005 11000 10999 10996 ] final  -21.40 input  -57.11 | X-H torsion

> <Gold.Protein.ActiveResidues>
 VAL166  LYS551  ARG553  GLY616  TRP617  ASP618  TYR619  PRO620  LYS621  CYS622 
 ASP623  PHE694  ASN695  SER759  ASP760  ASP761  ALA762  ILE779  LEU786  VAL792 
 PHE793  MET794  SER795  GLU796  ALA797  LYS798  CYS799  TRP800  GLU811  SER814 

> <Gold.Protein.RotatedAtoms>
  152.2969  133.5616  159.5593 H   0  0  0  0  0  0  0  0  0  0  0  0  # atno 6907 bound_to 6896
  150.7260  134.0348  159.3754 H   0  0  0  0  0  0  0  0  0  0  0  0  # atno 6908 bound_to 6896
  151.8250  135.0640  160.0480 H   0  0  0  0  0  0  0  0  0  0  0  0  # atno 6909 bound_to 6896
  145.1441  139.3250  143.4601 H   0  0  0  0  0  0  0  0  0  0  0  0  # atno 7974 bound_to 7965
  154.9692  140.3088  155.4995 H   0  0  0  0  0  0  0  0  0  0  0  0  # atno 8008 bound_to 7997
  156.2968  140.2287  156.4722 H   0  0  0  0  0  0  0  0  0  0  0  0  # atno 8009 bound_to 7997
  154.7892  140.0441  157.1176 H   0  0  0  0  0  0  0  0  0  0  0  0  # atno 8010 bound_to 7997
  139.6256  144.0539  152.1971 H   0  0  0  0  0  0  0  0  0  0  0  0  # atno 10167 bound_to 10162
  156.8613  130.5588  149.5663 H   0  0  0  0  0  0  0  0  0  0  0  0  # atno 10718 bound_to 10713
  153.0565  135.6540  154.0564 H   0  0  0  0  0  0  0  0  0  0  0  0  # atno 10763 bound_to 10752
  154.0241  135.2917  155.3378 H   0  0  0  0  0  0  0  0  0  0  0  0  # atno 10764 bound_to 10752
  154.6883  135.5293  153.8424 H   0  0  0  0  0  0  0  0  0  0  0  0  # atno 10765 bound_to 10752
  140.8557  133.7824  156.0017 H   0  0  0  0  0  0  0  0  0  0  0  0  # atno 11005 bound_to 11000
  146.3502  140.1489  142.8593 LP  0  0  0  0  0  0  0  0  0  0  0  0  # atno 17320 bound_to 7965
  145.0501  140.9011  143.5001 LP  0  0  0  0  0  0  0  0  0  0  0  0  # atno 17321 bound_to 7965
  140.0192  144.6166  150.7581 LP  0  0  0  0  0  0  0  0  0  0  0  0  # atno 17342 bound_to 10162
  140.7409  143.2810  151.3598 LP  0  0  0  0  0  0  0  0  0  0  0  0  # atno 17343 bound_to 10162
  156.0775  130.5793  150.9501 LP  0  0  0  0  0  0  0  0  0  0  0  0  # atno 17370 bound_to 10713
  157.6248  131.0926  150.8554 LP  0  0  0  0  0  0  0  0  0  0  0  0  # atno 17371 bound_to 10713
  140.8739  134.2693  157.5177 LP  0  0  0  0  0  0  0  0  0  0  0  0  # atno 17394 bound_to 11000
  139.8705  134.9581  156.4290 LP  0  0  0  0  0  0  0  0  0  0  0  0  # atno 17395 bound_to 11000

$$$$
