AV-unprocessed.smi:2393|AV-procd|sdf|9489|dock7
  -GOLD-   2272013113D 1   1.00000     0.00000
 Structure written by MMmdl.
 43 44  0  0  0  0  0  0  0  0  1 V2000
  144.7351  132.3798  149.8705 C   0  0  0  0  0  0  0  0  0  0  0  0
  144.4558  133.4122  150.9426 C   0  0  0  0  0  0  0  0  0  0  0  0
  143.2055  133.4647  151.5881 C   0  0  0  0  0  0  0  0  0  0  0  0
  143.0077  134.4508  152.5746 C   0  0  0  0  0  0  0  0  0  0  0  0
  141.6884  134.5643  153.3097 C   0  0  0  0  0  0  0  0  0  0  0  0
  143.9577  135.3445  152.9234 N   0  0  0  0  0  0  0  0  0  0  0  0
  145.1655  135.3037  152.3079 C   0  0  0  0  0  0  0  0  0  0  0  0
  146.2327  136.1912  152.6087 N   0  0  0  0  0  0  0  0  0  0  0  0
  146.2146  137.2667  153.4158 C   0  0  0  0  0  0  0  0  0  0  0  0
  145.2202  137.7060  153.9944 O   0  0  0  0  0  0  0  0  0  0  0  0
  147.4309  137.8242  153.5103 N   0  0  0  0  0  0  0  0  0  0  0  0
  147.7510  139.0084  154.3025 C   0  0  1  0  0  0  0  0  0  0  0  0
  149.2252  139.3836  154.1130 C   0  0  0  0  0  0  0  0  0  0  0  0
  149.5461  140.6882  154.8554 C   0  0  0  0  0  0  0  0  0  0  0  0
  148.6835  141.7363  154.4174 O   0  0  0  0  0  0  0  0  0  0  0  0
  147.2791  141.5158  154.5883 C   0  0  0  0  0  0  0  0  0  0  0  0
  146.8998  141.5226  156.0852 C   0  0  0  0  0  0  0  0  0  0  0  0
  146.5998  142.7087  153.8959 C   0  0  0  0  0  0  0  0  0  0  0  0
  146.8703  140.1992  153.8840 C   0  0  0  0  0  0  0  0  0  0  0  0
  145.4478  134.3431  151.3110 C   0  0  0  0  0  0  0  0  0  0  0  0
  143.9117  131.6707  149.7785 H   0  0  0  0  0  0  0  0  0  0  0  0
  145.6405  131.8210  150.1082 H   0  0  0  0  0  0  0  0  0  0  0  0
  144.8754  132.8683  148.9059 H   0  0  0  0  0  0  0  0  0  0  0  0
  142.4193  132.7684  151.3345 H   0  0  0  0  0  0  0  0  0  0  0  0
  141.0356  133.7211  153.0821 H   0  0  0  0  0  0  0  0  0  0  0  0
  141.1744  135.4818  153.0225 H   0  0  0  0  0  0  0  0  0  0  0  0
  141.8519  134.5847  154.3876 H   0  0  0  0  0  0  0  0  0  0  0  0
  147.1146  135.9738  152.1693 H   0  0  0  0  0  0  0  0  0  0  0  0
  148.1914  137.3991  153.0003 H   0  0  0  0  0  0  0  0  0  0  0  0
  147.5879  138.7842  155.3578 H   0  0  0  0  0  0  0  0  0  0  0  0
  149.8707  138.5817  154.4731 H   0  0  0  0  0  0  0  0  0  0  0  0
  149.4451  139.5105  153.0518 H   0  0  0  0  0  0  0  0  0  0  0  0
  149.4740  140.5513  155.9343 H   0  0  0  0  0  0  0  0  0  0  0  0
  150.5754  140.9841  154.6530 H   0  0  0  0  0  0  0  0  0  0  0  0
  145.8189  141.4536  156.2130 H   0  0  0  0  0  0  0  0  0  0  0  0
  147.2291  142.4431  156.5683 H   0  0  0  0  0  0  0  0  0  0  0  0
  147.3371  140.6915  156.6363 H   0  0  0  0  0  0  0  0  0  0  0  0
  145.5133  142.6335  153.9506 H   0  0  0  0  0  0  0  0  0  0  0  0
  146.8748  142.7653  152.8421 H   0  0  0  0  0  0  0  0  0  0  0  0
  146.8903  143.6521  154.3594 H   0  0  0  0  0  0  0  0  0  0  0  0
  146.9556  140.3312  152.8041 H   0  0  0  0  0  0  0  0  0  0  0  0
  145.8194  139.9806  154.0790 H   0  0  0  0  0  0  0  0  0  0  0  0
  146.4147  134.3203  150.8291 H   0  0  0  0  0  0  0  0  0  0  0  0
  1  2  1  0  0  0  0
  1 21  1  0  0  0  0
  1 22  1  0  0  0  0
  1 23  1  0  0  0  0
  2 20  1  0  0  0  0
  2  3  2  0  0  0  0
  3  4  1  0  0  0  0
  3 24  1  0  0  0  0
  4  5  1  0  0  0  0
  4  6  2  0  0  0  0
  5 25  1  0  0  0  0
  5 26  1  0  0  0  0
  5 27  1  0  0  0  0
  6  7  1  0  0  0  0
  7  8  1  0  0  0  0
  7 20  2  0  0  0  0
  8  9  1  0  0  0  0
  8 28  1  0  0  0  0
  9 10  2  0  0  0  0
  9 11  1  0  0  0  0
 11 12  1  0  0  0  0
 11 29  1  0  0  0  0
 12 19  1  0  0  0  0
 12 13  1  0  0  0  0
 12 30  1  0  0  0  0
 13 14  1  0  0  0  0
 13 31  1  0  0  0  0
 13 32  1  0  0  0  0
 14 15  1  0  0  0  0
 14 33  1  0  0  0  0
 14 34  1  0  0  0  0
 15 16  1  0  0  0  0
 16 17  1  0  0  0  0
 16 18  1  0  0  0  0
 16 19  1  0  0  0  0
 17 35  1  0  0  0  0
 17 36  1  0  0  0  0
 17 37  1  0  0  0  0
 18 38  1  0  0  0  0
 18 39  1  0  0  0  0
 18 40  1  0  0  0  0
 19 41  1  0  0  0  0
 19 42  1  0  0  0  0
 20 43  1  0  0  0  0
M  END
> <s_m_source_file>
AV-unprocessed.smi

> <i_m_source_file_index>
2393

> <i_lp_mmshare_version>
43012

> <i_f3d_flags>
0

> <s_epik_input>
W0NIM11jMVtjSF1jKFtDSDNdKW5jKFtjSF0xKVtOSF1DKD1PKVtOSF1bQ0BASF0oW0NIMl0yKVtDSDJdW0NIMl1PQzIoW0NIM10pW0NIM10=

> <s_epik_cmdline>
J2VwaWtfcHl0aG9uJywgJy1waCcsICc3LjAnLCAnLXRuJywgJzgnLCAnLW1hJywgJzIwMCcsICctbWV0YWxfYmluZGluZycsICctaW1hZScsICc8aW5maWxlLm1hZT4nLCAnLW9tYWUnLCAnPG91dGZpbGUubWFlPic=

> <r_lp_tautomer_probability>
1

> <r_epik_Ionization_Penalty>
0.000261351

> <r_epik_Ionization_Penalty_Charging>
0

> <r_epik_Ionization_Penalty_Neutral>
0.000261351

> <r_epik_State_Penalty>
-0

> <r_epik_Charging_Adjusted_Penalty>
0

> <i_epik_Tot_Q>
0

> <i_epik_Tot_abs_Q>
0

> <r_epik_Metal_State_Penalty>
-0

> <b_epik_Metal_Only>
0

> <s_lp_Force_Field>
OPLS_2005

> <r_lp_Energy>
12.7135

> <b_lp_Chiralities_Consistent>
1

> <s_lp_Variant>
AV-unprocessed.smi:2393-2

> <Gold.Version>
5.8.1

> <Gold.Id.Protein>
6NUR|6NUR_protein|mol2

> <Gold.PLP.Fitness>
40.8760

> <Gold.PLP.PLP>
-34.0086

> <Gold.PLP.part.hbond>
-3.0000

> <Gold.PLP.part.metal>
0.0000

> <Gold.PLP.part.buried>
-3.7933

> <Gold.PLP.part.nonpolar>
-27.6503

> <Gold.PLP.part.repulsive>
0.4638

> <Gold.PLP.ligand.clash>
0.0000

> <Gold.PLP.ligand.torsion>
0.0189

> <Gold.PLP.Chemscore.Hbond>
2.3016

> <Gold.PLP.Chemscore.CHOScore>
0.0000

> <Gold.PLP.Chemscore.Metal>
0.0000

> <Gold.Chemscore.Hbonds>
donor molecule, donor type, donor heavy atom, donor atom, acceptor molecule, acceptor atom, score
      L1  H     8    28       P1  7948  1.00
      L1  H    11    29       P1  7948  1.00

> <Gold.PLP.Chemscore.Internal.Correction>
0.0003

> <Gold.Rescore>
     Score         DG    S(hbond)    S(metal)    S(lipo)     H(rot)  DE(clash)    DE(int)     intcor
     17.40     -20.29       2.14        0.00      87.28       1.00       1.58       1.32       ----

> <Gold.Chemscore.Fitness>
17.3971

> <Gold.Chemscore.DG>
-20.2907

> <Gold.Chemscore.ZeroCoef>
-5.4800

> <Gold.Chemscore.Hbond>
2.1434

> <Gold.Chemscore.Metal>
0.0000

> <Gold.Chemscore.Lipo>
87.2784

> <Gold.Chemscore.Internal_Hbond>
0.0000

> <Gold.Chemscore.DEClash>
1.5765

> <Gold.Chemscore.DEInternal>
1.3170

> <Gold.Chemscore.Rot>
1.0000

> <Gold.Chemscore.Internal.Correction>
   9.000000E+99

> <Gold.Chemscore.Hbonds>
donor molecule, donor type, donor heavy atom, donor atom, acceptor molecule, acceptor atom, score
      L1  H     8    28       P1  7948  0.98
      L1  H    11    29       P1  7948  0.99
      P1  H  8011  8017       L1    15  0.01

> <Gold.Chemscore.Hbond.Weighted>
-7.1591

> <Gold.Chemscore.Metal.Weighted>
-0.0000

> <Gold.Chemscore.Lipo.Weighted>
-10.2116

> <Gold.Chemscore.Internal_Hbond.Weighted>
0.0000

> <Gold.Chemscore.DEClash.Weighted>
1.5765

> <Gold.Chemscore.DEInternal.Weighted>
1.3170

> <Gold.Chemscore.Rot.Weighted>
2.5600

> <Gold.Chemscore.Internal.Correction.Weighted>
   9.000000E+99

> <Gold.Protein.RotatedTorsions>
[ 6907 6896 6895 6894 ] final  -96.00 input  -60.11 | X-H torsion
[ 7974 7965 7964 7962 ] final  136.64 input  175.53 | X-H torsion
[ 8008 7997 7996 7995 ] final  -85.27 input   59.86 | X-H torsion
[ 10167 10162 10161 10158 ] final -142.90 input  -65.29 | X-H torsion
[ 10718 10713 10712 10709 ] final -158.51 input   66.30 | X-H torsion
[ 10763 10752 10751 10750 ] final  105.69 input  -60.55 | X-H torsion
[ 11005 11000 10999 10996 ] final   76.64 input  -57.11 | X-H torsion

> <Gold.Protein.ActiveResidues>
 VAL166  LYS551  ARG553  GLY616  TRP617  ASP618  TYR619  PRO620  LYS621  CYS622 
 ASP623  PHE694  ASN695  SER759  ASP760  ASP761  ALA762  ILE779  LEU786  VAL792 
 PHE793  MET794  SER795  GLU796  ALA797  LYS798  CYS799  TRP800  GLU811  SER814 

> <Gold.Protein.RotatedAtoms>
  150.6977  134.1571  159.4161 H   0  0  0  0  0  0  0  0  0  0  0  0  # atno 6907 bound_to 6896
  151.9552  135.0147  160.0553 H   0  0  0  0  0  0  0  0  0  0  0  0  # atno 6908 bound_to 6896
  152.1975  133.4782  159.5077 H   0  0  0  0  0  0  0  0  0  0  0  0  # atno 6909 bound_to 6896
  144.9545  139.4780  143.5509 H   0  0  0  0  0  0  0  0  0  0  0  0  # atno 7974 bound_to 7965
  154.6389  140.0593  156.9822 H   0  0  0  0  0  0  0  0  0  0  0  0  # atno 8008 bound_to 7997
  155.1547  140.3277  155.4405 H   0  0  0  0  0  0  0  0  0  0  0  0  # atno 8009 bound_to 7997
  156.2521  140.1941  156.6657 H   0  0  0  0  0  0  0  0  0  0  0  0  # atno 8010 bound_to 7997
  139.8045  143.7788  152.2660 H   0  0  0  0  0  0  0  0  0  0  0  0  # atno 10167 bound_to 10162
  156.5551  130.8622  151.2792 H   0  0  0  0  0  0  0  0  0  0  0  0  # atno 10718 bound_to 10713
  153.3828  135.3901  155.1869 H   0  0  0  0  0  0  0  0  0  0  0  0  # atno 10763 bound_to 10752
  154.8710  135.3729  154.4835 H   0  0  0  0  0  0  0  0  0  0  0  0  # atno 10764 bound_to 10752
  153.5314  135.7085  153.5742 H   0  0  0  0  0  0  0  0  0  0  0  0  # atno 10765 bound_to 10752
  139.9289  134.7617  156.1421 H   0  0  0  0  0  0  0  0  0  0  0  0  # atno 11005 bound_to 11000
  146.3332  139.8653  142.8849 LP  0  0  0  0  0  0  0  0  0  0  0  0  # atno 17320 bound_to 7965
  145.2793  141.0133  143.3727 LP  0  0  0  0  0  0  0  0  0  0  0  0  # atno 17321 bound_to 7965
  139.7918  144.7407  150.9945 LP  0  0  0  0  0  0  0  0  0  0  0  0  # atno 17342 bound_to 10162
  140.7819  143.4434  151.0518 LP  0  0  0  0  0  0  0  0  0  0  0  0  # atno 17343 bound_to 10162
  157.7380  130.9805  150.2224 LP  0  0  0  0  0  0  0  0  0  0  0  0  # atno 17370 bound_to 10713
  156.2849  130.3738  149.7898 LP  0  0  0  0  0  0  0  0  0  0  0  0  # atno 17371 bound_to 10713
  141.0866  133.6732  156.2449 LP  0  0  0  0  0  0  0  0  0  0  0  0  # atno 17394 bound_to 11000
  140.6257  134.5316  157.5553 LP  0  0  0  0  0  0  0  0  0  0  0  0  # atno 17395 bound_to 11000

$$$$
