AV-unprocessed.smi:2955|AV-procd|sdf|11301|dock8
  -GOLD-   2272016193D 1   1.00000     0.00000
 Structure written by MMmdl.
 45 47  0  0  0  0  0  0  0  0  1 V2000
  153.0385  142.3657  161.7146 C   0  0  0  0  0  0  0  0  0  0  0  0
  152.3921  143.1959  160.6251 C   0  0  0  0  0  0  0  0  0  0  0  0
  152.0981  144.5561  160.8443 C   0  0  0  0  0  0  0  0  0  0  0  0
  151.4965  145.3170  159.8251 C   0  0  0  0  0  0  0  0  0  0  0  0
  151.1890  144.7240  158.5852 C   0  0  0  0  0  0  0  0  0  0  0  0
  151.4843  143.3574  158.3507 C   0  0  0  0  0  0  0  0  0  0  0  0
  151.2251  142.7003  157.1670 O   0  0  0  0  0  0  0  0  0  0  0  0
  150.9754  141.3019  157.2143 C   0  0  0  0  0  0  0  0  0  0  0  0
  151.4318  140.6458  155.9037 C   0  0  0  0  0  0  0  0  0  0  0  0
  150.3197  140.0651  155.1624 N   0  0  0  0  0  0  0  0  0  0  0  0
  150.1397  138.7856  154.7370 C   0  0  0  0  0  0  0  0  0  0  0  0
  151.1415  137.6847  154.9838 C   0  0  2  0  0  0  0  0  0  0  0  0
  152.5163  138.0050  154.3797 C   0  0  0  0  0  0  0  0  0  0  0  0
  150.6166  136.4461  154.4188 N   0  0  0  0  0  0  0  0  0  0  0  0
  150.6380  135.2637  155.0463 C   0  0  0  0  0  0  0  0  0  0  0  0
  151.1092  135.1071  156.1697 O   0  0  0  0  0  0  0  0  0  0  0  0
  148.9893  138.5500  154.1000 N   0  0  0  0  0  0  0  0  0  0  0  0
  148.3845  139.7898  154.0831 C   0  0  0  0  0  0  0  0  0  0  0  0
  147.1475  140.2007  153.5371 C   0  0  0  0  0  0  0  0  0  0  0  0
  146.7328  141.5446  153.6414 C   0  0  0  0  0  0  0  0  0  0  0  0
  147.5466  142.4937  154.2928 C   0  0  0  0  0  0  0  0  0  0  0  0
  148.7817  142.1036  154.8455 C   0  0  0  0  0  0  0  0  0  0  0  0
  149.1917  140.7610  154.7375 C   0  0  0  0  0  0  0  0  0  0  0  0
  152.0848  142.6062  159.3823 C   0  0  0  0  0  0  0  0  0  0  0  0
  153.0731  142.9079  162.6599 H   0  0  0  0  0  0  0  0  0  0  0  0
  154.0585  142.1036  161.4331 H   0  0  0  0  0  0  0  0  0  0  0  0
  152.4775  141.4444  161.8725 H   0  0  0  0  0  0  0  0  0  0  0  0
  152.3315  145.0202  161.7914 H   0  0  0  0  0  0  0  0  0  0  0  0
  151.2709  146.3594  159.9938 H   0  0  0  0  0  0  0  0  0  0  0  0
  150.7289  145.3417  157.8293 H   0  0  0  0  0  0  0  0  0  0  0  0
  151.5168  140.8569  158.0503 H   0  0  0  0  0  0  0  0  0  0  0  0
  149.9115  141.1089  157.3615 H   0  0  0  0  0  0  0  0  0  0  0  0
  151.9750  141.3509  155.2763 H   0  0  0  0  0  0  0  0  0  0  0  0
  152.1432  139.8503  156.1274 H   0  0  0  0  0  0  0  0  0  0  0  0
  151.2938  137.5381  156.0515 H   0  0  0  0  0  0  0  0  0  0  0  0
  152.9074  138.9415  154.7765 H   0  0  0  0  0  0  0  0  0  0  0  0
  152.4647  138.1038  153.2949 H   0  0  0  0  0  0  0  0  0  0  0  0
  153.2385  137.2207  154.6078 H   0  0  0  0  0  0  0  0  0  0  0  0
  150.2066  136.4946  153.4974 H   0  0  0  0  0  0  0  0  0  0  0  0
  150.1889  134.4655  154.4347 H   0  0  0  0  0  0  0  0  0  0  0  0
  146.5175  139.4811  153.0356 H   0  0  0  0  0  0  0  0  0  0  0  0
  145.7862  141.8487  153.2194 H   0  0  0  0  0  0  0  0  0  0  0  0
  147.2222  143.5213  154.3686 H   0  0  0  0  0  0  0  0  0  0  0  0
  149.4068  142.8291  155.3443 H   0  0  0  0  0  0  0  0  0  0  0  0
  152.3109  141.5629  159.2180 H   0  0  0  0  0  0  0  0  0  0  0  0
  1  2  1  0  0  0  0
  1 25  1  0  0  0  0
  1 26  1  0  0  0  0
  1 27  1  0  0  0  0
  2 24  1  0  0  0  0
  2  3  2  0  0  0  0
  3  4  1  0  0  0  0
  3 28  1  0  0  0  0
  4  5  2  0  0  0  0
  4 29  1  0  0  0  0
  5  6  1  0  0  0  0
  5 30  1  0  0  0  0
  6  7  1  0  0  0  0
  6 24  2  0  0  0  0
  7  8  1  0  0  0  0
  8  9  1  0  0  0  0
  8 31  1  0  0  0  0
  8 32  1  0  0  0  0
  9 10  1  0  0  0  0
  9 33  1  0  0  0  0
  9 34  1  0  0  0  0
 10 23  1  0  0  0  0
 10 11  1  0  0  0  0
 11 12  1  0  0  0  0
 11 17  2  0  0  0  0
 12 13  1  0  0  0  0
 12 14  1  0  0  0  0
 12 35  1  0  0  0  0
 13 36  1  0  0  0  0
 13 37  1  0  0  0  0
 13 38  1  0  0  0  0
 14 15  1  0  0  0  0
 14 39  1  0  0  0  0
 15 16  2  0  0  0  0
 15 40  1  0  0  0  0
 17 18  1  0  0  0  0
 18 23  2  0  0  0  0
 18 19  1  0  0  0  0
 19 20  2  0  0  0  0
 19 41  1  0  0  0  0
 20 21  1  0  0  0  0
 20 42  1  0  0  0  0
 21 22  2  0  0  0  0
 21 43  1  0  0  0  0
 22 23  1  0  0  0  0
 22 44  1  0  0  0  0
 24 45  1  0  0  0  0
M  END
> <s_m_source_file>
AV-unprocessed.smi

> <i_m_source_file_index>
2955

> <i_lp_mmshare_version>
43012

> <i_f3d_flags>
0

> <s_epik_input>
W0NIM11jMVtjSF1bY0hdW2NIXWMoW2NIXTEpT1tDSDJdW0NIMl1uKGMobjIpW0NASF0oW0NIM10pW05IXVtDSF09TyljKGMyMylbY0hdW2NIXVtjSF1bY0hdMw==

> <s_epik_cmdline>
J2VwaWtfcHl0aG9uJywgJy1waCcsICc3LjAnLCAnLXRuJywgJzgnLCAnLW1hJywgJzIwMCcsICctbWV0YWxfYmluZGluZycsICctaW1hZScsICc8aW5maWxlLm1hZT4nLCAnLW9tYWUnLCAnPG91dGZpbGUubWFlPic=

> <r_lp_tautomer_probability>
1

> <r_epik_Ionization_Penalty>
0.0917757

> <r_epik_Ionization_Penalty_Charging>
0

> <r_epik_Ionization_Penalty_Neutral>
0.0917757

> <r_epik_State_Penalty>
0.0820948

> <r_epik_Charging_Adjusted_Penalty>
0.0820948

> <i_epik_Tot_Q>
0

> <i_epik_Tot_abs_Q>
0

> <r_epik_Metal_State_Penalty>
0.0709956

> <b_epik_Metal_Only>
0

> <s_lp_Force_Field>
OPLS_2005

> <r_lp_Energy>
12.8811

> <b_lp_Chiralities_Consistent>
1

> <s_lp_Variant>
AV-unprocessed.smi:2955-1

> <Gold.Version>
5.8.1

> <Gold.Id.Protein>
6NUR|6NUR_protein|mol2

> <Gold.PLP.Fitness>
54.2033

> <Gold.PLP.PLP>
-54.0312

> <Gold.PLP.part.hbond>
-1.9836

> <Gold.PLP.part.metal>
0.0000

> <Gold.PLP.part.buried>
0.5161

> <Gold.PLP.part.nonpolar>
-53.2968

> <Gold.PLP.part.repulsive>
0.4034

> <Gold.PLP.ligand.clash>
0.0000

> <Gold.PLP.ligand.torsion>
1.1583

> <Gold.PLP.Chemscore.Hbond>
0.8000

> <Gold.PLP.Chemscore.CHOScore>
0.0000

> <Gold.PLP.Chemscore.Metal>
0.0000

> <Gold.Chemscore.Hbonds>
donor molecule, donor type, donor heavy atom, donor atom, acceptor molecule, acceptor atom, score
      L1  H    14    39       P1  7948  0.55
      P1  H 10752 10764       L1    16  0.03

> <Gold.PLP.Chemscore.Internal.Correction>
0.0887

> <Gold.Rescore>
     Score         DG    S(hbond)    S(metal)    S(lipo)     H(rot)  DE(clash)    DE(int)     intcor
     15.06     -17.77       0.07        0.00     152.53       2.26       1.77       0.94       ----

> <Gold.Chemscore.Fitness>
15.0645

> <Gold.Chemscore.DG>
-17.7715

> <Gold.Chemscore.ZeroCoef>
-5.4800

> <Gold.Chemscore.Hbond>
0.0708

> <Gold.Chemscore.Metal>
0.0000

> <Gold.Chemscore.Lipo>
152.5263

> <Gold.Chemscore.Internal_Hbond>
0.0000

> <Gold.Chemscore.DEClash>
1.7716

> <Gold.Chemscore.DEInternal>
0.9354

> <Gold.Chemscore.Rot>
2.2619

> <Gold.Chemscore.Internal.Correction>
   9.000000E+99

> <Gold.Chemscore.Hbonds>
donor molecule, donor type, donor heavy atom, donor atom, acceptor molecule, acceptor atom, score
      L1  H    14    39       P1  7948  0.03

> <Gold.Chemscore.Hbond.Weighted>
-0.2364

> <Gold.Chemscore.Metal.Weighted>
-0.0000

> <Gold.Chemscore.Lipo.Weighted>
-17.8456

> <Gold.Chemscore.Internal_Hbond.Weighted>
0.0000

> <Gold.Chemscore.DEClash.Weighted>
1.7716

> <Gold.Chemscore.DEInternal.Weighted>
0.9354

> <Gold.Chemscore.Rot.Weighted>
5.7906

> <Gold.Chemscore.Internal.Correction.Weighted>
   9.000000E+99

> <Gold.Protein.RotatedTorsions>
[ 6907 6896 6895 6894 ] final -107.24 input  -60.11 | X-H torsion
[ 7974 7965 7964 7962 ] final   54.48 input  175.53 | X-H torsion
[ 8008 7997 7996 7995 ] final   68.55 input   59.86 | X-H torsion
[ 10167 10162 10161 10158 ] final   25.99 input  -65.29 | X-H torsion
[ 10718 10713 10712 10709 ] final   31.66 input   66.30 | X-H torsion
[ 10763 10752 10751 10750 ] final  -27.82 input  -60.55 | X-H torsion
[ 11005 11000 10999 10996 ] final   40.31 input  -57.11 | X-H torsion

> <Gold.Protein.ActiveResidues>
 VAL166  LYS551  ARG553  GLY616  TRP617  ASP618  TYR619  PRO620  LYS621  CYS622 
 ASP623  PHE694  ASN695  SER759  ASP760  ASP761  ALA762  ILE779  LEU786  VAL792 
 PHE793  MET794  SER795  GLU796  ALA797  LYS798  CYS799  TRP800  GLU811  SER814 

> <Gold.Protein.RotatedAtoms>
  150.7433  133.9856  159.3590 H   0  0  0  0  0  0  0  0  0  0  0  0  # atno 6907 bound_to 6896
  151.7800  135.0762  160.0382 H   0  0  0  0  0  0  0  0  0  0  0  0  # atno 6908 bound_to 6896
  152.3280  133.5890  159.5826 H   0  0  0  0  0  0  0  0  0  0  0  0  # atno 6909 bound_to 6896
  145.9604  139.4054  143.0251 H   0  0  0  0  0  0  0  0  0  0  0  0  # atno 7974 bound_to 7965
  155.7100  140.3494  155.4970 H   0  0  0  0  0  0  0  0  0  0  0  0  # atno 8008 bound_to 7997
  155.9364  140.1093  157.1113 H   0  0  0  0  0  0  0  0  0  0  0  0  # atno 8009 bound_to 7997
  154.4094  140.1221  156.4856 H   0  0  0  0  0  0  0  0  0  0  0  0  # atno 8010 bound_to 7997
  140.5060  144.0237  150.6352 H   0  0  0  0  0  0  0  0  0  0  0  0  # atno 10167 bound_to 10162
  157.2753  130.7228  149.6526 H   0  0  0  0  0  0  0  0  0  0  0  0  # atno 10718 bound_to 10713
  153.7383  135.6934  153.4973 H   0  0  0  0  0  0  0  0  0  0  0  0  # atno 10763 bound_to 10752
  153.2087  135.4410  155.0353 H   0  0  0  0  0  0  0  0  0  0  0  0  # atno 10764 bound_to 10752
  154.8229  135.3431  154.6909 H   0  0  0  0  0  0  0  0  0  0  0  0  # atno 10765 bound_to 10752
  140.1943  134.3949  155.8130 H   0  0  0  0  0  0  0  0  0  0  0  0  # atno 11005 bound_to 11000
  145.8047  140.9754  143.0980 LP  0  0  0  0  0  0  0  0  0  0  0  0  # atno 17320 bound_to 7965
  144.6814  139.9846  143.7484 LP  0  0  0  0  0  0  0  0  0  0  0  0  # atno 17321 bound_to 7965
  140.3547  143.2943  152.0449 LP  0  0  0  0  0  0  0  0  0  0  0  0  # atno 17342 bound_to 10162
  139.4884  144.6348  151.6998 LP  0  0  0  0  0  0  0  0  0  0  0  0  # atno 17343 bound_to 10162
  155.9663  130.4355  150.5094 LP  0  0  0  0  0  0  0  0  0  0  0  0  # atno 17370 bound_to 10713
  157.3027  131.0648  151.2057 LP  0  0  0  0  0  0  0  0  0  0  0  0  # atno 17371 bound_to 10713
  141.2227  133.7062  156.8148 LP  0  0  0  0  0  0  0  0  0  0  0  0  # atno 17394 bound_to 11000
  140.2125  134.8817  157.3290 LP  0  0  0  0  0  0  0  0  0  0  0  0  # atno 17395 bound_to 11000

$$$$
