#       Name:                AV-unprocessed.smi:3311
#       Creating user name   scv26
#       Creation time:       Fri Mar 27 19:05:53 2020


#       File generated by GOLD software.
#

@<TRIPOS>MOLECULE
AV-unprocessed.smi:3311
    47    48     1
SMALL
NO_CHARGES


@<TRIPOS>ATOM
      1 ****        -2.6661  -1.3991  -1.7914 C.3            1 S1                 0.0000
      2 ****        -2.1669  -0.7070  -0.5123 C.3            1 S1                 0.0000
      3 ****        -0.6872  -0.6577  -0.5465 N.4            1 S1                 1.0000
      4 ****        -0.1049   0.7014  -0.5767 C.3            1 S1                 0.0000
      5 ****         1.4377   0.6753  -0.5134 C.3            1 S1                 0.0000
      6 ****         1.7947   0.0282   0.6959 O.3            1 S1                 0.0000
      7 ****         2.0516  -0.0895  -1.7125 C.3            1 S1                 0.0000
      8 ****         3.5887  -0.0169  -1.7465 C.3            1 S1                 0.0000
      9 ****         4.0813   1.4365  -1.7204 C.3            1 S1                 0.0000
     10 ****         3.5255   2.1820  -0.4993 C.3            1 S1                 0.0000
     11 ****         1.9877   2.1205  -0.4590 C.3            1 S1                 0.0000
     12 ****        -2.6475  -1.4100   0.7859 C.3            1 S1                 0.0000
     13 ****        -4.1814  -1.4920   0.9037 C.3            1 S1                 0.0000
     14 ****        -2.0941  -0.7667   1.9726 N.pl3          1 S1                 0.0000
     15 ****        -1.2421  -1.3038   2.9159 C.2            1 S1                 0.0000
     16 ****        -0.9818  -0.3279   3.8346 C.2            1 S1                 0.0000
     17 ****        -1.7319   0.7864   3.3668 C.2            1 S1                 0.0000
     18 ****        -2.3959   0.5213   2.2538 N.2            1 S1                 0.0000
     19 ****        -3.7518  -1.3565  -1.8748 H              1 S1                 0.0000
     20 ****        -2.3678  -2.4477  -1.8209 H              1 S1                 0.0000
     21 ****        -2.2621  -0.9133  -2.6805 H              1 S1                 0.0000
     22 ****        -2.5590   0.3117  -0.5199 H              1 S1                 0.0000
     23 ****        -0.3382  -1.1189   0.2817 H              1 S1                 0.0000
     24 ****        -0.4367   1.2072  -1.4846 H              1 S1                 0.0000
     25 ****        -0.4977   1.2739   0.2649 H              1 S1                 0.0000
     26 ****         2.7362   0.0507   0.7807 H              1 S1                 0.0000
     27 ****         1.7431  -1.1353  -1.7019 H              1 S1                 0.0000
     28 ****         1.6630   0.3304  -2.6413 H              1 S1                 0.0000
     29 ****         4.0035  -0.5597  -0.8963 H              1 S1                 0.0000
     30 ****         3.9621  -0.5172  -2.6405 H              1 S1                 0.0000
     31 ****         5.1714   1.4602  -1.7067 H              1 S1                 0.0000
     32 ****         3.7721   1.9459  -2.6341 H              1 S1                 0.0000
     33 ****         3.9388   1.7508   0.4132 H              1 S1                 0.0000
     34 ****         3.8531   3.2218  -0.5209 H              1 S1                 0.0000
     35 ****         1.5966   2.6863  -1.3058 H              1 S1                 0.0000
     36 ****         1.6250   2.6303   0.4348 H              1 S1                 0.0000
     37 ****        -2.2685  -2.4334   0.7766 H              1 S1                 0.0000
     38 ****        -4.6135  -2.1149   0.1211 H              1 S1                 0.0000
     39 ****        -4.6417  -0.5057   0.8382 H              1 S1                 0.0000
     40 ****        -4.4758  -1.9315   1.8574 H              1 S1                 0.0000
     41 ****        -0.8923  -2.3240   2.8555 H              1 S1                 0.0000
     42 ****        -0.3523  -0.3993   4.7091 H              1 S1                 0.0000
     43 ****        -1.8129   1.7728   3.7991 H              1 S1                 0.0000
     44 ****        -0.3623  -1.1672  -1.3554 H              1 S1                 0.0000
     45 ****         1.4801  -0.9208   0.6765 LP             1 S1                 0.0000
     46 ****         1.3747   0.5028   1.4694 LP             1 S1                 0.0000
     47 ****        -2.9894   1.1369   1.7353 LP             1 S1                 0.0000
@<TRIPOS>BOND
    1    1    2 1     
    2    1   19 1     
    3    1   20 1     
    4    1   21 1     
    5    2    3 1     
    6    2   12 1     
    7    2   22 1     
    8    3    4 1     
    9    3   23 1     
   10    3   44 1     
   11    4    5 1     
   12    4   24 1     
   13    4   25 1     
   14    5   11 1     
   15    5    6 1     
   16    5    7 1     
   17    6   26 1     
   18    7    8 1     
   19    7   27 1     
   20    7   28 1     
   21    8    9 1     
   22    8   29 1     
   23    8   30 1     
   24    9   10 1     
   25    9   31 1     
   26    9   32 1     
   27   10   11 1     
   28   10   33 1     
   29   10   34 1     
   30   11   35 1     
   31   11   36 1     
   32   12   13 1     
   33   12   14 1     
   34   12   37 1     
   35   13   38 1     
   36   13   39 1     
   37   13   40 1     
   38   14   18 1     
   39   14   15 1     
   40   15   16 2     
   41   15   41 1     
   42   16   17 1     
   43   16   42 1     
   44   17   18 2     
   45   17   43 1     
   46    6   45 1     
   47    6   46 1     
   48   18   47 1     
@<TRIPOS>SUBSTRUCTURE
      1 S1             1
@<TRIPOS>SET
LONE_PAIRS      STATIC     ATOMS    <user>   **** ""
3 45 46 47
DONOR_HYDROGENS      STATIC     ATOMS    <user>   **** ""
3 23 44 26
ATOM$BLUE        STATIC     ATOMS    COLORGROUP SYSTEM
3 45 46 47
ATOM$RED        STATIC     ATOMS    COLORGROUP SYSTEM
3 23 44 26
