AV-unprocessed.smi:1208|AV-procd|sdf|5068|dock7
  -GOLD-   22720 4113D 1   1.00000     0.00000
 Structure written by MMmdl.
 36 37  0  0  0  0  0  0  0  0  1 V2000
  151.4487  140.6614  156.0530 C   0  0  0  0  0  0  0  0  0  0  0  0
  150.7100  141.9867  156.2962 C   0  0  1  0  0  0  0  0  0  0  0  0
  149.3159  141.8191  155.8926 N   0  0  0  0  0  0  0  0  0  0  0  0
  148.8944  141.3995  154.6895 C   0  0  0  0  0  0  0  0  0  0  0  0
  149.6611  141.0965  153.7739 O   0  0  0  0  0  0  0  0  0  0  0  0
  147.3708  141.3257  154.5072 C   0  0  0  0  0  0  0  0  0  0  0  0
  146.8884  139.9961  154.1055 N   0  0  0  0  0  0  0  0  0  0  0  0
  147.0040  139.7410  152.7473 N   0  0  0  0  0  0  0  0  0  0  0  0
  146.6332  138.6007  152.2716 C   0  0  0  0  0  0  0  0  0  0  0  0
  146.7693  138.3894  150.9216 O   0  0  0  0  0  0  0  0  0  0  0  0
  146.0896  137.5721  153.1307 C   0  0  0  0  0  0  0  0  0  0  0  0
  145.9781  137.8309  154.4521 C   0  0  0  0  0  0  0  0  0  0  0  0
  146.3916  139.1130  155.0255 C   0  0  0  0  0  0  0  0  0  0  0  0
  146.3050  139.3739  156.2253 O   0  0  0  0  0  0  0  0  0  0  0  0
  150.7834  142.4354  157.7714 C   0  0  1  0  0  0  0  0  0  0  0  0
  152.1720  142.3362  158.4028 C   0  0  0  0  0  0  0  0  0  0  0  0
  152.1085  143.3287  159.5516 C   0  0  0  0  0  0  0  0  0  0  0  0
  150.9309  144.2383  159.1913 C   0  0  0  0  0  0  0  0  0  0  0  0
  150.5157  143.8242  157.8971 O   0  0  0  0  0  0  0  0  0  0  0  0
  145.8880  138.3059  150.5914 H   0  0  0  0  0  0  0  0  0  0  0  0
  152.5106  140.7490  156.2829 H   0  0  0  0  0  0  0  0  0  0  0  0
  151.3689  140.3541  155.0099 H   0  0  0  0  0  0  0  0  0  0  0  0
  151.0400  139.8593  156.6687 H   0  0  0  0  0  0  0  0  0  0  0  0
  151.1819  142.7468  155.6707 H   0  0  0  0  0  0  0  0  0  0  0  0
  148.6151  142.0493  156.5819 H   0  0  0  0  0  0  0  0  0  0  0  0
  146.8875  141.6434  155.4328 H   0  0  0  0  0  0  0  0  0  0  0  0
  147.0788  142.0651  153.7593 H   0  0  0  0  0  0  0  0  0  0  0  0
  145.7832  136.6229  152.7163 H   0  0  0  0  0  0  0  0  0  0  0  0
  145.5742  137.0716  155.1054 H   0  0  0  0  0  0  0  0  0  0  0  0
  150.0618  141.8817  158.3755 H   0  0  0  0  0  0  0  0  0  0  0  0
  152.4175  141.3260  158.7316 H   0  0  0  0  0  0  0  0  0  0  0  0
  152.9328  142.6533  157.6883 H   0  0  0  0  0  0  0  0  0  0  0  0
  151.9196  142.8215  160.4984 H   0  0  0  0  0  0  0  0  0  0  0  0
  153.0420  143.8841  159.6478 H   0  0  0  0  0  0  0  0  0  0  0  0
  150.1093  144.0999  159.8952 H   0  0  0  0  0  0  0  0  0  0  0  0
  151.2040  145.2937  159.1898 H   0  0  0  0  0  0  0  0  0  0  0  0
  1  2  1  0  0  0  0
  1 21  1  0  0  0  0
  1 22  1  0  0  0  0
  1 23  1  0  0  0  0
  2  3  1  0  0  0  0
  2 15  1  0  0  0  0
  2 24  1  0  0  0  0
  3  4  1  0  0  0  0
  3 25  1  0  0  0  0
  4  5  2  0  0  0  0
  4  6  1  0  0  0  0
  6 26  1  0  0  0  0
  6 27  1  0  0  0  0
  6  7  1  0  0  0  0
  7  8  1  0  0  0  0
  7 13  1  0  0  0  0
  8  9  2  0  0  0  0
  9 10  1  0  0  0  0
  9 11  1  0  0  0  0
 10 20  1  0  0  0  0
 11 28  1  0  0  0  0
 11 12  2  0  0  0  0
 12 29  1  0  0  0  0
 12 13  1  0  0  0  0
 13 14  2  0  0  0  0
 15 19  1  0  0  0  0
 15 16  1  0  0  0  0
 15 30  1  0  0  0  0
 16 17  1  0  0  0  0
 16 31  1  0  0  0  0
 16 32  1  0  0  0  0
 17 18  1  0  0  0  0
 17 33  1  0  0  0  0
 17 34  1  0  0  0  0
 18 19  1  0  0  0  0
 18 35  1  0  0  0  0
 18 36  1  0  0  0  0
M  END
> <s_m_source_file>
AV-unprocessed.smi

> <i_m_source_file_index>
1208

> <i_lp_mmshare_version>
43012

> <i_f3d_flags>
0

> <s_epik_input>
TzFbQ0gyXVtDSDJdW0NIMl1bQ0BIXTFbQ0BIXShbQ0gzXSlbTkhdQyg9TylbQ0gyXW4yW25IXWMoPU8pW2NIXVtjSF1jMj1P

> <s_epik_cmdline>
J2VwaWtfcHl0aG9uJywgJy1waCcsICc3LjAnLCAnLXRuJywgJzgnLCAnLW1hJywgJzIwMCcsICctbWV0YWxfYmluZGluZycsICctaW1hZScsICc8aW5maWxlLm1hZT4nLCAnLW9tYWUnLCAnPG91dGZpbGUubWFlPic=

> <r_lp_tautomer_probability>
0.9996

> <r_epik_Ionization_Penalty>
2.12735

> <r_epik_Ionization_Penalty_Charging>
3.86665e-08

> <r_epik_Ionization_Penalty_Neutral>
2.12735

> <r_epik_State_Penalty>
1.70441

> <r_epik_Charging_Adjusted_Penalty>
1.70441

> <i_epik_Tot_Q>
0

> <i_epik_Tot_abs_Q>
0

> <r_epik_Metal_State_Penalty>
1.70441

> <b_epik_Metal_Only>
0

> <s_lp_Force_Field>
OPLS_2005

> <r_lp_Energy>
29.9915

> <b_lp_Chiralities_Consistent>
1

> <s_lp_Variant>
AV-unprocessed.smi:1208-8

> <Gold.Version>
5.8.1

> <Gold.Id.Protein>
6NUR|6NUR_protein|mol2

> <Gold.PLP.Fitness>
41.3780

> <Gold.PLP.PLP>
-32.7968

> <Gold.PLP.part.hbond>
-5.2768

> <Gold.PLP.part.metal>
0.0000

> <Gold.PLP.part.buried>
-6.7610

> <Gold.PLP.part.nonpolar>
-26.5276

> <Gold.PLP.part.repulsive>
4.0550

> <Gold.PLP.ligand.clash>
0.0000

> <Gold.PLP.ligand.torsion>
0.6161

> <Gold.PLP.Chemscore.Hbond>
3.2633

> <Gold.PLP.Chemscore.CHOScore>
0.0000

> <Gold.PLP.Chemscore.Metal>
0.0000

> <Gold.Chemscore.Hbonds>
donor molecule, donor type, donor heavy atom, donor atom, acceptor molecule, acceptor atom, score
      L1  H    10    20       P1 10171  0.67
      P1  H  7954  7966       L1    10  1.00
      P1  H  7989  7998       L1     5  0.32
      P1  H  8011  8017       L1     5  0.91

> <Gold.PLP.Chemscore.Internal.Correction>
0.0235

> <Gold.Rescore>
     Score         DG    S(hbond)    S(metal)    S(lipo)     H(rot)  DE(clash)    DE(int)     intcor
     12.69     -15.72       2.79        0.00      65.20       2.63       1.58       1.44       ----

> <Gold.Chemscore.Fitness>
12.6922

> <Gold.Chemscore.DG>
-15.7168

> <Gold.Chemscore.ZeroCoef>
-5.4800

> <Gold.Chemscore.Hbond>
2.7939

> <Gold.Chemscore.Metal>
0.0000

> <Gold.Chemscore.Lipo>
65.2039

> <Gold.Chemscore.Internal_Hbond>
0.0000

> <Gold.Chemscore.DEClash>
1.5847

> <Gold.Chemscore.DEInternal>
1.4400

> <Gold.Chemscore.Rot>
2.6264

> <Gold.Chemscore.Internal.Correction>
   9.000000E+99

> <Gold.Chemscore.Hbonds>
donor molecule, donor type, donor heavy atom, donor atom, acceptor molecule, acceptor atom, score
      L1  H    10    20       P1 10171  0.67
      P1  H  7954  7966       L1    10  0.95
      P1  H  7989  7998       L1     5  0.31
      P1  H  8011  8017       L1     5  0.80

> <Gold.Chemscore.Hbond.Weighted>
-9.3316

> <Gold.Chemscore.Metal.Weighted>
-0.0000

> <Gold.Chemscore.Lipo.Weighted>
-7.6289

> <Gold.Chemscore.Internal_Hbond.Weighted>
0.0000

> <Gold.Chemscore.DEClash.Weighted>
1.5847

> <Gold.Chemscore.DEInternal.Weighted>
1.4400

> <Gold.Chemscore.Rot.Weighted>
6.7237

> <Gold.Chemscore.Internal.Correction.Weighted>
   9.000000E+99

> <Gold.Protein.RotatedTorsions>
[ 6907 6896 6895 6894 ] final  119.26 input  -60.11 | X-H torsion
[ 7974 7965 7964 7962 ] final  -38.71 input  175.53 | X-H torsion
[ 8008 7997 7996 7995 ] final -155.70 input   59.86 | X-H torsion
[ 10167 10162 10161 10158 ] final -166.27 input  -65.29 | X-H torsion
[ 10718 10713 10712 10709 ] final -137.64 input   66.30 | X-H torsion
[ 10763 10752 10751 10750 ] final  -75.61 input  -60.55 | X-H torsion
[ 11005 11000 10999 10996 ] final    7.29 input  -57.11 | X-H torsion

> <Gold.Protein.ActiveResidues>
 VAL166  LYS551  ARG553  GLY616  TRP617  ASP618  TYR619  PRO620  LYS621  CYS622 
 ASP623  PHE694  ASN695  SER759  ASP760  ASP761  ALA762  ILE779  LEU786  VAL792 
 PHE793  MET794  SER795  GLU796  ALA797  LYS798  CYS799  TRP800  GLU811  SER814 

> <Gold.Protein.RotatedAtoms>
  152.4484  133.7581  159.6731 H   0  0  0  0  0  0  0  0  0  0  0  0  # atno 6907 bound_to 6896
  150.8390  133.7957  159.3074 H   0  0  0  0  0  0  0  0  0  0  0  0  # atno 6908 bound_to 6896
  151.5587  135.1068  160.0019 H   0  0  0  0  0  0  0  0  0  0  0  0  # atno 6909 bound_to 6896
  146.0462  140.6543  142.9064 H   0  0  0  0  0  0  0  0  0  0  0  0  # atno 7974 bound_to 7965
  155.7058  140.0772  157.2391 H   0  0  0  0  0  0  0  0  0  0  0  0  # atno 8008 bound_to 7997
  154.4066  140.1639  156.2295 H   0  0  0  0  0  0  0  0  0  0  0  0  # atno 8009 bound_to 7997
  155.9327  140.3390  155.6265 H   0  0  0  0  0  0  0  0  0  0  0  0  # atno 8010 bound_to 7997
  139.6126  144.0784  152.1856 H   0  0  0  0  0  0  0  0  0  0  0  0  # atno 10167 bound_to 10162
  156.2904  130.7371  151.1395 H   0  0  0  0  0  0  0  0  0  0  0  0  # atno 10718 bound_to 10713
  154.4888  135.5825  153.6444 H   0  0  0  0  0  0  0  0  0  0  0  0  # atno 10763 bound_to 10752
  152.9859  135.6107  154.3152 H   0  0  0  0  0  0  0  0  0  0  0  0  # atno 10764 bound_to 10752
  154.3049  135.2846  155.2573 H   0  0  0  0  0  0  0  0  0  0  0  0  # atno 10765 bound_to 10752
  140.5499  134.0293  155.7933 H   0  0  0  0  0  0  0  0  0  0  0  0  # atno 11005 bound_to 11000
  144.7099  140.3998  143.7089 LP  0  0  0  0  0  0  0  0  0  0  0  0  # atno 17320 bound_to 7965
  145.6802  139.1617  143.2705 LP  0  0  0  0  0  0  0  0  0  0  0  0  # atno 17321 bound_to 7965
  140.0407  144.6010  150.7414 LP  0  0  0  0  0  0  0  0  0  0  0  0  # atno 17342 bound_to 10162
  140.7329  143.2711  151.3886 LP  0  0  0  0  0  0  0  0  0  0  0  0  # atno 17343 bound_to 10162
  157.7340  131.0585  150.5544 LP  0  0  0  0  0  0  0  0  0  0  0  0  # atno 17370 bound_to 10713
  156.5660  130.4267  149.6041 LP  0  0  0  0  0  0  0  0  0  0  0  0  # atno 17371 bound_to 10713
  141.1177  133.9512  157.2789 LP  0  0  0  0  0  0  0  0  0  0  0  0  # atno 17394 bound_to 11000
  139.9460  135.0184  156.8854 LP  0  0  0  0  0  0  0  0  0  0  0  0  # atno 17395 bound_to 11000

$$$$
