AV-unprocessed.smi:2655|AV-procd|sdf|10300|dock1
  -GOLD-   2272014313D 1   1.00000     0.00000
 Structure written by MMmdl.
 34 35  0  0  0  0  0  0  0  0  1 V2000
  145.8627  143.5670  157.2944 C   0  0  0  0  0  0  0  0  0  0  0  0
  144.7448  144.1521  156.4797 C   0  0  0  0  0  0  0  0  0  0  0  0
  143.7593  144.7873  157.1062 N   0  0  0  0  0  0  0  0  0  0  0  0
  142.9410  145.1935  156.1174 N   0  0  0  0  0  0  0  0  0  0  0  0
  143.4107  144.8175  154.8857 C   0  0  0  0  0  0  0  0  0  0  0  0
  142.7327  145.1381  153.7513 O   0  0  0  0  0  0  0  0  0  0  0  0
  144.5793  144.1346  155.0590 C   0  0  0  0  0  0  0  0  0  0  0  0
  145.4763  143.5228  154.0171 C   0  0  0  0  0  0  0  0  0  0  0  0
  146.1035  142.2114  154.5172 C   0  0  0  0  0  0  0  0  0  0  0  0
  147.4676  142.4125  154.9923 N   0  0  0  0  0  0  0  0  0  0  0  0
  148.3146  141.4296  155.3315 C   0  0  0  0  0  0  0  0  0  0  0  0
  148.0224  140.2345  155.2806 O   0  0  0  0  0  0  0  0  0  0  0  0
  149.5011  141.9209  155.7287 N   0  0  0  0  0  0  0  0  0  0  0  0
  150.6356  141.1907  156.1667 C   0  0  0  0  0  0  0  0  0  0  0  0
  151.1190  141.3214  157.4959 C   0  0  0  0  0  0  0  0  0  0  0  0
  152.1909  140.4740  157.5182 C   0  0  0  0  0  0  0  0  0  0  0  0
  153.1688  140.1016  158.5794 C   0  0  0  0  0  0  0  0  0  0  0  0
  152.3501  139.8790  156.3050 O   0  0  0  0  0  0  0  0  0  0  0  0
  151.3495  140.3425  155.4426 N   0  0  0  0  0  0  0  0  0  0  0  0
  146.4508  142.8569  156.7135 H   0  0  0  0  0  0  0  0  0  0  0  0
  145.4809  143.0390  158.1687 H   0  0  0  0  0  0  0  0  0  0  0  0
  146.5386  144.3474  157.6449 H   0  0  0  0  0  0  0  0  0  0  0  0
  142.0932  145.7121  156.2973 H   0  0  0  0  0  0  0  0  0  0  0  0
  146.2659  144.2223  153.7399 H   0  0  0  0  0  0  0  0  0  0  0  0
  144.9210  143.3315  153.0984 H   0  0  0  0  0  0  0  0  0  0  0  0
  145.4931  141.7736  155.3090 H   0  0  0  0  0  0  0  0  0  0  0  0
  146.1325  141.4807  153.7084 H   0  0  0  0  0  0  0  0  0  0  0  0
  147.7881  143.3672  155.0651 H   0  0  0  0  0  0  0  0  0  0  0  0
  149.6025  142.9250  155.7214 H   0  0  0  0  0  0  0  0  0  0  0  0
  150.7430  141.9326  158.3027 H   0  0  0  0  0  0  0  0  0  0  0  0
  152.8690  140.5065  159.5462 H   0  0  0  0  0  0  0  0  0  0  0  0
  154.1601  140.4882  158.3426 H   0  0  0  0  0  0  0  0  0  0  0  0
  153.2415  139.0181  158.6753 H   0  0  0  0  0  0  0  0  0  0  0  0
  142.6452  144.3516  153.2347 H   0  0  0  0  0  0  0  0  0  0  0  0
  1 20  1  0  0  0  0
  1 21  1  0  0  0  0
  1 22  1  0  0  0  0
  1  2  1  0  0  0  0
  2  7  1  0  0  0  0
  2  3  2  0  0  0  0
  3  4  1  0  0  0  0
  4 23  1  0  0  0  0
  4  5  1  0  0  0  0
  5  7  2  0  0  0  0
  5  6  1  0  0  0  0
  6 34  1  0  0  0  0
  7  8  1  0  0  0  0
  8  9  1  0  0  0  0
  8 24  1  0  0  0  0
  8 25  1  0  0  0  0
  9 10  1  0  0  0  0
  9 26  1  0  0  0  0
  9 27  1  0  0  0  0
 10 11  1  0  0  0  0
 10 28  1  0  0  0  0
 11 12  2  0  0  0  0
 11 13  1  0  0  0  0
 13 14  1  0  0  0  0
 13 29  1  0  0  0  0
 14 19  2  0  0  0  0
 14 15  1  0  0  0  0
 15 16  2  0  0  0  0
 15 30  1  0  0  0  0
 16 17  1  0  0  0  0
 16 18  1  0  0  0  0
 17 31  1  0  0  0  0
 17 32  1  0  0  0  0
 17 33  1  0  0  0  0
 18 19  1  0  0  0  0
M  END
> <s_m_source_file>
AV-unprocessed.smi

> <i_m_source_file_index>
2655

> <i_lp_mmshare_version>
43012

> <i_f3d_flags>
0

> <s_epik_input>
W0NIM11DMT1OW05IXUMoPU8pW0NASF0xW0NIMl1bQ0gyXVtOSF1DKD1PKVtOSF1jMltjSF1jKFtDSDNdKW9uMg==

> <s_epik_cmdline>
J2VwaWtfcHl0aG9uJywgJy1waCcsICc3LjAnLCAnLXRuJywgJzgnLCAnLW1hJywgJzIwMCcsICctbWV0YWxfYmluZGluZycsICctaW1hZScsICc8aW5maWxlLm1hZT4nLCAnLW9tYWUnLCAnPG91dGZpbGUubWFlPic=

> <r_lp_tautomer_probability>
0.0227396

> <r_epik_Ionization_Penalty>
3.51829

> <r_epik_Ionization_Penalty_Charging>
0

> <r_epik_Ionization_Penalty_Neutral>
3.51829

> <r_epik_State_Penalty>
1.61027

> <r_epik_Charging_Adjusted_Penalty>
1.61027

> <i_epik_Tot_Q>
0

> <i_epik_Tot_abs_Q>
0

> <r_epik_Metal_State_Penalty>
3.01397

> <b_epik_Metal_Only>
0

> <s_lp_Force_Field>
OPLS_2005

> <r_lp_Energy>
-1.25166

> <b_lp_Chiralities_Consistent>
1

> <s_lp_Variant>
AV-unprocessed.smi:2655-3

> <Gold.Version>
5.8.1

> <Gold.Id.Protein>
6NUR|6NUR_protein|mol2

> <Gold.PLP.Fitness>
43.9886

> <Gold.PLP.PLP>
-31.8450

> <Gold.PLP.part.hbond>
-5.6358

> <Gold.PLP.part.metal>
0.0000

> <Gold.PLP.part.buried>
-6.6564

> <Gold.PLP.part.nonpolar>
-21.0223

> <Gold.PLP.part.repulsive>
0.4315

> <Gold.PLP.ligand.clash>
0.0000

> <Gold.PLP.ligand.torsion>
1.2543

> <Gold.PLP.Chemscore.Hbond>
4.8800

> <Gold.PLP.Chemscore.CHOScore>
0.0000

> <Gold.PLP.Chemscore.Metal>
0.0000

> <Gold.Chemscore.Hbonds>
donor molecule, donor type, donor heavy atom, donor atom, acceptor molecule, acceptor atom, score
      L1  H     6    34       P1 10174  0.71
      L1  H    10    28       P1  8028  1.00
      L1  H    13    29       P1  8028  1.00
      P1  H  7989  7998       L1    19  0.94
      P1  H  7997  8010       L1    18  0.70

> <Gold.PLP.Chemscore.Internal.Correction>
0.0122

> <Gold.Rescore>
     Score         DG    S(hbond)    S(metal)    S(lipo)     H(rot)  DE(clash)    DE(int)     intcor
     12.89     -16.16       3.68        0.00      41.62       2.53       2.09       1.18       ----

> <Gold.Chemscore.Fitness>
12.8905

> <Gold.Chemscore.DG>
-16.1620

> <Gold.Chemscore.ZeroCoef>
-5.4800

> <Gold.Chemscore.Hbond>
3.6810

> <Gold.Chemscore.Metal>
0.0000

> <Gold.Chemscore.Lipo>
41.6155

> <Gold.Chemscore.Internal_Hbond>
0.0000

> <Gold.Chemscore.DEClash>
2.0897

> <Gold.Chemscore.DEInternal>
1.1819

> <Gold.Chemscore.Rot>
2.5318

> <Gold.Chemscore.Internal.Correction>
   9.000000E+99

> <Gold.Chemscore.Hbonds>
donor molecule, donor type, donor heavy atom, donor atom, acceptor molecule, acceptor atom, score
      L1  H     6    34       P1 10174  0.71
      L1  H    10    28       P1  8028  0.49
      L1  H    13    29       P1  8028  0.96
      P1  H  7989  7998       L1    19  0.77
      P1  H  7997  8010       L1    18  0.07

> <Gold.Chemscore.Hbond.Weighted>
-12.2945

> <Gold.Chemscore.Metal.Weighted>
-0.0000

> <Gold.Chemscore.Lipo.Weighted>
-4.8690

> <Gold.Chemscore.Internal_Hbond.Weighted>
0.0000

> <Gold.Chemscore.DEClash.Weighted>
2.0897

> <Gold.Chemscore.DEInternal.Weighted>
1.1819

> <Gold.Chemscore.Rot.Weighted>
6.4815

> <Gold.Chemscore.Internal.Correction.Weighted>
   9.000000E+99

> <Gold.Protein.RotatedTorsions>
[ 6907 6896 6895 6894 ] final   12.99 input  -60.11 | X-H torsion
[ 7974 7965 7964 7962 ] final  -80.60 input  175.53 | X-H torsion
[ 8008 7997 7996 7995 ] final   80.16 input   59.86 | X-H torsion
[ 10167 10162 10161 10158 ] final   -3.92 input  -65.29 | X-H torsion
[ 10718 10713 10712 10709 ] final   41.40 input   66.30 | X-H torsion
[ 10763 10752 10751 10750 ] final -161.86 input  -60.55 | X-H torsion
[ 11005 11000 10999 10996 ] final   59.17 input  -57.11 | X-H torsion

> <Gold.Protein.ActiveResidues>
 VAL166  LYS551  ARG553  GLY616  TRP617  ASP618  TYR619  PRO620  LYS621  CYS622 
 ASP623  PHE694  ASN695  SER759  ASP760  ASP761  ALA762  ILE779  LEU786  VAL792 
 PHE793  MET794  SER795  GLU796  ALA797  LYS798  CYS799  TRP800  GLU811  SER814 

> <Gold.Protein.RotatedAtoms>
  151.7792  135.0766  160.0371 H   0  0  0  0  0  0  0  0  0  0  0  0  # atno 6907 bound_to 6896
  152.3235  133.5875  159.5769 H   0  0  0  0  0  0  0  0  0  0  0  0  # atno 6908 bound_to 6896
  150.7382  133.9892  159.3643 H   0  0  0  0  0  0  0  0  0  0  0  0  # atno 6909 bound_to 6896
  145.5578  140.9487  143.1464 H   0  0  0  0  0  0  0  0  0  0  0  0  # atno 7974 bound_to 7965
  155.8797  140.3445  155.5879 H   0  0  0  0  0  0  0  0  0  0  0  0  # atno 8008 bound_to 7997
  155.7734  140.0848  157.2115 H   0  0  0  0  0  0  0  0  0  0  0  0  # atno 8009 bound_to 7997
  154.4023  140.1514  156.2956 H   0  0  0  0  0  0  0  0  0  0  0  0  # atno 8010 bound_to 7997
  140.6908  143.6484  150.8372 H   0  0  0  0  0  0  0  0  0  0  0  0  # atno 10167 bound_to 10162
  157.3931  130.7818  149.7286 H   0  0  0  0  0  0  0  0  0  0  0  0  # atno 10718 bound_to 10713
  154.7265  135.3037  154.8961 H   0  0  0  0  0  0  0  0  0  0  0  0  # atno 10763 bound_to 10752
  153.9817  135.6729  153.4754 H   0  0  0  0  0  0  0  0  0  0  0  0  # atno 10764 bound_to 10752
  153.0880  135.4974  154.8554 H   0  0  0  0  0  0  0  0  0  0  0  0  # atno 10765 bound_to 10752
  140.0323  134.5994  155.9490 H   0  0  0  0  0  0  0  0  0  0  0  0  # atno 11005 bound_to 11000
  144.7498  139.7225  143.7278 LP  0  0  0  0  0  0  0  0  0  0  0  0  # atno 17320 bound_to 7965
  146.1872  139.5094  142.9828 LP  0  0  0  0  0  0  0  0  0  0  0  0  # atno 17321 bound_to 7965
  140.0196  143.5556  152.2806 LP  0  0  0  0  0  0  0  0  0  0  0  0  # atno 17342 bound_to 10162
  139.6310  144.7644  151.2537 LP  0  0  0  0  0  0  0  0  0  0  0  0  # atno 17343 bound_to 10162
  155.9803  130.4030  150.3534 LP  0  0  0  0  0  0  0  0  0  0  0  0  # atno 17370 bound_to 10713
  157.1652  131.0355  151.2822 LP  0  0  0  0  0  0  0  0  0  0  0  0  # atno 17371 bound_to 10713
  141.1838  133.6551  156.5131 LP  0  0  0  0  0  0  0  0  0  0  0  0  # atno 17394 bound_to 11000
  140.4205  134.7192  157.4887 LP  0  0  0  0  0  0  0  0  0  0  0  0  # atno 17395 bound_to 11000

$$$$
