AV-unprocessed.smi:1782|AV-procd|sdf|7188|dock1
  -GOLD-   22720 8433D 1   1.00000     0.00000
 Structure written by MMmdl.
 42 44  0  0  0  0  0  0  0  0  2 V2000
  149.4781  139.9589  156.7443 O   0  0  0  0  0  0  0  0  0  0  0  0
  149.8295  140.9745  156.1423 C   0  0  0  0  0  0  0  0  0  0  0  0
  151.2902  141.4465  156.1776 C   0  0  0  0  0  0  0  0  0  0  0  0
  151.7638  141.7675  157.5352 N   0  0  0  0  0  0  0  0  0  0  0  0
  151.2624  142.9420  158.1241 C   0  0  0  0  0  0  0  0  0  0  0  0
  151.6341  143.3296  159.3515 C   0  0  0  0  0  0  0  0  0  0  0  0
  152.5761  142.5073  160.0706 C   0  0  0  0  0  0  0  0  0  0  0  0
  153.0761  141.3719  159.5304 C   0  0  0  0  0  0  0  0  0  0  0  0
  154.0818  140.4958  160.2740 C   0  0  0  0  0  0  0  0  0  0  0  0
  153.7789  139.2064  160.1206 F   0  0  0  0  0  0  0  0  0  0  0  0
  155.3154  140.6925  159.8065 F   0  0  0  0  0  0  0  0  0  0  0  0
  154.0960  140.7595  161.5814 F   0  0  0  0  0  0  0  0  0  0  0  0
  152.6592  140.9536  158.1763 C   0  0  0  0  0  0  0  0  0  0  0  0
  153.0875  139.9299  157.6401 O   0  0  0  0  0  0  0  0  0  0  0  0
  148.9853  141.7209  155.4148 N   0  0  0  0  0  0  0  0  0  0  0  0
  147.5614  141.4466  155.2568 C   0  0  2  0  0  0  0  0  0  0  0  0
  146.9147  142.2075  154.1001 C   0  0  0  0  0  0  0  0  0  0  0  0
  145.4452  142.3732  154.5254 C   0  0  0  0  0  0  0  0  0  0  0  0
  145.3568  141.9548  155.9445 N   0  3  2  0  0  0  0  0  0  0  0  0
  144.4348  142.7691  156.7638 C   0  0  0  0  0  0  0  0  0  0  0  0
  143.1374  143.0991  156.0652 C   0  0  0  0  0  0  0  0  0  0  0  0
  144.2084  144.1580  156.2161 C   0  0  0  0  0  0  0  0  0  0  0  0
  146.7364  141.9070  156.4581 C   0  0  0  0  0  0  0  0  0  0  0  0
  151.9078  140.6681  155.7278 H   0  0  0  0  0  0  0  0  0  0  0  0
  151.4082  142.3149  155.5266 H   0  0  0  0  0  0  0  0  0  0  0  0
  150.5684  143.5052  157.5169 H   0  0  0  0  0  0  0  0  0  0  0  0
  151.2429  144.2365  159.7890 H   0  0  0  0  0  0  0  0  0  0  0  0
  152.8799  142.8204  161.0583 H   0  0  0  0  0  0  0  0  0  0  0  0
  149.3542  142.5350  154.9444 H   0  0  0  0  0  0  0  0  0  0  0  0
  147.4073  140.3766  155.1011 H   0  0  0  0  0  0  0  0  0  0  0  0
  147.3732  143.1913  153.9875 H   0  0  0  0  0  0  0  0  0  0  0  0
  147.0187  141.6829  153.1497 H   0  0  0  0  0  0  0  0  0  0  0  0
  145.1300  143.4096  154.3943 H   0  0  0  0  0  0  0  0  0  0  0  0
  144.7825  141.7474  153.9270 H   0  0  0  0  0  0  0  0  0  0  0  0
  144.4563  142.5950  157.8382 H   0  0  0  0  0  0  0  0  0  0  0  0
  142.9695  142.6920  155.0697 H   0  0  0  0  0  0  0  0  0  0  0  0
  142.2466  143.2002  156.6819 H   0  0  0  0  0  0  0  0  0  0  0  0
  144.0219  144.9561  156.9317 H   0  0  0  0  0  0  0  0  0  0  0  0
  144.7524  144.4543  155.3208 H   0  0  0  0  0  0  0  0  0  0  0  0
  146.8208  141.2333  157.3116 H   0  0  0  0  0  0  0  0  0  0  0  0
  147.0479  142.9038  156.7771 H   0  0  0  0  0  0  0  0  0  0  0  0
  145.0171  141.0034  155.9460 H   0  0  0  0  0  0  0  0  0  0  0  0
  1  2  2  0  0  0  0
  2  3  1  0  0  0  0
  2 15  1  0  0  0  0
  3  4  1  0  0  0  0
  3 24  1  0  0  0  0
  3 25  1  0  0  0  0
  4 13  1  0  0  0  0
  4  5  1  0  0  0  0
  5  6  2  0  0  0  0
  5 26  1  0  0  0  0
  6  7  1  0  0  0  0
  6 27  1  0  0  0  0
  7  8  2  0  0  0  0
  7 28  1  0  0  0  0
  8  9  1  0  0  0  0
  8 13  1  0  0  0  0
  9 10  1  0  0  0  0
  9 11  1  0  0  0  0
  9 12  1  0  0  0  0
 13 14  2  0  0  0  0
 15 16  1  0  0  0  0
 15 29  1  0  0  0  0
 16 23  1  0  0  0  0
 16 17  1  0  0  0  0
 16 30  1  0  0  0  0
 17 18  1  0  0  0  0
 17 31  1  0  0  0  0
 17 32  1  0  0  0  0
 18 19  1  0  0  0  0
 18 33  1  0  0  0  0
 18 34  1  0  0  0  0
 19 20  1  0  0  0  0
 19 23  1  0  0  0  0
 19 42  1  0  0  0  0
 20 22  1  0  0  0  0
 20 21  1  0  0  0  0
 20 35  1  0  0  0  0
 21 22  1  0  0  0  0
 21 36  1  0  0  0  0
 21 37  1  0  0  0  0
 22 38  1  0  0  0  0
 22 39  1  0  0  0  0
 23 40  1  0  0  0  0
 23 41  1  0  0  0  0
M  CHG  1  19   1
M  END
> <s_m_source_file>
AV-unprocessed.smi

> <i_m_source_file_index>
1782

> <i_lp_mmshare_version>
43012

> <i_f3d_flags>
0

> <s_epik_input>
W0NIMl0xW0NIMl1bQ0hdMU4oW0NIMl0yKVtDSDJdW0NIMl1bQ0BIXTJbTkhdQyg9TylbQ0gyXW4zW2NIXVtjSF1bY0hdYyhDKEYpKEYpRiljMz1P

> <s_epik_cmdline>
J2VwaWtfcHl0aG9uJywgJy1waCcsICc3LjAnLCAnLXRuJywgJzgnLCAnLW1hJywgJzIwMCcsICctbWV0YWxfYmluZGluZycsICctaW1hZScsICc8aW5maWxlLm1hZT4nLCAnLW9tYWUnLCAnPG91dGZpbGUubWFlPic=

> <r_lp_tautomer_probability>
1

> <r_epik_Ionization_Penalty>
0.00106789

> <r_epik_Ionization_Penalty_Charging>
0.00106781

> <r_epik_Ionization_Penalty_Neutral>
8.2288e-08

> <r_epik_State_Penalty>
0.000699156

> <r_epik_Charging_Adjusted_Penalty>
0.00176697

> <i_epik_Tot_Q>
1

> <i_epik_Tot_abs_Q>
1

> <r_epik_Metal_State_Penalty>
-0

> <b_epik_Metal_Only>
0

> <s_lp_Force_Field>
OPLS_2005

> <r_lp_Energy>
44.9554

> <b_lp_Chiralities_Consistent>
1

> <s_lp_Variant>
AV-unprocessed.smi:1782-1

> <Gold.Version>
5.8.1

> <Gold.Id.Protein>
6NUR|6NUR_protein|mol2

> <Gold.PLP.Fitness>
49.7711

> <Gold.PLP.PLP>
-44.7417

> <Gold.PLP.part.hbond>
-2.0000

> <Gold.PLP.part.metal>
0.0000

> <Gold.PLP.part.buried>
-5.2954

> <Gold.PLP.part.nonpolar>
-37.1114

> <Gold.PLP.part.repulsive>
0.1678

> <Gold.PLP.ligand.clash>
0.0000

> <Gold.PLP.ligand.torsion>
1.7091

> <Gold.PLP.Chemscore.Hbond>
1.2480

> <Gold.PLP.Chemscore.CHOScore>
1.0000

> <Gold.PLP.Chemscore.Metal>
0.0000

> <Gold.Chemscore.Hbonds>
donor molecule, donor type, donor heavy atom, donor atom, acceptor molecule, acceptor atom, score
      L1  H    15    29       P1  8028  0.11
      P1  H  7997  8009       L1    14  1.00
      L1  C     5    26       P1  8028  0.40

> <Gold.PLP.Chemscore.Internal.Correction>
1.7036

> <Gold.Rescore>
     Score         DG    S(hbond)    S(metal)    S(lipo)     H(rot)  DE(clash)    DE(int)     intcor
     13.64     -16.34       1.64        0.00      85.59       1.81       0.01       2.69       ----

> <Gold.Chemscore.Fitness>
13.6418

> <Gold.Chemscore.DG>
-16.3375

> <Gold.Chemscore.ZeroCoef>
-5.4800

> <Gold.Chemscore.Hbond>
1.6400

> <Gold.Chemscore.Metal>
0.0000

> <Gold.Chemscore.Lipo>
85.5876

> <Gold.Chemscore.Internal_Hbond>
0.0000

> <Gold.Chemscore.DEClash>
0.0106

> <Gold.Chemscore.DEInternal>
2.6851

> <Gold.Chemscore.Rot>
1.8101

> <Gold.Chemscore.Internal.Correction>
   9.000000E+99

> <Gold.Chemscore.Hbonds>
donor molecule, donor type, donor heavy atom, donor atom, acceptor molecule, acceptor atom, score
      L1  H    15    29       P1  8028  0.11
      P1  H  7997  8009       L1    14  0.90

> <Gold.Chemscore.Hbond.Weighted>
-5.4775

> <Gold.Chemscore.Metal.Weighted>
-0.0000

> <Gold.Chemscore.Lipo.Weighted>
-10.0138

> <Gold.Chemscore.Internal_Hbond.Weighted>
0.0000

> <Gold.Chemscore.DEClash.Weighted>
0.0106

> <Gold.Chemscore.DEInternal.Weighted>
2.6851

> <Gold.Chemscore.Rot.Weighted>
4.6338

> <Gold.Chemscore.Internal.Correction.Weighted>
   9.000000E+99

> <Gold.Protein.RotatedTorsions>
[ 6907 6896 6895 6894 ] final  -46.03 input  -60.11 | X-H torsion
[ 7974 7965 7964 7962 ] final  126.54 input  175.53 | X-H torsion
[ 8008 7997 7996 7995 ] final  170.55 input   59.86 | X-H torsion
[ 10167 10162 10161 10158 ] final    3.10 input  -65.29 | X-H torsion
[ 10718 10713 10712 10709 ] final  -66.78 input   66.30 | X-H torsion
[ 10763 10752 10751 10750 ] final  -65.71 input  -60.55 | X-H torsion
[ 11005 11000 10999 10996 ] final  148.55 input  -57.11 | X-H torsion

> <Gold.Protein.ActiveResidues>
 VAL166  LYS551  ARG553  GLY616  TRP617  ASP618  TYR619  PRO620  LYS621  CYS622 
 ASP623  PHE694  ASN695  SER759  ASP760  ASP761  ALA762  ILE779  LEU786  VAL792 
 PHE793  MET794  SER795  GLU796  ALA797  LYS798  CYS799  TRP800  GLU811  SER814 

> <Gold.Protein.RotatedAtoms>
  150.9156  134.8574  159.7454 H   0  0  0  0  0  0  0  0  0  0  0  0  # atno 6907 bound_to 6896
  152.4967  134.4294  159.9517 H   0  0  0  0  0  0  0  0  0  0  0  0  # atno 6908 bound_to 6896
  151.4332  133.3625  159.2807 H   0  0  0  0  0  0  0  0  0  0  0  0  # atno 6909 bound_to 6896
  145.0605  139.3809  143.5008 H   0  0  0  0  0  0  0  0  0  0  0  0  # atno 7974 bound_to 7965
  156.1354  140.1535  156.9002 H   0  0  0  0  0  0  0  0  0  0  0  0  # atno 8008 bound_to 7997
  154.4943  140.0842  156.7702 H   0  0  0  0  0  0  0  0  0  0  0  0  # atno 8009 bound_to 7997
  155.4178  140.3421  155.4271 H   0  0  0  0  0  0  0  0  0  0  0  0  # atno 8010 bound_to 7997
  140.6603  143.7322  150.7726 H   0  0  0  0  0  0  0  0  0  0  0  0  # atno 10167 bound_to 10162
  156.0594  130.4267  150.1758 H   0  0  0  0  0  0  0  0  0  0  0  0  # atno 10718 bound_to 10713
  154.3490  135.6140  153.5633 H   0  0  0  0  0  0  0  0  0  0  0  0  # atno 10763 bound_to 10752
  152.9799  135.5788  154.4765 H   0  0  0  0  0  0  0  0  0  0  0  0  # atno 10764 bound_to 10752
  154.4483  135.2852  155.1777 H   0  0  0  0  0  0  0  0  0  0  0  0  # atno 10765 bound_to 10752
  140.0969  134.9007  157.1737 H   0  0  0  0  0  0  0  0  0  0  0  0  # atno 11005 bound_to 11000
  146.3524  140.0301  142.8651 LP  0  0  0  0  0  0  0  0  0  0  0  0  # atno 17320 bound_to 7965
  145.1414  140.9573  143.4486 LP  0  0  0  0  0  0  0  0  0  0  0  0  # atno 17321 bound_to 7965
  140.0989  143.4806  152.2436 LP  0  0  0  0  0  0  0  0  0  0  0  0  # atno 17342 bound_to 10162
  139.5835  144.7521  151.3580 LP  0  0  0  0  0  0  0  0  0  0  0  0  # atno 17343 bound_to 10162
  156.9829  130.9869  151.3433 LP  0  0  0  0  0  0  0  0  0  0  0  0  # atno 17370 bound_to 10713
  157.5590  130.8233  149.8241 LP  0  0  0  0  0  0  0  0  0  0  0  0  # atno 17371 bound_to 10713
  140.3274  134.2848  155.7234 LP  0  0  0  0  0  0  0  0  0  0  0  0  # atno 17394 bound_to 11000
  141.2094  133.7748  156.9995 LP  0  0  0  0  0  0  0  0  0  0  0  0  # atno 17395 bound_to 11000

$$$$
