#       Name:                AV-unprocessed.smi:34
#       Creating user name   scv26
#       Creation time:       Thu Mar 26 15:59:39 2020


#       File generated by GOLD software.
#

@<TRIPOS>MOLECULE
AV-unprocessed.smi:34
    66    70     1
SMALL
NO_CHARGES


@<TRIPOS>ATOM
      1 ****        -4.6127   0.7642  -3.2927 O.2            1 S1                 0.0000
      2 ****        -5.1112   0.6354  -2.1724 C.2            1 S1                 0.0000
      3 ****        -4.5088   0.8012  -0.9676 N.pl3          1 S1                -1.0000
      4 ****        -3.1995   1.0880  -0.9075 C.ar           1 S1                 0.0000
      5 ****        -2.7831   2.3735  -0.7785 N.ar           1 S1                 0.0000
      6 ****        -1.4772   2.6567  -0.7101 C.ar           1 S1                 0.0000
      7 ****        -0.4339   1.8225  -0.7432 N.ar           1 S1                 0.0000
      8 ****        -0.8383   0.5250  -0.8667 C.ar           1 S1                 0.0000
      9 ****        -2.1923   0.0855  -0.9492 C.ar           1 S1                 0.0000
     10 ****        -2.2570  -1.2956  -1.0593 N.2            1 S1                 0.0000
     11 ****        -0.9684  -1.6263  -1.0421 C.2            1 S1                 0.0000
     12 ****        -0.0699  -0.6270  -0.9367 N.pl3          1 S1                 0.0000
     13 ****         1.4210  -0.7564  -0.9028 C.3            1 S1                 0.0000
     14 ****         1.9261   0.1432   0.0376 O.3            1 S1                 0.0000
     15 ****         3.1322   0.7255  -0.4503 C.3            1 S1                 0.0000
     16 ****         4.3210  -0.1808  -0.0898 C.3            1 S1                 0.0000
     17 ****         4.5917  -0.0602   1.2970 O.3            1 S1                 0.0000
     18 ****         5.4333  -0.9225   1.9000 C.2            1 S1                 0.0000
     19 ****         6.0089  -1.8397   1.3107 O.2            1 S1                 0.0000
     20 ****         5.5926  -0.6529   3.3582 C.ar           1 S1                 0.0000
     21 ****         6.4149  -1.5026   4.1346 C.ar           1 S1                 0.0000
     22 ****         6.5844  -1.2726   5.5138 C.ar           1 S1                 0.0000
     23 ****         5.9349  -0.1889   6.1330 C.ar           1 S1                 0.0000
     24 ****         5.1146   0.6639   5.3717 C.ar           1 S1                 0.0000
     25 ****         4.9428   0.4346   3.9926 C.ar           1 S1                 0.0000
     26 ****         2.8866   0.8219  -1.9570 C.3            1 S1                 0.0000
     27 ****         2.1635   1.9194  -2.1877 F              1 S1                 0.0000
     28 ****         2.0912  -0.4422  -2.2562 C.3            1 S1                 0.0000
     29 ****         1.2193  -0.2876  -3.3620 O.3            1 S1                 0.0000
     30 ****        -6.5781   0.3165  -2.0638 C.ar           1 S1                 0.0000
     31 ****        -7.4845   0.8583  -3.0037 C.ar           1 S1                 0.0000
     32 ****        -8.8575   0.5513  -2.9341 C.ar           1 S1                 0.0000
     33 ****        -9.3376  -0.3092  -1.9291 C.ar           1 S1                 0.0000
     34 ****        -8.4427  -0.8664  -0.9966 C.ar           1 S1                 0.0000
     35 ****        -7.0697  -0.5594  -1.0651 C.ar           1 S1                 0.0000
     36 ****        -1.2330   3.7041  -0.6132 H              1 S1                 0.0000
     37 ****        -0.6586  -2.6584  -1.1146 H              1 S1                 0.0000
     38 ****         1.5984  -1.7818  -0.5754 H              1 S1                 0.0000
     39 ****         3.2817   1.7155  -0.0170 H              1 S1                 0.0000
     40 ****         4.1120  -1.2176  -0.3571 H              1 S1                 0.0000
     41 ****         5.2084   0.1273  -0.6440 H              1 S1                 0.0000
     42 ****         6.9237  -2.3411   3.6811 H              1 S1                 0.0000
     43 ****         7.2138  -1.9288   6.0966 H              1 S1                 0.0000
     44 ****         6.0656  -0.0120   7.1904 H              1 S1                 0.0000
     45 ****         4.6160   1.4966   5.8456 H              1 S1                 0.0000
     46 ****         4.3068   1.1088   3.4378 H              1 S1                 0.0000
     47 ****         3.8004   0.9085  -2.5455 H              1 S1                 0.0000
     48 ****         2.7809  -1.2590  -2.4725 H              1 S1                 0.0000
     49 ****         0.6988  -1.0714  -3.4490 H              1 S1                 0.0000
     50 ****        -7.1315   1.5189  -3.7825 H              1 S1                 0.0000
     51 ****        -9.5417   0.9756  -3.6537 H              1 S1                 0.0000
     52 ****       -10.3900  -0.5449  -1.8763 H              1 S1                 0.0000
     53 ****        -8.8080  -1.5328  -0.2291 H              1 S1                 0.0000
     54 ****        -6.3981  -1.0061  -0.3461 H              1 S1                 0.0000
     55 ****        -3.6507   1.0210  -3.3854 LP             1 S1                 0.0000
     56 ****        -5.1704   0.6119  -4.1087 LP             1 S1                 0.0000
     57 ****        -5.0403   0.7097  -0.1255 LP             1 S1                 0.0000
     58 ****        -3.4556   3.1124  -0.7344 LP             1 S1                 0.0000
     59 ****         0.5214   2.1121  -0.6849 LP             1 S1                 0.0000
     60 ****        -3.0603  -1.8867  -1.1323 LP             1 S1                 0.0000
     61 ****         2.1131  -0.3405   0.8926 LP             1 S1                 0.0000
     62 ****         1.2526   0.8638   0.2027 LP             1 S1                 0.0000
     63 ****         5.8616  -1.9746   0.3308 LP             1 S1                 0.0000
     64 ****         6.6230  -2.4487   1.8125 LP             1 S1                 0.0000
     65 ****         1.7540  -0.1445  -4.1948 LP             1 S1                 0.0000
     66 ****         0.6205   0.4990  -3.2111 LP             1 S1                 0.0000
@<TRIPOS>BOND
    1    1    2 2     
    2    2    3 1     
    3    2   30 1     
    4    3    4 1     
    5    4    9 ar    
    6    4    5 ar    
    7    5    6 ar    
    8    6    7 ar    
    9    6   36 1     
   10    7    8 ar    
   11    8   12 1     
   12    8    9 ar    
   13    9   10 1     
   14   10   11 2     
   15   11   12 1     
   16   11   37 1     
   17   12   13 1     
   18   13   28 1     
   19   13   14 1     
   20   13   38 1     
   21   14   15 1     
   22   15   16 1     
   23   15   26 1     
   24   15   39 1     
   25   16   17 1     
   26   16   40 1     
   27   16   41 1     
   28   17   18 1     
   29   18   19 2     
   30   18   20 1     
   31   20   25 ar    
   32   20   21 ar    
   33   21   22 ar    
   34   21   42 1     
   35   22   23 ar    
   36   22   43 1     
   37   23   24 ar    
   38   23   44 1     
   39   24   25 ar    
   40   24   45 1     
   41   25   46 1     
   42   26   27 1     
   43   26   28 1     
   44   26   47 1     
   45   28   29 1     
   46   28   48 1     
   47   29   49 1     
   48   30   35 ar    
   49   30   31 ar    
   50   31   32 ar    
   51   31   50 1     
   52   32   33 ar    
   53   32   51 1     
   54   33   34 ar    
   55   33   52 1     
   56   34   35 ar    
   57   34   53 1     
   58   35   54 1     
   59    1   55 1     
   60    1   56 1     
   61    3   57 1     
   62    5   58 1     
   63    7   59 1     
   64   10   60 1     
   65   14   61 1     
   66   14   62 1     
   67   19   63 1     
   68   19   64 1     
   69   29   65 1     
   70   29   66 1     
@<TRIPOS>SUBSTRUCTURE
      1 S1             1
@<TRIPOS>SET
LONE_PAIRS      STATIC     ATOMS    <user>   **** ""
12 55 56 57 58 59 60 61 62 63 64 65 66
DONOR_HYDROGENS      STATIC     ATOMS    <user>   **** ""
1 49
ATOM$BLUE        STATIC     ATOMS    COLORGROUP SYSTEM
12 55 56 57 58 59 60 61 62 63 64 65 66
ATOM$RED        STATIC     ATOMS    COLORGROUP SYSTEM
1 49
