AV-unprocessed.smi:101|AV-procd|sdf|926|dock3
  -GOLD-   2262017433D 1   1.00000     0.00000
 Structure written by MMmdl.
 44 46  0  0  0  0  0  0  0  0  1 V2000
  144.9089  138.3625  156.3040 C   0  0  0  0  0  0  0  0  0  0  0  0
  145.6988  139.6010  156.6937 C   0  0  0  0  0  0  0  0  0  0  0  0
  146.8251  139.9818  156.0381 C   0  0  0  0  0  0  0  0  0  0  0  0
  147.5668  141.1072  156.3721 N   0  0  0  0  0  0  0  0  0  0  0  0
  148.8053  141.4946  155.5968 C   0  0  1  0  0  0  0  0  0  0  0  0
  149.8972  141.5076  156.4688 O   0  0  0  0  0  0  0  0  0  0  0  0
  150.9773  140.7679  155.9094 C   0  0  1  0  0  0  0  0  0  0  0  0
  151.8486  140.1937  157.0320 C   0  0  0  0  0  0  0  0  0  0  0  0
  152.1083  141.2103  157.9855 O   0  0  0  0  0  0  0  0  0  0  0  0
  152.9557  140.9772  159.0062 C   0  0  0  0  0  0  0  0  0  0  0  0
  153.7437  140.0297  159.0358 O   0  0  0  0  0  0  0  0  0  0  0  0
  152.8411  141.9871  160.0979 C   0  0  0  0  0  0  0  0  0  0  0  0
  153.3441  141.6783  161.3832 C   0  0  0  0  0  0  0  0  0  0  0  0
  153.2501  142.6116  162.4338 C   0  0  0  0  0  0  0  0  0  0  0  0
  152.6513  143.8653  162.2119 C   0  0  0  0  0  0  0  0  0  0  0  0
  152.1466  144.1844  160.9379 C   0  0  0  0  0  0  0  0  0  0  0  0
  152.2401  143.2523  159.8860 C   0  0  0  0  0  0  0  0  0  0  0  0
  150.2709  139.7000  155.0769 C   0  0  2  0  0  0  0  0  0  0  0  0
  151.1062  139.1189  154.0933 O   0  0  0  0  0  0  0  0  0  0  0  0
  149.0858  140.4608  154.4931 C   0  0  2  0  0  0  0  0  0  0  0  0
  149.3926  141.0982  153.2661 O   0  0  0  0  0  0  0  0  0  0  0  0
  147.1293  141.9362  157.4252 C   0  0  0  0  0  0  0  0  0  0  0  0
  147.7123  142.9704  157.7487 O   0  0  0  0  0  0  0  0  0  0  0  0
  145.9764  141.5427  158.1022 N   0  0  0  0  0  0  0  0  0  0  0  0
  145.2119  140.4092  157.8153 C   0  0  0  0  0  0  0  0  0  0  0  0
  144.2118  140.1652  158.4883 O   0  0  0  0  0  0  0  0  0  0  0  0
  145.6634  142.1300  158.8614 H   0  0  0  0  0  0  0  0  0  0  0  0
  145.3624  137.8418  155.4600 H   0  0  0  0  0  0  0  0  0  0  0  0
  143.8907  138.6329  156.0222 H   0  0  0  0  0  0  0  0  0  0  0  0
  144.8592  137.6639  157.1400 H   0  0  0  0  0  0  0  0  0  0  0  0
  147.1529  139.3739  155.2076 H   0  0  0  0  0  0  0  0  0  0  0  0
  148.6436  142.5102  155.2297 H   0  0  0  0  0  0  0  0  0  0  0  0
  151.5577  141.4241  155.2582 H   0  0  0  0  0  0  0  0  0  0  0  0
  151.3564  139.3401  157.5005 H   0  0  0  0  0  0  0  0  0  0  0  0
  152.7974  139.8440  156.6229 H   0  0  0  0  0  0  0  0  0  0  0  0
  153.8080  140.7219  161.5777 H   0  0  0  0  0  0  0  0  0  0  0  0
  153.6384  142.3646  163.4110 H   0  0  0  0  0  0  0  0  0  0  0  0
  152.5786  144.5809  163.0175 H   0  0  0  0  0  0  0  0  0  0  0  0
  151.6856  145.1459  160.7661 H   0  0  0  0  0  0  0  0  0  0  0  0
  151.8415  143.5294  158.9209 H   0  0  0  0  0  0  0  0  0  0  0  0
  149.8984  138.9126  155.7339 H   0  0  0  0  0  0  0  0  0  0  0  0
  150.6184  138.4445  153.6457 H   0  0  0  0  0  0  0  0  0  0  0  0
  148.2260  139.8082  154.3345 H   0  0  0  0  0  0  0  0  0  0  0  0
  149.4062  140.4443  152.5837 H   0  0  0  0  0  0  0  0  0  0  0  0
  1  2  1  0  0  0  0
  1 28  1  0  0  0  0
  1 29  1  0  0  0  0
  1 30  1  0  0  0  0
  2 25  1  0  0  0  0
  2  3  2  0  0  0  0
  3  4  1  0  0  0  0
  3 31  1  0  0  0  0
  4  5  1  0  0  0  0
  4 22  1  0  0  0  0
  5 20  1  0  0  0  0
  5  6  1  0  0  0  0
  5 32  1  0  0  0  0
  6  7  1  0  0  0  0
  7  8  1  0  0  0  0
  7 18  1  0  0  0  0
  7 33  1  0  0  0  0
  8  9  1  0  0  0  0
  8 34  1  0  0  0  0
  8 35  1  0  0  0  0
  9 10  1  0  0  0  0
 10 11  2  0  0  0  0
 10 12  1  0  0  0  0
 12 17  1  0  0  0  0
 12 13  2  0  0  0  0
 13 14  1  0  0  0  0
 13 36  1  0  0  0  0
 14 15  2  0  0  0  0
 14 37  1  0  0  0  0
 15 16  1  0  0  0  0
 15 38  1  0  0  0  0
 16 17  2  0  0  0  0
 16 39  1  0  0  0  0
 17 40  1  0  0  0  0
 18 19  1  0  0  0  0
 18 20  1  0  0  0  0
 18 41  1  0  0  0  0
 19 42  1  0  0  0  0
 20 21  1  0  0  0  0
 20 43  1  0  0  0  0
 21 44  1  0  0  0  0
 22 23  2  0  0  0  0
 22 24  1  0  0  0  0
 24 27  1  0  0  0  0
 24 25  1  0  0  0  0
 25 26  2  0  0  0  0
M  END
> <s_m_source_file>
AV-unprocessed.smi

> <i_m_source_file_index>
101

> <i_lp_mmshare_version>
43012

> <i_f3d_flags>
0

> <s_epik_input>
Tz1jMVtuSF1jKD1PKW4oW2NIXWMxW0NIM10pW0NAQEhdMk9bQ0BIXShbQ0BASF0oW09IXSlbQ0BIXTJbT0hdKVtDSDJdT0MoPU8pYzNbY0hdW2NIXVtjSF1bY0hdW2NIXTM=

> <s_epik_cmdline>
J2VwaWtfcHl0aG9uJywgJy1waCcsICc3LjAnLCAnLXRuJywgJzgnLCAnLW1hJywgJzIwMCcsICctbWV0YWxfYmluZGluZycsICctaW1hZScsICc8aW5maWxlLm1hZT4nLCAnLW9tYWUnLCAnPG91dGZpbGUubWFlPic=

> <r_lp_tautomer_probability>
0.999537

> <r_epik_Ionization_Penalty>
0.00263537

> <r_epik_Ionization_Penalty_Charging>
0.00263428

> <r_epik_Ionization_Penalty_Neutral>
1.09111e-06

> <r_epik_State_Penalty>
0.00183335

> <r_epik_Charging_Adjusted_Penalty>
0.00446763

> <i_epik_Tot_Q>
0

> <i_epik_Tot_abs_Q>
0

> <r_epik_Metal_State_Penalty>
1.00528

> <b_epik_Metal_Only>
0

> <s_epik_Chemistry_Notes>
This compound has an ester and may undergo hydrolysis at high or low pH. This compound contains an acetal/aminal-like group ( X-CH(R)-Y where X, Y are N, S, or O) that may be acid/base labile, releasing an aldehyde.

> <s_lp_Force_Field>
OPLS_2005

> <r_lp_Energy>
34.5485

> <b_lp_Chiralities_Consistent>
1

> <s_lp_Variant>
AV-unprocessed.smi:101-14

> <Gold.Version>
5.8.1

> <Gold.Id.Protein>
6NUR|6NUR_protein|mol2

> <Gold.PLP.Fitness>
52.8805

> <Gold.PLP.PLP>
-43.4353

> <Gold.PLP.part.hbond>
-4.6998

> <Gold.PLP.part.metal>
0.0000

> <Gold.PLP.part.buried>
-4.5627

> <Gold.PLP.part.nonpolar>
-33.9127

> <Gold.PLP.part.repulsive>
0.3737

> <Gold.PLP.ligand.clash>
0.0000

> <Gold.PLP.ligand.torsion>
0.4899

> <Gold.PLP.Chemscore.Hbond>
3.4600

> <Gold.PLP.Chemscore.CHOScore>
0.0000

> <Gold.PLP.Chemscore.Metal>
0.0000

> <Gold.Chemscore.Hbonds>
donor molecule, donor type, donor heavy atom, donor atom, acceptor molecule, acceptor atom, score
      L1  H    21    44       P1  7957  0.89
      P1  H  7989  7998       L1    19  0.55
      P1  H  7997  8008       L1    11  0.77
      P1  H  8011  8017       L1    21  0.90

> <Gold.PLP.Chemscore.Internal.Correction>
0.0451

> <Gold.Rescore>
     Score         DG    S(hbond)    S(metal)    S(lipo)     H(rot)  DE(clash)    DE(int)     intcor
     13.66     -15.99       2.45        0.00      92.49       3.32       1.04       1.29       ----

> <Gold.Chemscore.Fitness>
13.6599

> <Gold.Chemscore.DG>
-15.9935

> <Gold.Chemscore.ZeroCoef>
-5.4800

> <Gold.Chemscore.Hbond>
2.4504

> <Gold.Chemscore.Metal>
0.0000

> <Gold.Chemscore.Lipo>
92.4887

> <Gold.Chemscore.Internal_Hbond>
0.0000

> <Gold.Chemscore.DEClash>
1.0392

> <Gold.Chemscore.DEInternal>
1.2944

> <Gold.Chemscore.Rot>
3.3172

> <Gold.Chemscore.Internal.Correction>
   9.000000E+99

> <Gold.Chemscore.Hbonds>
donor molecule, donor type, donor heavy atom, donor atom, acceptor molecule, acceptor atom, score
      L1  H    21    44       P1  7957  0.83
      P1  H  7989  7998       L1    19  0.03
      P1  H  7997  8008       L1    11  0.54
      P1  H  8011  8017       L1    21  0.18

> <Gold.Chemscore.Hbond.Weighted>
-8.1844

> <Gold.Chemscore.Metal.Weighted>
-0.0000

> <Gold.Chemscore.Lipo.Weighted>
-10.8212

> <Gold.Chemscore.Internal_Hbond.Weighted>
0.0000

> <Gold.Chemscore.DEClash.Weighted>
1.0392

> <Gold.Chemscore.DEInternal.Weighted>
1.2944

> <Gold.Chemscore.Rot.Weighted>
8.4920

> <Gold.Chemscore.Internal.Correction.Weighted>
   9.000000E+99

> <Gold.Protein.RotatedTorsions>
[ 6907 6896 6895 6894 ] final -116.51 input  -60.11 | X-H torsion
[ 7974 7965 7964 7962 ] final   61.45 input  175.53 | X-H torsion
[ 8008 7997 7996 7995 ] final -110.16 input   59.86 | X-H torsion
[ 10167 10162 10161 10158 ] final  143.88 input  -65.29 | X-H torsion
[ 10718 10713 10712 10709 ] final  112.40 input   66.30 | X-H torsion
[ 10763 10752 10751 10750 ] final -153.59 input  -60.55 | X-H torsion
[ 11005 11000 10999 10996 ] final -139.07 input  -57.11 | X-H torsion

> <Gold.Protein.ActiveResidues>
 VAL166  LYS551  ARG553  GLY616  TRP617  ASP618  TYR619  PRO620  LYS621  CYS622 
 ASP623  PHE694  ASN695  SER759  ASP760  ASP761  ALA762  ILE779  LEU786  VAL792 
 PHE793  MET794  SER795  GLU796  ALA797  LYS798  CYS799  TRP800  GLU811  SER814 

> <Gold.Protein.RotatedAtoms>
  150.8061  133.8507  159.3204 H   0  0  0  0  0  0  0  0  0  0  0  0  # atno 6907 bound_to 6896
  151.6305  135.1021  160.0130 H   0  0  0  0  0  0  0  0  0  0  0  0  # atno 6908 bound_to 6896
  152.4152  133.6987  159.6468 H   0  0  0  0  0  0  0  0  0  0  0  0  # atno 6909 bound_to 6896
  145.8846  139.3467  143.0685 H   0  0  0  0  0  0  0  0  0  0  0  0  # atno 7974 bound_to 7965
  154.9703  140.0397  157.2231 H   0  0  0  0  0  0  0  0  0  0  0  0  # atno 8008 bound_to 7997
  154.7807  140.2818  155.6044 H   0  0  0  0  0  0  0  0  0  0  0  0  # atno 8009 bound_to 7997
  156.2935  140.2592  156.2632 H   0  0  0  0  0  0  0  0  0  0  0  0  # atno 8010 bound_to 7997
  139.4959  144.6010  151.6480 H   0  0  0  0  0  0  0  0  0  0  0  0  # atno 10167 bound_to 10162
  157.6394  131.0967  150.6889 H   0  0  0  0  0  0  0  0  0  0  0  0  # atno 10718 bound_to 10713
  154.7917  135.3209  154.7761 H   0  0  0  0  0  0  0  0  0  0  0  0  # atno 10763 bound_to 10752
  153.8449  135.6867  153.4803 H   0  0  0  0  0  0  0  0  0  0  0  0  # atno 10764 bound_to 10752
  153.1590  135.4668  154.9686 H   0  0  0  0  0  0  0  0  0  0  0  0  # atno 10765 bound_to 10752
  140.8555  134.2234  157.4737 H   0  0  0  0  0  0  0  0  0  0  0  0  # atno 11005 bound_to 11000
  145.8982  140.9260  143.0516 LP  0  0  0  0  0  0  0  0  0  0  0  0  # atno 17320 bound_to 7965
  144.6728  140.0997  143.7461 LP  0  0  0  0  0  0  0  0  0  0  0  0  # atno 17321 bound_to 7965
  140.5660  144.0188  150.6193 LP  0  0  0  0  0  0  0  0  0  0  0  0  # atno 17342 bound_to 10162
  140.3290  143.3089  152.0706 LP  0  0  0  0  0  0  0  0  0  0  0  0  # atno 17343 bound_to 10162
  156.7215  130.4682  149.5521 LP  0  0  0  0  0  0  0  0  0  0  0  0  # atno 17370 bound_to 10713
  156.1662  130.6407  151.0781 LP  0  0  0  0  0  0  0  0  0  0  0  0  # atno 17371 bound_to 10713
  139.8705  134.9704  156.4700 LP  0  0  0  0  0  0  0  0  0  0  0  0  # atno 17394 bound_to 11000
  140.8742  133.7965  155.9397 LP  0  0  0  0  0  0  0  0  0  0  0  0  # atno 17395 bound_to 11000

$$$$
