AV-unprocessed.smi:1529|AV-procd|sdf|6152|dock7
  -GOLD-   22720 6303D 1   1.00000     0.00000
 Structure written by MMmdl.
 50 51  0  0  0  0  0  0  0  0  1 V2000
  145.7740  134.7916  151.6600 C   0  0  0  0  0  0  0  0  0  0  0  0
  145.3140  136.2390  151.5215 C   0  0  0  0  0  0  0  0  0  0  0  0
  144.1241  136.5245  151.6518 O   0  0  0  0  0  0  0  0  0  0  0  0
  146.2697  137.1422  151.2557 N   0  0  0  0  0  0  0  0  0  0  0  0
  146.0468  138.5741  151.0815 C   0  0  0  0  0  0  0  0  0  0  0  0
  146.8576  139.4252  152.0759 C   0  0  0  0  0  0  0  0  0  0  0  0
  146.5796  139.0823  153.5509 C   0  0  0  0  0  0  0  0  0  0  0  0
  147.5645  139.6926  154.4356 N   0  0  0  0  0  0  0  0  0  0  0  0
  148.8724  139.3884  154.4604 C   0  0  0  0  0  0  0  0  0  0  0  0
  149.3844  138.5318  153.7390 O   0  0  0  0  0  0  0  0  0  0  0  0
  149.6895  140.1153  155.4889 C   0  0  0  0  0  0  0  0  0  0  0  0
  150.9276  139.5964  155.9215 C   0  0  0  0  0  0  0  0  0  0  0  0
  151.6789  140.3138  156.8720 C   0  0  0  0  0  0  0  0  0  0  0  0
  151.1777  141.5411  157.3662 C   0  0  0  0  0  0  0  0  0  0  0  0
  151.9116  142.2744  158.3238 N   0  0  0  0  0  0  0  0  0  0  0  0
  151.4521  143.6219  158.6539 C   0  0  0  0  0  0  0  0  0  0  0  0
  152.5191  144.3694  159.4745 C   0  0  1  0  0  0  0  0  0  0  0  0
  152.0273  145.7433  159.9417 C   0  0  0  0  0  0  0  0  0  0  0  0
  152.8481  143.5966  160.6256 O   0  0  0  0  0  0  0  0  0  0  0  0
  153.3998  142.3266  160.2889 C   0  0  1  0  0  0  0  0  0  0  0  0
  153.8040  141.6194  161.5867 C   0  0  0  0  0  0  0  0  0  0  0  0
  152.3611  141.5177  159.4893 C   0  0  0  0  0  0  0  0  0  0  0  0
  149.9965  142.0481  156.9348 N   0  0  0  0  0  0  0  0  0  0  0  0
  149.2795  141.3567  156.0239 C   0  0  0  0  0  0  0  0  0  0  0  0
  146.3036  134.4715  150.7621 H   0  0  0  0  0  0  0  0  0  0  0  0
  144.9225  134.1266  151.8090 H   0  0  0  0  0  0  0  0  0  0  0  0
  146.4437  134.6855  152.5137 H   0  0  0  0  0  0  0  0  0  0  0  0
  147.2212  136.8146  151.1691 H   0  0  0  0  0  0  0  0  0  0  0  0
  146.2888  138.8635  150.0576 H   0  0  0  0  0  0  0  0  0  0  0  0
  144.9822  138.7706  151.2109 H   0  0  0  0  0  0  0  0  0  0  0  0
  147.9235  139.3159  151.8698 H   0  0  0  0  0  0  0  0  0  0  0  0
  146.6246  140.4759  151.8985 H   0  0  0  0  0  0  0  0  0  0  0  0
  145.5731  139.3958  153.8335 H   0  0  0  0  0  0  0  0  0  0  0  0
  146.6223  138.0036  153.7025 H   0  0  0  0  0  0  0  0  0  0  0  0
  147.2263  140.3912  155.0816 H   0  0  0  0  0  0  0  0  0  0  0  0
  151.3039  138.6598  155.5355 H   0  0  0  0  0  0  0  0  0  0  0  0
  152.6318  139.9234  157.1965 H   0  0  0  0  0  0  0  0  0  0  0  0
  151.2416  144.1808  157.7409 H   0  0  0  0  0  0  0  0  0  0  0  0
  150.5209  143.5555  159.2186 H   0  0  0  0  0  0  0  0  0  0  0  0
  153.4163  144.5100  158.8689 H   0  0  0  0  0  0  0  0  0  0  0  0
  151.7719  146.3782  159.0930 H   0  0  0  0  0  0  0  0  0  0  0  0
  152.7961  146.2560  160.5204 H   0  0  0  0  0  0  0  0  0  0  0  0
  151.1416  145.6525  160.5714 H   0  0  0  0  0  0  0  0  0  0  0  0
  154.2953  142.4747  159.6825 H   0  0  0  0  0  0  0  0  0  0  0  0
  154.2447  140.6435  161.3815 H   0  0  0  0  0  0  0  0  0  0  0  0
  152.9429  141.4681  162.2382 H   0  0  0  0  0  0  0  0  0  0  0  0
  154.5393  142.2065  162.1375 H   0  0  0  0  0  0  0  0  0  0  0  0
  151.4957  141.2946  160.1149 H   0  0  0  0  0  0  0  0  0  0  0  0
  152.7990  140.5623  159.2037 H   0  0  0  0  0  0  0  0  0  0  0  0
  148.3531  141.8196  155.7168 H   0  0  0  0  0  0  0  0  0  0  0  0
  1  2  1  0  0  0  0
  1 25  1  0  0  0  0
  1 26  1  0  0  0  0
  1 27  1  0  0  0  0
  2  3  2  0  0  0  0
  2  4  1  0  0  0  0
  4  5  1  0  0  0  0
  4 28  1  0  0  0  0
  5  6  1  0  0  0  0
  5 29  1  0  0  0  0
  5 30  1  0  0  0  0
  6  7  1  0  0  0  0
  6 31  1  0  0  0  0
  6 32  1  0  0  0  0
  7  8  1  0  0  0  0
  7 33  1  0  0  0  0
  7 34  1  0  0  0  0
  8  9  1  0  0  0  0
  8 35  1  0  0  0  0
  9 10  2  0  0  0  0
  9 11  1  0  0  0  0
 11 24  1  0  0  0  0
 11 12  2  0  0  0  0
 12 13  1  0  0  0  0
 12 36  1  0  0  0  0
 13 14  2  0  0  0  0
 13 37  1  0  0  0  0
 14 15  1  0  0  0  0
 14 23  1  0  0  0  0
 15 22  1  0  0  0  0
 15 16  1  0  0  0  0
 16 17  1  0  0  0  0
 16 38  1  0  0  0  0
 16 39  1  0  0  0  0
 17 18  1  0  0  0  0
 17 19  1  0  0  0  0
 17 40  1  0  0  0  0
 18 41  1  0  0  0  0
 18 42  1  0  0  0  0
 18 43  1  0  0  0  0
 19 20  1  0  0  0  0
 20 21  1  0  0  0  0
 20 22  1  0  0  0  0
 20 44  1  0  0  0  0
 21 45  1  0  0  0  0
 21 46  1  0  0  0  0
 21 47  1  0  0  0  0
 22 48  1  0  0  0  0
 22 49  1  0  0  0  0
 23 24  2  0  0  0  0
 24 50  1  0  0  0  0
M  END
> <s_m_source_file>
AV-unprocessed.smi

> <i_m_source_file_index>
1529

> <i_lp_mmshare_version>
43012

> <i_f3d_flags>
0

> <s_epik_input>
W0NIM11DKD1PKVtOSF1bQ0gyXVtDSDJdW0NIMl1bTkhdQyg9TyljMVtjSF1bY0hdYyhuW2NIXTEpTjJbQ0gyXVtDQEBIXShbQ0gzXSlPW0NAQEhdKFtDSDNdKVtDSDJdMg==

> <s_epik_cmdline>
J2VwaWtfcHl0aG9uJywgJy1waCcsICc3LjAnLCAnLXRuJywgJzgnLCAnLW1hJywgJzIwMCcsICctbWV0YWxfYmluZGluZycsICctaW1hZScsICc8aW5maWxlLm1hZT4nLCAnLW9tYWUnLCAnPG91dGZpbGUubWFlPic=

> <r_lp_tautomer_probability>
1

> <r_epik_Ionization_Penalty>
2.1474e-05

> <r_epik_Ionization_Penalty_Charging>
0

> <r_epik_Ionization_Penalty_Neutral>
2.1474e-05

> <r_epik_State_Penalty>
-0

> <r_epik_Charging_Adjusted_Penalty>
0

> <i_epik_Tot_Q>
0

> <i_epik_Tot_abs_Q>
0

> <r_epik_Metal_State_Penalty>
-0

> <b_epik_Metal_Only>
0

> <s_lp_Force_Field>
OPLS_2005

> <r_lp_Energy>
16.5769

> <b_lp_Chiralities_Consistent>
1

> <s_lp_Variant>
AV-unprocessed.smi:1529-1

> <Gold.Version>
5.8.1

> <Gold.Id.Protein>
6NUR|6NUR_protein|mol2

> <Gold.PLP.Fitness>
45.3336

> <Gold.PLP.PLP>
-42.7610

> <Gold.PLP.part.hbond>
-1.0000

> <Gold.PLP.part.metal>
0.0000

> <Gold.PLP.part.buried>
-0.5441

> <Gold.PLP.part.nonpolar>
-43.3983

> <Gold.PLP.part.repulsive>
2.9148

> <Gold.PLP.ligand.clash>
0.0000

> <Gold.PLP.ligand.torsion>
0.4083

> <Gold.PLP.Chemscore.Hbond>
1.0000

> <Gold.PLP.Chemscore.CHOScore>
0.0000

> <Gold.PLP.Chemscore.Metal>
0.0000

> <Gold.Chemscore.Hbonds>
donor molecule, donor type, donor heavy atom, donor atom, acceptor molecule, acceptor atom, score
      L1  H     4    28       P1  7948  1.00

> <Gold.PLP.Chemscore.Internal.Correction>
0.3893

> <Gold.Rescore>
     Score         DG    S(hbond)    S(metal)    S(lipo)     H(rot)  DE(clash)    DE(int)     intcor
     14.59     -16.83       0.98        0.00     114.34       2.07       1.87       0.37       ----

> <Gold.Chemscore.Fitness>
14.5939

> <Gold.Chemscore.DG>
-16.8297

> <Gold.Chemscore.ZeroCoef>
-5.4800

> <Gold.Chemscore.Hbond>
0.9804

> <Gold.Chemscore.Metal>
0.0000

> <Gold.Chemscore.Lipo>
114.3381

> <Gold.Chemscore.Internal_Hbond>
0.0000

> <Gold.Chemscore.DEClash>
1.8680

> <Gold.Chemscore.DEInternal>
0.3678

> <Gold.Chemscore.Rot>
2.0713

> <Gold.Chemscore.Internal.Correction>
   9.000000E+99

> <Gold.Chemscore.Hbonds>
donor molecule, donor type, donor heavy atom, donor atom, acceptor molecule, acceptor atom, score
      L1  H     4    28       P1  7948  0.98

> <Gold.Chemscore.Hbond.Weighted>
-3.2747

> <Gold.Chemscore.Metal.Weighted>
-0.0000

> <Gold.Chemscore.Lipo.Weighted>
-13.3776

> <Gold.Chemscore.Internal_Hbond.Weighted>
0.0000

> <Gold.Chemscore.DEClash.Weighted>
1.8680

> <Gold.Chemscore.DEInternal.Weighted>
0.3678

> <Gold.Chemscore.Rot.Weighted>
5.3025

> <Gold.Chemscore.Internal.Correction.Weighted>
   9.000000E+99

> <Gold.Protein.RotatedTorsions>
[ 6907 6896 6895 6894 ] final -101.39 input  -60.11 | X-H torsion
[ 7974 7965 7964 7962 ] final  -53.92 input  175.53 | X-H torsion
[ 8008 7997 7996 7995 ] final   34.21 input   59.86 | X-H torsion
[ 10167 10162 10161 10158 ] final  -46.85 input  -65.29 | X-H torsion
[ 10718 10713 10712 10709 ] final  105.09 input   66.30 | X-H torsion
[ 10763 10752 10751 10750 ] final  -64.13 input  -60.55 | X-H torsion
[ 11005 11000 10999 10996 ] final -103.48 input  -57.11 | X-H torsion

> <Gold.Protein.ActiveResidues>
 VAL166  LYS551  ARG553  GLY616  TRP617  ASP618  TYR619  PRO620  LYS621  CYS622 
 ASP623  PHE694  ASN695  SER759  ASP760  ASP761  ALA762  ILE779  LEU786  VAL792 
 PHE793  MET794  SER795  GLU796  ALA797  LYS798  CYS799  TRP800  GLU811  SER814 

> <Gold.Protein.RotatedAtoms>
  150.7153  134.0741  159.3874 H   0  0  0  0  0  0  0  0  0  0  0  0  # atno 6907 bound_to 6896
  151.8724  135.0482  160.0490 H   0  0  0  0  0  0  0  0  0  0  0  0  # atno 6908 bound_to 6896
  152.2633  133.5281  159.5431 H   0  0  0  0  0  0  0  0  0  0  0  0  # atno 6909 bound_to 6896
  145.8914  140.8068  142.9789 H   0  0  0  0  0  0  0  0  0  0  0  0  # atno 7974 bound_to 7965
  155.1512  140.3275  155.4431 H   0  0  0  0  0  0  0  0  0  0  0  0  # atno 8008 bound_to 7997
  156.2574  140.1976  156.6573 H   0  0  0  0  0  0  0  0  0  0  0  0  # atno 8009 bound_to 7997
  154.6472  140.0563  156.9900 H   0  0  0  0  0  0  0  0  0  0  0  0  # atno 8010 bound_to 7997
  140.6800  143.2811  151.3842 H   0  0  0  0  0  0  0  0  0  0  0  0  # atno 10167 bound_to 10162
  157.6718  131.0819  150.5804 H   0  0  0  0  0  0  0  0  0  0  0  0  # atno 10718 bound_to 10713
  154.3255  135.6187  153.5527 H   0  0  0  0  0  0  0  0  0  0  0  0  # atno 10763 bound_to 10752
  152.9816  135.5734  154.5021 H   0  0  0  0  0  0  0  0  0  0  0  0  # atno 10764 bound_to 10752
  154.4698  135.2859  155.1628 H   0  0  0  0  0  0  0  0  0  0  0  0  # atno 10765 bound_to 10752
  141.1144  133.8644  157.1491 H   0  0  0  0  0  0  0  0  0  0  0  0  # atno 11005 bound_to 11000
  144.6730  140.1535  143.7428 LP  0  0  0  0  0  0  0  0  0  0  0  0  # atno 17320 bound_to 7965
  145.8904  139.2372  143.1553 LP  0  0  0  0  0  0  0  0  0  0  0  0  # atno 17321 bound_to 7965
  139.6116  144.1086  152.2305 LP  0  0  0  0  0  0  0  0  0  0  0  0  # atno 17342 bound_to 10162
  140.0502  144.5938  150.7342 LP  0  0  0  0  0  0  0  0  0  0  0  0  # atno 17343 bound_to 10162
  156.6105  130.4379  149.5861 LP  0  0  0  0  0  0  0  0  0  0  0  0  # atno 17370 bound_to 10713
  156.2434  130.6865  151.1577 LP  0  0  0  0  0  0  0  0  0  0  0  0  # atno 17371 bound_to 10713
  140.0056  135.0010  157.0286 LP  0  0  0  0  0  0  0  0  0  0  0  0  # atno 17394 bound_to 11000
  140.4688  134.1408  155.7200 LP  0  0  0  0  0  0  0  0  0  0  0  0  # atno 17395 bound_to 11000

$$$$
