AV-unprocessed.smi:1308|AV-procd|sdf|5441|dock4
  -GOLD-   22720 5 03D 1   1.00000     0.00000
 Structure written by MMmdl.
 45 45  0  0  0  0  0  0  0  0  1 V2000
  146.5316  138.3051  151.8972 C   0  0  0  0  0  0  0  0  0  0  0  0
  147.3467  139.2215  152.7836 C   0  0  0  0  0  0  0  0  0  0  0  0
  148.5537  138.6755  153.1882 N   0  0  0  0  0  0  0  0  0  0  0  0
  149.3732  139.4434  153.9968 C   0  0  0  0  0  0  0  0  0  0  0  0
  150.6766  138.7721  154.3943 C   0  0  0  0  0  0  0  0  0  0  0  0
  149.0058  140.6908  154.3862 C   0  0  0  0  0  0  0  0  0  0  0  0
  149.8812  141.5706  155.2784 C   0  0  0  0  0  0  0  0  0  0  0  0
  150.1341  141.0581  156.6985 C   0  0  0  0  0  0  0  0  0  0  0  0
  149.3544  140.2648  157.2261 O   0  0  0  0  0  0  0  0  0  0  0  0
  151.2460  141.5198  157.2953 N   0  0  0  0  0  0  0  0  0  0  0  0
  151.7600  141.1609  158.6197 C   0  0  1  0  0  0  0  0  0  0  0  0
  152.0889  139.6605  158.7161 C   0  0  0  0  0  0  0  0  0  0  0  0
  152.9405  142.0524  159.0672 C   0  0  0  0  0  0  0  0  0  0  0  0
  152.6518  143.5643  158.9737 C   0  0  0  0  0  0  0  0  0  0  0  0
  151.6682  144.0853  160.0413 C   0  0  0  0  0  0  0  0  0  0  0  0
  151.4639  145.6077  159.9612 C   0  0  0  0  0  0  0  0  0  0  0  0
  152.1339  143.6841  161.4495 C   0  0  0  0  0  0  0  0  0  0  0  0
  147.6972  141.2165  153.9305 C   0  0  0  0  0  0  0  0  0  0  0  0
  147.2998  142.3321  154.2638 O   0  0  0  0  0  0  0  0  0  0  0  0
  146.9077  140.4008  153.1037 N   0  0  0  0  0  0  0  0  0  0  0  0
  148.8644  137.7521  152.9230 H   0  0  0  0  0  0  0  0  0  0  0  0
  145.5798  138.7656  151.6296 H   0  0  0  0  0  0  0  0  0  0  0  0
  146.3225  137.3660  152.4105 H   0  0  0  0  0  0  0  0  0  0  0  0
  147.0739  138.0851  150.9771 H   0  0  0  0  0  0  0  0  0  0  0  0
  150.7587  138.7077  155.4796 H   0  0  0  0  0  0  0  0  0  0  0  0
  151.5281  139.3381  154.0166 H   0  0  0  0  0  0  0  0  0  0  0  0
  150.7449  137.7594  153.9946 H   0  0  0  0  0  0  0  0  0  0  0  0
  149.4725  142.5795  155.3424 H   0  0  0  0  0  0  0  0  0  0  0  0
  150.8487  141.6937  154.7908 H   0  0  0  0  0  0  0  0  0  0  0  0
  151.8092  142.1710  156.7678 H   0  0  0  0  0  0  0  0  0  0  0  0
  150.9350  141.3473  159.3082 H   0  0  0  0  0  0  0  0  0  0  0  0
  152.3352  139.3829  159.7413 H   0  0  0  0  0  0  0  0  0  0  0  0
  152.9408  139.3893  158.0923 H   0  0  0  0  0  0  0  0  0  0  0  0
  151.2401  139.0501  158.4065 H   0  0  0  0  0  0  0  0  0  0  0  0
  153.1862  141.7945  160.0970 H   0  0  0  0  0  0  0  0  0  0  0  0
  153.8303  141.8164  158.4828 H   0  0  0  0  0  0  0  0  0  0  0  0
  153.5920  144.1063  159.0806 H   0  0  0  0  0  0  0  0  0  0  0  0
  152.2769  143.8071  157.9786 H   0  0  0  0  0  0  0  0  0  0  0  0
  150.7020  143.6073  159.8743 H   0  0  0  0  0  0  0  0  0  0  0  0
  152.4079  146.1407  160.0787 H   0  0  0  0  0  0  0  0  0  0  0  0
  150.7895  145.9530  160.7452 H   0  0  0  0  0  0  0  0  0  0  0  0
  151.0263  145.9085  159.0097 H   0  0  0  0  0  0  0  0  0  0  0  0
  153.1060  144.1189  161.6844 H   0  0  0  0  0  0  0  0  0  0  0  0
  152.2217  142.6012  161.5432 H   0  0  0  0  0  0  0  0  0  0  0  0
  151.4270  144.0206  162.2085 H   0  0  0  0  0  0  0  0  0  0  0  0
  1 22  1  0  0  0  0
  1 23  1  0  0  0  0
  1 24  1  0  0  0  0
  1  2  1  0  0  0  0
  2  3  1  0  0  0  0
  2 20  2  0  0  0  0
  3  4  1  0  0  0  0
  3 21  1  0  0  0  0
  4  6  2  0  0  0  0
  4  5  1  0  0  0  0
  5 25  1  0  0  0  0
  5 26  1  0  0  0  0
  5 27  1  0  0  0  0
  6 18  1  0  0  0  0
  6  7  1  0  0  0  0
  7  8  1  0  0  0  0
  7 28  1  0  0  0  0
  7 29  1  0  0  0  0
  8  9  2  0  0  0  0
  8 10  1  0  0  0  0
 10 11  1  0  0  0  0
 10 30  1  0  0  0  0
 11 12  1  0  0  0  0
 11 13  1  0  0  0  0
 11 31  1  0  0  0  0
 12 32  1  0  0  0  0
 12 33  1  0  0  0  0
 12 34  1  0  0  0  0
 13 14  1  0  0  0  0
 13 35  1  0  0  0  0
 13 36  1  0  0  0  0
 14 15  1  0  0  0  0
 14 37  1  0  0  0  0
 14 38  1  0  0  0  0
 15 16  1  0  0  0  0
 15 17  1  0  0  0  0
 15 39  1  0  0  0  0
 16 40  1  0  0  0  0
 16 41  1  0  0  0  0
 16 42  1  0  0  0  0
 17 43  1  0  0  0  0
 17 44  1  0  0  0  0
 17 45  1  0  0  0  0
 18 19  2  0  0  0  0
 18 20  1  0  0  0  0
M  END
> <s_m_source_file>
AV-unprocessed.smi

> <i_m_source_file_index>
1308

> <i_lp_mmshare_version>
43012

> <i_f3d_flags>
0

> <s_epik_input>
W0NIM11jMW5jKFtDSDNdKWMoYyg9TylbbkhdMSlbQ0gyXUMoPU8pW05IXVtDQEhdKFtDSDNdKVtDSDJdW0NIMl1bQ0hdKFtDSDNdKVtDSDNd

> <s_epik_cmdline>
J2VwaWtfcHl0aG9uJywgJy1waCcsICc3LjAnLCAnLXRuJywgJzgnLCAnLW1hJywgJzIwMCcsICctbWV0YWxfYmluZGluZycsICctaW1hZScsICc8aW5maWxlLm1hZT4nLCAnLW9tYWUnLCAnPG91dGZpbGUubWFlPic=

> <r_lp_tautomer_probability>
0.156392

> <r_epik_Ionization_Penalty>
0.0141156

> <r_epik_Ionization_Penalty_Charging>
0.0139937

> <r_epik_Ionization_Penalty_Neutral>
0.00012188

> <r_epik_State_Penalty>
1.52994

> <r_epik_Charging_Adjusted_Penalty>
1.54393

> <i_epik_Tot_Q>
0

> <i_epik_Tot_abs_Q>
0

> <r_epik_Metal_State_Penalty>
1.70663

> <b_epik_Metal_Only>
0

> <s_lp_Force_Field>
OPLS_2005

> <r_lp_Energy>
10.3869

> <b_lp_Chiralities_Consistent>
1

> <s_lp_Variant>
AV-unprocessed.smi:1308-4

> <Gold.Version>
5.8.1

> <Gold.Id.Protein>
6NUR|6NUR_protein|mol2

> <Gold.PLP.Fitness>
48.8348

> <Gold.PLP.PLP>
-46.6721

> <Gold.PLP.part.hbond>
-2.0000

> <Gold.PLP.part.metal>
0.0000

> <Gold.PLP.part.buried>
-3.4880

> <Gold.PLP.part.nonpolar>
-42.8288

> <Gold.PLP.part.repulsive>
1.3267

> <Gold.PLP.ligand.clash>
0.0000

> <Gold.PLP.ligand.torsion>
0.4596

> <Gold.PLP.Chemscore.Hbond>
1.0000

> <Gold.PLP.Chemscore.CHOScore>
0.0000

> <Gold.PLP.Chemscore.Metal>
0.0000

> <Gold.Chemscore.Hbonds>
donor molecule, donor type, donor heavy atom, donor atom, acceptor molecule, acceptor atom, score
      L1  H     3    21       P1  7948  1.00

> <Gold.PLP.Chemscore.Internal.Correction>
0.0820

> <Gold.Rescore>
     Score         DG    S(hbond)    S(metal)    S(lipo)     H(rot)  DE(clash)    DE(int)     intcor
     15.74     -16.63       0.95        0.00     111.45       1.98       0.45       0.44       ----

> <Gold.Chemscore.Fitness>
15.7360

> <Gold.Chemscore.DG>
-16.6288

> <Gold.Chemscore.ZeroCoef>
-5.4800

> <Gold.Chemscore.Hbond>
0.9541

> <Gold.Chemscore.Metal>
0.0000

> <Gold.Chemscore.Lipo>
111.4505

> <Gold.Chemscore.Internal_Hbond>
0.0000

> <Gold.Chemscore.DEClash>
0.4480

> <Gold.Chemscore.DEInternal>
0.4448

> <Gold.Chemscore.Rot>
1.9835

> <Gold.Chemscore.Internal.Correction>
   9.000000E+99

> <Gold.Chemscore.Hbonds>
donor molecule, donor type, donor heavy atom, donor atom, acceptor molecule, acceptor atom, score
      L1  H     3    21       P1  7948  0.99

> <Gold.Chemscore.Hbond.Weighted>
-3.1868

> <Gold.Chemscore.Metal.Weighted>
-0.0000

> <Gold.Chemscore.Lipo.Weighted>
-13.0397

> <Gold.Chemscore.Internal_Hbond.Weighted>
0.0000

> <Gold.Chemscore.DEClash.Weighted>
0.4480

> <Gold.Chemscore.DEInternal.Weighted>
0.4448

> <Gold.Chemscore.Rot.Weighted>
5.0778

> <Gold.Chemscore.Internal.Correction.Weighted>
   9.000000E+99

> <Gold.Protein.RotatedTorsions>
[ 6907 6896 6895 6894 ] final  131.62 input  -60.11 | X-H torsion
[ 7974 7965 7964 7962 ] final   45.08 input  175.53 | X-H torsion
[ 8008 7997 7996 7995 ] final -138.84 input   59.86 | X-H torsion
[ 10167 10162 10161 10158 ] final  -79.30 input  -65.29 | X-H torsion
[ 10718 10713 10712 10709 ] final -142.95 input   66.30 | X-H torsion
[ 10763 10752 10751 10750 ] final  101.46 input  -60.55 | X-H torsion
[ 11005 11000 10999 10996 ] final -138.67 input  -57.11 | X-H torsion

> <Gold.Protein.ActiveResidues>
 VAL166  LYS551  ARG553  GLY616  TRP617  ASP618  TYR619  PRO620  LYS621  CYS622 
 ASP623  PHE694  ASN695  SER759  ASP760  ASP761  ALA762  ILE779  LEU786  VAL792 
 PHE793  MET794  SER795  GLU796  ALA797  LYS798  CYS799  TRP800  GLU811  SER814 

> <Gold.Protein.RotatedAtoms>
  152.3408  133.6064  159.5874 H   0  0  0  0  0  0  0  0  0  0  0  0  # atno 6907 bound_to 6896
  150.7477  133.9725  159.3559 H   0  0  0  0  0  0  0  0  0  0  0  0  # atno 6908 bound_to 6896
  151.7589  135.0815  160.0393 H   0  0  0  0  0  0  0  0  0  0  0  0  # atno 6909 bound_to 6896
  146.0512  139.5004  142.9717 H   0  0  0  0  0  0  0  0  0  0  0  0  # atno 7974 bound_to 7965
  155.4351  140.0528  157.3015 H   0  0  0  0  0  0  0  0  0  0  0  0  # atno 8008 bound_to 7997
  154.4843  140.2094  155.9649 H   0  0  0  0  0  0  0  0  0  0  0  0  # atno 8009 bound_to 7997
  156.1251  140.3181  155.8271 H   0  0  0  0  0  0  0  0  0  0  0  0  # atno 8010 bound_to 7997
  140.4606  143.2455  151.8355 H   0  0  0  0  0  0  0  0  0  0  0  0  # atno 10167 bound_to 10162
  156.3520  130.7693  151.1847 H   0  0  0  0  0  0  0  0  0  0  0  0  # atno 10718 bound_to 10713
  153.3270  135.4044  155.1464 H   0  0  0  0  0  0  0  0  0  0  0  0  # atno 10763 bound_to 10752
  154.8614  135.3601  154.5521 H   0  0  0  0  0  0  0  0  0  0  0  0  # atno 10764 bound_to 10752
  153.5958  135.7072  153.5464 H   0  0  0  0  0  0  0  0  0  0  0  0  # atno 10765 bound_to 10752
  140.8594  134.2188  157.4716 H   0  0  0  0  0  0  0  0  0  0  0  0  # atno 11005 bound_to 11000
  145.6721  141.0214  143.1652 LP  0  0  0  0  0  0  0  0  0  0  0  0  # atno 17320 bound_to 7965
  144.7123  139.8323  143.7410 LP  0  0  0  0  0  0  0  0  0  0  0  0  # atno 17321 bound_to 7965
  139.4806  144.5012  151.9057 LP  0  0  0  0  0  0  0  0  0  0  0  0  # atno 17342 bound_to 10162
  140.4098  144.2384  150.5889 LP  0  0  0  0  0  0  0  0  0  0  0  0  # atno 17343 bound_to 10162
  157.7462  131.0424  150.4696 LP  0  0  0  0  0  0  0  0  0  0  0  0  # atno 17370 bound_to 10713
  156.4892  130.4091  149.6416 LP  0  0  0  0  0  0  0  0  0  0  0  0  # atno 17371 bound_to 10713
  139.8706  134.9722  156.4764 LP  0  0  0  0  0  0  0  0  0  0  0  0  # atno 17394 bound_to 11000
  140.8700  133.7995  155.9354 LP  0  0  0  0  0  0  0  0  0  0  0  0  # atno 17395 bound_to 11000

$$$$
