#       Name:                AV-unprocessed.smi:1749
#       Creating user name   scv26
#       Creation time:       Fri Mar 27 08:26:28 2020


#       File generated by GOLD software.
#

@<TRIPOS>MOLECULE
AV-unprocessed.smi:1749
    36    37     1
SMALL
NO_CHARGES


@<TRIPOS>ATOM
      1 ****        -2.0282  -1.3125   2.3584 C.3            1 S1                 0.0000
      2 ****        -1.4155  -0.7923   1.0506 C.3            1 S1                 0.0000
      3 ****        -1.9536  -1.5636  -0.1697 C.3            1 S1                 0.0000
      4 ****        -1.3460  -1.0428  -1.4818 C.3            1 S1                 0.0000
      5 ****        -1.5784   0.4695  -1.6457 C.3            1 S1                 0.0000
      6 ****        -1.0606   1.2701  -0.4355 C.3            1 S1                 0.0000
      7 ****         0.3995   1.2399  -0.4029 N.am           1 S1                 0.0000
      8 ****         1.1978   2.1537   0.1727 C.2            1 S1                 0.0000
      9 ****         0.7667   3.1746   0.7058 O.2            1 S1                 0.0000
     10 ****         2.5222   1.8953   0.1290 N.am           1 S1                 0.0000
     11 ****         3.6394   2.6275   0.6269 C.2            1 S1                 0.0000
     12 ****         3.5716   3.8785   1.1119 N.2            1 S1                 0.0000
     13 ****         4.8142   4.3551   1.5061 N.2            1 S1                 0.0000
     14 ****         5.7748   3.4522   1.2918 C.2            1 S1                 0.0000
     15 ****         5.2537   1.9319   0.5866 S.3            1 S1                 0.0000
     16 ****        -1.6559   0.7228   0.8798 C.3            1 S1                 0.0000
     17 ****        -3.1097  -1.1754   2.3726 H              1 S1                 0.0000
     18 ****        -1.6146  -0.7884   3.2204 H              1 S1                 0.0000
     19 ****        -1.8252  -2.3755   2.4911 H              1 S1                 0.0000
     20 ****        -0.3393  -0.9627   1.1079 H              1 S1                 0.0000
     21 ****        -1.7361  -2.6270  -0.0648 H              1 S1                 0.0000
     22 ****        -3.0399  -1.4740  -0.2129 H              1 S1                 0.0000
     23 ****        -0.2768  -1.2579  -1.5005 H              1 S1                 0.0000
     24 ****        -1.7796  -1.5766  -2.3277 H              1 S1                 0.0000
     25 ****        -1.1067   0.8233  -2.5633 H              1 S1                 0.0000
     26 ****        -2.6470   0.6534  -1.7644 H              1 S1                 0.0000
     27 ****        -1.3787   2.3069  -0.5593 H              1 S1                 0.0000
     28 ****         0.8409   0.4340  -0.8228 H              1 S1                 0.0000
     29 ****         2.7689   1.0701  -0.3980 H              1 S1                 0.0000
     30 ****         6.7980   3.6841   1.5474 H              1 S1                 0.0000
     31 ****        -2.7289   0.9191   0.8902 H              1 S1                 0.0000
     32 ****        -1.2445   1.2658   1.7317 H              1 S1                 0.0000
     33 ****        -0.2172   3.3523   0.7231 LP             1 S1                 0.0000
     34 ****         1.4000   3.8269   1.1220 LP             1 S1                 0.0000
     35 ****         2.7243   4.4052   1.1809 LP             1 S1                 0.0000
     36 ****         4.9705   5.2604   1.9009 LP             1 S1                 0.0000
@<TRIPOS>BOND
    1    1    2 1     
    2    1   17 1     
    3    1   18 1     
    4    1   19 1     
    5    2   16 1     
    6    2    3 1     
    7    2   20 1     
    8    3    4 1     
    9    3   21 1     
   10    3   22 1     
   11    4    5 1     
   12    4   23 1     
   13    4   24 1     
   14    5    6 1     
   15    5   25 1     
   16    5   26 1     
   17    6    7 1     
   18    6   16 1     
   19    6   27 1     
   20    7    8 am    
   21    7   28 1     
   22    8    9 2     
   23    8   10 am    
   24   10   11 1     
   25   10   29 1     
   26   11   15 1     
   27   11   12 2     
   28   12   13 1     
   29   13   14 2     
   30   14   15 1     
   31   14   30 1     
   32   16   31 1     
   33   16   32 1     
   34    9   33 1     
   35    9   34 1     
   36   12   35 1     
   37   13   36 1     
@<TRIPOS>SUBSTRUCTURE
      1 S1             1
@<TRIPOS>SET
LONE_PAIRS      STATIC     ATOMS    <user>   **** ""
4 33 34 35 36
DONOR_HYDROGENS      STATIC     ATOMS    <user>   **** ""
2 28 29
ATOM$BLUE        STATIC     ATOMS    COLORGROUP SYSTEM
4 33 34 35 36
ATOM$RED        STATIC     ATOMS    COLORGROUP SYSTEM
2 28 29
