AV-unprocessed.smi:119|AV-procd|sdf|1133|dock5
  -GOLD-   2262018263D 1   1.00000     0.00000
 Structure written by MMmdl.
 51 54  0  0  0  0  0  0  0  0  1 V2000
  143.3201  135.8547  162.5859 C   0  0  0  0  0  0  0  0  0  0  0  0
  144.6295  135.0591  162.5067 C   0  0  2  0  0  0  0  0  0  0  0  0
  145.8479  136.0043  162.4751 C   0  0  0  0  0  0  0  0  0  0  0  0
  147.2093  135.3034  162.6390 C   0  0  0  0  0  0  0  0  0  0  0  0
  147.5686  134.5115  161.4585 N   0  0  0  0  0  0  0  0  0  0  0  0
  148.1391  135.0984  160.3755 C   0  0  0  0  0  0  0  0  0  0  0  0
  148.3644  134.4738  159.3365 O   0  0  0  0  0  0  0  0  0  0  0  0
  148.5266  136.5944  160.4359 C   0  0  0  0  0  0  0  0  0  0  0  0
  148.7067  137.1877  159.0930 N   0  0  0  0  0  0  0  0  0  0  0  0
  147.5642  137.5152  158.3221 C   0  0  0  0  0  0  0  0  0  0  0  0
  146.4259  137.3178  158.7492 O   0  0  0  0  0  0  0  0  0  0  0  0
  147.8361  138.0897  157.0091 C   0  0  0  0  0  0  0  0  0  0  0  0
  146.8134  138.4601  156.2197 F   0  0  0  0  0  0  0  0  0  0  0  0
  149.1016  138.2590  156.5731 C   0  0  0  0  0  0  0  0  0  0  0  0
  150.2061  137.8970  157.3187 N   0  0  0  0  0  0  0  0  0  0  0  0
  151.5894  138.1442  156.7629 C   0  0  2  0  0  0  0  0  0  0  0  0
  151.9021  139.6356  156.5336 C   0  0  0  0  0  0  0  0  0  0  0  0
  152.2144  139.6939  155.0473 C   0  0  0  0  0  0  0  0  0  0  0  0
  152.5812  138.2504  154.7211 C   0  0  0  0  0  0  0  0  0  0  0  0
  151.6978  137.4938  155.5343 O   0  0  0  0  0  0  0  0  0  0  0  0
  150.0283  137.3754  158.6202 C   0  0  0  0  0  0  0  0  0  0  0  0
  150.9959  137.0867  159.3268 O   0  0  0  0  0  0  0  0  0  0  0  0
  147.2060  133.1407  161.4786 C   0  0  0  0  0  0  0  0  0  0  0  0
  148.2057  132.1595  161.6565 C   0  0  0  0  0  0  0  0  0  0  0  0
  147.8615  130.7944  161.6693 C   0  0  0  0  0  0  0  0  0  0  0  0
  146.5186  130.4052  161.5047 C   0  0  0  0  0  0  0  0  0  0  0  0
  145.5180  131.3805  161.3298 C   0  0  0  0  0  0  0  0  0  0  0  0
  145.8552  132.7486  161.3221 C   0  0  0  0  0  0  0  0  0  0  0  0
  144.5733  133.9412  161.0738 S   0  0  0  0  0  0  0  0  0  0  0  0
  143.2972  136.4908  163.4712 H   0  0  0  0  0  0  0  0  0  0  0  0
  142.4590  135.1880  162.6388 H   0  0  0  0  0  0  0  0  0  0  0  0
  143.1929  136.4943  161.7119 H   0  0  0  0  0  0  0  0  0  0  0  0
  144.6926  134.4346  163.3986 H   0  0  0  0  0  0  0  0  0  0  0  0
  145.8363  136.5990  161.5605 H   0  0  0  0  0  0  0  0  0  0  0  0
  145.7481  136.7200  163.2918 H   0  0  0  0  0  0  0  0  0  0  0  0
  147.9832  136.0438  162.8482 H   0  0  0  0  0  0  0  0  0  0  0  0
  147.1876  134.6601  163.5201 H   0  0  0  0  0  0  0  0  0  0  0  0
  147.7645  137.1150  161.0169 H   0  0  0  0  0  0  0  0  0  0  0  0
  149.4450  136.7496  161.0029 H   0  0  0  0  0  0  0  0  0  0  0  0
  149.2479  138.6922  155.5944 H   0  0  0  0  0  0  0  0  0  0  0  0
  152.2839  137.6910  157.4717 H   0  0  0  0  0  0  0  0  0  0  0  0
  151.0765  140.2872  156.8219 H   0  0  0  0  0  0  0  0  0  0  0  0
  152.7759  139.9022  157.1288 H   0  0  0  0  0  0  0  0  0  0  0  0
  151.3267  139.9887  154.4868 H   0  0  0  0  0  0  0  0  0  0  0  0
  153.0120  140.3976  154.8076 H   0  0  0  0  0  0  0  0  0  0  0  0
  152.4588  138.0124  153.6643 H   0  0  0  0  0  0  0  0  0  0  0  0
  153.6124  138.0370  155.0067 H   0  0  0  0  0  0  0  0  0  0  0  0
  149.2382  132.4523  161.7805 H   0  0  0  0  0  0  0  0  0  0  0  0
  148.6282  130.0455  161.8031 H   0  0  0  0  0  0  0  0  0  0  0  0
  146.2556  129.3579  161.5112 H   0  0  0  0  0  0  0  0  0  0  0  0
  144.4899  131.0750  161.2013 H   0  0  0  0  0  0  0  0  0  0  0  0
  1  2  1  0  0  0  0
  1 30  1  0  0  0  0
  1 31  1  0  0  0  0
  1 32  1  0  0  0  0
  2 29  1  0  0  0  0
  2  3  1  0  0  0  0
  2 33  1  0  0  0  0
  3  4  1  0  0  0  0
  3 34  1  0  0  0  0
  3 35  1  0  0  0  0
  4  5  1  0  0  0  0
  4 36  1  0  0  0  0
  4 37  1  0  0  0  0
  5  6  1  0  0  0  0
  5 23  1  0  0  0  0
  6  7  2  0  0  0  0
  6  8  1  0  0  0  0
  8  9  1  0  0  0  0
  8 38  1  0  0  0  0
  8 39  1  0  0  0  0
  9 21  1  0  0  0  0
  9 10  1  0  0  0  0
 10 11  2  0  0  0  0
 10 12  1  0  0  0  0
 12 13  1  0  0  0  0
 12 14  2  0  0  0  0
 14 15  1  0  0  0  0
 14 40  1  0  0  0  0
 15 16  1  0  0  0  0
 15 21  1  0  0  0  0
 16 20  1  0  0  0  0
 16 17  1  0  0  0  0
 16 41  1  0  0  0  0
 17 18  1  0  0  0  0
 17 42  1  0  0  0  0
 17 43  1  0  0  0  0
 18 19  1  0  0  0  0
 18 44  1  0  0  0  0
 18 45  1  0  0  0  0
 19 20  1  0  0  0  0
 19 46  1  0  0  0  0
 19 47  1  0  0  0  0
 21 22  2  0  0  0  0
 23 28  2  0  0  0  0
 23 24  1  0  0  0  0
 24 25  2  0  0  0  0
 24 48  1  0  0  0  0
 25 26  1  0  0  0  0
 25 49  1  0  0  0  0
 26 27  2  0  0  0  0
 26 50  1  0  0  0  0
 27 28  1  0  0  0  0
 27 51  1  0  0  0  0
 28 29  1  0  0  0  0
M  END
> <s_m_source_file>
AV-unprocessed.smi

> <i_m_source_file_index>
119

> <i_lp_mmshare_version>
43012

> <i_f3d_flags>
0

> <s_epik_input>
W2NIXTFbY0hdW2NIXVtjSF1jKGMxMilTW0NASF0oW0NIM10pW0NIMl1bQ0gyXU4yQyg9TylbQ0gyXW4zYyg9TyljKEYpW2NIXW4oYzM9TylbQ0BASF00W0NIMl1bQ0gyXVtDSDJdTzQ=

> <s_epik_cmdline>
J2VwaWtfcHl0aG9uJywgJy1waCcsICc3LjAnLCAnLXRuJywgJzgnLCAnLW1hJywgJzIwMCcsICctbWV0YWxfYmluZGluZycsICctaW1hZScsICc8aW5maWxlLm1hZT4nLCAnLW9tYWUnLCAnPG91dGZpbGUubWFlPic=

> <r_lp_tautomer_probability>
1

> <r_epik_Ionization_Penalty>
1.68882e-06

> <r_epik_Ionization_Penalty_Charging>
3.67303e-09

> <r_epik_Ionization_Penalty_Neutral>
1.68515e-06

> <r_epik_State_Penalty>
-0

> <r_epik_Charging_Adjusted_Penalty>
3.67303e-09

> <i_epik_Tot_Q>
0

> <i_epik_Tot_abs_Q>
0

> <r_epik_Metal_State_Penalty>
-0

> <b_epik_Metal_Only>
0

> <s_epik_Chemistry_Notes>
This compound contains an acetal/aminal-like group ( X-CH(R)-Y where X, Y are N, S, or O) that may be acid/base labile, releasing an aldehyde.

> <s_lp_Force_Field>
OPLS_2005

> <r_lp_Energy>
42.8221

> <b_lp_Chiralities_Consistent>
1

> <s_lp_Variant>
AV-unprocessed.smi:119-1

> <Gold.Version>
5.8.1

> <Gold.Id.Protein>
6NUR|6NUR_protein|mol2

> <Gold.PLP.Fitness>
43.4302

> <Gold.PLP.PLP>
-40.6891

> <Gold.PLP.part.hbond>
-2.1549

> <Gold.PLP.part.metal>
0.0000

> <Gold.PLP.part.buried>
-2.6741

> <Gold.PLP.part.nonpolar>
-35.3625

> <Gold.PLP.part.repulsive>
0.0432

> <Gold.PLP.ligand.clash>
0.0000

> <Gold.PLP.ligand.torsion>
0.5532

> <Gold.PLP.Chemscore.Hbond>
1.2723

> <Gold.PLP.Chemscore.CHOScore>
0.0000

> <Gold.PLP.Chemscore.Metal>
0.0000

> <Gold.Chemscore.Hbonds>
donor molecule, donor type, donor heavy atom, donor atom, acceptor molecule, acceptor atom, score
      P1  H  6896  6907       L1    22  0.45
      P1  H  6896  6909       L1     7  0.16

> <Gold.PLP.Chemscore.Internal.Correction>
0.0307

> <Gold.Rescore>
     Score         DG    S(hbond)    S(metal)    S(lipo)     H(rot)  DE(clash)    DE(int)     intcor
     16.62     -17.28       1.48        0.00      92.10       1.53       0.05       0.62       ----

> <Gold.Chemscore.Fitness>
16.6165

> <Gold.Chemscore.DG>
-17.2842

> <Gold.Chemscore.ZeroCoef>
-5.4800

> <Gold.Chemscore.Hbond>
1.4780

> <Gold.Chemscore.Metal>
0.0000

> <Gold.Chemscore.Lipo>
92.1008

> <Gold.Chemscore.Internal_Hbond>
0.0000

> <Gold.Chemscore.DEClash>
0.0518

> <Gold.Chemscore.DEInternal>
0.6159

> <Gold.Chemscore.Rot>
1.5266

> <Gold.Chemscore.Internal.Correction>
   9.000000E+99

> <Gold.Chemscore.Hbonds>
donor molecule, donor type, donor heavy atom, donor atom, acceptor molecule, acceptor atom, score
      P1  H  6896  6907       L1    22  0.45
      P1  H  6896  6909       L1     7  0.08

> <Gold.Chemscore.Hbond.Weighted>
-4.9365

> <Gold.Chemscore.Metal.Weighted>
-0.0000

> <Gold.Chemscore.Lipo.Weighted>
-10.7758

> <Gold.Chemscore.Internal_Hbond.Weighted>
0.0000

> <Gold.Chemscore.DEClash.Weighted>
0.0518

> <Gold.Chemscore.DEInternal.Weighted>
0.6159

> <Gold.Chemscore.Rot.Weighted>
3.9081

> <Gold.Chemscore.Internal.Correction.Weighted>
   9.000000E+99

> <Gold.Protein.RotatedTorsions>
[ 6907 6896 6895 6894 ] final   12.84 input  -60.11 | X-H torsion
[ 7974 7965 7964 7962 ] final -148.51 input  175.53 | X-H torsion
[ 8008 7997 7996 7995 ] final  -73.51 input   59.86 | X-H torsion
[ 10167 10162 10161 10158 ] final  136.86 input  -65.29 | X-H torsion
[ 10718 10713 10712 10709 ] final  -83.29 input   66.30 | X-H torsion
[ 10763 10752 10751 10750 ] final  -51.40 input  -60.55 | X-H torsion
[ 11005 11000 10999 10996 ] final -149.19 input  -57.11 | X-H torsion

> <Gold.Protein.ActiveResidues>
 VAL166  LYS551  ARG553  GLY616  TRP617  ASP618  TYR619  PRO620  LYS621  CYS622 
 ASP623  PHE694  ASN695  SER759  ASP760  ASP761  ALA762  ILE779  LEU786  VAL792 
 PHE793  MET794  SER795  GLU796  ALA797  LYS798  CYS799  TRP800  GLU811  SER814 

> <Gold.Protein.RotatedAtoms>
  151.7768  135.0772  160.0367 H   0  0  0  0  0  0  0  0  0  0  0  0  # atno 6907 bound_to 6896
  152.3250  133.5891  159.5779 H   0  0  0  0  0  0  0  0  0  0  0  0  # atno 6908 bound_to 6896
  150.7391  133.9869  159.3636 H   0  0  0  0  0  0  0  0  0  0  0  0  # atno 6909 bound_to 6896
  144.8024  140.5186  143.5698 H   0  0  0  0  0  0  0  0  0  0  0  0  # atno 7974 bound_to 7965
  154.5253  140.0778  156.8247 H   0  0  0  0  0  0  0  0  0  0  0  0  # atno 8008 bound_to 7997
  155.3489  140.3411  155.4221 H   0  0  0  0  0  0  0  0  0  0  0  0  # atno 8009 bound_to 7997
  156.1725  140.1624  156.8409 H   0  0  0  0  0  0  0  0  0  0  0  0  # atno 8010 bound_to 7997
  139.5165  144.6442  151.5486 H   0  0  0  0  0  0  0  0  0  0  0  0  # atno 10167 bound_to 10162
  156.0020  130.4661  150.4234 H   0  0  0  0  0  0  0  0  0  0  0  0  # atno 10718 bound_to 10713
  154.1259  135.6527  153.4912 H   0  0  0  0  0  0  0  0  0  0  0  0  # atno 10763 bound_to 10752
  153.0210  135.5281  154.7050 H   0  0  0  0  0  0  0  0  0  0  0  0  # atno 10764 bound_to 10752
  154.6270  135.2971  155.0230 H   0  0  0  0  0  0  0  0  0  0  0  0  # atno 10765 bound_to 10752
  140.7533  134.3382  157.5120 H   0  0  0  0  0  0  0  0  0  0  0  0  # atno 11005 bound_to 11000
  145.5519  139.1477  143.3389 LP  0  0  0  0  0  0  0  0  0  0  0  0  # atno 17320 bound_to 7965
  146.2309  140.5657  142.8976 LP  0  0  0  0  0  0  0  0  0  0  0  0  # atno 17321 bound_to 7965
  140.6220  143.9240  150.6534 LP  0  0  0  0  0  0  0  0  0  0  0  0  # atno 17342 bound_to 10162
  140.2517  143.3588  152.1400 LP  0  0  0  0  0  0  0  0  0  0  0  0  # atno 17343 bound_to 10162
  157.2289  131.0499  151.2504 LP  0  0  0  0  0  0  0  0  0  0  0  0  # atno 17370 bound_to 10713
  157.3730  130.7191  149.6578 LP  0  0  0  0  0  0  0  0  0  0  0  0  # atno 17371 bound_to 10713
  139.8783  134.9156  156.3134 LP  0  0  0  0  0  0  0  0  0  0  0  0  # atno 17394 bound_to 11000
  140.9731  133.7315  156.0563 LP  0  0  0  0  0  0  0  0  0  0  0  0  # atno 17395 bound_to 11000

$$$$
