#       Name:                AV-unprocessed.smi:438
#       Creating user name   scv26
#       Creation time:       Thu Mar 26 22:55:38 2020


#       File generated by GOLD software.
#

@<TRIPOS>MOLECULE
AV-unprocessed.smi:438
    56    57     1
SMALL
NO_CHARGES


@<TRIPOS>ATOM
      1 ****        -1.7574   2.5721  -2.2909 C.3            1 S1                 0.0000
      2 ****        -1.1663   1.1809  -2.4258 C.ar           1 S1                 0.0000
      3 ****         0.1824   1.1127  -2.3824 N.ar           1 S1                 0.0000
      4 ****         0.7229  -0.1013  -2.4738 C.ar           1 S1                 0.0000
      5 ****         2.5011  -0.1589  -2.3768 S.3            1 S1                 0.0000
      6 ****         2.7695  -1.5974  -1.2942 C.3            1 S1                 0.0000
      7 ****         2.1440  -1.4350   0.0910 C.2            1 S1                 0.0000
      8 ****         1.1961  -2.1475   0.4196 O.2            1 S1                 0.0000
      9 ****         2.6821  -0.4909   0.8824 N.am           1 S1                 0.0000
     10 ****         2.2555  -0.1104   2.2326 C.3            1 S1                 0.0000
     11 ****         2.4443  -1.2661   3.2409 C.3            1 S1                 0.0000
     12 ****         2.0790  -0.8265   4.6659 C.3            1 S1                 0.0000
     13 ****         0.6463  -0.2764   4.7191 C.3            1 S1                 0.0000
     14 ****         0.4587   0.8823   3.7268 C.3            1 S1                 0.0000
     15 ****         0.8156   0.4703   2.2837 C.3            1 S1                 0.0000
     16 ****         0.6196   1.6569   1.3235 C.3            1 S1                 0.0000
     17 ****         0.0822  -1.2615  -2.6252 N.ar           1 S1                 0.0000
     18 ****        -1.2659  -1.2111  -2.6716 C.ar           1 S1                 0.0000
     19 ****        -1.9430  -2.3875  -2.8143 O.3            1 S1                 0.0000
     20 ****        -1.9657   0.0177  -2.5735 C.ar           1 S1                 0.0000
     21 ****        -3.4894   0.0686  -2.6263 C.3            1 S1                 0.0000
     22 ****        -4.0445  -0.0621  -4.0539 C.3            1 S1                 0.0000
     23 ****        -3.7851   1.1082  -4.7992 O.3            1 S1                 0.0000
     24 ****        -2.3997   2.8027  -3.1401 H              1 S1                 0.0000
     25 ****        -0.9774   3.3331  -2.2461 H              1 S1                 0.0000
     26 ****        -2.3482   2.6453  -1.3778 H              1 S1                 0.0000
     27 ****         2.3791  -2.4941  -1.7766 H              1 S1                 0.0000
     28 ****         3.8432  -1.7492  -1.1816 H              1 S1                 0.0000
     29 ****         3.4577   0.0331   0.5031 H              1 S1                 0.0000
     30 ****         2.9383   0.6875   2.5278 H              1 S1                 0.0000
     31 ****         1.8232  -2.1191   2.9669 H              1 S1                 0.0000
     32 ****         3.4768  -1.6170   3.2195 H              1 S1                 0.0000
     33 ****         2.1801  -1.6679   5.3520 H              1 S1                 0.0000
     34 ****         2.7793  -0.0627   5.0063 H              1 S1                 0.0000
     35 ****        -0.0614  -1.0737   4.4885 H              1 S1                 0.0000
     36 ****         0.4150   0.0595   5.7305 H              1 S1                 0.0000
     37 ****        -0.5736   1.2314   3.7691 H              1 S1                 0.0000
     38 ****         1.0800   1.7248   4.0340 H              1 S1                 0.0000
     39 ****         0.1136  -0.3099   1.9873 H              1 S1                 0.0000
     40 ****         1.2985   2.4761   1.5618 H              1 S1                 0.0000
     41 ****        -0.3992   2.0412   1.3776 H              1 S1                 0.0000
     42 ****         0.7992   1.3689   0.2891 H              1 S1                 0.0000
     43 ****        -1.3664  -3.1355  -2.8425 H              1 S1                 0.0000
     44 ****        -3.8748  -0.7511  -2.0192 H              1 S1                 0.0000
     45 ****        -3.8699   0.9740  -2.1545 H              1 S1                 0.0000
     46 ****        -3.6261  -0.9289  -4.5663 H              1 S1                 0.0000
     47 ****        -5.1250  -0.2024  -4.0179 H              1 S1                 0.0000
     48 ****        -4.1439   0.9981  -5.6666 H              1 S1                 0.0000
     49 ****         0.7467   1.9327  -2.2865 LP             1 S1                 0.0000
     50 ****         0.8382  -2.8292  -0.2186 LP             1 S1                 0.0000
     51 ****         0.7837  -2.0449   1.3247 LP             1 S1                 0.0000
     52 ****         0.5770  -2.1273  -2.7008 LP             1 S1                 0.0000
     53 ****        -2.4675  -2.3546  -3.6651 LP             1 S1                 0.0000
     54 ****        -2.5683  -2.4935  -2.0412 LP             1 S1                 0.0000
     55 ****        -2.7982   1.2578  -4.8592 LP             1 S1                 0.0000
     56 ****        -4.2149   1.8936  -4.3539 LP             1 S1                 0.0000
@<TRIPOS>BOND
    1    1    2 1     
    2    1   24 1     
    3    1   25 1     
    4    1   26 1     
    5    2   20 ar    
    6    2    3 ar    
    7    3    4 ar    
    8    4    5 1     
    9    4   17 ar    
   10    5    6 1     
   11    6    7 1     
   12    6   27 1     
   13    6   28 1     
   14    7    8 2     
   15    7    9 am    
   16    9   10 1     
   17    9   29 1     
   18   10   15 1     
   19   10   11 1     
   20   10   30 1     
   21   11   12 1     
   22   11   31 1     
   23   11   32 1     
   24   12   13 1     
   25   12   33 1     
   26   12   34 1     
   27   13   14 1     
   28   13   35 1     
   29   13   36 1     
   30   14   15 1     
   31   14   37 1     
   32   14   38 1     
   33   15   16 1     
   34   15   39 1     
   35   16   40 1     
   36   16   41 1     
   37   16   42 1     
   38   17   18 ar    
   39   18   19 1     
   40   18   20 ar    
   41   19   43 1     
   42   20   21 1     
   43   21   22 1     
   44   21   44 1     
   45   21   45 1     
   46   22   23 1     
   47   22   46 1     
   48   22   47 1     
   49   23   48 1     
   50    3   49 1     
   51    8   50 1     
   52    8   51 1     
   53   17   52 1     
   54   19   53 1     
   55   19   54 1     
   56   23   55 1     
   57   23   56 1     
@<TRIPOS>SUBSTRUCTURE
      1 S1             1
@<TRIPOS>SET
LONE_PAIRS      STATIC     ATOMS    <user>   **** ""
8 49 50 51 52 53 54 55 56
DONOR_HYDROGENS      STATIC     ATOMS    <user>   **** ""
3 29 43 48
ATOM$BLUE        STATIC     ATOMS    COLORGROUP SYSTEM
8 49 50 51 52 53 54 55 56
ATOM$RED        STATIC     ATOMS    COLORGROUP SYSTEM
3 29 43 48
