AV-unprocessed.smi:2545|AV-procd|sdf|9996|dock1
  -GOLD-   2272014 43D 1   1.00000     0.00000
 Structure written by MMmdl.
 26 27  0  0  0  0  0  0  0  0  1 V2000
  143.3936  137.9318  152.2988 N   0  0  0  0  0  0  0  0  0  0  0  0
  142.4869  137.0387  152.8731 C   0  0  0  0  0  0  0  0  0  0  0  0
  141.2601  137.5174  153.3739 C   0  0  0  0  0  0  0  0  0  0  0  0
  140.3620  136.5971  153.9488 C   0  0  0  0  0  0  0  0  0  0  0  0
  140.6159  135.2755  154.0458 N   0  0  0  0  0  0  0  0  0  0  0  0
  141.7927  134.8224  153.5644 C   0  0  0  0  0  0  0  0  0  0  0  0
  142.7695  135.6545  152.9666 C   0  0  0  0  0  0  0  0  0  0  0  0
  143.9806  135.1327  152.4823 N   0  0  0  0  0  0  0  0  0  0  0  0
  144.9027  134.7296  153.5363 C   0  0  0  0  0  0  0  0  0  0  0  0
  146.2457  134.2976  152.9218 C   0  0  0  0  0  0  0  0  0  0  0  0
  146.0236  133.2630  151.9672 O   0  0  0  0  0  0  0  0  0  0  0  0
  145.1806  133.6909  150.9007 C   0  0  0  0  0  0  0  0  0  0  0  0
  143.8094  134.1062  151.4620 C   0  0  0  0  0  0  0  0  0  0  0  0
  144.2819  137.6248  151.9298 H   0  0  0  0  0  0  0  0  0  0  0  0
  143.1806  138.9167  152.2290 H   0  0  0  0  0  0  0  0  0  0  0  0
  141.0077  138.5664  153.3212 H   0  0  0  0  0  0  0  0  0  0  0  0
  139.4136  136.9325  154.3419 H   0  0  0  0  0  0  0  0  0  0  0  0
  141.9586  133.7593  153.6617 H   0  0  0  0  0  0  0  0  0  0  0  0
  145.0569  135.5576  154.2296 H   0  0  0  0  0  0  0  0  0  0  0  0
  144.4764  133.9037  154.1074 H   0  0  0  0  0  0  0  0  0  0  0  0
  146.7460  135.1434  152.4474 H   0  0  0  0  0  0  0  0  0  0  0  0
  146.9138  133.9276  153.6995 H   0  0  0  0  0  0  0  0  0  0  0  0
  145.6474  134.5182  150.3635 H   0  0  0  0  0  0  0  0  0  0  0  0
  145.0642  132.8740  150.1884 H   0  0  0  0  0  0  0  0  0  0  0  0
  143.3082  133.2364  151.8890 H   0  0  0  0  0  0  0  0  0  0  0  0
  143.1748  134.4844  150.6595 H   0  0  0  0  0  0  0  0  0  0  0  0
  1  2  1  0  0  0  0
  1 14  1  0  0  0  0
  1 15  1  0  0  0  0
  2  7  1  0  0  0  0
  2  3  2  0  0  0  0
  3  4  1  0  0  0  0
  3 16  1  0  0  0  0
  4  5  2  0  0  0  0
  4 17  1  0  0  0  0
  5  6  1  0  0  0  0
  6  7  2  0  0  0  0
  6 18  1  0  0  0  0
  7  8  1  0  0  0  0
  8 13  1  0  0  0  0
  8  9  1  0  0  0  0
  9 10  1  0  0  0  0
  9 19  1  0  0  0  0
  9 20  1  0  0  0  0
 10 11  1  0  0  0  0
 10 21  1  0  0  0  0
 10 22  1  0  0  0  0
 11 12  1  0  0  0  0
 12 13  1  0  0  0  0
 12 23  1  0  0  0  0
 12 24  1  0  0  0  0
 13 25  1  0  0  0  0
 13 26  1  0  0  0  0
M  END
> <s_m_source_file>
AV-unprocessed.smi

> <i_m_source_file_index>
2545

> <i_lp_mmshare_version>
43012

> <i_f3d_flags>
0

> <s_epik_input>
W05IMl1jMVtjSF1bY0hdbltjSF1jMU4yW0NIMl1bQ0gyXU9bQ0gyXVtDSDJdMg==

> <s_epik_cmdline>
J2VwaWtfcHl0aG9uJywgJy1waCcsICc3LjAnLCAnLXRuJywgJzgnLCAnLW1hJywgJzIwMCcsICctbWV0YWxfYmluZGluZycsICctaW1hZScsICc8aW5maWxlLm1hZT4nLCAnLW9tYWUnLCAnPG91dGZpbGUubWFlPic=

> <r_lp_tautomer_probability>
0.999999

> <r_epik_Ionization_Penalty>
2.28846

> <r_epik_Ionization_Penalty_Charging>
0

> <r_epik_Ionization_Penalty_Neutral>
2.28846

> <r_epik_State_Penalty>
2.43827

> <r_epik_Charging_Adjusted_Penalty>
2.43827

> <i_epik_Tot_Q>
0

> <i_epik_Tot_abs_Q>
0

> <r_epik_Metal_State_Penalty>
0.0346758

> <b_epik_Metal_Only>
0

> <s_lp_Force_Field>
OPLS_2005

> <r_lp_Energy>
24.1362

> <b_lp_Chiralities_Consistent>
1

> <s_lp_Variant>
AV-unprocessed.smi:2545-2

> <Gold.Version>
5.8.1

> <Gold.Id.Protein>
6NUR|6NUR_protein|mol2

> <Gold.PLP.Fitness>
32.4984

> <Gold.PLP.PLP>
-23.6566

> <Gold.PLP.part.hbond>
-3.5558

> <Gold.PLP.part.metal>
0.0000

> <Gold.PLP.part.buried>
-6.2235

> <Gold.PLP.part.nonpolar>
-14.5391

> <Gold.PLP.part.repulsive>
0.4423

> <Gold.PLP.ligand.clash>
0.0000

> <Gold.PLP.ligand.torsion>
0.1351

> <Gold.PLP.Chemscore.Hbond>
2.0000

> <Gold.PLP.Chemscore.CHOScore>
1.0000

> <Gold.PLP.Chemscore.Metal>
0.0000

> <Gold.Chemscore.Hbonds>
donor molecule, donor type, donor heavy atom, donor atom, acceptor molecule, acceptor atom, score
      L1  H     1    15       P1 10175  0.99
      P1  H 11000 11005       L1     5  1.00
      L1  C     6    18       P1 10957  1.00

> <Gold.PLP.Chemscore.Internal.Correction>
0.1119

> <Gold.Rescore>
     Score         DG    S(hbond)    S(metal)    S(lipo)     H(rot)  DE(clash)    DE(int)     intcor
     13.77     -13.86       1.75        0.00      43.47       1.00       0.03       0.06       ----

> <Gold.Chemscore.Fitness>
13.7691

> <Gold.Chemscore.DG>
-13.8597

> <Gold.Chemscore.ZeroCoef>
-5.4800

> <Gold.Chemscore.Hbond>
1.7526

> <Gold.Chemscore.Metal>
0.0000

> <Gold.Chemscore.Lipo>
43.4705

> <Gold.Chemscore.Internal_Hbond>
0.0000

> <Gold.Chemscore.DEClash>
0.0309

> <Gold.Chemscore.DEInternal>
0.0597

> <Gold.Chemscore.Rot>
1.0000

> <Gold.Chemscore.Internal.Correction>
   9.000000E+99

> <Gold.Chemscore.Hbonds>
donor molecule, donor type, donor heavy atom, donor atom, acceptor molecule, acceptor atom, score
      L1  H     1    15       P1 10175  0.93
      P1  H 11000 11005       L1     5  0.73

> <Gold.Chemscore.Hbond.Weighted>
-5.8536

> <Gold.Chemscore.Metal.Weighted>
-0.0000

> <Gold.Chemscore.Lipo.Weighted>
-5.0861

> <Gold.Chemscore.Internal_Hbond.Weighted>
0.0000

> <Gold.Chemscore.DEClash.Weighted>
0.0309

> <Gold.Chemscore.DEInternal.Weighted>
0.0597

> <Gold.Chemscore.Rot.Weighted>
2.5600

> <Gold.Chemscore.Internal.Correction.Weighted>
   9.000000E+99

> <Gold.Protein.RotatedTorsions>
[ 6907 6896 6895 6894 ] final   89.38 input  -60.11 | X-H torsion
[ 7974 7965 7964 7962 ] final   12.93 input  175.53 | X-H torsion
[ 8008 7997 7996 7995 ] final -110.83 input   59.86 | X-H torsion
[ 10167 10162 10161 10158 ] final  -87.37 input  -65.29 | X-H torsion
[ 10718 10713 10712 10709 ] final -170.53 input   66.30 | X-H torsion
[ 10763 10752 10751 10750 ] final   47.81 input  -60.55 | X-H torsion
[ 11005 11000 10999 10996 ] final   47.02 input  -57.11 | X-H torsion

> <Gold.Protein.ActiveResidues>
 VAL166  LYS551  ARG553  GLY616  TRP617  ASP618  TYR619  PRO620  LYS621  CYS622 
 ASP623  PHE694  ASN695  SER759  ASP760  ASP761  ALA762  ILE779  LEU786  VAL792 
 PHE793  MET794  SER795  GLU796  ALA797  LYS798  CYS799  TRP800  GLU811  SER814 

> <Gold.Protein.RotatedAtoms>
  152.5435  134.1976  159.8698 H   0  0  0  0  0  0  0  0  0  0  0  0  # atno 6907 bound_to 6896
  151.1967  133.4628  159.2603 H   0  0  0  0  0  0  0  0  0  0  0  0  # atno 6908 bound_to 6896
  151.1030  134.9995  159.8513 H   0  0  0  0  0  0  0  0  0  0  0  0  # atno 6909 bound_to 6896
  146.2340  139.9263  142.8502 H   0  0  0  0  0  0  0  0  0  0  0  0  # atno 7974 bound_to 7965
  154.9805  140.0396  157.2275 H   0  0  0  0  0  0  0  0  0  0  0  0  # atno 8008 bound_to 7997
  154.7718  140.2803  155.6109 H   0  0  0  0  0  0  0  0  0  0  0  0  # atno 8009 bound_to 7997
  156.2922  140.2608  156.2523 H   0  0  0  0  0  0  0  0  0  0  0  0  # atno 8010 bound_to 7997
  140.3851  143.2730  151.9335 H   0  0  0  0  0  0  0  0  0  0  0  0  # atno 10167 bound_to 10162
  156.7275  130.9294  151.3102 H   0  0  0  0  0  0  0  0  0  0  0  0  # atno 10718 bound_to 10713
  152.9797  135.5964  154.3823 H   0  0  0  0  0  0  0  0  0  0  0  0  # atno 10763 bound_to 10752
  154.3486  135.2767  155.2386 H   0  0  0  0  0  0  0  0  0  0  0  0  # atno 10764 bound_to 10752
  154.4435  135.6007  153.6200 H   0  0  0  0  0  0  0  0  0  0  0  0  # atno 10765 bound_to 10752
  140.1316  134.4698  155.8517 H   0  0  0  0  0  0  0  0  0  0  0  0  # atno 11005 bound_to 11000
  145.2087  140.9886  143.4113 LP  0  0  0  0  0  0  0  0  0  0  0  0  # atno 17320 bound_to 7965
  144.9710  139.3880  143.6309 LP  0  0  0  0  0  0  0  0  0  0  0  0  # atno 17321 bound_to 7965
  139.4792  144.5782  151.7977 LP  0  0  0  0  0  0  0  0  0  0  0  0  # atno 17342 bound_to 10162
  140.4898  144.1327  150.5948 LP  0  0  0  0  0  0  0  0  0  0  0  0  # atno 17343 bound_to 10162
  157.6872  130.9198  150.0419 LP  0  0  0  0  0  0  0  0  0  0  0  0  # atno 17370 bound_to 10713
  156.1552  130.3643  149.9380 LP  0  0  0  0  0  0  0  0  0  0  0  0  # atno 17371 bound_to 10713
  141.2171  133.6798  156.7080 LP  0  0  0  0  0  0  0  0  0  0  0  0  # atno 17394 bound_to 11000
  140.2835  134.8298  157.3954 LP  0  0  0  0  0  0  0  0  0  0  0  0  # atno 17395 bound_to 11000

$$$$
