AV-unprocessed.smi:109|AV-procd|sdf|1048|dock5
  -GOLD-   2262018 93D 1   1.00000     0.00000
 Structure written by MMmdl.
 58 61  0  0  0  0  0  0  0  0  1 V2000
  148.3161  142.7651  154.9451 O   0  0  0  0  0  0  0  0  0  0  0  0
  149.4327  141.9438  155.2104 C   0  0  0  0  0  0  0  0  0  0  0  0
  149.4852  141.5958  156.7085 C   0  0  0  0  0  0  0  0  0  0  0  0
  150.8551  141.0534  157.1858 C   0  0  1  0  0  0  0  0  0  0  0  0
  151.5304  140.3868  156.0696 N   0  0  0  0  0  0  0  0  0  0  0  0
  151.6008  139.0402  155.9745 C   0  0  0  0  0  0  0  0  0  0  0  0
  150.6438  138.3222  155.3307 N   0  0  0  0  0  0  0  0  0  0  0  0
  150.7460  136.9922  155.2470 C   0  0  0  0  0  0  0  0  0  0  0  0
  151.7058  136.1971  155.7256 N   0  0  0  0  0  0  0  0  0  0  0  0
  152.6682  136.9153  156.3737 C   0  0  0  0  0  0  0  0  0  0  0  0
  152.6880  138.3271  156.5413 C   0  0  0  0  0  0  0  0  0  0  0  0
  153.8257  138.7009  157.2442 N   0  0  0  0  0  0  0  0  0  0  0  0
  154.4430  137.5717  157.4688 C   0  0  0  0  0  0  0  0  0  0  0  0
  153.8150  136.4471  156.9767 N   0  0  0  0  0  0  0  0  0  0  0  0
  154.2465  135.0127  157.0426 C   0  0  2  0  0  0  0  0  0  0  0  0
  154.4147  134.6906  158.3904 O   0  0  0  0  0  0  0  0  0  0  0  0
  155.7776  134.3851  158.6751 C   0  0  2  0  0  0  0  0  0  0  0  0
  156.1605  134.9505  160.0527 C   0  0  0  0  0  0  0  0  0  0  0  0
  155.7278  136.2878  160.1801 O   0  0  0  0  0  0  0  0  0  0  0  0
  156.5780  134.9524  157.4967 C   0  0  1  0  0  0  0  0  0  0  0  0
  157.7412  134.1846  157.2606 O   0  0  0  0  0  0  0  0  0  0  0  0
  155.6023  134.7976  156.3425 C   0  0  2  0  0  0  0  0  0  0  0  0
  155.8848  135.7308  155.3145 O   0  0  0  0  0  0  0  0  0  0  0  0
  151.7908  142.1471  157.7761 C   0  0  0  0  0  0  0  0  0  0  0  0
  152.8841  141.5132  158.6741 C   0  0  0  0  0  0  0  0  0  0  0  0
  153.8294  142.5610  159.2822 C   0  0  0  0  0  0  0  0  0  0  0  0
  153.0498  143.6111  160.0822 C   0  0  0  0  0  0  0  0  0  0  0  0
  151.9809  144.2718  159.2040 C   0  0  0  0  0  0  0  0  0  0  0  0
  151.0343  143.2280  158.5887 C   0  0  0  0  0  0  0  0  0  0  0  0
  153.4235  134.4522  156.5976 H   0  0  0  0  0  0  0  0  0  0  0  0
  155.8468  133.2954  158.6837 H   0  0  0  0  0  0  0  0  0  0  0  0
  156.8274  136.0015  157.6644 H   0  0  0  0  0  0  0  0  0  0  0  0
  155.6175  133.7798  155.9494 H   0  0  0  0  0  0  0  0  0  0  0  0
  148.5217  143.6485  155.2107 H   0  0  0  0  0  0  0  0  0  0  0  0
  149.3564  141.0383  154.6081 H   0  0  0  0  0  0  0  0  0  0  0  0
  150.3320  142.4726  154.8945 H   0  0  0  0  0  0  0  0  0  0  0  0
  149.2081  142.4696  157.3002 H   0  0  0  0  0  0  0  0  0  0  0  0
  148.7133  140.8480  156.8830 H   0  0  0  0  0  0  0  0  0  0  0  0
  150.6587  140.3496  157.9939 H   0  0  0  0  0  0  0  0  0  0  0  0
  151.8118  140.9948  155.3139 H   0  0  0  0  0  0  0  0  0  0  0  0
  149.9451  136.4952  154.7194 H   0  0  0  0  0  0  0  0  0  0  0  0
  155.3818  137.5341  157.9997 H   0  0  0  0  0  0  0  0  0  0  0  0
  155.7386  134.3523  160.8599 H   0  0  0  0  0  0  0  0  0  0  0  0
  157.2439  134.9351  160.1735 H   0  0  0  0  0  0  0  0  0  0  0  0
  156.4250  136.7940  160.5687 H   0  0  0  0  0  0  0  0  0  0  0  0
  158.0855  133.9025  158.0944 H   0  0  0  0  0  0  0  0  0  0  0  0
  156.7964  135.6490  155.0783 H   0  0  0  0  0  0  0  0  0  0  0  0
  152.2880  142.6498  156.9448 H   0  0  0  0  0  0  0  0  0  0  0  0
  152.4124  140.9441  159.4765 H   0  0  0  0  0  0  0  0  0  0  0  0
  153.4829  140.7994  158.1080 H   0  0  0  0  0  0  0  0  0  0  0  0
  154.5600  142.0714  159.9266 H   0  0  0  0  0  0  0  0  0  0  0  0
  154.3949  143.0492  158.4875 H   0  0  0  0  0  0  0  0  0  0  0  0
  152.5776  143.1409  160.9458 H   0  0  0  0  0  0  0  0  0  0  0  0
  153.7320  144.3664  160.4735 H   0  0  0  0  0  0  0  0  0  0  0  0
  151.4088  144.9891  159.7934 H   0  0  0  0  0  0  0  0  0  0  0  0
  152.4628  144.8416  158.4084 H   0  0  0  0  0  0  0  0  0  0  0  0
  150.3273  143.7634  157.9572 H   0  0  0  0  0  0  0  0  0  0  0  0
  150.4508  142.7539  159.3791 H   0  0  0  0  0  0  0  0  0  0  0  0
  1  2  1  0  0  0  0
  1 34  1  0  0  0  0
  2  3  1  0  0  0  0
  2 35  1  0  0  0  0
  2 36  1  0  0  0  0
  3  4  1  0  0  0  0
  3 37  1  0  0  0  0
  3 38  1  0  0  0  0
  4  5  1  0  0  0  0
  4 24  1  0  0  0  0
  4 39  1  0  0  0  0
  5  6  1  0  0  0  0
  5 40  1  0  0  0  0
  6 11  1  0  0  0  0
  6  7  2  0  0  0  0
  7  8  1  0  0  0  0
  8  9  2  0  0  0  0
  8 41  1  0  0  0  0
  9 10  1  0  0  0  0
 10 14  1  0  0  0  0
 10 11  2  0  0  0  0
 11 12  1  0  0  0  0
 12 13  2  0  0  0  0
 13 14  1  0  0  0  0
 13 42  1  0  0  0  0
 14 15  1  0  0  0  0
 15 30  1  0  0  0  0
 15 22  1  0  0  0  0
 15 16  1  0  0  0  0
 16 17  1  0  0  0  0
 17 31  1  0  0  0  0
 17 18  1  0  0  0  0
 17 20  1  0  0  0  0
 18 19  1  0  0  0  0
 18 43  1  0  0  0  0
 18 44  1  0  0  0  0
 19 45  1  0  0  0  0
 20 32  1  0  0  0  0
 20 21  1  0  0  0  0
 20 22  1  0  0  0  0
 21 46  1  0  0  0  0
 22 33  1  0  0  0  0
 22 23  1  0  0  0  0
 23 47  1  0  0  0  0
 24 29  1  0  0  0  0
 24 25  1  0  0  0  0
 24 48  1  0  0  0  0
 25 26  1  0  0  0  0
 25 49  1  0  0  0  0
 25 50  1  0  0  0  0
 26 27  1  0  0  0  0
 26 51  1  0  0  0  0
 26 52  1  0  0  0  0
 27 28  1  0  0  0  0
 27 53  1  0  0  0  0
 27 54  1  0  0  0  0
 28 29  1  0  0  0  0
 28 55  1  0  0  0  0
 28 56  1  0  0  0  0
 29 57  1  0  0  0  0
 29 58  1  0  0  0  0
M  END
> <s_m_source_file>
AV-unprocessed.smi

> <i_m_source_file_index>
109

> <i_lp_mmshare_version>
43012

> <i_f3d_flags>
0

> <s_epik_input>
W0NIMl0xW0NIMl1bQ0gyXVtDSDJdW0NIMl1bQ0hdMVtDQEhdKFtDSDJdW0NIMl1bT0hdKVtOSF1jKG5bY0hdbjIpYyhjMjMpbltjSF1uM1tDQEBIXTRPW0NASF0oW0NIMl1bT0hdKVtDQEBIXShbT0hdKVtDQEhdNFtPSF0=

> <s_epik_cmdline>
J2VwaWtfcHl0aG9uJywgJy1waCcsICc3LjAnLCAnLXRuJywgJzgnLCAnLW1hJywgJzIwMCcsICctbWV0YWxfYmluZGluZycsICctaW1hZScsICc8aW5maWxlLm1hZT4nLCAnLW9tYWUnLCAnPG91dGZpbGUubWFlPic=

> <r_lp_tautomer_probability>
1

> <r_epik_Ionization_Penalty>
0.000793976

> <r_epik_Ionization_Penalty_Charging>
0

> <r_epik_Ionization_Penalty_Neutral>
0.000793976

> <r_epik_State_Penalty>
-0

> <r_epik_Charging_Adjusted_Penalty>
0

> <i_epik_Tot_Q>
0

> <i_epik_Tot_abs_Q>
0

> <r_epik_Metal_State_Penalty>
-0

> <b_epik_Metal_Only>
0

> <s_epik_Chemistry_Notes>
This compound contains an acetal/aminal-like group ( X-CH(R)-Y where X, Y are N, S, or O) that may be acid/base labile, releasing an aldehyde.

> <s_lp_Force_Field>
OPLS_2005

> <r_lp_Energy>
53.2153

> <b_lp_Chiralities_Consistent>
1

> <s_lp_Variant>
AV-unprocessed.smi:109-18

> <Gold.Version>
5.8.1

> <Gold.Id.Protein>
6NUR|6NUR_protein|mol2

> <Gold.PLP.Fitness>
50.1526

> <Gold.PLP.PLP>
-38.7560

> <Gold.PLP.part.hbond>
-6.0000

> <Gold.PLP.part.metal>
0.0000

> <Gold.PLP.part.buried>
-5.6611

> <Gold.PLP.part.nonpolar>
-27.7071

> <Gold.PLP.part.repulsive>
0.1995

> <Gold.PLP.ligand.clash>
0.0000

> <Gold.PLP.ligand.torsion>
1.8849

> <Gold.PLP.Chemscore.Hbond>
5.0000

> <Gold.PLP.Chemscore.CHOScore>
0.0000

> <Gold.PLP.Chemscore.Metal>
0.0000

> <Gold.Chemscore.Hbonds>
donor molecule, donor type, donor heavy atom, donor atom, acceptor molecule, acceptor atom, score
      L1  H     1    34       P1  8028  0.16
      P1  H  6896  6908       L1    16  0.04
      P1  H  7997  8009       L1    12  0.70
      P1  H 10752 10764       L1     9  0.25

> <Gold.PLP.Chemscore.Internal.Correction>
0.1663

> <Gold.Rescore>
     Score         DG    S(hbond)    S(metal)    S(lipo)     H(rot)  DE(clash)    DE(int)     intcor
     12.35     -14.68       3.57        0.00      96.32       5.47       0.67       1.66       ----

> <Gold.Chemscore.Fitness>
12.3485

> <Gold.Chemscore.DG>
-14.6764

> <Gold.Chemscore.ZeroCoef>
-5.4800

> <Gold.Chemscore.Hbond>
3.5691

> <Gold.Chemscore.Metal>
0.0000

> <Gold.Chemscore.Lipo>
96.3172

> <Gold.Chemscore.Internal_Hbond>
0.0000

> <Gold.Chemscore.DEClash>
0.6703

> <Gold.Chemscore.DEInternal>
1.6576

> <Gold.Chemscore.Rot>
5.4662

> <Gold.Chemscore.Internal.Correction>
   9.000000E+99

> <Gold.Chemscore.Hbonds>
donor molecule, donor type, donor heavy atom, donor atom, acceptor molecule, acceptor atom, score
      L1  H     1    34       P1  8028  0.17
      P1  H  6896  6908       L1    16  0.08
      P1  H  7997  8009       L1    12  0.61

> <Gold.Chemscore.Hbond.Weighted>
-11.9208

> <Gold.Chemscore.Metal.Weighted>
-0.0000

> <Gold.Chemscore.Lipo.Weighted>
-11.2691

> <Gold.Chemscore.Internal_Hbond.Weighted>
0.0000

> <Gold.Chemscore.DEClash.Weighted>
0.6703

> <Gold.Chemscore.DEInternal.Weighted>
1.6576

> <Gold.Chemscore.Rot.Weighted>
13.9935

> <Gold.Chemscore.Internal.Correction.Weighted>
   9.000000E+99

> <Gold.Protein.RotatedTorsions>
[ 6907 6896 6895 6894 ] final  -44.82 input  -60.11 | X-H torsion
[ 7974 7965 7964 7962 ] final   35.61 input  175.53 | X-H torsion
[ 8008 7997 7996 7995 ] final  138.90 input   59.86 | X-H torsion
[ 10167 10162 10161 10158 ] final  -61.54 input  -65.29 | X-H torsion
[ 10718 10713 10712 10709 ] final   91.68 input   66.30 | X-H torsion
[ 10763 10752 10751 10750 ] final  -43.09 input  -60.55 | X-H torsion
[ 11005 11000 10999 10996 ] final  -34.56 input  -57.11 | X-H torsion

> <Gold.Protein.ActiveResidues>
 VAL166  LYS551  ARG553  GLY616  TRP617  ASP618  TYR619  PRO620  LYS621  CYS622 
 ASP623  PHE694  ASN695  SER759  ASP760  ASP761  ALA762  ILE779  LEU786  VAL792 
 PHE793  MET794  SER795  GLU796  ALA797  LYS798  CYS799  TRP800  GLU811  SER814 

> <Gold.Protein.RotatedAtoms>
  150.9286  134.8702  159.7536 H   0  0  0  0  0  0  0  0  0  0  0  0  # atno 6907 bound_to 6896
  152.5027  134.4112  159.9459 H   0  0  0  0  0  0  0  0  0  0  0  0  # atno 6908 bound_to 6896
  151.4141  133.3678  159.2782 H   0  0  0  0  0  0  0  0  0  0  0  0  # atno 6909 bound_to 6896
  146.1270  139.6121  142.9251 H   0  0  0  0  0  0  0  0  0  0  0  0  # atno 7974 bound_to 7965
  156.2994  140.2381  156.4149 H   0  0  0  0  0  0  0  0  0  0  0  0  # atno 8008 bound_to 7997
  154.8407  140.0428  157.1560 H   0  0  0  0  0  0  0  0  0  0  0  0  # atno 8009 bound_to 7997
  154.9105  140.2990  155.5272 H   0  0  0  0  0  0  0  0  0  0  0  0  # atno 8010 bound_to 7997
  140.5999  143.2359  151.5952 H   0  0  0  0  0  0  0  0  0  0  0  0  # atno 10167 bound_to 10162
  157.6960  131.0416  150.3766 H   0  0  0  0  0  0  0  0  0  0  0  0  # atno 10718 bound_to 10713
  153.9898  135.6707  153.4753 H   0  0  0  0  0  0  0  0  0  0  0  0  # atno 10763 bound_to 10752
  153.0710  135.4974  154.8301 H   0  0  0  0  0  0  0  0  0  0  0  0  # atno 10764 bound_to 10752
  154.7116  135.3098  154.9151 H   0  0  0  0  0  0  0  0  0  0  0  0  # atno 10765 bound_to 10752
  140.9726  133.7101  156.1548 H   0  0  0  0  0  0  0  0  0  0  0  0  # atno 11005 bound_to 11000
  145.5343  141.0425  143.2366 LP  0  0  0  0  0  0  0  0  0  0  0  0  # atno 17320 bound_to 7965
  144.7653  139.6861  143.7217 LP  0  0  0  0  0  0  0  0  0  0  0  0  # atno 17321 bound_to 7965
  139.5284  144.2990  152.1089 LP  0  0  0  0  0  0  0  0  0  0  0  0  # atno 17342 bound_to 10162
  140.2169  144.4506  150.6360 LP  0  0  0  0  0  0  0  0  0  0  0  0  # atno 17343 bound_to 10162
  156.4185  130.3948  149.6842 LP  0  0  0  0  0  0  0  0  0  0  0  0  # atno 17370 bound_to 10713
  156.4101  130.7718  151.2730 LP  0  0  0  0  0  0  0  0  0  0  0  0  # atno 17371 bound_to 10713
  140.7307  134.4258  157.5566 LP  0  0  0  0  0  0  0  0  0  0  0  0  # atno 17394 bound_to 11000
  139.8918  134.8771  156.2302 LP  0  0  0  0  0  0  0  0  0  0  0  0  # atno 17395 bound_to 11000

$$$$
