AV-unprocessed.smi:2243|AV-procd|sdf|9068|dock3
  -GOLD-   2272012273D 1   1.00000     0.00000
 Structure written by MMmdl.
 34 35  0  0  0  0  0  0  0  0  1 V2000
  149.0063  134.8937  155.5344 C   0  0  0  0  0  0  0  0  0  0  0  0
  150.0505  135.8332  156.1616 C   0  0  2  0  0  0  0  0  0  0  0  0
  149.4579  136.4288  157.3603 N   0  0  0  0  0  0  0  0  0  0  0  0
  149.0201  135.7737  158.4471 C   0  0  0  0  0  0  0  0  0  0  0  0
  149.0858  134.5435  158.5354 O   0  0  0  0  0  0  0  0  0  0  0  0
  148.5285  136.6797  159.3763 N   0  0  0  0  0  0  0  0  0  0  0  0
  148.0232  136.2580  160.4952 C   0  0  0  0  0  0  0  0  0  0  0  0
  147.8371  134.9883  161.0355 N   0  0  0  0  0  0  0  0  0  0  0  0
  147.2507  135.1283  162.2622 C   0  0  0  0  0  0  0  0  0  0  0  0
  147.0741  136.4264  162.4883 C   0  0  0  0  0  0  0  0  0  0  0  0
  147.5364  137.1422  161.4249 O   0  0  0  0  0  0  0  0  0  0  0  0
  150.5421  136.9410  155.1922 C   0  0  0  0  0  0  0  0  0  0  0  0
  151.8721  137.5780  155.6440 C   0  0  0  0  0  0  0  0  0  0  0  0
  152.2925  138.7216  154.7064 C   0  0  0  0  0  0  0  0  0  0  0  0
  151.2649  139.7022  154.6407 O   0  0  0  0  0  0  0  0  0  0  0  0
  150.0521  139.1884  154.1047 C   0  0  0  0  0  0  0  0  0  0  0  0
  149.5077  138.0729  155.0109 C   0  0  0  0  0  0  0  0  0  0  0  0
  149.4260  134.3113  154.7149 H   0  0  0  0  0  0  0  0  0  0  0  0
  148.1515  135.4502  155.1486 H   0  0  0  0  0  0  0  0  0  0  0  0
  148.6325  134.1795  156.2690 H   0  0  0  0  0  0  0  0  0  0  0  0
  150.9112  135.2218  156.4374 H   0  0  0  0  0  0  0  0  0  0  0  0
  149.3742  137.4351  157.3637 H   0  0  0  0  0  0  0  0  0  0  0  0
  148.0759  134.0951  160.6288 H   0  0  0  0  0  0  0  0  0  0  0  0
  147.0157  134.2594  162.8590 H   0  0  0  0  0  0  0  0  0  0  0  0
  146.6533  136.9760  163.3173 H   0  0  0  0  0  0  0  0  0  0  0  0
  150.7064  136.4841  154.2148 H   0  0  0  0  0  0  0  0  0  0  0  0
  151.7721  137.9619  156.6600 H   0  0  0  0  0  0  0  0  0  0  0  0
  152.6690  136.8355  155.6670 H   0  0  0  0  0  0  0  0  0  0  0  0
  153.2028  139.1926  155.0773 H   0  0  0  0  0  0  0  0  0  0  0  0
  152.5151  138.3439  153.7071 H   0  0  0  0  0  0  0  0  0  0  0  0
  149.3276  140.0000  154.0349 H   0  0  0  0  0  0  0  0  0  0  0  0
  150.2158  138.8207  153.0905 H   0  0  0  0  0  0  0  0  0  0  0  0
  148.5832  137.6892  154.5792 H   0  0  0  0  0  0  0  0  0  0  0  0
  149.2459  138.4918  155.9834 H   0  0  0  0  0  0  0  0  0  0  0  0
  1  2  1  0  0  0  0
  1 18  1  0  0  0  0
  1 19  1  0  0  0  0
  1 20  1  0  0  0  0
  2  3  1  0  0  0  0
  2 12  1  0  0  0  0
  2 21  1  0  0  0  0
  3 22  1  0  0  0  0
  3  4  1  0  0  0  0
  4  6  1  0  0  0  0
  4  5  2  0  0  0  0
  6  7  2  0  0  0  0
  7 11  1  0  0  0  0
  7  8  1  0  0  0  0
  8 23  1  0  0  0  0
  8  9  1  0  0  0  0
  9 24  1  0  0  0  0
  9 10  2  0  0  0  0
 10 25  1  0  0  0  0
 10 11  1  0  0  0  0
 12 17  1  0  0  0  0
 12 13  1  0  0  0  0
 12 26  1  0  0  0  0
 13 14  1  0  0  0  0
 13 27  1  0  0  0  0
 13 28  1  0  0  0  0
 14 15  1  0  0  0  0
 14 29  1  0  0  0  0
 14 30  1  0  0  0  0
 15 16  1  0  0  0  0
 16 17  1  0  0  0  0
 16 31  1  0  0  0  0
 16 32  1  0  0  0  0
 17 33  1  0  0  0  0
 17 34  1  0  0  0  0
M  END
> <s_m_source_file>
AV-unprocessed.smi

> <i_m_source_file_index>
2243

> <i_lp_mmshare_version>
43012

> <i_f3d_flags>
0

> <s_epik_input>
W0NIMl0xW0NIMl1PW0NIMl1bQ0gyXVtDSF0xW0NASF0oW0NIM10pW05IXUMoPU8pW05IXWMybltjSF1bY0hdbzI=

> <s_epik_cmdline>
J2VwaWtfcHl0aG9uJywgJy1waCcsICc3LjAnLCAnLXRuJywgJzgnLCAnLW1hJywgJzIwMCcsICctbWV0YWxfYmluZGluZycsICctaW1hZScsICc8aW5maWxlLm1hZT4nLCAnLW9tYWUnLCAnPG91dGZpbGUubWFlPic=

> <r_lp_tautomer_probability>
0.107061

> <r_epik_Ionization_Penalty>
1.44639

> <r_epik_Ionization_Penalty_Charging>
1.44602

> <r_epik_Ionization_Penalty_Neutral>
0.000368208

> <r_epik_State_Penalty>
2.61815

> <r_epik_Charging_Adjusted_Penalty>
4.06418

> <i_epik_Tot_Q>
0

> <i_epik_Tot_abs_Q>
0

> <r_epik_Metal_State_Penalty>
3.54171

> <b_epik_Metal_Only>
0

> <s_lp_Force_Field>
OPLS_2005

> <r_lp_Energy>
34.9147

> <b_lp_Chiralities_Consistent>
1

> <s_lp_Variant>
AV-unprocessed.smi:2243-7

> <Gold.Version>
5.8.1

> <Gold.Id.Protein>
6NUR|6NUR_protein|mol2

> <Gold.PLP.Fitness>
39.5187

> <Gold.PLP.PLP>
-28.5326

> <Gold.PLP.part.hbond>
-4.0000

> <Gold.PLP.part.metal>
0.0000

> <Gold.PLP.part.buried>
-3.8897

> <Gold.PLP.part.nonpolar>
-21.0596

> <Gold.PLP.part.repulsive>
0.2068

> <Gold.PLP.ligand.clash>
0.0000

> <Gold.PLP.ligand.torsion>
0.2748

> <Gold.PLP.Chemscore.Hbond>
3.8400

> <Gold.PLP.Chemscore.CHOScore>
0.0000

> <Gold.PLP.Chemscore.Metal>
0.0000

> <Gold.Chemscore.Hbonds>
donor molecule, donor type, donor heavy atom, donor atom, acceptor molecule, acceptor atom, score
      P1  H  6896  6908       L1     5  1.00
      P1  H  6931  6943       L1    11  0.96
      P1  H  6934  6947       L1    11  0.88
      P1  H  7989  7998       L1    15  1.00

> <Gold.PLP.Chemscore.Internal.Correction>
0.0158

> <Gold.Rescore>
     Score         DG    S(hbond)    S(metal)    S(lipo)     H(rot)  DE(clash)    DE(int)     intcor
     16.92     -17.37       2.58        0.00      56.89       1.32       0.12       0.33       ----

> <Gold.Chemscore.Fitness>
16.9219

> <Gold.Chemscore.DG>
-17.3709

> <Gold.Chemscore.ZeroCoef>
-5.4800

> <Gold.Chemscore.Hbond>
2.5790

> <Gold.Chemscore.Metal>
0.0000

> <Gold.Chemscore.Lipo>
56.8915

> <Gold.Chemscore.Internal_Hbond>
0.0000

> <Gold.Chemscore.DEClash>
0.1166

> <Gold.Chemscore.DEInternal>
0.3324

> <Gold.Chemscore.Rot>
1.3201

> <Gold.Chemscore.Internal.Correction>
   9.000000E+99

> <Gold.Chemscore.Hbonds>
donor molecule, donor type, donor heavy atom, donor atom, acceptor molecule, acceptor atom, score
      P1  H  6896  6908       L1     5  0.55
      P1  H  6931  6943       L1    11  0.42
      P1  H  6934  6947       L1    11  0.84
      P1  H  7989  7998       L1    15  0.22

> <Gold.Chemscore.Hbond.Weighted>
-8.6140

> <Gold.Chemscore.Metal.Weighted>
-0.0000

> <Gold.Chemscore.Lipo.Weighted>
-6.6563

> <Gold.Chemscore.Internal_Hbond.Weighted>
0.0000

> <Gold.Chemscore.DEClash.Weighted>
0.1166

> <Gold.Chemscore.DEInternal.Weighted>
0.3324

> <Gold.Chemscore.Rot.Weighted>
3.3794

> <Gold.Chemscore.Internal.Correction.Weighted>
   9.000000E+99

> <Gold.Protein.RotatedTorsions>
[ 6907 6896 6895 6894 ] final  145.48 input  -60.11 | X-H torsion
[ 7974 7965 7964 7962 ] final  -40.00 input  175.53 | X-H torsion
[ 8008 7997 7996 7995 ] final  -26.96 input   59.86 | X-H torsion
[ 10167 10162 10161 10158 ] final   81.51 input  -65.29 | X-H torsion
[ 10718 10713 10712 10709 ] final  -74.17 input   66.30 | X-H torsion
[ 10763 10752 10751 10750 ] final   35.70 input  -60.55 | X-H torsion
[ 11005 11000 10999 10996 ] final  125.16 input  -57.11 | X-H torsion

> <Gold.Protein.ActiveResidues>
 VAL166  LYS551  ARG553  GLY616  TRP617  ASP618  TYR619  PRO620  LYS621  CYS622 
 ASP623  PHE694  ASN695  SER759  ASP760  ASP761  ALA762  ILE779  LEU786  VAL792 
 PHE793  MET794  SER795  GLU796  ALA797  LYS798  CYS799  TRP800  GLU811  SER814 

> <Gold.Protein.RotatedAtoms>
  152.1804  133.4703  159.4954 H   0  0  0  0  0  0  0  0  0  0  0  0  # atno 6907 bound_to 6896
  150.6933  134.1841  159.4269 H   0  0  0  0  0  0  0  0  0  0  0  0  # atno 6908 bound_to 6896
  151.9752  135.0056  160.0605 H   0  0  0  0  0  0  0  0  0  0  0  0  # atno 6909 bound_to 6896
  146.0345  140.6689  142.9117 H   0  0  0  0  0  0  0  0  0  0  0  0  # atno 7974 bound_to 7965
  154.4400  140.1885  156.0856 H   0  0  0  0  0  0  0  0  0  0  0  0  # atno 8008 bound_to 7997
  156.0405  140.3320  155.7212 H   0  0  0  0  0  0  0  0  0  0  0  0  # atno 8009 bound_to 7997
  155.5707  140.0612  157.2798 H   0  0  0  0  0  0  0  0  0  0  0  0  # atno 8010 bound_to 7997
  139.9385  144.6106  150.8275 H   0  0  0  0  0  0  0  0  0  0  0  0  # atno 10167 bound_to 10162
  156.0252  130.4411  150.2852 H   0  0  0  0  0  0  0  0  0  0  0  0  # atno 10718 bound_to 10713
  153.0108  135.6326  154.1869 H   0  0  0  0  0  0  0  0  0  0  0  0  # atno 10763 bound_to 10752
  154.1611  135.2823  155.3110 H   0  0  0  0  0  0  0  0  0  0  0  0  # atno 10764 bound_to 10752
  154.5981  135.5596  153.7406 H   0  0  0  0  0  0  0  0  0  0  0  0  # atno 10765 bound_to 10752
  139.9393  134.9637  156.8517 H   0  0  0  0  0  0  0  0  0  0  0  0  # atno 11005 bound_to 11000
  144.7045  140.3796  143.7129 LP  0  0  0  0  0  0  0  0  0  0  0  0  # atno 17320 bound_to 7965
  145.6986  139.1656  143.2605 LP  0  0  0  0  0  0  0  0  0  0  0  0  # atno 17321 bound_to 7965
  140.7618  143.3182  151.2683 LP  0  0  0  0  0  0  0  0  0  0  0  0  # atno 17342 bound_to 10162
  139.6724  143.9997  152.2761 LP  0  0  0  0  0  0  0  0  0  0  0  0  # atno 17343 bound_to 10162
  157.0955  131.0181  151.3105 LP  0  0  0  0  0  0  0  0  0  0  0  0  # atno 17370 bound_to 10713
  157.4821  130.7771  149.7424 LP  0  0  0  0  0  0  0  0  0  0  0  0  # atno 17371 bound_to 10713
  140.5993  134.0187  155.7530 LP  0  0  0  0  0  0  0  0  0  0  0  0  # atno 17394 bound_to 11000
  141.1021  133.9752  157.3061 LP  0  0  0  0  0  0  0  0  0  0  0  0  # atno 17395 bound_to 11000

$$$$
