AV-unprocessed.smi:287|AV-procd|sdf|2180|dock4
  -GOLD-   2262021553D 1   1.00000     0.00000
 Structure written by MMmdl.
 55 58  0  0  0  0  0  0  0  0  1 V2000
  151.8792  142.8151  158.3118 C   0  0  0  0  0  0  0  0  0  0  0  0
  150.8769  142.2407  157.3703 C   0  0  0  0  0  0  0  0  0  0  0  0
  150.9708  141.5481  156.1987 C   0  0  0  0  0  0  0  0  0  0  0  0
  149.6421  141.2642  155.7632 C   0  0  0  0  0  0  0  0  0  0  0  0
  149.2587  140.5109  154.4964 C   0  0  2  0  0  0  0  0  0  0  0  0
  149.8141  139.0784  154.5557 C   0  0  0  0  0  0  0  0  0  0  0  0
  149.8160  141.0806  153.3277 O   0  0  0  0  0  0  0  0  0  0  0  0
  147.7301  140.4795  154.2675 C   0  0  0  0  0  0  0  0  0  0  0  0
  147.3338  139.5643  153.2021 N   0  0  0  0  0  0  0  0  0  0  0  0
  146.5935  138.4724  153.4857 C   0  0  0  0  0  0  0  0  0  0  0  0
  146.1712  138.2218  154.7529 N   0  0  0  0  0  0  0  0  0  0  0  0
  145.4363  137.1346  155.0088 C   0  0  0  0  0  0  0  0  0  0  0  0
  145.0191  136.1898  154.1624 N   0  0  0  0  0  0  0  0  0  0  0  0
  145.4440  136.4397  152.8900 C   0  0  0  0  0  0  0  0  0  0  0  0
  146.2287  137.5492  152.4724 C   0  0  0  0  0  0  0  0  0  0  0  0
  146.4654  137.4694  151.1060 N   0  0  0  0  0  0  0  0  0  0  0  0
  145.8541  136.3734  150.7424 C   0  0  0  0  0  0  0  0  0  0  0  0
  145.2183  135.6887  151.7577 N   0  0  0  0  0  0  0  0  0  0  0  0
  144.4292  134.4150  151.7027 C   0  0  1  0  0  0  0  0  0  0  0  0
  144.0121  134.2136  150.3849 O   0  0  0  0  0  0  0  0  0  0  0  0
  144.8359  133.2332  149.7633 C   0  0  2  0  0  0  0  0  0  0  0  0
  144.1084  132.6301  148.5524 C   0  0  0  0  0  0  0  0  0  0  0  0
  142.8498  132.1290  148.9490 O   0  0  0  0  0  0  0  0  0  0  0  0
  145.0418  132.2497  150.9149 C   0  0  1  0  0  0  0  0  0  0  0  0
  146.1116  131.3507  150.6880 O   0  0  0  0  0  0  0  0  0  0  0  0
  145.2655  133.1764  152.1080 C   0  0  1  0  0  0  0  0  0  0  0  0
  146.6424  133.4530  152.3220 O   0  0  0  0  0  0  0  0  0  0  0  0
  148.8320  141.8267  156.7205 C   0  0  0  0  0  0  0  0  0  0  0  0
  147.3529  141.9232  156.9024 C   0  0  0  0  0  0  0  0  0  0  0  0
  149.5729  142.4178  157.6993 O   0  0  0  0  0  0  0  0  0  0  0  0
  143.5681  134.5962  152.3471 H   0  0  0  0  0  0  0  0  0  0  0  0
  145.7938  133.6704  149.4738 H   0  0  0  0  0  0  0  0  0  0  0  0
  144.1262  131.6778  151.0733 H   0  0  0  0  0  0  0  0  0  0  0  0
  144.8558  132.7455  153.0220 H   0  0  0  0  0  0  0  0  0  0  0  0
  152.8880  142.4980  158.0469 H   0  0  0  0  0  0  0  0  0  0  0  0
  151.6811  142.4914  159.3338 H   0  0  0  0  0  0  0  0  0  0  0  0
  151.8502  143.9045  158.2890 H   0  0  0  0  0  0  0  0  0  0  0  0
  151.8918  141.2708  155.7076 H   0  0  0  0  0  0  0  0  0  0  0  0
  149.4116  138.5336  155.4107 H   0  0  0  0  0  0  0  0  0  0  0  0
  150.9010  139.0781  154.6500 H   0  0  0  0  0  0  0  0  0  0  0  0
  149.5596  138.5120  153.6589 H   0  0  0  0  0  0  0  0  0  0  0  0
  149.8169  140.4256  152.6467 H   0  0  0  0  0  0  0  0  0  0  0  0
  147.2029  140.2399  155.1924 H   0  0  0  0  0  0  0  0  0  0  0  0
  147.4019  141.4768  153.9710 H   0  0  0  0  0  0  0  0  0  0  0  0
  147.6112  139.8236  152.2659 H   0  0  0  0  0  0  0  0  0  0  0  0
  145.1410  137.0026  156.0391 H   0  0  0  0  0  0  0  0  0  0  0  0
  145.8526  136.0395  149.7151 H   0  0  0  0  0  0  0  0  0  0  0  0
  143.9313  133.3985  147.7994 H   0  0  0  0  0  0  0  0  0  0  0  0
  144.7005  131.8447  148.0818 H   0  0  0  0  0  0  0  0  0  0  0  0
  142.2503  132.8546  149.0338 H   0  0  0  0  0  0  0  0  0  0  0  0
  146.9246  131.8244  150.7763 H   0  0  0  0  0  0  0  0  0  0  0  0
  147.1519  132.8267  151.8307 H   0  0  0  0  0  0  0  0  0  0  0  0
  146.8863  142.3866  156.0332 H   0  0  0  0  0  0  0  0  0  0  0  0
  147.1001  142.5225  157.7774 H   0  0  0  0  0  0  0  0  0  0  0  0
  146.9153  140.9341  157.0357 H   0  0  0  0  0  0  0  0  0  0  0  0
  1  2  1  0  0  0  0
  1 35  1  0  0  0  0
  1 36  1  0  0  0  0
  1 37  1  0  0  0  0
  2 30  1  0  0  0  0
  2  3  2  0  0  0  0
  3  4  1  0  0  0  0
  3 38  1  0  0  0  0
  4  5  1  0  0  0  0
  4 28  2  0  0  0  0
  5  6  1  0  0  0  0
  5  7  1  0  0  0  0
  5  8  1  0  0  0  0
  6 39  1  0  0  0  0
  6 40  1  0  0  0  0
  6 41  1  0  0  0  0
  7 42  1  0  0  0  0
  8  9  1  0  0  0  0
  8 43  1  0  0  0  0
  8 44  1  0  0  0  0
  9 10  1  0  0  0  0
  9 45  1  0  0  0  0
 10 15  1  0  0  0  0
 10 11  2  0  0  0  0
 11 12  1  0  0  0  0
 12 13  2  0  0  0  0
 12 46  1  0  0  0  0
 13 14  1  0  0  0  0
 14 18  1  0  0  0  0
 14 15  2  0  0  0  0
 15 16  1  0  0  0  0
 16 17  2  0  0  0  0
 17 18  1  0  0  0  0
 17 47  1  0  0  0  0
 18 19  1  0  0  0  0
 19 31  1  0  0  0  0
 19 26  1  0  0  0  0
 19 20  1  0  0  0  0
 20 21  1  0  0  0  0
 21 32  1  0  0  0  0
 21 22  1  0  0  0  0
 21 24  1  0  0  0  0
 22 23  1  0  0  0  0
 22 48  1  0  0  0  0
 22 49  1  0  0  0  0
 23 50  1  0  0  0  0
 24 33  1  0  0  0  0
 24 25  1  0  0  0  0
 24 26  1  0  0  0  0
 25 51  1  0  0  0  0
 26 34  1  0  0  0  0
 26 27  1  0  0  0  0
 27 52  1  0  0  0  0
 28 29  1  0  0  0  0
 28 30  1  0  0  0  0
 29 53  1  0  0  0  0
 29 54  1  0  0  0  0
 29 55  1  0  0  0  0
M  END
> <s_m_source_file>
AV-unprocessed.smi

> <i_m_source_file_index>
287

> <i_lp_mmshare_version>
43012

> <i_f3d_flags>
0

> <s_epik_input>
W0NIM11jMVtjSF1jKGMobzEpW0NIM10pW0NAQF0oW0NIM10pKFtPSF0pW0NIMl1bTkhdYyhuW2NIXW4yKWMoYzIzKW5bY0hdbjNbQ0BASF00T1tDQEhdKFtDSDJdW09IXSlbQ0BASF0oW09IXSlbQ0BIXTRbT0hd

> <s_epik_cmdline>
J2VwaWtfcHl0aG9uJywgJy1waCcsICc3LjAnLCAnLXRuJywgJzgnLCAnLW1hJywgJzIwMCcsICctbWV0YWxfYmluZGluZycsICctaW1hZScsICc8aW5maWxlLm1hZT4nLCAnLW9tYWUnLCAnPG91dGZpbGUubWFlPic=

> <r_lp_tautomer_probability>
1

> <r_epik_Ionization_Penalty>
0.000992612

> <r_epik_Ionization_Penalty_Charging>
0

> <r_epik_Ionization_Penalty_Neutral>
0.000992612

> <r_epik_State_Penalty>
-0

> <r_epik_Charging_Adjusted_Penalty>
0

> <i_epik_Tot_Q>
0

> <i_epik_Tot_abs_Q>
0

> <r_epik_Metal_State_Penalty>
-0

> <b_epik_Metal_Only>
0

> <s_epik_Chemistry_Notes>
This compound contains an acetal/aminal-like group ( X-CH(R)-Y where X, Y are N, S, or O) that may be acid/base labile, releasing an aldehyde.

> <s_lp_Force_Field>
OPLS_2005

> <r_lp_Energy>
46.7929

> <b_lp_Chiralities_Consistent>
1

> <s_lp_Variant>
AV-unprocessed.smi:287-4

> <Gold.Version>
5.8.1

> <Gold.Id.Protein>
6NUR|6NUR_protein|mol2

> <Gold.PLP.Fitness>
59.2737

> <Gold.PLP.PLP>
-42.5209

> <Gold.PLP.part.hbond>
-7.3732

> <Gold.PLP.part.metal>
0.0000

> <Gold.PLP.part.buried>
-0.9371

> <Gold.PLP.part.nonpolar>
-35.3490

> <Gold.PLP.part.repulsive>
2.8951

> <Gold.PLP.ligand.clash>
0.0000

> <Gold.PLP.ligand.torsion>
0.7637

> <Gold.PLP.Chemscore.Hbond>
5.0328

> <Gold.PLP.Chemscore.CHOScore>
1.0000

> <Gold.PLP.Chemscore.Metal>
0.0000

> <Gold.Chemscore.Hbonds>
donor molecule, donor type, donor heavy atom, donor atom, acceptor molecule, acceptor atom, score
      L1  H     7    42       P1  7957  0.99
      L1  H     9    45       P1  7957  0.30
      L1  H    23    50       P1 10186  0.94
      L1  H    25    51       P1 10747  0.12
      P1  H  7954  7966       L1    16  0.76
      P1  H  7989  7998       L1     7  0.06
      P1  H  8011  8017       L1     7  0.85
      P1  H 10785 10796       L1    23  1.00
      L1  C    17    47       P1  7921  1.00

> <Gold.PLP.Chemscore.Internal.Correction>
0.1819

> <Gold.Rescore>
     Score         DG    S(hbond)    S(metal)    S(lipo)     H(rot)  DE(clash)    DE(int)     intcor
      9.83     -14.83       3.33        0.00     100.16       5.27       3.28       1.72       ----

> <Gold.Chemscore.Fitness>
9.8346

> <Gold.Chemscore.DG>
-14.8322

> <Gold.Chemscore.ZeroCoef>
-5.4800

> <Gold.Chemscore.Hbond>
3.3287

> <Gold.Chemscore.Metal>
0.0000

> <Gold.Chemscore.Lipo>
100.1567

> <Gold.Chemscore.Internal_Hbond>
0.0000

> <Gold.Chemscore.DEClash>
3.2771

> <Gold.Chemscore.DEInternal>
1.7204

> <Gold.Chemscore.Rot>
5.2672

> <Gold.Chemscore.Internal.Correction>
   9.000000E+99

> <Gold.Chemscore.Hbonds>
donor molecule, donor type, donor heavy atom, donor atom, acceptor molecule, acceptor atom, score
      L1  H     7    42       P1  7957  0.88
      L1  H     9    45       P1  7957  0.28
      L1  H    23    50       P1 10186  0.90
      L1  H    25    51       P1 10747  0.12
      P1  H  7954  7966       L1    16  0.60
      P1  H  8011  8017       L1     7  0.14
      P1  H 10785 10796       L1    23  0.24

> <Gold.Chemscore.Hbond.Weighted>
-11.1178

> <Gold.Chemscore.Metal.Weighted>
-0.0000

> <Gold.Chemscore.Lipo.Weighted>
-11.7183

> <Gold.Chemscore.Internal_Hbond.Weighted>
0.0000

> <Gold.Chemscore.DEClash.Weighted>
3.2771

> <Gold.Chemscore.DEInternal.Weighted>
1.7204

> <Gold.Chemscore.Rot.Weighted>
13.4839

> <Gold.Chemscore.Internal.Correction.Weighted>
   9.000000E+99

> <Gold.Protein.RotatedTorsions>
[ 6907 6896 6895 6894 ] final   94.21 input  -60.11 | X-H torsion
[ 7974 7965 7964 7962 ] final -136.34 input  175.53 | X-H torsion
[ 8008 7997 7996 7995 ] final  175.52 input   59.86 | X-H torsion
[ 10167 10162 10161 10158 ] final  119.10 input  -65.29 | X-H torsion
[ 10718 10713 10712 10709 ] final   87.11 input   66.30 | X-H torsion
[ 10763 10752 10751 10750 ] final  -23.37 input  -60.55 | X-H torsion
[ 11005 11000 10999 10996 ] final  133.56 input  -57.11 | X-H torsion

> <Gold.Protein.ActiveResidues>
 VAL166  LYS551  ARG553  GLY616  TRP617  ASP618  TYR619  PRO620  LYS621  CYS622 
 ASP623  PHE694  ASN695  SER759  ASP760  ASP761  ALA762  ILE779  LEU786  VAL792 
 PHE793  MET794  SER795  GLU796  ALA797  LYS798  CYS799  TRP800  GLU811  SER814 

> <Gold.Protein.RotatedAtoms>
  152.5450  134.1229  159.8406 H   0  0  0  0  0  0  0  0  0  0  0  0  # atno 6907 bound_to 6896
  151.1283  133.5048  159.2607 H   0  0  0  0  0  0  0  0  0  0  0  0  # atno 6908 bound_to 6896
  151.1703  135.0325  159.8803 H   0  0  0  0  0  0  0  0  0  0  0  0  # atno 6909 bound_to 6896
  144.8936  140.6676  143.5130 H   0  0  0  0  0  0  0  0  0  0  0  0  # atno 7974 bound_to 7965
  156.0862  140.1407  156.9650 H   0  0  0  0  0  0  0  0  0  0  0  0  # atno 8008 bound_to 7997
  154.4614  140.0942  156.6952 H   0  0  0  0  0  0  0  0  0  0  0  0  # atno 8009 bound_to 7997
  155.4994  140.3450  155.4371 H   0  0  0  0  0  0  0  0  0  0  0  0  # atno 8010 bound_to 7997
  139.6068  144.7072  151.2936 H   0  0  0  0  0  0  0  0  0  0  0  0  # atno 10167 bound_to 10162
  157.6936  131.0242  150.3073 H   0  0  0  0  0  0  0  0  0  0  0  0  # atno 10718 bound_to 10713
  153.6668  135.6973  153.5160 H   0  0  0  0  0  0  0  0  0  0  0  0  # atno 10763 bound_to 10752
  153.2589  135.4251  155.0873 H   0  0  0  0  0  0  0  0  0  0  0  0  # atno 10764 bound_to 10752
  154.8437  135.3550  154.6212 H   0  0  0  0  0  0  0  0  0  0  0  0  # atno 10765 bound_to 10752
  139.9860  134.9532  156.9743 H   0  0  0  0  0  0  0  0  0  0  0  0  # atno 11005 bound_to 11000
  145.3740  139.1652  143.4317 LP  0  0  0  0  0  0  0  0  0  0  0  0  # atno 17320 bound_to 7965
  146.3068  140.3814  142.8684 LP  0  0  0  0  0  0  0  0  0  0  0  0  # atno 17321 bound_to 7965
  140.7290  143.6919  150.7915 LP  0  0  0  0  0  0  0  0  0  0  0  0  # atno 17342 bound_to 10162
  140.0506  143.5253  152.2675 LP  0  0  0  0  0  0  0  0  0  0  0  0  # atno 17343 bound_to 10162
  156.3580  130.3842  149.7274 LP  0  0  0  0  0  0  0  0  0  0  0  0  # atno 17370 bound_to 10713
  156.4730  130.8005  151.3023 LP  0  0  0  0  0  0  0  0  0  0  0  0  # atno 17371 bound_to 10713
  140.5002  134.1105  155.7249 LP  0  0  0  0  0  0  0  0  0  0  0  0  # atno 17394 bound_to 11000
  141.1524  133.8944  157.2063 LP  0  0  0  0  0  0  0  0  0  0  0  0  # atno 17395 bound_to 11000

$$$$
