#       Name:                AV-unprocessed.smi:598
#       Creating user name   scv26
#       Creation time:       Thu Mar 26 23:53:26 2020


#       File generated by GOLD software.
#

@<TRIPOS>MOLECULE
AV-unprocessed.smi:598
    49    50     1
SMALL
NO_CHARGES


@<TRIPOS>ATOM
      1 ****        -4.6385  -2.5836  -0.5855 C.3            1 S1                 0.0000
      2 ****        -3.7642  -1.3158  -0.5942 C.3            1 S1                 0.0000
      3 ****        -3.8869  -0.6152  -1.9620 C.3            1 S1                 0.0000
      4 ****        -3.0634   0.6756  -2.0163 C.3            1 S1                 0.0000
      5 ****        -1.5910   0.3876  -1.7104 C.3            1 S1                 0.0000
      6 ****        -1.4249  -0.3015  -0.3418 C.3            1 S1                 0.0000
      7 ****        -0.0098  -0.5962  -0.1206 N.am           1 S1                 0.0000
      8 ****         0.8973   0.2625   0.3693 C.2            1 S1                 0.0000
      9 ****         0.6243   1.4161   0.7037 O.2            1 S1                 0.0000
     10 ****         2.3259  -0.2807   0.5149 C.3            1 S1                 0.0000
     11 ****         3.3488   0.7783   0.5392 N.am           1 S1                 0.0000
     12 ****         3.8075   1.1977   1.8038 C.2            1 S1                 0.0000
     13 ****         4.7362   2.1639   1.9442 C.2            1 S1                 0.0000
     14 ****         5.1911   2.5864   3.2506 N.pl3          1 S1                 1.0000
     15 ****         6.0150   3.4927   3.3220 O.2            1 S1                 0.0000
     16 ****         4.7425   2.0273   4.2470 O.2            1 S1                -1.0000
     17 ****         5.2638   2.7722   0.7382 C.2            1 S1                 0.0000
     18 ****         4.8262   2.3784  -0.4740 C.2            1 S1                 0.0000
     19 ****         3.8120   1.3300  -0.6242 C.2            1 S1                 0.0000
     20 ****         3.4039   0.9697  -1.7285 O.2            1 S1                 0.0000
     21 ****        -2.2760  -1.5966  -0.2386 C.3            1 S1                 0.0000
     22 ****        -2.1287  -2.2469   1.1548 C.3            1 S1                 0.0000
     23 ****        -4.2360  -3.3486  -1.2504 H              1 S1                 0.0000
     24 ****        -5.6537  -2.3605  -0.9150 H              1 S1                 0.0000
     25 ****        -4.7221  -3.0132   0.4121 H              1 S1                 0.0000
     26 ****        -4.1680  -0.6365   0.1585 H              1 S1                 0.0000
     27 ****        -3.5581  -1.2902  -2.7535 H              1 S1                 0.0000
     28 ****        -4.9319  -0.3828  -2.1707 H              1 S1                 0.0000
     29 ****        -3.1558   1.1350  -3.0006 H              1 S1                 0.0000
     30 ****        -3.4565   1.3964  -1.2986 H              1 S1                 0.0000
     31 ****        -1.1745  -0.2440  -2.4965 H              1 S1                 0.0000
     32 ****        -1.0275   1.3212  -1.7344 H              1 S1                 0.0000
     33 ****        -1.7686   0.3859   0.4340 H              1 S1                 0.0000
     34 ****         0.3021  -1.5253  -0.3636 H              1 S1                 0.0000
     35 ****         2.3697  -0.8781   1.4266 H              1 S1                 0.0000
     36 ****         2.5322  -0.9834  -0.2948 H              1 S1                 0.0000
     37 ****         3.3476   0.6889   2.6387 H              1 S1                 0.0000
     38 ****         6.0125   3.5483   0.7980 H              1 S1                 0.0000
     39 ****         5.2323   2.8461  -1.3590 H              1 S1                 0.0000
     40 ****        -1.8891  -2.3056  -0.9726 H              1 S1                 0.0000
     41 ****        -2.5500  -1.6101   1.9332 H              1 S1                 0.0000
     42 ****        -1.0856  -2.4318   1.4106 H              1 S1                 0.0000
     43 ****        -2.6282  -3.2133   1.2059 H              1 S1                 0.0000
     44 ****        -0.3129   1.7537   0.6155 LP             1 S1                 0.0000
     45 ****         1.3397   2.0150   1.0634 LP             1 S1                 0.0000
     46 ****         6.3581   3.9233   2.4873 LP             1 S1                 0.0000
     47 ****         6.3433   3.8007   4.2149 LP             1 S1                 0.0000
     48 ****         2.7113   0.2515  -1.7957 LP             1 S1                 0.0000
     49 ****         3.7650   1.3952  -2.5582 LP             1 S1                 0.0000
@<TRIPOS>BOND
    1    1    2 1     
    2    1   23 1     
    3    1   24 1     
    4    1   25 1     
    5    2   21 1     
    6    2    3 1     
    7    2   26 1     
    8    3    4 1     
    9    3   27 1     
   10    3   28 1     
   11    4    5 1     
   12    4   29 1     
   13    4   30 1     
   14    5    6 1     
   15    5   31 1     
   16    5   32 1     
   17    6    7 1     
   18    6   21 1     
   19    6   33 1     
   20    7    8 am    
   21    7   34 1     
   22    8    9 2     
   23    8   10 1     
   24   10   11 1     
   25   10   35 1     
   26   10   36 1     
   27   11   19 am    
   28   11   12 1     
   29   12   13 2     
   30   12   37 1     
   31   13   14 1     
   32   13   17 1     
   33   14   15 2     
   34   14   16 1     
   35   17   18 2     
   36   17   38 1     
   37   18   19 1     
   38   18   39 1     
   39   19   20 2     
   40   21   22 1     
   41   21   40 1     
   42   22   41 1     
   43   22   42 1     
   44   22   43 1     
   45    9   44 1     
   46    9   45 1     
   47   15   46 1     
   48   15   47 1     
   49   20   48 1     
   50   20   49 1     
@<TRIPOS>SUBSTRUCTURE
      1 S1             1
@<TRIPOS>SET
LONE_PAIRS      STATIC     ATOMS    <user>   **** ""
7 44 45 46 47 16 48 49
DONOR_HYDROGENS      STATIC     ATOMS    <user>   **** ""
1 34
ATOM$BLUE        STATIC     ATOMS    COLORGROUP SYSTEM
7 44 45 46 47 16 48 49
ATOM$RED        STATIC     ATOMS    COLORGROUP SYSTEM
1 34
