#       Name:                AV-unprocessed.smi:2459
#       Creating user name   scv26
#       Creation time:       Fri Mar 27 13:35:25 2020


#       File generated by GOLD software.
#

@<TRIPOS>MOLECULE
AV-unprocessed.smi:2459
    52    53     1
SMALL
NO_CHARGES


@<TRIPOS>ATOM
      1 ****        -4.7999   0.5360   1.8556 C.3            1 S1                 0.0000
      2 ****        -4.9896  -0.2839   0.7036 O.3            1 S1                 0.0000
      3 ****        -4.4809  -1.6258   0.7371 C.3            1 S1                 0.0000
      4 ****        -5.0276  -2.3849   1.9693 C.3            1 S1                 0.0000
      5 ****        -5.0029  -2.2978  -0.5451 C.3            1 S1                 0.0000
      6 ****        -2.9344  -1.6255   0.7055 C.2            1 S1                 0.0000
      7 ****        -2.3139  -2.5526   1.2260 O.2            1 S1                 0.0000
      8 ****        -2.3524  -0.5755   0.0940 N.am           1 S1                 0.0000
      9 ****        -0.9710  -0.2866  -0.0722 C.ar           1 S1                 0.0000
     10 ****        -0.6096   1.0449  -0.3581 C.ar           1 S1                 0.0000
     11 ****         0.6628   1.4505  -0.5460 N.ar           1 S1                 0.0000
     12 ****         1.6525   0.5302  -0.4653 C.ar           1 S1                 0.0000
     13 ****         2.9694   0.9765  -0.6565 N.3            1 S1                 0.0000
     14 ****         3.4433   1.8525   0.4119 C.3            1 S1                 0.0000
     15 ****         4.9511   2.1206   0.2681 C.3            1 S1                 0.0000
     16 ****         5.2802   2.6673  -1.1307 C.3            1 S1                 0.0000
     17 ****         4.7324   1.7235  -2.2138 C.3            1 S1                 0.0000
     18 ****         3.2300   1.4648  -2.0083 C.3            1 S1                 0.0000
     19 ****         1.3990  -0.8370  -0.1999 C.ar           1 S1                 0.0000
     20 ****         2.5266  -1.8517  -0.1250 C.3            1 S1                 0.0000
     21 ****         0.0639  -1.2492  -0.0056 C.ar           1 S1                 0.0000
     22 ****        -5.1308   1.5490   1.6281 H              1 S1                 0.0000
     23 ****        -3.7568   0.5950   2.1662 H              1 S1                 0.0000
     24 ****        -5.3945   0.1852   2.6990 H              1 S1                 0.0000
     25 ****        -4.8044  -3.4511   1.9114 H              1 S1                 0.0000
     26 ****        -6.1111  -2.2851   2.0415 H              1 S1                 0.0000
     27 ****        -4.5982  -2.0186   2.9025 H              1 S1                 0.0000
     28 ****        -4.6772  -3.3367  -0.6151 H              1 S1                 0.0000
     29 ****        -4.6532  -1.7805  -1.4395 H              1 S1                 0.0000
     30 ****        -6.0930  -2.2930  -0.5728 H              1 S1                 0.0000
     31 ****        -2.9856   0.1416  -0.2303 H              1 S1                 0.0000
     32 ****        -1.3646   1.8139  -0.4331 H              1 S1                 0.0000
     33 ****         2.8949   2.7951   0.3799 H              1 S1                 0.0000
     34 ****         3.2380   1.3952   1.3808 H              1 S1                 0.0000
     35 ****         5.2804   2.8238   1.0334 H              1 S1                 0.0000
     36 ****         5.5032   1.1953   0.4382 H              1 S1                 0.0000
     37 ****         4.8382   3.6572  -1.2500 H              1 S1                 0.0000
     38 ****         6.3576   2.7893  -1.2451 H              1 S1                 0.0000
     39 ****         4.9069   2.1460  -3.2035 H              1 S1                 0.0000
     40 ****         5.2725   0.7764  -2.1805 H              1 S1                 0.0000
     41 ****         2.8756   0.7348  -2.7373 H              1 S1                 0.0000
     42 ****         2.6695   2.3853  -2.1782 H              1 S1                 0.0000
     43 ****         2.1487  -2.8525   0.0850 H              1 S1                 0.0000
     44 ****         3.2272  -1.5823   0.6659 H              1 S1                 0.0000
     45 ****         3.0701  -1.8862  -1.0696 H              1 S1                 0.0000
     46 ****        -0.1411  -2.2923   0.1775 H              1 S1                 0.0000
     47 ****        -4.5520   0.1803  -0.0665 LP             1 S1                 0.0000
     48 ****        -5.9745  -0.3438   0.5408 LP             1 S1                 0.0000
     49 ****        -2.8097  -3.3011   1.6665 LP             1 S1                 0.0000
     50 ****        -1.3141  -2.5573   1.2084 LP             1 S1                 0.0000
     51 ****         0.8705   2.4091  -0.7405 LP             1 S1                 0.0000
     52 ****         3.5449   0.1622  -0.5802 LP             1 S1                 0.0000
@<TRIPOS>BOND
    1    1    2 1     
    2    1   22 1     
    3    1   23 1     
    4    1   24 1     
    5    2    3 1     
    6    3    4 1     
    7    3    5 1     
    8    3    6 1     
    9    4   25 1     
   10    4   26 1     
   11    4   27 1     
   12    5   28 1     
   13    5   29 1     
   14    5   30 1     
   15    6    7 2     
   16    6    8 am    
   17    8    9 1     
   18    8   31 1     
   19    9   21 ar    
   20    9   10 ar    
   21   10   11 ar    
   22   10   32 1     
   23   11   12 ar    
   24   12   13 1     
   25   12   19 ar    
   26   13   18 1     
   27   13   14 1     
   28   14   15 1     
   29   14   33 1     
   30   14   34 1     
   31   15   16 1     
   32   15   35 1     
   33   15   36 1     
   34   16   17 1     
   35   16   37 1     
   36   16   38 1     
   37   17   18 1     
   38   17   39 1     
   39   17   40 1     
   40   18   41 1     
   41   18   42 1     
   42   19   20 1     
   43   19   21 ar    
   44   20   43 1     
   45   20   44 1     
   46   20   45 1     
   47   21   46 1     
   48    2   47 1     
   49    2   48 1     
   50    7   49 1     
   51    7   50 1     
   52   11   51 1     
   53   13   52 1     
@<TRIPOS>SUBSTRUCTURE
      1 S1             1
@<TRIPOS>SET
LONE_PAIRS      STATIC     ATOMS    <user>   **** ""
6 47 48 49 50 51 52
DONOR_HYDROGENS      STATIC     ATOMS    <user>   **** ""
1 31
ATOM$BLUE        STATIC     ATOMS    COLORGROUP SYSTEM
6 47 48 49 50 51 52
ATOM$RED        STATIC     ATOMS    COLORGROUP SYSTEM
1 31
