AV-unprocessed.smi:2021|AV-procd|sdf|8177|dock7
  -GOLD-   2272010423D 1   1.00000     0.00000
 Structure written by MMmdl.
 42 43  0  0  0  0  0  0  0  0  2 V2000
  145.4106  131.4232  150.4886 C   0  0  0  0  0  0  0  0  0  0  0  0
  144.0226  132.0556  150.2923 C   0  0  0  0  0  0  0  0  0  0  0  0
  143.8851  132.6132  148.8676 C   0  0  0  0  0  0  0  0  0  0  0  0
  143.7365  133.1587  151.3351 C   0  0  0  0  0  0  0  0  0  0  0  0
  144.6652  134.3181  151.2354 N   0  3  1  0  0  0  0  0  0  0  0  0
  143.9776  135.6315  151.2749 C   0  0  0  0  0  0  0  0  0  0  0  0
  143.5814  136.0068  152.7139 C   0  0  0  0  0  0  0  0  0  0  0  0
  144.7405  136.0031  153.5368 O   0  0  0  0  0  0  0  0  0  0  0  0
  145.3576  134.7215  153.6159 C   0  0  2  0  0  0  0  0  0  0  0  0
  146.5562  134.8059  154.5781 C   0  0  0  0  0  0  0  0  0  0  0  0
  147.5322  135.8006  154.1455 N   0  0  0  0  0  0  0  0  0  0  0  0
  147.7179  137.0003  154.7145 C   0  0  0  0  0  0  0  0  0  0  0  0
  147.0770  137.3954  155.6887 O   0  0  0  0  0  0  0  0  0  0  0  0
  148.6820  137.6929  154.0833 N   0  0  0  0  0  0  0  0  0  0  0  0
  149.1619  138.9978  154.3715 C   0  0  0  0  0  0  0  0  0  0  0  0
  150.4008  139.2538  154.8199 N   0  0  0  0  0  0  0  0  0  0  0  0
  150.6093  140.6120  155.0225 N   0  0  0  0  0  0  0  0  0  0  0  0
  149.5211  141.3255  154.7188 C   0  0  0  0  0  0  0  0  0  0  0  0
  148.1357  140.4082  154.1537 S   0  0  0  0  0  0  0  0  0  0  0  0
  145.7991  134.3011  152.1961 C   0  0  0  0  0  0  0  0  0  0  0  0
  146.2030  132.1661  150.3920 H   0  0  0  0  0  0  0  0  0  0  0  0
  145.5943  130.6453  149.7468 H   0  0  0  0  0  0  0  0  0  0  0  0
  145.5047  130.9606  151.4712 H   0  0  0  0  0  0  0  0  0  0  0  0
  143.2786  131.2659  150.3893 H   0  0  0  0  0  0  0  0  0  0  0  0
  144.6076  133.4082  148.6801 H   0  0  0  0  0  0  0  0  0  0  0  0
  142.8885  133.0223  148.6996 H   0  0  0  0  0  0  0  0  0  0  0  0
  144.0480  131.8339  148.1224 H   0  0  0  0  0  0  0  0  0  0  0  0
  142.7129  133.5056  151.1855 H   0  0  0  0  0  0  0  0  0  0  0  0
  143.7641  132.7437  152.3426 H   0  0  0  0  0  0  0  0  0  0  0  0
  144.6588  136.3873  150.8813 H   0  0  0  0  0  0  0  0  0  0  0  0
  143.1073  135.6338  150.6177 H   0  0  0  0  0  0  0  0  0  0  0  0
  143.1416  137.0040  152.7328 H   0  0  0  0  0  0  0  0  0  0  0  0
  142.8312  135.3221  153.1120 H   0  0  0  0  0  0  0  0  0  0  0  0
  144.6443  133.9989  154.0149 H   0  0  0  0  0  0  0  0  0  0  0  0
  146.2102  135.1056  155.5676 H   0  0  0  0  0  0  0  0  0  0  0  0
  147.0244  133.8277  154.7009 H   0  0  0  0  0  0  0  0  0  0  0  0
  148.1024  135.5603  153.3478 H   0  0  0  0  0  0  0  0  0  0  0  0
  149.1192  137.2371  153.2960 H   0  0  0  0  0  0  0  0  0  0  0  0
  149.5342  142.3996  154.8283 H   0  0  0  0  0  0  0  0  0  0  0  0
  146.2827  133.3257  152.2170 H   0  0  0  0  0  0  0  0  0  0  0  0
  146.5532  135.0012  151.8338 H   0  0  0  0  0  0  0  0  0  0  0  0
  145.0691  134.2482  150.3121 H   0  0  0  0  0  0  0  0  0  0  0  0
  1  2  1  0  0  0  0
  1 21  1  0  0  0  0
  1 22  1  0  0  0  0
  1 23  1  0  0  0  0
  2  3  1  0  0  0  0
  2  4  1  0  0  0  0
  2 24  1  0  0  0  0
  3 25  1  0  0  0  0
  3 26  1  0  0  0  0
  3 27  1  0  0  0  0
  4  5  1  0  0  0  0
  4 28  1  0  0  0  0
  4 29  1  0  0  0  0
  5 20  1  0  0  0  0
  5  6  1  0  0  0  0
  5 42  1  0  0  0  0
  6  7  1  0  0  0  0
  6 30  1  0  0  0  0
  6 31  1  0  0  0  0
  7  8  1  0  0  0  0
  7 32  1  0  0  0  0
  7 33  1  0  0  0  0
  8  9  1  0  0  0  0
  9 10  1  0  0  0  0
  9 20  1  0  0  0  0
  9 34  1  0  0  0  0
 10 11  1  0  0  0  0
 10 35  1  0  0  0  0
 10 36  1  0  0  0  0
 11 12  1  0  0  0  0
 11 37  1  0  0  0  0
 12 13  2  0  0  0  0
 12 14  1  0  0  0  0
 14 15  1  0  0  0  0
 14 38  1  0  0  0  0
 15 19  1  0  0  0  0
 15 16  2  0  0  0  0
 16 17  1  0  0  0  0
 17 18  2  0  0  0  0
 18 19  1  0  0  0  0
 18 39  1  0  0  0  0
 20 40  1  0  0  0  0
 20 41  1  0  0  0  0
M  CHG  1   5   1
M  END
> <s_m_source_file>
AV-unprocessed.smi

> <i_m_source_file_index>
2021

> <i_lp_mmshare_version>
43012

> <i_f3d_flags>
0

> <s_epik_input>
W0NIM11bQ0hdKFtDSDNdKVtDSDJdTjFbQ0gyXVtDSDJdT1tDQEhdKFtDSDJdMSlbQ0gyXVtOSF1DKD1PKVtOSF1jMm5uW2NIXXMy

> <s_epik_cmdline>
J2VwaWtfcHl0aG9uJywgJy1waCcsICc3LjAnLCAnLXRuJywgJzgnLCAnLW1hJywgJzIwMCcsICctbWV0YWxfYmluZGluZycsICctaW1hZScsICc8aW5maWxlLm1hZT4nLCAnLW9tYWUnLCAnPG91dGZpbGUubWFlPic=

> <r_lp_tautomer_probability>
1

> <r_epik_Ionization_Penalty>
0.102019

> <r_epik_Ionization_Penalty_Charging>
0.098413

> <r_epik_Ionization_Penalty_Neutral>
0.00360555

> <r_epik_State_Penalty>
0.0884988

> <r_epik_Charging_Adjusted_Penalty>
0.186912

> <i_epik_Tot_Q>
1

> <i_epik_Tot_abs_Q>
1

> <r_epik_Metal_State_Penalty>
0.454709

> <b_epik_Metal_Only>
0

> <s_lp_Force_Field>
OPLS_2005

> <r_lp_Energy>
19.4379

> <b_lp_Chiralities_Consistent>
1

> <s_lp_Variant>
AV-unprocessed.smi:2021-3

> <Gold.Version>
5.8.1

> <Gold.Id.Protein>
6NUR|6NUR_protein|mol2

> <Gold.PLP.Fitness>
40.2862

> <Gold.PLP.PLP>
-31.6973

> <Gold.PLP.part.hbond>
-3.0000

> <Gold.PLP.part.metal>
0.0000

> <Gold.PLP.part.buried>
-4.6967

> <Gold.PLP.part.nonpolar>
-24.0656

> <Gold.PLP.part.repulsive>
0.2616

> <Gold.PLP.ligand.clash>
0.0000

> <Gold.PLP.ligand.torsion>
1.3170

> <Gold.PLP.Chemscore.Hbond>
2.7120

> <Gold.PLP.Chemscore.CHOScore>
1.0000

> <Gold.PLP.Chemscore.Metal>
0.0000

> <Gold.Chemscore.Hbonds>
donor molecule, donor type, donor heavy atom, donor atom, acceptor molecule, acceptor atom, score
      L1  H    11    37       P1  7948  0.91
      L1  H    14    38       P1  7948  1.00
      P1  H  7989  7998       L1    17  0.76
      L1  C    18    39       P1  8028  0.98

> <Gold.PLP.Chemscore.Internal.Correction>
0.0868

> <Gold.Rescore>
     Score         DG    S(hbond)    S(metal)    S(lipo)     H(rot)  DE(clash)    DE(int)     intcor
     14.86     -16.14       1.97        0.00      76.04       1.88       0.01       1.27       ----

> <Gold.Chemscore.Fitness>
14.8581

> <Gold.Chemscore.DG>
-16.1392

> <Gold.Chemscore.ZeroCoef>
-5.4800

> <Gold.Chemscore.Hbond>
1.9696

> <Gold.Chemscore.Metal>
0.0000

> <Gold.Chemscore.Lipo>
76.0386

> <Gold.Chemscore.Internal_Hbond>
0.0000

> <Gold.Chemscore.DEClash>
0.0089

> <Gold.Chemscore.DEInternal>
1.2723

> <Gold.Chemscore.Rot>
1.8812

> <Gold.Chemscore.Internal.Correction>
   9.000000E+99

> <Gold.Chemscore.Hbonds>
donor molecule, donor type, donor heavy atom, donor atom, acceptor molecule, acceptor atom, score
      L1  H    11    37       P1  7948  0.90
      L1  H    14    38       P1  7948  0.94
      P1  H  7989  7998       L1    17  0.03

> <Gold.Chemscore.Hbond.Weighted>
-6.5786

> <Gold.Chemscore.Metal.Weighted>
-0.0000

> <Gold.Chemscore.Lipo.Weighted>
-8.8965

> <Gold.Chemscore.Internal_Hbond.Weighted>
0.0000

> <Gold.Chemscore.DEClash.Weighted>
0.0089

> <Gold.Chemscore.DEInternal.Weighted>
1.2723

> <Gold.Chemscore.Rot.Weighted>
4.8159

> <Gold.Chemscore.Internal.Correction.Weighted>
   9.000000E+99

> <Gold.Protein.RotatedTorsions>
[ 6907 6896 6895 6894 ] final   37.44 input  -60.11 | X-H torsion
[ 7974 7965 7964 7962 ] final   16.76 input  175.53 | X-H torsion
[ 8008 7997 7996 7995 ] final   -1.13 input   59.86 | X-H torsion
[ 10167 10162 10161 10158 ] final    4.57 input  -65.29 | X-H torsion
[ 10718 10713 10712 10709 ] final   32.46 input   66.30 | X-H torsion
[ 10763 10752 10751 10750 ] final   72.49 input  -60.55 | X-H torsion
[ 11005 11000 10999 10996 ] final -130.39 input  -57.11 | X-H torsion

> <Gold.Protein.ActiveResidues>
 VAL166  LYS551  ARG553  GLY616  TRP617  ASP618  TYR619  PRO620  LYS621  CYS622 
 ASP623  PHE694  ASN695  SER759  ASP760  ASP761  ALA762  ILE779  LEU786  VAL792 
 PHE793  MET794  SER795  GLU796  ALA797  LYS798  CYS799  TRP800  GLU811  SER814 

> <Gold.Protein.RotatedAtoms>
  152.1432  134.9046  160.0552 H   0  0  0  0  0  0  0  0  0  0  0  0  # atno 6907 bound_to 6896
  152.0106  133.3855  159.4226 H   0  0  0  0  0  0  0  0  0  0  0  0  # atno 6908 bound_to 6896
  150.6867  134.3656  159.5013 H   0  0  0  0  0  0  0  0  0  0  0  0  # atno 6909 bound_to 6896
  146.2240  139.8701  142.8589 H   0  0  0  0  0  0  0  0  0  0  0  0  # atno 7974 bound_to 7965
  154.6502  140.2567  155.7222 H   0  0  0  0  0  0  0  0  0  0  0  0  # atno 8008 bound_to 7997
  156.2571  140.2869  156.0853 H   0  0  0  0  0  0  0  0  0  0  0  0  # atno 8009 bound_to 7997
  155.1462  140.0381  157.2800 H   0  0  0  0  0  0  0  0  0  0  0  0  # atno 8010 bound_to 7997
  140.6528  143.7503  150.7602 H   0  0  0  0  0  0  0  0  0  0  0  0  # atno 10167 bound_to 10162
  157.2855  130.7276  149.6581 H   0  0  0  0  0  0  0  0  0  0  0  0  # atno 10718 bound_to 10713
  153.0462  135.5098  154.7752 H   0  0  0  0  0  0  0  0  0  0  0  0  # atno 10763 bound_to 10752
  154.6650  135.2944  154.9820 H   0  0  0  0  0  0  0  0  0  0  0  0  # atno 10764 bound_to 10752
  154.0658  135.6684  153.4870 H   0  0  0  0  0  0  0  0  0  0  0  0  # atno 10765 bound_to 10752
  140.9350  134.1269  157.4201 H   0  0  0  0  0  0  0  0  0  0  0  0  # atno 11005 bound_to 11000
  145.2617  141.0079  143.3823 LP  0  0  0  0  0  0  0  0  0  0  0  0  # atno 17320 bound_to 7965
  144.9293  139.4317  143.6503 LP  0  0  0  0  0  0  0  0  0  0  0  0  # atno 17321 bound_to 7965
  140.1157  143.4658  152.2343 LP  0  0  0  0  0  0  0  0  0  0  0  0  # atno 17342 bound_to 10162
  139.5745  144.7480  151.3801 LP  0  0  0  0  0  0  0  0  0  0  0  0  # atno 17343 bound_to 10162
  155.9665  130.4325  150.4965 LP  0  0  0  0  0  0  0  0  0  0  0  0  # atno 17370 bound_to 10713
  157.2917  131.0627  151.2129 LP  0  0  0  0  0  0  0  0  0  0  0  0  # atno 17371 bound_to 10713
  139.8805  135.0018  156.6088 LP  0  0  0  0  0  0  0  0  0  0  0  0  # atno 17394 bound_to 11000
  140.7811  133.8659  155.8569 LP  0  0  0  0  0  0  0  0  0  0  0  0  # atno 17395 bound_to 11000

$$$$
