AV-unprocessed.smi:113|AV-procd|sdf|1106|dock8
  -GOLD-   2262018223D 1   1.00000     0.00000
 Structure written by MMmdl.
 53 56  0  0  0  0  0  0  0  0  2 V2000
  149.4022  141.5438  155.4165 C   0  0  0  0  0  0  0  0  0  0  0  0
  150.2136  141.8174  156.6650 C   0  0  0  0  0  0  0  0  0  0  0  0
  150.8702  140.7922  157.3729 C   0  0  0  0  0  0  0  0  0  0  0  0
  151.6184  141.1025  158.5356 C   0  0  0  0  0  0  0  0  0  0  0  0
  152.3392  140.0075  159.3293 C   0  0  0  0  0  0  0  0  0  0  0  0
  152.4953  138.7151  158.6770 N   0  0  0  0  0  0  0  0  0  0  0  0
  153.7873  138.3523  158.2251 C   0  0  0  0  0  0  0  0  0  0  0  0
  154.7536  139.1049  158.3661 O   0  0  0  0  0  0  0  0  0  0  0  0
  153.8723  137.0457  157.5685 C   0  0  0  0  0  0  0  0  0  0  0  0
  155.2311  136.5837  157.0662 C   0  0  0  0  0  0  0  0  0  0  0  0
  152.7563  136.2919  157.4212 C   0  0  0  0  0  0  0  0  0  0  0  0
  151.4988  136.6800  157.8574 N   0  0  0  0  0  0  0  0  0  0  0  0
  150.2696  135.8152  157.6503 C   0  0  1  0  0  0  0  0  0  0  0  0
  149.1653  136.6117  156.9548 C   0  0  0  0  0  0  0  0  0  0  0  0
  149.4705  136.3412  155.4966 C   0  0  2  0  0  0  0  0  0  0  0  0
  148.3340  136.5503  154.6823 O   0  0  0  0  0  0  0  0  0  0  0  0
  149.9979  134.8947  155.5220 C   0  0  2  0  0  0  0  0  0  0  0  0
  148.9335  133.7892  155.3697 C   0  0  0  0  0  0  0  0  0  0  0  0
  148.1702  133.9871  154.1982 O   0  0  0  0  0  0  0  0  0  0  0  0
  150.5808  134.7349  156.8186 O   0  0  0  0  0  0  0  0  0  0  0  0
  151.3377  137.9263  158.4967 C   0  0  0  0  0  0  0  0  0  0  0  0
  150.2245  138.3129  158.8611 O   0  0  0  0  0  0  0  0  0  0  0  0
  151.6861  142.4608  158.9509 C   0  0  0  0  0  0  0  0  0  0  0  0
  152.4136  142.8636  160.0966 C   0  0  0  0  0  0  0  0  0  0  0  0
  152.4595  144.2199  160.4746 C   0  0  0  0  0  0  0  0  0  0  0  0
  151.7799  145.1915  159.7167 C   0  0  0  0  0  0  0  0  0  0  0  0
  151.0505  144.8085  158.5760 C   0  0  0  0  0  0  0  0  0  0  0  0
  151.0043  143.4526  158.1952 C   0  0  0  0  0  0  0  0  0  0  0  0
  150.3051  143.0913  157.0983 N   0  3  0  0  0  0  0  0  0  0  0  0
  149.1803  140.4805  155.3199 H   0  0  0  0  0  0  0  0  0  0  0  0
  149.9540  141.8596  154.5309 H   0  0  0  0  0  0  0  0  0  0  0  0
  148.4560  142.0853  155.4458 H   0  0  0  0  0  0  0  0  0  0  0  0
  150.7911  139.7772  157.0129 H   0  0  0  0  0  0  0  0  0  0  0  0
  153.3335  140.3482  159.6225 H   0  0  0  0  0  0  0  0  0  0  0  0
  151.8265  139.8300  160.2761 H   0  0  0  0  0  0  0  0  0  0  0  0
  155.1812  135.5953  156.6085 H   0  0  0  0  0  0  0  0  0  0  0  0
  155.9452  136.5330  157.8890 H   0  0  0  0  0  0  0  0  0  0  0  0
  155.6173  137.2775  156.3188 H   0  0  0  0  0  0  0  0  0  0  0  0
  152.8675  135.3394  156.9262 H   0  0  0  0  0  0  0  0  0  0  0  0
  149.9951  135.4445  158.6393 H   0  0  0  0  0  0  0  0  0  0  0  0
  148.2027  136.1847  157.2404 H   0  0  0  0  0  0  0  0  0  0  0  0
  149.1764  137.6685  157.2246 H   0  0  0  0  0  0  0  0  0  0  0  0
  150.2655  137.0099  155.1646 H   0  0  0  0  0  0  0  0  0  0  0  0
  148.5745  136.3859  153.7829 H   0  0  0  0  0  0  0  0  0  0  0  0
  150.7764  134.7552  154.7707 H   0  0  0  0  0  0  0  0  0  0  0  0
  149.4193  132.8173  155.2789 H   0  0  0  0  0  0  0  0  0  0  0  0
  148.2803  133.7381  156.2413 H   0  0  0  0  0  0  0  0  0  0  0  0
  148.4652  134.7809  153.7785 H   0  0  0  0  0  0  0  0  0  0  0  0
  152.9480  142.1475  160.7022 H   0  0  0  0  0  0  0  0  0  0  0  0
  153.0197  144.5153  161.3501 H   0  0  0  0  0  0  0  0  0  0  0  0
  151.8193  146.2303  160.0104 H   0  0  0  0  0  0  0  0  0  0  0  0
  150.5307  145.5591  157.9981 H   0  0  0  0  0  0  0  0  0  0  0  0
  149.8227  143.8182  156.5702 H   0  0  0  0  0  0  0  0  0  0  0  0
  1  2  1  0  0  0  0
  1 30  1  0  0  0  0
  1 31  1  0  0  0  0
  1 32  1  0  0  0  0
  2 29  1  0  0  0  0
  2  3  2  0  0  0  0
  3  4  1  0  0  0  0
  3 33  1  0  0  0  0
  4  5  1  0  0  0  0
  4 23  2  0  0  0  0
  5  6  1  0  0  0  0
  5 34  1  0  0  0  0
  5 35  1  0  0  0  0
  6 21  1  0  0  0  0
  6  7  1  0  0  0  0
  7  8  2  0  0  0  0
  7  9  1  0  0  0  0
  9 10  1  0  0  0  0
  9 11  2  0  0  0  0
 10 36  1  0  0  0  0
 10 37  1  0  0  0  0
 10 38  1  0  0  0  0
 11 12  1  0  0  0  0
 11 39  1  0  0  0  0
 12 13  1  0  0  0  0
 12 21  1  0  0  0  0
 13 20  1  0  0  0  0
 13 14  1  0  0  0  0
 13 40  1  0  0  0  0
 14 15  1  0  0  0  0
 14 41  1  0  0  0  0
 14 42  1  0  0  0  0
 15 16  1  0  0  0  0
 15 17  1  0  0  0  0
 15 43  1  0  0  0  0
 16 44  1  0  0  0  0
 17 18  1  0  0  0  0
 17 20  1  0  0  0  0
 17 45  1  0  0  0  0
 18 19  1  0  0  0  0
 18 46  1  0  0  0  0
 18 47  1  0  0  0  0
 19 48  1  0  0  0  0
 21 22  2  0  0  0  0
 23 28  1  0  0  0  0
 23 24  1  0  0  0  0
 24 25  2  0  0  0  0
 24 49  1  0  0  0  0
 25 26  1  0  0  0  0
 25 50  1  0  0  0  0
 26 27  2  0  0  0  0
 26 51  1  0  0  0  0
 27 28  1  0  0  0  0
 27 52  1  0  0  0  0
 28 29  2  0  0  0  0
 29 53  1  0  0  0  0
M  CHG  1  29   1
M  END
> <s_m_source_file>
AV-unprocessed.smi

> <i_m_source_file_index>
113

> <i_lp_mmshare_version>
43012

> <i_f3d_flags>
0

> <s_epik_input>
W2NIXTFbY0hdW2NIXVtjSF1jKGMxMiluYyhbQ0gzXSlbY0hdYzJbQ0gyXW4zYyg9TyljKFtDSDNdKVtjSF1uKGMzPU8pW0NAQEhdNFtDSDJdW0NAQEhdKFtPSF0pW0NASF0oTzQpW0NIMl1bT0hd

> <s_epik_cmdline>
J2VwaWtfcHl0aG9uJywgJy1waCcsICc3LjAnLCAnLXRuJywgJzgnLCAnLW1hJywgJzIwMCcsICctbWV0YWxfYmluZGluZycsICctaW1hZScsICc8aW5maWxlLm1hZT4nLCAnLW9tYWUnLCAnPG91dGZpbGUubWFlPic=

> <r_lp_tautomer_probability>
1

> <r_epik_Ionization_Penalty>
0.705471

> <r_epik_Ionization_Penalty_Charging>
0.70547

> <r_epik_Ionization_Penalty_Neutral>
1.19947e-07

> <r_epik_State_Penalty>
0.728574

> <r_epik_Charging_Adjusted_Penalty>
1.43404

> <i_epik_Tot_Q>
1

> <i_epik_Tot_abs_Q>
1

> <r_epik_Metal_State_Penalty>
4.61665

> <b_epik_Metal_Only>
0

> <s_epik_Chemistry_Notes>
This compound contains an acetal/aminal-like group ( X-CH(R)-Y where X, Y are N, S, or O) that may be acid/base labile, releasing an aldehyde.

> <s_lp_Force_Field>
OPLS_2005

> <r_lp_Energy>
45.4749

> <b_lp_Chiralities_Consistent>
1

> <s_lp_Variant>
AV-unprocessed.smi:113-16

> <Gold.Version>
5.8.1

> <Gold.Id.Protein>
6NUR|6NUR_protein|mol2

> <Gold.PLP.Fitness>
60.5396

> <Gold.PLP.PLP>
-46.4536

> <Gold.PLP.part.hbond>
-3.8594

> <Gold.PLP.part.metal>
0.0000

> <Gold.PLP.part.buried>
-6.4892

> <Gold.PLP.part.nonpolar>
-36.4020

> <Gold.PLP.part.repulsive>
0.0174

> <Gold.PLP.ligand.clash>
0.0000

> <Gold.PLP.ligand.torsion>
0.4528

> <Gold.PLP.Chemscore.Hbond>
4.9920

> <Gold.PLP.Chemscore.CHOScore>
0.0000

> <Gold.PLP.Chemscore.Metal>
0.0000

> <Gold.Chemscore.Hbonds>
donor molecule, donor type, donor heavy atom, donor atom, acceptor molecule, acceptor atom, score
      L1  H    16    44       P1  7948  1.00
      L1  H    19    48       P1  7948  0.02
      L1  H    29    53       P1  8028  2.00
      P1  H  7997  8009       L1     8  0.81

> <Gold.PLP.Chemscore.Internal.Correction>
0.0156

> <Gold.Rescore>
     Score         DG    S(hbond)    S(metal)    S(lipo)     H(rot)  DE(clash)    DE(int)     intcor
     22.88     -25.05       3.82        0.00     124.09       3.01       0.06       2.11       ----

> <Gold.Chemscore.Fitness>
22.8774

> <Gold.Chemscore.DG>
-25.0486

> <Gold.Chemscore.ZeroCoef>
-5.4800

> <Gold.Chemscore.Hbond>
3.8207

> <Gold.Chemscore.Metal>
0.0000

> <Gold.Chemscore.Lipo>
124.0872

> <Gold.Chemscore.Internal_Hbond>
0.0000

> <Gold.Chemscore.DEClash>
0.0580

> <Gold.Chemscore.DEInternal>
2.1132

> <Gold.Chemscore.Rot>
3.0120

> <Gold.Chemscore.Internal.Correction>
   9.000000E+99

> <Gold.Chemscore.Hbonds>
donor molecule, donor type, donor heavy atom, donor atom, acceptor molecule, acceptor atom, score
      L1  H    16    44       P1  7948  0.99
      L1  H    19    48       P1  7948  0.06
      L1  H    29    53       P1  8028  0.97
      P1  H  7997  8009       L1     8  0.59

> <Gold.Chemscore.Hbond.Weighted>
-12.7611

> <Gold.Chemscore.Metal.Weighted>
-0.0000

> <Gold.Chemscore.Lipo.Weighted>
-14.5182

> <Gold.Chemscore.Internal_Hbond.Weighted>
0.0000

> <Gold.Chemscore.DEClash.Weighted>
0.0580

> <Gold.Chemscore.DEInternal.Weighted>
2.1132

> <Gold.Chemscore.Rot.Weighted>
7.7108

> <Gold.Chemscore.Internal.Correction.Weighted>
   9.000000E+99

> <Gold.Protein.RotatedTorsions>
[ 6907 6896 6895 6894 ] final  143.76 input  -60.11 | X-H torsion
[ 7974 7965 7964 7962 ] final -173.42 input  175.53 | X-H torsion
[ 8008 7997 7996 7995 ] final  137.97 input   59.86 | X-H torsion
[ 10167 10162 10161 10158 ] final  101.96 input  -65.29 | X-H torsion
[ 10718 10713 10712 10709 ] final  -81.85 input   66.30 | X-H torsion
[ 10763 10752 10751 10750 ] final  -39.03 input  -60.55 | X-H torsion
[ 11005 11000 10999 10996 ] final   81.81 input  -57.11 | X-H torsion

> <Gold.Protein.ActiveResidues>
 VAL166  LYS551  ARG553  GLY616  TRP617  ASP618  TYR619  PRO620  LYS621  CYS622 
 ASP623  PHE694  ASN695  SER759  ASP760  ASP761  ALA762  ILE779  LEU786  VAL792 
 PHE793  MET794  SER795  GLU796  ALA797  LYS798  CYS799  TRP800  GLU811  SER814 

> <Gold.Protein.RotatedAtoms>
  152.2022  133.4849  159.5064 H   0  0  0  0  0  0  0  0  0  0  0  0  # atno 6907 bound_to 6896
  150.6972  134.1576  159.4173 H   0  0  0  0  0  0  0  0  0  0  0  0  # atno 6908 bound_to 6896
  151.9494  135.0176  160.0591 H   0  0  0  0  0  0  0  0  0  0  0  0  # atno 6909 bound_to 6896
  144.7138  140.1625  143.6375 H   0  0  0  0  0  0  0  0  0  0  0  0  # atno 7974 bound_to 7965
  156.3000  140.2405  156.3997 H   0  0  0  0  0  0  0  0  0  0  0  0  # atno 8008 bound_to 7997
  154.8539  140.0423  157.1641 H   0  0  0  0  0  0  0  0  0  0  0  0  # atno 8009 bound_to 7997
  154.8969  140.2971  155.5343 H   0  0  0  0  0  0  0  0  0  0  0  0  # atno 8010 bound_to 7997
  139.7392  144.7016  151.0602 H   0  0  0  0  0  0  0  0  0  0  0  0  # atno 10167 bound_to 10162
  156.0043  130.4616  150.4015 H   0  0  0  0  0  0  0  0  0  0  0  0  # atno 10718 bound_to 10713
  153.9227  135.6780  153.4747 H   0  0  0  0  0  0  0  0  0  0  0  0  # atno 10763 bound_to 10752
  153.1020  135.4823  154.8881 H   0  0  0  0  0  0  0  0  0  0  0  0  # atno 10764 bound_to 10752
  154.7469  135.3175  154.8584 H   0  0  0  0  0  0  0  0  0  0  0  0  # atno 10765 bound_to 10752
  139.9085  134.8024  156.2091 H   0  0  0  0  0  0  0  0  0  0  0  0  # atno 11005 bound_to 11000
  145.9018  139.2435  143.1489 LP  0  0  0  0  0  0  0  0  0  0  0  0  # atno 17320 bound_to 7965
  145.9803  140.8688  143.0117 LP  0  0  0  0  0  0  0  0  0  0  0  0  # atno 17321 bound_to 7965
  140.7783  143.4946  150.9849 LP  0  0  0  0  0  0  0  0  0  0  0  0  # atno 17342 bound_to 10162
  139.8634  143.7285  152.3172 LP  0  0  0  0  0  0  0  0  0  0  0  0  # atno 17343 bound_to 10162
  157.2084  131.0454  151.2612 LP  0  0  0  0  0  0  0  0  0  0  0  0  # atno 17370 bound_to 10713
  157.3911  130.7283  149.6698 LP  0  0  0  0  0  0  0  0  0  0  0  0  # atno 17371 bound_to 10713
  141.0477  133.6905  156.1713 LP  0  0  0  0  0  0  0  0  0  0  0  0  # atno 17394 bound_to 11000
  140.6859  134.4718  157.5589 LP  0  0  0  0  0  0  0  0  0  0  0  0  # atno 17395 bound_to 11000

$$$$
