AV-unprocessed.smi:1679|AV-procd|sdf|6733|dock3
  -GOLD-   22720 7483D 1   1.00000     0.00000
 Structure written by MMmdl.
 44 45  0  0  0  0  0  0  0  0  2 V2000
  151.6372  145.0393  158.5361 C   0  0  0  0  0  0  0  0  0  0  0  0
  151.7330  143.8965  159.5597 C   0  0  2  0  0  0  0  0  0  0  0  0
  152.3643  144.3944  160.8759 C   0  0  0  0  0  0  0  0  0  0  0  0
  152.4778  143.2693  161.9164 C   0  0  0  0  0  0  0  0  0  0  0  0
  153.2695  142.0797  161.3568 C   0  0  0  0  0  0  0  0  0  0  0  0
  152.6408  141.5714  160.0526 C   0  0  0  0  0  0  0  0  0  0  0  0
  152.5201  142.6912  158.9981 C   0  0  1  0  0  0  0  0  0  0  0  0
  151.8062  142.1771  157.8826 O   0  0  0  0  0  0  0  0  0  0  0  0
  150.5116  141.6801  158.1894 C   0  0  0  0  0  0  0  0  0  0  0  0
  149.9812  140.9225  156.9688 C   0  0  0  0  0  0  0  0  0  0  0  0
  150.7225  139.6803  156.8110 N   0  0  0  0  0  0  0  0  0  0  0  0
  151.1591  139.1719  155.6490 C   0  0  0  0  0  0  0  0  0  0  0  0
  150.9639  139.7230  154.5662 O   0  0  0  0  0  0  0  0  0  0  0  0
  151.9463  137.8502  155.6908 C   0  0  0  0  0  0  0  0  0  0  0  0
  151.1492  136.6673  156.0674 N   0  0  0  0  0  0  0  0  0  0  0  0
  150.5674  135.9189  155.0287 C   0  0  0  0  0  0  0  0  0  0  0  0
  149.8325  134.8169  155.2713 C   0  0  0  0  0  0  0  0  0  0  0  0
  149.6431  134.4049  156.6566 C   0  0  0  0  0  0  0  0  0  0  0  0
  148.9795  133.3983  156.8970 O   0  0  0  0  0  0  0  0  0  0  0  0
  150.2259  135.1647  157.6295 N   0  5  0  0  0  0  0  0  0  0  0  0
  150.9799  136.2772  157.3673 C   0  0  0  0  0  0  0  0  0  0  0  0
  151.5153  136.9351  158.2594 O   0  0  0  0  0  0  0  0  0  0  0  0
  152.6254  145.4095  158.2618 H   0  0  0  0  0  0  0  0  0  0  0  0
  151.0667  145.8777  158.9367 H   0  0  0  0  0  0  0  0  0  0  0  0
  151.1392  144.7127  157.6229 H   0  0  0  0  0  0  0  0  0  0  0  0
  150.7178  143.5637  159.7824 H   0  0  0  0  0  0  0  0  0  0  0  0
  153.3556  144.8040  160.6767 H   0  0  0  0  0  0  0  0  0  0  0  0
  151.7708  145.2112  161.2884 H   0  0  0  0  0  0  0  0  0  0  0  0
  152.9587  143.6437  162.8204 H   0  0  0  0  0  0  0  0  0  0  0  0
  151.4805  142.9385  162.2099 H   0  0  0  0  0  0  0  0  0  0  0  0
  154.3033  142.3760  161.1755 H   0  0  0  0  0  0  0  0  0  0  0  0
  153.3000  141.2746  162.0919 H   0  0  0  0  0  0  0  0  0  0  0  0
  153.2256  140.7355  159.6691 H   0  0  0  0  0  0  0  0  0  0  0  0
  151.6474  141.1767  160.2651 H   0  0  0  0  0  0  0  0  0  0  0  0
  153.5128  143.0300  158.6941 H   0  0  0  0  0  0  0  0  0  0  0  0
  150.5796  141.0208  159.0553 H   0  0  0  0  0  0  0  0  0  0  0  0
  149.8170  142.4803  158.4494 H   0  0  0  0  0  0  0  0  0  0  0  0
  148.9178  140.7076  157.0813 H   0  0  0  0  0  0  0  0  0  0  0  0
  150.0983  141.5362  156.0745 H   0  0  0  0  0  0  0  0  0  0  0  0
  150.9127  139.1552  157.6530 H   0  0  0  0  0  0  0  0  0  0  0  0
  152.4216  137.6995  154.7203 H   0  0  0  0  0  0  0  0  0  0  0  0
  152.7735  137.9730  156.3912 H   0  0  0  0  0  0  0  0  0  0  0  0
  150.7615  136.2892  154.0327 H   0  0  0  0  0  0  0  0  0  0  0  0
  149.3964  134.2508  154.4614 H   0  0  0  0  0  0  0  0  0  0  0  0
  1  2  1  0  0  0  0
  1 23  1  0  0  0  0
  1 24  1  0  0  0  0
  1 25  1  0  0  0  0
  2  7  1  0  0  0  0
  2  3  1  0  0  0  0
  2 26  1  0  0  0  0
  3  4  1  0  0  0  0
  3 27  1  0  0  0  0
  3 28  1  0  0  0  0
  4  5  1  0  0  0  0
  4 29  1  0  0  0  0
  4 30  1  0  0  0  0
  5  6  1  0  0  0  0
  5 31  1  0  0  0  0
  5 32  1  0  0  0  0
  6  7  1  0  0  0  0
  6 33  1  0  0  0  0
  6 34  1  0  0  0  0
  7  8  1  0  0  0  0
  7 35  1  0  0  0  0
  8  9  1  0  0  0  0
  9 10  1  0  0  0  0
  9 36  1  0  0  0  0
  9 37  1  0  0  0  0
 10 11  1  0  0  0  0
 10 38  1  0  0  0  0
 10 39  1  0  0  0  0
 11 12  1  0  0  0  0
 11 40  1  0  0  0  0
 12 13  2  0  0  0  0
 12 14  1  0  0  0  0
 14 15  1  0  0  0  0
 14 41  1  0  0  0  0
 14 42  1  0  0  0  0
 15 21  1  0  0  0  0
 15 16  1  0  0  0  0
 16 17  2  0  0  0  0
 16 43  1  0  0  0  0
 17 18  1  0  0  0  0
 17 44  1  0  0  0  0
 18 19  2  0  0  0  0
 18 20  1  0  0  0  0
 20 21  1  0  0  0  0
 21 22  2  0  0  0  0
M  CHG  1  20  -1
M  END
> <s_m_source_file>
AV-unprocessed.smi

> <i_m_source_file_index>
1679

> <i_lp_mmshare_version>
43012

> <i_f3d_flags>
0

> <s_epik_input>
W0NIM11bQ0BASF0xW0NIMl1bQ0gyXVtDSDJdW0NIMl1bQ0BIXTFPW0NIMl1bQ0gyXVtOSF1DKD1PKVtDSDJdbjJbY0hdW2NIXWMoPU8pW25IXWMyPU8=

> <s_epik_cmdline>
J2VwaWtfcHl0aG9uJywgJy1waCcsICc3LjAnLCAnLXRuJywgJzgnLCAnLW1hJywgJzIwMCcsICctbWV0YWxfYmluZGluZycsICctaW1hZScsICc8aW5maWxlLm1hZT4nLCAnLW9tYWUnLCAnPG91dGZpbGUubWFlPic=

> <r_lp_tautomer_probability>
0.999537

> <r_epik_Ionization_Penalty>
3.07454

> <r_epik_Ionization_Penalty_Charging>
2.80088e-08

> <r_epik_Ionization_Penalty_Neutral>
3.07454

> <r_epik_State_Penalty>
3.07357

> <r_epik_Charging_Adjusted_Penalty>
3.07357

> <i_epik_Tot_Q>
-1

> <i_epik_Tot_abs_Q>
1

> <r_epik_Metal_State_Penalty>
0.45948

> <b_epik_Metal_Only>
1

> <s_lp_Force_Field>
OPLS_2005

> <r_lp_Energy>
18.3585

> <b_lp_Chiralities_Consistent>
1

> <s_lp_Variant>
AV-unprocessed.smi:1679-5

> <Gold.Version>
5.8.1

> <Gold.Id.Protein>
6NUR|6NUR_protein|mol2

> <Gold.PLP.Fitness>
50.3505

> <Gold.PLP.PLP>
-42.1757

> <Gold.PLP.part.hbond>
-2.2770

> <Gold.PLP.part.metal>
0.0000

> <Gold.PLP.part.buried>
-6.2511

> <Gold.PLP.part.nonpolar>
-34.2052

> <Gold.PLP.part.repulsive>
0.1596

> <Gold.PLP.ligand.clash>
0.0000

> <Gold.PLP.ligand.torsion>
0.6280

> <Gold.PLP.Chemscore.Hbond>
2.2054

> <Gold.PLP.Chemscore.CHOScore>
0.9102

> <Gold.PLP.Chemscore.Metal>
0.0000

> <Gold.Chemscore.Hbonds>
donor molecule, donor type, donor heavy atom, donor atom, acceptor molecule, acceptor atom, score
      P1  H  6896  6908       L1    20  1.38
      P1  H  7989  7998       L1    13  1.00
      L1  C    16    43       P1  7948  0.12
      L1  C    16    43       P1  7949  0.63

> <Gold.PLP.Chemscore.Internal.Correction>
0.0841

> <Gold.Rescore>
     Score         DG    S(hbond)    S(metal)    S(lipo)     H(rot)  DE(clash)    DE(int)     intcor
     16.44     -17.09       1.65        0.00     105.84       2.45       0.08       0.57       ----

> <Gold.Chemscore.Fitness>
16.4421

> <Gold.Chemscore.DG>
-17.0895

> <Gold.Chemscore.ZeroCoef>
-5.4800

> <Gold.Chemscore.Hbond>
1.6456

> <Gold.Chemscore.Metal>
0.0000

> <Gold.Chemscore.Lipo>
105.8351

> <Gold.Chemscore.Internal_Hbond>
0.0000

> <Gold.Chemscore.DEClash>
0.0814

> <Gold.Chemscore.DEInternal>
0.5659

> <Gold.Chemscore.Rot>
2.4490

> <Gold.Chemscore.Internal.Correction>
   9.000000E+99

> <Gold.Chemscore.Hbonds>
donor molecule, donor type, donor heavy atom, donor atom, acceptor molecule, acceptor atom, score
      P1  H  6896  6908       L1    20  0.53
      P1  H  7989  7998       L1    13  1.00

> <Gold.Chemscore.Hbond.Weighted>
-5.4961

> <Gold.Chemscore.Metal.Weighted>
-0.0000

> <Gold.Chemscore.Lipo.Weighted>
-12.3827

> <Gold.Chemscore.Internal_Hbond.Weighted>
0.0000

> <Gold.Chemscore.DEClash.Weighted>
0.0814

> <Gold.Chemscore.DEInternal.Weighted>
0.5659

> <Gold.Chemscore.Rot.Weighted>
6.2694

> <Gold.Chemscore.Internal.Correction.Weighted>
   9.000000E+99

> <Gold.Protein.RotatedTorsions>
[ 6907 6896 6895 6894 ] final  153.74 input  -60.11 | X-H torsion
[ 7974 7965 7964 7962 ] final   29.59 input  175.53 | X-H torsion
[ 8008 7997 7996 7995 ] final  -56.14 input   59.86 | X-H torsion
[ 10167 10162 10161 10158 ] final -153.78 input  -65.29 | X-H torsion
[ 10718 10713 10712 10709 ] final   86.78 input   66.30 | X-H torsion
[ 10763 10752 10751 10750 ] final -144.09 input  -60.55 | X-H torsion
[ 11005 11000 10999 10996 ] final  -95.39 input  -57.11 | X-H torsion

> <Gold.Protein.ActiveResidues>
 VAL166  LYS551  ARG553  GLY616  TRP617  ASP618  TYR619  PRO620  LYS621  CYS622 
 ASP623  PHE694  ASN695  SER759  ASP760  ASP761  ALA762  ILE779  LEU786  VAL792 
 PHE793  MET794  SER795  GLU796  ALA797  LYS798  CYS799  TRP800  GLU811  SER814 

> <Gold.Protein.RotatedAtoms>
  152.0684  133.4095  159.4448 H   0  0  0  0  0  0  0  0  0  0  0  0  # atno 6907 bound_to 6896
  150.6864  134.3119  159.4759 H   0  0  0  0  0  0  0  0  0  0  0  0  # atno 6908 bound_to 6896
  152.0948  134.9382  160.0621 H   0  0  0  0  0  0  0  0  0  0  0  0  # atno 6909 bound_to 6896
  146.1662  139.6902  142.8999 H   0  0  0  0  0  0  0  0  0  0  0  0  # atno 7974 bound_to 7965
  154.4219  140.1136  156.5589 H   0  0  0  0  0  0  0  0  0  0  0  0  # atno 8008 bound_to 7997
  155.6332  140.3496  155.4671 H   0  0  0  0  0  0  0  0  0  0  0  0  # atno 8009 bound_to 7997
  155.9931  140.1183  157.0609 H   0  0  0  0  0  0  0  0  0  0  0  0  # atno 8010 bound_to 7997
  139.7068  143.9173  152.2452 H   0  0  0  0  0  0  0  0  0  0  0  0  # atno 10167 bound_to 10162
  157.6933  131.0229  150.3025 H   0  0  0  0  0  0  0  0  0  0  0  0  # atno 10718 bound_to 10713
  154.8443  135.3450  154.6291 H   0  0  0  0  0  0  0  0  0  0  0  0  # atno 10763 bound_to 10752
  153.6901  135.6975  153.5097 H   0  0  0  0  0  0  0  0  0  0  0  0  # atno 10764 bound_to 10752
  153.2602  135.4325  155.0841 H   0  0  0  0  0  0  0  0  0  0  0  0  # atno 10765 bound_to 10752
  141.1443  133.8023  157.0429 H   0  0  0  0  0  0  0  0  0  0  0  0  # atno 11005 bound_to 11000
  145.4460  141.0425  143.2831 LP  0  0  0  0  0  0  0  0  0  0  0  0  # atno 17320 bound_to 7965
  144.8097  139.5986  143.7035 LP  0  0  0  0  0  0  0  0  0  0  0  0  # atno 17321 bound_to 7965
  139.9031  144.6900  150.8644 LP  0  0  0  0  0  0  0  0  0  0  0  0  # atno 17342 bound_to 10162
  140.7723  143.3499  151.2035 LP  0  0  0  0  0  0  0  0  0  0  0  0  # atno 17343 bound_to 10162
  156.3539  130.3835  149.7307 LP  0  0  0  0  0  0  0  0  0  0  0  0  # atno 17370 bound_to 10713
  156.4775  130.8025  151.3041 LP  0  0  0  0  0  0  0  0  0  0  0  0  # atno 17371 bound_to 10713
  140.0681  134.9717  157.1421 LP  0  0  0  0  0  0  0  0  0  0  0  0  # atno 17394 bound_to 11000
  140.3750  134.2349  155.7175 LP  0  0  0  0  0  0  0  0  0  0  0  0  # atno 17395 bound_to 11000

$$$$
