#       Name:                AV-unprocessed.smi:21
#       Creating user name   scv26
#       Creation time:       Thu Mar 26 15:35:24 2020


#       File generated by GOLD software.
#

@<TRIPOS>MOLECULE
AV-unprocessed.smi:21
    71    74     1
SMALL
NO_CHARGES


@<TRIPOS>ATOM
      1 ****        -6.7708  -1.9610   0.7089 C.3            1 S1                 0.0000
      2 ****        -5.8423  -2.9508   0.2942 O.3            1 S1                 0.0000
      3 ****        -4.9493  -3.3665   1.3196 C.3            1 S1                 0.0000
      4 ****        -3.7725  -2.4022   1.4750 C.3            1 S1                 0.0000
      5 ****        -2.7589  -2.8220   0.3946 C.3            1 S1                 0.0000
      6 ****        -2.7563  -1.9042  -0.8465 C.3            1 S1                 0.0000
      7 ****        -2.2272  -0.5646  -0.5747 N.pl3          1 S1                 0.0000
      8 ****        -3.1651   0.5347  -0.3789 C.3            1 S1                 0.0000
      9 ****        -0.8841  -0.3641  -0.4258 C.ar           1 S1                 0.0000
     10 ****        -0.0419  -1.3866  -0.7397 N.ar           1 S1                 0.0000
     11 ****         1.2804  -1.2552  -0.6115 C.ar           1 S1                 0.0000
     12 ****         1.9739  -0.1993  -0.1894 N.ar           1 S1                 0.0000
     13 ****         1.1470   0.8360   0.1285 C.ar           1 S1                 0.0000
     14 ****        -0.2770   0.8439   0.0430 C.ar           1 S1                 0.0000
     15 ****        -0.7520   2.0828   0.4658 N.2            1 S1                 0.0000
     16 ****         0.3187   2.7602   0.7758 C.2            1 S1                 0.0000
     17 ****         1.5037   2.0868   0.5987 N.pl3          1 S1                 0.0000
     18 ****         2.8408   2.5856   0.8664 C.3            1 S1                 0.0000
     19 ****         3.6577   2.9135  -0.4117 C.3            1 S1                 0.0000
     20 ****         2.9548   3.9699  -1.3025 C.3            1 S1                 0.0000
     21 ****         1.9033   3.4071  -2.0596 O.3            1 S1                 0.0000
     22 ****         5.0928   3.3691  -0.0395 C.3            1 S1                 0.0000
     23 ****         6.0313   3.5677  -1.2310 C.3            1 S1                 0.0000
     24 ****         7.3952   3.0630  -0.7505 C.3            1 S1                 0.0000
     25 ****         7.2276   2.7898   0.6312 O.3            1 S1                 0.0000
     26 ****         5.8857   2.3772   0.8159 C.3            1 S1                 0.0000
     27 ****        -3.1414  -4.1974  -0.0074 N.4            1 S1                 1.0000
     28 ****        -2.0148  -5.1520  -0.0823 C.3            1 S1                 0.0000
     29 ****        -4.2562  -4.6438   0.8535 C.3            1 S1                 0.0000
     30 ****        -5.4864  -3.5304   2.2554 H              1 S1                 0.0000
     31 ****        -1.7638  -2.8347   0.8419 H              1 S1                 0.0000
     32 ****        -7.4273  -1.7081  -0.1235 H              1 S1                 0.0000
     33 ****        -6.2743  -1.0452   1.0291 H              1 S1                 0.0000
     34 ****        -7.3943  -2.3243   1.5267 H              1 S1                 0.0000
     35 ****        -4.0578  -1.3529   1.4302 H              1 S1                 0.0000
     36 ****        -3.3227  -2.5587   2.4564 H              1 S1                 0.0000
     37 ****        -2.1816  -2.3635  -1.6516 H              1 S1                 0.0000
     38 ****        -3.7707  -1.8208  -1.2381 H              1 S1                 0.0000
     39 ****        -2.9143   1.3753  -1.0265 H              1 S1                 0.0000
     40 ****        -3.1532   0.8719   0.6577 H              1 S1                 0.0000
     41 ****        -4.1858   0.2329  -0.6148 H              1 S1                 0.0000
     42 ****         1.8664  -2.1198  -0.8859 H              1 S1                 0.0000
     43 ****         0.2730   3.7764   1.1396 H              1 S1                 0.0000
     44 ****         2.7600   3.4710   1.4984 H              1 S1                 0.0000
     45 ****         3.3468   1.8278   1.4641 H              1 S1                 0.0000
     46 ****         3.7581   1.9957  -0.9936 H              1 S1                 0.0000
     47 ****         2.5710   4.7929  -0.6989 H              1 S1                 0.0000
     48 ****         3.6477   4.4081  -2.0197 H              1 S1                 0.0000
     49 ****         1.5215   4.0858  -2.5951 H              1 S1                 0.0000
     50 ****         5.0384   4.3106   0.5100 H              1 S1                 0.0000
     51 ****         5.7114   2.9932  -2.1015 H              1 S1                 0.0000
     52 ****         6.0734   4.6171  -1.5243 H              1 S1                 0.0000
     53 ****         7.6665   2.1416  -1.2679 H              1 S1                 0.0000
     54 ****         8.1917   3.7901  -0.9103 H              1 S1                 0.0000
     55 ****         5.6108   2.4106   1.8704 H              1 S1                 0.0000
     56 ****         5.7634   1.3535   0.4573 H              1 S1                 0.0000
     57 ****        -1.5388  -5.2775   0.8911 H              1 S1                 0.0000
     58 ****        -1.2632  -4.7970  -0.7881 H              1 S1                 0.0000
     59 ****        -2.3638  -6.1274  -0.4225 H              1 S1                 0.0000
     60 ****        -3.8560  -5.1714   1.7211 H              1 S1                 0.0000
     61 ****        -4.9262  -5.3255   0.3284 H              1 S1                 0.0000
     62 ****        -3.5258  -4.1141  -0.9377 H              1 S1                 0.0000
     63 ****        -5.3031  -2.5801  -0.4620 LP             1 S1                 0.0000
     64 ****        -6.3536  -3.7501  -0.0214 LP             1 S1                 0.0000
     65 ****        -0.4201  -2.2507  -1.0719 LP             1 S1                 0.0000
     66 ****         2.9708  -0.1702  -0.1155 LP             1 S1                 0.0000
     67 ****        -1.7033   2.3860   0.5198 LP             1 S1                 0.0000
     68 ****         1.2091   3.0318  -1.4454 LP             1 S1                 0.0000
     69 ****         2.2610   2.6782  -2.6434 LP             1 S1                 0.0000
     70 ****         7.4099   3.6135   1.1681 LP             1 S1                 0.0000
     71 ****         7.8521   2.0621   0.9149 LP             1 S1                 0.0000
@<TRIPOS>BOND
    1    1    2 1     
    2    1   32 1     
    3    1   33 1     
    4    1   34 1     
    5    2    3 1     
    6    3   30 1     
    7    3   29 1     
    8    3    4 1     
    9    4    5 1     
   10    4   35 1     
   11    4   36 1     
   12    5   31 1     
   13    5    6 1     
   14    5   27 1     
   15    6    7 1     
   16    6   37 1     
   17    6   38 1     
   18    7    8 1     
   19    7    9 1     
   20    8   39 1     
   21    8   40 1     
   22    8   41 1     
   23    9   14 ar    
   24    9   10 ar    
   25   10   11 ar    
   26   11   12 ar    
   27   11   42 1     
   28   12   13 ar    
   29   13   17 1     
   30   13   14 ar    
   31   14   15 1     
   32   15   16 2     
   33   16   17 1     
   34   16   43 1     
   35   17   18 1     
   36   18   19 1     
   37   18   44 1     
   38   18   45 1     
   39   19   20 1     
   40   19   22 1     
   41   19   46 1     
   42   20   21 1     
   43   20   47 1     
   44   20   48 1     
   45   21   49 1     
   46   22   26 1     
   47   22   23 1     
   48   22   50 1     
   49   23   24 1     
   50   23   51 1     
   51   23   52 1     
   52   24   25 1     
   53   24   53 1     
   54   24   54 1     
   55   25   26 1     
   56   26   55 1     
   57   26   56 1     
   58   27   28 1     
   59   27   29 1     
   60   27   62 1     
   61   28   57 1     
   62   28   58 1     
   63   28   59 1     
   64   29   60 1     
   65   29   61 1     
   66    2   63 1     
   67    2   64 1     
   68   10   65 1     
   69   12   66 1     
   70   15   67 1     
   71   21   68 1     
   72   21   69 1     
   73   25   70 1     
   74   25   71 1     
@<TRIPOS>SUBSTRUCTURE
      1 S1             1
@<TRIPOS>SET
LONE_PAIRS      STATIC     ATOMS    <user>   **** ""
9 63 64 65 66 67 68 69 70 71
DONOR_HYDROGENS      STATIC     ATOMS    <user>   **** ""
2 49 62
ATOM$BLUE        STATIC     ATOMS    COLORGROUP SYSTEM
9 63 64 65 66 67 68 69 70 71
ATOM$RED        STATIC     ATOMS    COLORGROUP SYSTEM
2 49 62
