AV-unprocessed.smi:2808|AV-procd|sdf|10824|dock1
  -GOLD-   2272015263D 1   1.00000     0.00000
 Structure written by MMmdl.
 43 44  0  0  0  0  0  0  0  0  1 V2000
  145.5046  136.6898  152.3189 C   0  0  0  0  0  0  0  0  0  0  0  0
  146.0219  137.8925  153.0862 C   0  0  0  0  0  0  0  0  0  0  0  0
  146.7074  138.9594  152.3867 C   0  0  0  0  0  0  0  0  0  0  0  0
  147.1585  140.0153  153.0799 C   0  0  0  0  0  0  0  0  0  0  0  0
  146.9859  140.1203  154.4713 N   0  0  0  0  0  0  0  0  0  0  0  0
  147.5287  141.3215  155.1278 C   0  0  0  0  0  0  0  0  0  0  0  0
  149.0586  141.2997  155.2496 C   0  0  0  0  0  0  0  0  0  0  0  0
  149.7661  141.2235  154.2448 O   0  0  0  0  0  0  0  0  0  0  0  0
  149.5500  141.3825  156.4971 N   0  0  0  0  0  0  0  0  0  0  0  0
  150.9611  141.3770  156.8967 C   0  0  0  0  0  0  0  0  0  0  0  0
  151.7333  140.4515  156.0439 C   0  0  0  0  0  0  0  0  0  0  0  0
  152.3393  139.7268  155.3757 N   0  0  0  0  0  0  0  0  0  0  0  0
  151.5182  142.8000  156.6457 C   0  0  0  0  0  0  0  0  0  0  0  0
  151.2386  143.8405  157.7449 C   0  0  0  0  0  0  0  0  0  0  0  0
  152.3308  143.8595  158.8297 C   0  0  0  0  0  0  0  0  0  0  0  0
  152.3203  142.6534  159.7824 C   0  0  0  0  0  0  0  0  0  0  0  0
  152.3810  141.2797  159.0910 C   0  0  0  0  0  0  0  0  0  0  0  0
  151.0651  140.9264  158.3780 C   0  0  0  0  0  0  0  0  0  0  0  0
  146.3520  139.1506  155.1973 C   0  0  0  0  0  0  0  0  0  0  0  0
  146.2072  139.2473  156.4176 O   0  0  0  0  0  0  0  0  0  0  0  0
  145.8610  137.9968  154.4272 C   0  0  0  0  0  0  0  0  0  0  0  0
  145.1995  136.9843  155.1857 C   0  0  0  0  0  0  0  0  0  0  0  0
  144.6610  136.1776  155.8175 N   0  0  0  0  0  0  0  0  0  0  0  0
  145.7143  136.7814  151.2529 H   0  0  0  0  0  0  0  0  0  0  0  0
  144.4258  136.5931  152.4439 H   0  0  0  0  0  0  0  0  0  0  0  0
  145.9774  135.7755  152.6792 H   0  0  0  0  0  0  0  0  0  0  0  0
  146.8603  138.9082  151.3186 H   0  0  0  0  0  0  0  0  0  0  0  0
  147.6839  140.8380  152.6166 H   0  0  0  0  0  0  0  0  0  0  0  0
  147.2464  142.2215  154.5798 H   0  0  0  0  0  0  0  0  0  0  0  0
  147.0823  141.4379  156.1174 H   0  0  0  0  0  0  0  0  0  0  0  0
  148.8805  141.4475  157.2499 H   0  0  0  0  0  0  0  0  0  0  0  0
  152.5956  142.7493  156.4811 H   0  0  0  0  0  0  0  0  0  0  0  0
  151.1194  143.1714  155.7002 H   0  0  0  0  0  0  0  0  0  0  0  0
  151.2224  144.8260  157.2783 H   0  0  0  0  0  0  0  0  0  0  0  0
  150.2485  143.7023  158.1806 H   0  0  0  0  0  0  0  0  0  0  0  0
  153.3116  143.9438  158.3601 H   0  0  0  0  0  0  0  0  0  0  0  0
  152.2141  144.7651  159.4259 H   0  0  0  0  0  0  0  0  0  0  0  0
  153.1732  142.7436  160.4557 H   0  0  0  0  0  0  0  0  0  0  0  0
  151.4376  142.7018  160.4212 H   0  0  0  0  0  0  0  0  0  0  0  0
  153.2303  141.2143  158.4103 H   0  0  0  0  0  0  0  0  0  0  0  0
  152.5595  140.5300  159.8626 H   0  0  0  0  0  0  0  0  0  0  0  0
  150.2282  141.3209  158.9568 H   0  0  0  0  0  0  0  0  0  0  0  0
  150.9427  139.8432  158.4160 H   0  0  0  0  0  0  0  0  0  0  0  0
  1  2  1  0  0  0  0
  1 24  1  0  0  0  0
  1 25  1  0  0  0  0
  1 26  1  0  0  0  0
  2 21  2  0  0  0  0
  2  3  1  0  0  0  0
  3  4  2  0  0  0  0
  3 27  1  0  0  0  0
  4  5  1  0  0  0  0
  4 28  1  0  0  0  0
  5  6  1  0  0  0  0
  5 19  1  0  0  0  0
  6  7  1  0  0  0  0
  6 29  1  0  0  0  0
  6 30  1  0  0  0  0
  7  8  2  0  0  0  0
  7  9  1  0  0  0  0
  9 10  1  0  0  0  0
  9 31  1  0  0  0  0
 10 18  1  0  0  0  0
 10 11  1  0  0  0  0
 10 13  1  0  0  0  0
 11 12  3  0  0  0  0
 13 14  1  0  0  0  0
 13 32  1  0  0  0  0
 13 33  1  0  0  0  0
 14 15  1  0  0  0  0
 14 34  1  0  0  0  0
 14 35  1  0  0  0  0
 15 16  1  0  0  0  0
 15 36  1  0  0  0  0
 15 37  1  0  0  0  0
 16 17  1  0  0  0  0
 16 38  1  0  0  0  0
 16 39  1  0  0  0  0
 17 18  1  0  0  0  0
 17 40  1  0  0  0  0
 17 41  1  0  0  0  0
 18 42  1  0  0  0  0
 18 43  1  0  0  0  0
 19 20  2  0  0  0  0
 19 21  1  0  0  0  0
 21 22  1  0  0  0  0
 22 23  3  0  0  0  0
M  END
> <s_m_source_file>
AV-unprocessed.smi

> <i_m_source_file_index>
2808

> <i_lp_mmshare_version>
43012

> <i_f3d_flags>
0

> <s_epik_input>
W0NIM11jMVtjSF1bY0hdbihjKD1PKWMxQyNOKVtDSDJdQyg9TylbTkhdQzIoQyNOKVtDSDJdW0NIMl1bQ0gyXVtDSDJdW0NIMl1bQ0gyXTI=

> <s_epik_cmdline>
J2VwaWtfcHl0aG9uJywgJy1waCcsICc3LjAnLCAnLXRuJywgJzgnLCAnLW1hJywgJzIwMCcsICctbWV0YWxfYmluZGluZycsICctaW1hZScsICc8aW5maWxlLm1hZT4nLCAnLW9tYWUnLCAnPG91dGZpbGUubWFlPic=

> <r_lp_tautomer_probability>
1

> <r_epik_Ionization_Penalty>
4.51384e-07

> <r_epik_Ionization_Penalty_Charging>
2.41788e-10

> <r_epik_Ionization_Penalty_Neutral>
4.51142e-07

> <r_epik_State_Penalty>
-0

> <r_epik_Charging_Adjusted_Penalty>
2.41788e-10

> <i_epik_Tot_Q>
0

> <i_epik_Tot_abs_Q>
0

> <r_epik_Metal_State_Penalty>
-0

> <b_epik_Metal_Only>
0

> <s_lp_Force_Field>
OPLS_2005

> <r_lp_Energy>
25.2429

> <b_lp_Chiralities_Consistent>
1

> <s_lp_Variant>
AV-unprocessed.smi:2808-1

> <Gold.Version>
5.8.1

> <Gold.Id.Protein>
6NUR|6NUR_protein|mol2

> <Gold.PLP.Fitness>
42.0802

> <Gold.PLP.PLP>
-36.9476

> <Gold.PLP.part.hbond>
-3.4642

> <Gold.PLP.part.metal>
0.0000

> <Gold.PLP.part.buried>
1.0207

> <Gold.PLP.part.nonpolar>
-33.1112

> <Gold.PLP.part.repulsive>
0.2772

> <Gold.PLP.ligand.clash>
0.0000

> <Gold.PLP.ligand.torsion>
0.6286

> <Gold.PLP.Chemscore.Hbond>
1.5924

> <Gold.PLP.Chemscore.CHOScore>
0.5322

> <Gold.PLP.Chemscore.Metal>
0.0000

> <Gold.Chemscore.Hbonds>
donor molecule, donor type, donor heavy atom, donor atom, acceptor molecule, acceptor atom, score
      P1  H  7989  7998       L1     8  0.42
      P1  H  7997  8008       L1    12  0.59
      P1  H  8011  8017       L1     8  0.32
      L1  C     4    28       P1  7957  0.65

> <Gold.PLP.Chemscore.Internal.Correction>
0.0161

> <Gold.Rescore>
     Score         DG    S(hbond)    S(metal)    S(lipo)     H(rot)  DE(clash)    DE(int)     intcor
     13.97     -16.90       1.45        0.00      89.58       1.52       0.66       2.26       ----

> <Gold.Chemscore.Fitness>
13.9725

> <Gold.Chemscore.DG>
-16.9020

> <Gold.Chemscore.ZeroCoef>
-5.4800

> <Gold.Chemscore.Hbond>
1.4492

> <Gold.Chemscore.Metal>
0.0000

> <Gold.Chemscore.Lipo>
89.5817

> <Gold.Chemscore.Internal_Hbond>
0.0000

> <Gold.Chemscore.DEClash>
0.6646

> <Gold.Chemscore.DEInternal>
2.2649

> <Gold.Chemscore.Rot>
1.5232

> <Gold.Chemscore.Internal.Correction>
   9.000000E+99

> <Gold.Chemscore.Hbonds>
donor molecule, donor type, donor heavy atom, donor atom, acceptor molecule, acceptor atom, score
      P1  H  7989  7998       L1     8  0.40
      P1  H  7997  8008       L1    12  0.18
      P1  H  8011  8017       L1     8  0.32

> <Gold.Chemscore.Hbond.Weighted>
-4.8404

> <Gold.Chemscore.Metal.Weighted>
-0.0000

> <Gold.Chemscore.Lipo.Weighted>
-10.4811

> <Gold.Chemscore.Internal_Hbond.Weighted>
0.0000

> <Gold.Chemscore.DEClash.Weighted>
0.6646

> <Gold.Chemscore.DEInternal.Weighted>
2.2649

> <Gold.Chemscore.Rot.Weighted>
3.8995

> <Gold.Chemscore.Internal.Correction.Weighted>
   9.000000E+99

> <Gold.Protein.RotatedTorsions>
[ 6907 6896 6895 6894 ] final    5.91 input  -60.11 | X-H torsion
[ 7974 7965 7964 7962 ] final -110.11 input  175.53 | X-H torsion
[ 8008 7997 7996 7995 ] final  -23.93 input   59.86 | X-H torsion
[ 10167 10162 10161 10158 ] final   89.52 input  -65.29 | X-H torsion
[ 10718 10713 10712 10709 ] final -154.92 input   66.30 | X-H torsion
[ 10763 10752 10751 10750 ] final   67.89 input  -60.55 | X-H torsion
[ 11005 11000 10999 10996 ] final  170.66 input  -57.11 | X-H torsion

> <Gold.Protein.ActiveResidues>
 VAL166  LYS551  ARG553  GLY616  TRP617  ASP618  TYR619  PRO620  LYS621  CYS622 
 ASP623  PHE694  ASN695  SER759  ASP760  ASP761  ALA762  ILE779  LEU786  VAL792 
 PHE793  MET794  SER795  GLU796  ALA797  LYS798  CYS799  TRP800  GLU811  SER814 

> <Gold.Protein.RotatedAtoms>
  151.6652  135.0984  160.0186 H   0  0  0  0  0  0  0  0  0  0  0  0  # atno 6907 bound_to 6896
  152.3924  133.6693  159.6257 H   0  0  0  0  0  0  0  0  0  0  0  0  # atno 6908 bound_to 6896
  150.7837  133.8849  159.3337 H   0  0  0  0  0  0  0  0  0  0  0  0  # atno 6909 bound_to 6896
  145.1723  140.8931  143.3528 H   0  0  0  0  0  0  0  0  0  0  0  0  # atno 7974 bound_to 7965
  154.4557  140.1967  156.0386 H   0  0  0  0  0  0  0  0  0  0  0  0  # atno 8008 bound_to 7997
  156.0741  140.3280  155.7584 H   0  0  0  0  0  0  0  0  0  0  0  0  # atno 8009 bound_to 7997
  155.5216  140.0570  157.2896 H   0  0  0  0  0  0  0  0  0  0  0  0  # atno 8010 bound_to 7997
  139.8565  144.6566  150.9108 H   0  0  0  0  0  0  0  0  0  0  0  0  # atno 10167 bound_to 10162
  156.5058  130.8412  151.2627 H   0  0  0  0  0  0  0  0  0  0  0  0  # atno 10718 bound_to 10713
  153.0208  135.5267  154.7049 H   0  0  0  0  0  0  0  0  0  0  0  0  # atno 10763 bound_to 10752
  154.6148  135.2882  155.0395 H   0  0  0  0  0  0  0  0  0  0  0  0  # atno 10764 bound_to 10752
  154.1403  135.6579  153.4993 H   0  0  0  0  0  0  0  0  0  0  0  0  # atno 10765 bound_to 10752
  140.3107  134.7519  157.3989 H   0  0  0  0  0  0  0  0  0  0  0  0  # atno 11005 bound_to 11000
  145.0220  139.3415  143.6067 LP  0  0  0  0  0  0  0  0  0  0  0  0  # atno 17320 bound_to 7965
  146.3466  139.9525  142.8727 LP  0  0  0  0  0  0  0  0  0  0  0  0  # atno 17321 bound_to 7965
  140.7781  143.3782  151.1525 LP  0  0  0  0  0  0  0  0  0  0  0  0  # atno 17342 bound_to 10162
  139.7415  143.8917  152.3051 LP  0  0  0  0  0  0  0  0  0  0  0  0  # atno 17343 bound_to 10162
  157.7457  130.9966  150.2786 LP  0  0  0  0  0  0  0  0  0  0  0  0  # atno 17370 bound_to 10713
  156.3288  130.3797  149.7509 LP  0  0  0  0  0  0  0  0  0  0  0  0  # atno 17371 bound_to 10713
  140.1027  134.5450  155.8337 LP  0  0  0  0  0  0  0  0  0  0  0  0  # atno 17394 bound_to 11000
  141.2109  133.6700  156.6541 LP  0  0  0  0  0  0  0  0  0  0  0  0  # atno 17395 bound_to 11000

$$$$
