#       Name:                AV-unprocessed.smi:1261
#       Creating user name   scv26
#       Creation time:       Fri Mar 27 04:43:18 2020


#       File generated by GOLD software.
#

@<TRIPOS>MOLECULE
AV-unprocessed.smi:1261
    57    58     1
SMALL
NO_CHARGES


@<TRIPOS>ATOM
      1 ****        -3.6278   1.5852   3.3076 C.3            1 S1                 0.0000
      2 ****        -3.1386   1.8394   1.8747 C.3            1 S1                 0.0000
      3 ****        -3.6827   3.1706   1.3256 C.3            1 S1                 0.0000
      4 ****        -3.1446   3.4665  -0.0865 C.3            1 S1                 0.0000
      5 ****        -3.7937   2.5885  -1.1714 C.3            1 S1                 0.0000
      6 ****        -1.6058   3.3759  -0.1069 C.3            1 S1                 0.0000
      7 ****        -1.1261   2.0660   0.4058 N.4            1 S1                 1.0000
      8 ****         0.3418   1.9040   0.2503 C.3            1 S1                 0.0000
      9 ****         0.7631   0.4264   0.1921 C.3            1 S1                 0.0000
     10 ****         2.2710   0.2567  -0.0541 C.3            1 S1                 0.0000
     11 ****         2.6393  -1.1512  -0.1278 N.am           1 S1                 0.0000
     12 ****         2.8365  -1.9577   0.9294 C.2            1 S1                 0.0000
     13 ****         2.7425  -1.5638   2.0914 O.2            1 S1                 0.0000
     14 ****         3.1797  -3.4346   0.6663 C.3            1 S1                 0.0000
     15 ****         3.0721  -3.8590  -0.7394 N.am           1 S1                 0.0000
     16 ****         4.2795  -3.8716  -1.4213 N.2            1 S1                 0.0000
     17 ****         4.3170  -4.2295  -2.6604 C.2            1 S1                 0.0000
     18 ****         5.5331  -4.2243  -3.2985 O.3            1 S1                 0.0000
     19 ****         3.1151  -4.6249  -3.3618 C.2            1 S1                 0.0000
     20 ****         1.9431  -4.6068  -2.6900 C.2            1 S1                 0.0000
     21 ****         1.8643  -4.1998  -1.2859 C.2            1 S1                 0.0000
     22 ****         0.8085  -4.1564  -0.6549 O.2            1 S1                 0.0000
     23 ****        -1.5999   1.8163   1.7933 C.3            1 S1                 0.0000
     24 ****         5.3564  -4.5124  -4.1808 H              1 S1                 0.0000
     25 ****        -3.2804   2.3615   3.9900 H              1 S1                 0.0000
     26 ****        -3.2663   0.6271   3.6822 H              1 S1                 0.0000
     27 ****        -4.7172   1.5655   3.3531 H              1 S1                 0.0000
     28 ****        -3.5223   1.0280   1.2550 H              1 S1                 0.0000
     29 ****        -4.7734   3.1625   1.3197 H              1 S1                 0.0000
     30 ****        -3.3889   3.9814   1.9940 H              1 S1                 0.0000
     31 ****        -3.4143   4.4960  -0.3256 H              1 S1                 0.0000
     32 ****        -3.5495   1.5340  -1.0446 H              1 S1                 0.0000
     33 ****        -3.4580   2.8852  -2.1653 H              1 S1                 0.0000
     34 ****        -4.8800   2.6816  -1.1535 H              1 S1                 0.0000
     35 ****        -1.2474   3.5345  -1.1250 H              1 S1                 0.0000
     36 ****        -1.1776   4.1741   0.5020 H              1 S1                 0.0000
     37 ****         0.6597   2.3777  -0.6797 H              1 S1                 0.0000
     38 ****         0.8623   2.4265   1.0545 H              1 S1                 0.0000
     39 ****         0.4965  -0.0772   1.1208 H              1 S1                 0.0000
     40 ****         0.2095  -0.0775  -0.6015 H              1 S1                 0.0000
     41 ****         2.5511   0.7284  -0.9963 H              1 S1                 0.0000
     42 ****         2.8470   0.7555   0.7272 H              1 S1                 0.0000
     43 ****         2.7403  -1.5506  -1.0500 H              1 S1                 0.0000
     44 ****         4.1942  -3.6099   1.0289 H              1 S1                 0.0000
     45 ****         2.5407  -4.0581   1.2941 H              1 S1                 0.0000
     46 ****         3.1624  -4.9267  -4.3979 H              1 S1                 0.0000
     47 ****         1.0382  -4.9006  -3.2015 H              1 S1                 0.0000
     48 ****        -1.1739   2.5658   2.4626 H              1 S1                 0.0000
     49 ****        -1.2444   0.8474   2.1422 H              1 S1                 0.0000
     50 ****        -1.5532   1.3644  -0.1822 H              1 S1                 0.0000
     51 ****         2.5111  -0.6091   2.2786 LP             1 S1                 0.0000
     52 ****         2.8976  -2.1984   2.8485 LP             1 S1                 0.0000
     53 ****         5.1212  -3.6033  -0.9527 LP             1 S1                 0.0000
     54 ****         6.1676  -4.8513  -2.8466 LP             1 S1                 0.0000
     55 ****         5.9216  -3.3028  -3.3029 LP             1 S1                 0.0000
     56 ****         0.8090  -3.8621   0.3008 LP             1 S1                 0.0000
     57 ****        -0.0498  -4.4154  -1.0979 LP             1 S1                 0.0000
@<TRIPOS>BOND
    1    1    2 1     
    2    1   25 1     
    3    1   26 1     
    4    1   27 1     
    5    2   23 1     
    6    2    3 1     
    7    2   28 1     
    8    3    4 1     
    9    3   29 1     
   10    3   30 1     
   11    4    5 1     
   12    4    6 1     
   13    4   31 1     
   14    5   32 1     
   15    5   33 1     
   16    5   34 1     
   17    6    7 1     
   18    6   35 1     
   19    6   36 1     
   20    7    8 1     
   21    7   23 1     
   22    7   50 1     
   23    8    9 1     
   24    8   37 1     
   25    8   38 1     
   26    9   10 1     
   27    9   39 1     
   28    9   40 1     
   29   10   11 1     
   30   10   41 1     
   31   10   42 1     
   32   11   12 am    
   33   11   43 1     
   34   12   13 2     
   35   12   14 1     
   36   14   44 1     
   37   14   45 1     
   38   14   15 1     
   39   15   16 1     
   40   15   21 am    
   41   16   17 2     
   42   17   18 1     
   43   17   19 1     
   44   18   24 1     
   45   19   46 1     
   46   19   20 2     
   47   20   47 1     
   48   20   21 1     
   49   21   22 2     
   50   23   48 1     
   51   23   49 1     
   52   13   51 1     
   53   13   52 1     
   54   16   53 1     
   55   18   54 1     
   56   18   55 1     
   57   22   56 1     
   58   22   57 1     
@<TRIPOS>SUBSTRUCTURE
      1 S1             1
@<TRIPOS>SET
LONE_PAIRS      STATIC     ATOMS    <user>   **** ""
7 51 52 53 54 55 56 57
DONOR_HYDROGENS      STATIC     ATOMS    <user>   **** ""
3 50 43 24
ATOM$BLUE        STATIC     ATOMS    COLORGROUP SYSTEM
7 51 52 53 54 55 56 57
ATOM$RED        STATIC     ATOMS    COLORGROUP SYSTEM
3 50 43 24
