AV-unprocessed.smi:2889|AV-procd|sdf|11112|dock7
  -GOLD-   2272015583D 1   1.00000     0.00000
 Structure written by MMmdl.
 35 36  0  0  0  0  0  0  0  0  2 V2000
  151.0800  145.5447  159.7367 C   0  0  0  0  0  0  0  0  0  0  0  0
  151.9746  144.3328  158.7288 S   0  0  0  0  0  0  0  0  0  0  0  0
  152.2127  142.9917  159.9402 C   0  0  2  0  0  0  0  0  0  0  0  0
  152.8911  143.5503  161.2229 C   0  0  0  0  0  0  0  0  0  0  0  0
  153.1596  142.4717  162.2919 C   0  0  0  0  0  0  0  0  0  0  0  0
  153.9719  141.3223  161.6661 C   0  0  0  0  0  0  0  0  0  0  0  0
  153.2918  140.7434  160.4023 C   0  0  0  0  0  0  0  0  0  0  0  0
  153.0009  141.8061  159.3112 C   0  0  1  0  0  0  0  0  0  0  0  0
  152.2330  141.2001  158.2301 N   0  5  0  0  0  0  0  0  0  0  0  0
  152.3802  139.6133  157.9314 S   0  0  0  0  0  0  0  0  0  0  0  0
  153.7326  139.1057  158.2144 O   0  0  0  0  0  0  0  0  0  0  0  0
  151.2509  138.8304  158.4598 O   0  0  0  0  0  0  0  0  0  0  0  0
  152.2016  139.5962  156.0960 C   0  0  0  0  0  0  0  0  0  0  0  0
  150.8499  140.1220  155.6997 C   0  0  0  0  0  0  0  0  0  0  0  0
  149.8213  140.6416  156.5342 C   0  0  0  0  0  0  0  0  0  0  0  0
  148.8312  140.9710  155.6545 C   0  0  0  0  0  0  0  0  0  0  0  0
  149.2138  140.6933  154.3828 O   0  0  0  0  0  0  0  0  0  0  0  0
  150.5050  140.1549  154.4213 N   0  0  0  0  0  0  0  0  0  0  0  0
  150.8250  146.4156  159.1332 H   0  0  0  0  0  0  0  0  0  0  0  0
  151.6889  145.8767  160.5768 H   0  0  0  0  0  0  0  0  0  0  0  0
  150.1574  145.1112  160.1227 H   0  0  0  0  0  0  0  0  0  0  0  0
  151.2224  142.6259  160.2166 H   0  0  0  0  0  0  0  0  0  0  0  0
  153.8323  144.0404  160.9653 H   0  0  0  0  0  0  0  0  0  0  0  0
  152.2664  144.3273  161.6627 H   0  0  0  0  0  0  0  0  0  0  0  0
  153.6951  142.8997  163.1397 H   0  0  0  0  0  0  0  0  0  0  0  0
  152.2132  142.0889  162.6756 H   0  0  0  0  0  0  0  0  0  0  0  0
  154.9770  141.6747  161.4254 H   0  0  0  0  0  0  0  0  0  0  0  0
  154.1033  140.5291  162.4025 H   0  0  0  0  0  0  0  0  0  0  0  0
  153.9205  139.9529  159.9917 H   0  0  0  0  0  0  0  0  0  0  0  0
  152.3585  140.2632  160.7001 H   0  0  0  0  0  0  0  0  0  0  0  0
  153.9566  142.1951  158.9570 H   0  0  0  0  0  0  0  0  0  0  0  0
  152.9973  140.2062  155.6697 H   0  0  0  0  0  0  0  0  0  0  0  0
  152.3477  138.5719  155.7515 H   0  0  0  0  0  0  0  0  0  0  0  0
  149.8114  140.7464  157.6090 H   0  0  0  0  0  0  0  0  0  0  0  0
  147.8448  141.3947  155.7720 H   0  0  0  0  0  0  0  0  0  0  0  0
  1  2  1  0  0  0  0
  1 19  1  0  0  0  0
  1 20  1  0  0  0  0
  1 21  1  0  0  0  0
  2  3  1  0  0  0  0
  3  8  1  0  0  0  0
  3  4  1  0  0  0  0
  3 22  1  0  0  0  0
  4  5  1  0  0  0  0
  4 23  1  0  0  0  0
  4 24  1  0  0  0  0
  5  6  1  0  0  0  0
  5 25  1  0  0  0  0
  5 26  1  0  0  0  0
  6  7  1  0  0  0  0
  6 27  1  0  0  0  0
  6 28  1  0  0  0  0
  7  8  1  0  0  0  0
  7 29  1  0  0  0  0
  7 30  1  0  0  0  0
  8  9  1  0  0  0  0
  8 31  1  0  0  0  0
  9 10  1  0  0  0  0
 10 11  2  0  0  0  0
 10 12  2  0  0  0  0
 10 13  1  0  0  0  0
 13 14  1  0  0  0  0
 13 32  1  0  0  0  0
 13 33  1  0  0  0  0
 14 18  2  0  0  0  0
 14 15  1  0  0  0  0
 15 16  2  0  0  0  0
 15 34  1  0  0  0  0
 16 17  1  0  0  0  0
 16 35  1  0  0  0  0
 17 18  1  0  0  0  0
M  CHG  1   9  -1
M  END
> <s_m_source_file>
AV-unprocessed.smi

> <i_m_source_file_index>
2889

> <i_lp_mmshare_version>
43012

> <i_f3d_flags>
0

> <s_epik_input>
W0NIM11TW0NAQEhdMVtDSDJdW0NIMl1bQ0gyXVtDSDJdW0NASF0xW05IXVMoPU8pKD1PKVtDSDJdYzJbY0hdW2NIXW9uMg==

> <s_epik_cmdline>
J2VwaWtfcHl0aG9uJywgJy1waCcsICc3LjAnLCAnLXRuJywgJzgnLCAnLW1hJywgJzIwMCcsICctbWV0YWxfYmluZGluZycsICctaW1hZScsICc8aW5maWxlLm1hZT4nLCAnLW9tYWUnLCAnPG91dGZpbGUubWFlPic=

> <r_lp_tautomer_probability>
1

> <r_epik_Ionization_Penalty>
4.65467

> <r_epik_Ionization_Penalty_Charging>
4.65467

> <r_epik_Ionization_Penalty_Neutral>
2.71476e-10

> <r_epik_State_Penalty>
4.65444

> <r_epik_Charging_Adjusted_Penalty>
9.30911

> <i_epik_Tot_Q>
-1

> <i_epik_Tot_abs_Q>
1

> <r_epik_Metal_State_Penalty>
0.901484

> <b_epik_Metal_Only>
1

> <s_lp_Force_Field>
OPLS_2005

> <r_lp_Energy>
8.40565

> <b_lp_Chiralities_Consistent>
1

> <s_lp_Variant>
AV-unprocessed.smi:2889-5

> <Gold.Version>
5.8.1

> <Gold.Id.Protein>
6NUR|6NUR_protein|mol2

> <Gold.PLP.Fitness>
45.1184

> <Gold.PLP.PLP>
-40.1080

> <Gold.PLP.part.hbond>
-2.3076

> <Gold.PLP.part.metal>
0.0000

> <Gold.PLP.part.buried>
-4.2666

> <Gold.PLP.part.nonpolar>
-33.1183

> <Gold.PLP.part.repulsive>
0.2443

> <Gold.PLP.ligand.clash>
0.0000

> <Gold.PLP.ligand.torsion>
0.9887

> <Gold.PLP.Chemscore.Hbond>
1.9913

> <Gold.PLP.Chemscore.CHOScore>
0.0000

> <Gold.PLP.Chemscore.Metal>
0.0000

> <Gold.Chemscore.Hbonds>
donor molecule, donor type, donor heavy atom, donor atom, acceptor molecule, acceptor atom, score
      P1  H  7989  7998       L1    18  1.00
      P1  H  7997  8008       L1    11  1.00

> <Gold.PLP.Chemscore.Internal.Correction>
1.0141

> <Gold.Rescore>
     Score         DG    S(hbond)    S(metal)    S(lipo)     H(rot)  DE(clash)    DE(int)     intcor
     17.63     -19.95       1.86        0.00     104.09       1.53       0.01       2.31       ----

> <Gold.Chemscore.Fitness>
17.6337

> <Gold.Chemscore.DG>
-19.9534

> <Gold.Chemscore.ZeroCoef>
-5.4800

> <Gold.Chemscore.Hbond>
1.8608

> <Gold.Chemscore.Metal>
0.0000

> <Gold.Chemscore.Lipo>
104.0911

> <Gold.Chemscore.Internal_Hbond>
0.0000

> <Gold.Chemscore.DEClash>
0.0077

> <Gold.Chemscore.DEInternal>
2.3120

> <Gold.Chemscore.Rot>
1.5314

> <Gold.Chemscore.Internal.Correction>
   9.000000E+99

> <Gold.Chemscore.Hbonds>
donor molecule, donor type, donor heavy atom, donor atom, acceptor molecule, acceptor atom, score
      P1  H  7989  7998       L1    18  0.79
      P1  H  7997  8008       L1    11  0.45

> <Gold.Chemscore.Hbond.Weighted>
-6.2152

> <Gold.Chemscore.Metal.Weighted>
-0.0000

> <Gold.Chemscore.Lipo.Weighted>
-12.1787

> <Gold.Chemscore.Internal_Hbond.Weighted>
0.0000

> <Gold.Chemscore.DEClash.Weighted>
0.0077

> <Gold.Chemscore.DEInternal.Weighted>
2.3120

> <Gold.Chemscore.Rot.Weighted>
3.9205

> <Gold.Chemscore.Internal.Correction.Weighted>
   9.000000E+99

> <Gold.Protein.RotatedTorsions>
[ 6907 6896 6895 6894 ] final   70.73 input  -60.11 | X-H torsion
[ 7974 7965 7964 7962 ] final   82.00 input  175.53 | X-H torsion
[ 8008 7997 7996 7995 ] final  -97.47 input   59.86 | X-H torsion
[ 10167 10162 10161 10158 ] final   54.57 input  -65.29 | X-H torsion
[ 10718 10713 10712 10709 ] final   48.44 input   66.30 | X-H torsion
[ 10763 10752 10751 10750 ] final -119.97 input  -60.55 | X-H torsion
[ 11005 11000 10999 10996 ] final  141.16 input  -57.11 | X-H torsion

> <Gold.Protein.ActiveResidues>
 VAL166  LYS551  ARG553  GLY616  TRP617  ASP618  TYR619  PRO620  LYS621  CYS622 
 ASP623  PHE694  ASN695  SER759  ASP760  ASP761  ALA762  ILE779  LEU786  VAL792 
 PHE793  MET794  SER795  GLU796  ALA797  LYS798  CYS799  TRP800  GLU811  SER814 

> <Gold.Protein.RotatedAtoms>
  152.4767  134.4825  159.9669 H   0  0  0  0  0  0  0  0  0  0  0  0  # atno 6907 bound_to 6896
  151.4840  133.3534  159.2850 H   0  0  0  0  0  0  0  0  0  0  0  0  # atno 6908 bound_to 6896
  150.8811  134.8228  159.7286 H   0  0  0  0  0  0  0  0  0  0  0  0  # atno 6909 bound_to 6896
  145.6307  139.2404  143.2086 H   0  0  0  0  0  0  0  0  0  0  0  0  # atno 7974 bound_to 7965
  154.7882  140.0463  157.1180 H   0  0  0  0  0  0  0  0  0  0  0  0  # atno 8008 bound_to 7997
  154.9623  140.3079  155.5005 H   0  0  0  0  0  0  0  0  0  0  0  0  # atno 8009 bound_to 7997
  156.2946  140.2268  156.4709 H   0  0  0  0  0  0  0  0  0  0  0  0  # atno 8010 bound_to 7997
  140.2287  144.3711  150.6423 H   0  0  0  0  0  0  0  0  0  0  0  0  # atno 10167 bound_to 10162
  157.4687  130.8241  149.7964 H   0  0  0  0  0  0  0  0  0  0  0  0  # atno 10718 bound_to 10713
  154.8632  135.4219  154.2384 H   0  0  0  0  0  0  0  0  0  0  0  0  # atno 10763 bound_to 10752
  153.3355  135.6990  153.6917 H   0  0  0  0  0  0  0  0  0  0  0  0  # atno 10764 bound_to 10752
  153.5917  135.3553  155.2886 H   0  0  0  0  0  0  0  0  0  0  0  0  # atno 10765 bound_to 10752
  140.0381  134.9319  157.0791 H   0  0  0  0  0  0  0  0  0  0  0  0  # atno 11005 bound_to 11000
  146.1358  140.7124  142.9390 LP  0  0  0  0  0  0  0  0  0  0  0  0  # atno 17320 bound_to 7965
  144.7194  140.4323  143.7019 LP  0  0  0  0  0  0  0  0  0  0  0  0  # atno 17321 bound_to 7965
  140.6201  143.2175  151.6711 LP  0  0  0  0  0  0  0  0  0  0  0  0  # atno 17342 bound_to 10162
  139.5118  144.3498  152.0663 LP  0  0  0  0  0  0  0  0  0  0  0  0  # atno 17343 bound_to 10162
  156.0063  130.3854  150.2421 LP  0  0  0  0  0  0  0  0  0  0  0  0  # atno 17370 bound_to 10713
  157.0603  131.0088  151.3225 LP  0  0  0  0  0  0  0  0  0  0  0  0  # atno 17371 bound_to 10713
  140.4114  134.1977  155.7163 LP  0  0  0  0  0  0  0  0  0  0  0  0  # atno 17394 bound_to 11000
  141.1868  133.8294  157.1055 LP  0  0  0  0  0  0  0  0  0  0  0  0  # atno 17395 bound_to 11000

$$$$
