AV-unprocessed.smi:1669|AV-procd|sdf|6684|dock8
  -GOLD-   22720 7403D 1   1.00000     0.00000
 Structure written by MMmdl.
 48 50  0  0  0  0  0  0  0  0  2 V2000
  145.7872  137.6117  152.1817 C   0  0  0  0  0  0  0  0  0  0  0  0
  146.9304  137.4678  153.1177 N   0  3  2  0  0  0  0  0  0  0  0  0
  146.6360  136.5532  154.2509 C   0  0  0  0  0  0  0  0  0  0  0  0
  147.0605  135.1216  153.9705 C   0  0  0  0  0  0  0  0  0  0  0  0
  148.0961  134.5253  154.7213 C   0  0  0  0  0  0  0  0  0  0  0  0
  148.4833  133.1962  154.4617 C   0  0  0  0  0  0  0  0  0  0  0  0
  147.8389  132.4593  153.4494 C   0  0  0  0  0  0  0  0  0  0  0  0
  146.8077  133.0522  152.6955 C   0  0  0  0  0  0  0  0  0  0  0  0
  146.4199  134.3814  152.9543 C   0  0  0  0  0  0  0  0  0  0  0  0
  147.4549  138.7791  153.5787 C   0  0  0  0  0  0  0  0  0  0  0  0
  148.7868  138.6412  154.3492 C   0  0  2  0  0  0  0  0  0  0  0  0
  148.4972  138.4464  155.7182 O   0  0  0  0  0  0  0  0  0  0  0  0
  149.7041  139.8753  154.2295 C   0  0  0  0  0  0  0  0  0  0  0  0
  150.7320  139.9073  155.2614 N   0  0  0  0  0  0  0  0  0  0  0  0
  151.8645  139.1632  155.3515 C   0  0  0  0  0  0  0  0  0  0  0  0
  152.2225  138.1425  154.3080 C   0  0  0  0  0  0  0  0  0  0  0  0
  151.4477  136.9625  154.3698 O   0  0  0  0  0  0  0  0  0  0  0  0
  152.6266  139.4040  156.4209 N   0  0  0  0  0  0  0  0  0  0  0  0
  151.9299  140.3971  157.0795 C   0  0  0  0  0  0  0  0  0  0  0  0
  152.2184  141.0784  158.2834 C   0  0  0  0  0  0  0  0  0  0  0  0
  151.3435  142.0728  158.7679 C   0  0  0  0  0  0  0  0  0  0  0  0
  150.1707  142.3995  158.0568 C   0  0  0  0  0  0  0  0  0  0  0  0
  149.8643  141.7320  156.8554 C   0  0  0  0  0  0  0  0  0  0  0  0
  150.7402  140.7389  156.3774 C   0  0  0  0  0  0  0  0  0  0  0  0
  144.9133  138.0142  152.6953 H   0  0  0  0  0  0  0  0  0  0  0  0
  145.5117  136.6528  151.7435 H   0  0  0  0  0  0  0  0  0  0  0  0
  146.0262  138.2780  151.3541 H   0  0  0  0  0  0  0  0  0  0  0  0
  147.1708  136.8827  155.1428 H   0  0  0  0  0  0  0  0  0  0  0  0
  145.5726  136.5927  154.4929 H   0  0  0  0  0  0  0  0  0  0  0  0
  148.5944  135.0830  155.5009 H   0  0  0  0  0  0  0  0  0  0  0  0
  149.2748  132.7415  155.0392 H   0  0  0  0  0  0  0  0  0  0  0  0
  148.1360  131.4398  153.2510 H   0  0  0  0  0  0  0  0  0  0  0  0
  146.3144  132.4868  151.9186 H   0  0  0  0  0  0  0  0  0  0  0  0
  145.6279  134.8296  152.3722 H   0  0  0  0  0  0  0  0  0  0  0  0
  147.5626  139.4306  152.7108 H   0  0  0  0  0  0  0  0  0  0  0  0
  146.7329  139.2695  154.2332 H   0  0  0  0  0  0  0  0  0  0  0  0
  149.3385  137.7693  154.0007 H   0  0  0  0  0  0  0  0  0  0  0  0
  147.5937  138.1804  155.8020 H   0  0  0  0  0  0  0  0  0  0  0  0
  150.1688  139.9128  153.2444 H   0  0  0  0  0  0  0  0  0  0  0  0
  149.1142  140.7889  154.3174 H   0  0  0  0  0  0  0  0  0  0  0  0
  152.0942  138.5749  153.3159 H   0  0  0  0  0  0  0  0  0  0  0  0
  153.2746  137.8787  154.4184 H   0  0  0  0  0  0  0  0  0  0  0  0
  151.0974  136.7856  153.5102 H   0  0  0  0  0  0  0  0  0  0  0  0
  153.1149  140.8363  158.8348 H   0  0  0  0  0  0  0  0  0  0  0  0
  151.5748  142.5882  159.6887 H   0  0  0  0  0  0  0  0  0  0  0  0
  149.5071  143.1639  158.4343 H   0  0  0  0  0  0  0  0  0  0  0  0
  148.9675  141.9829  156.3089 H   0  0  0  0  0  0  0  0  0  0  0  0
  147.6842  137.0351  152.6027 H   0  0  0  0  0  0  0  0  0  0  0  0
  1  2  1  0  0  0  0
  1 25  1  0  0  0  0
  1 26  1  0  0  0  0
  1 27  1  0  0  0  0
  2  3  1  0  0  0  0
  2 10  1  0  0  0  0
  2 48  1  0  0  0  0
  3  4  1  0  0  0  0
  3 28  1  0  0  0  0
  3 29  1  0  0  0  0
  4  9  1  0  0  0  0
  4  5  2  0  0  0  0
  5  6  1  0  0  0  0
  5 30  1  0  0  0  0
  6  7  2  0  0  0  0
  6 31  1  0  0  0  0
  7  8  1  0  0  0  0
  7 32  1  0  0  0  0
  8  9  2  0  0  0  0
  8 33  1  0  0  0  0
  9 34  1  0  0  0  0
 10 11  1  0  0  0  0
 10 35  1  0  0  0  0
 10 36  1  0  0  0  0
 11 12  1  0  0  0  0
 11 13  1  0  0  0  0
 11 37  1  0  0  0  0
 12 38  1  0  0  0  0
 13 14  1  0  0  0  0
 13 39  1  0  0  0  0
 13 40  1  0  0  0  0
 14 24  1  0  0  0  0
 14 15  1  0  0  0  0
 15 16  1  0  0  0  0
 15 18  2  0  0  0  0
 16 17  1  0  0  0  0
 16 41  1  0  0  0  0
 16 42  1  0  0  0  0
 17 43  1  0  0  0  0
 18 19  1  0  0  0  0
 19 24  2  0  0  0  0
 19 20  1  0  0  0  0
 20 21  2  0  0  0  0
 20 44  1  0  0  0  0
 21 22  1  0  0  0  0
 21 45  1  0  0  0  0
 22 23  2  0  0  0  0
 22 46  1  0  0  0  0
 23 24  1  0  0  0  0
 23 47  1  0  0  0  0
M  CHG  1   2   1
M  END
> <s_m_source_file>
AV-unprocessed.smi

> <i_m_source_file_index>
1669

> <i_lp_mmshare_version>
43012

> <i_f3d_flags>
0

> <s_epik_input>
W2NIXTFbY0hdW2NIXVtjSF1bY0hdYzFbQ0gyXU4oW0NIM10pW0NIMl1bQ0BIXShbT0hdKVtDSDJdbihjKG4yKVtDSDJdW09IXSljKGMyMylbY0hdW2NIXVtjSF1bY0hdMw==

> <s_epik_cmdline>
J2VwaWtfcHl0aG9uJywgJy1waCcsICc3LjAnLCAnLXRuJywgJzgnLCAnLW1hJywgJzIwMCcsICctbWV0YWxfYmluZGluZycsICctaW1hZScsICc8aW5maWxlLm1hZT4nLCAnLW9tYWUnLCAnPG91dGZpbGUubWFlPic=

> <r_epik_Ionization_Penalty>
0.0949884

> <r_epik_Ionization_Penalty_Charging>
0.0475377

> <r_epik_Ionization_Penalty_Neutral>
0.0474507

> <r_epik_State_Penalty>
0.078247

> <r_epik_Charging_Adjusted_Penalty>
0.125785

> <i_epik_Tot_Q>
1

> <i_epik_Tot_abs_Q>
1

> <r_epik_Metal_State_Penalty>
0.0403451

> <b_epik_Metal_Only>
0

> <s_lp_Force_Field>
OPLS_2005

> <r_lp_Energy>
17.3617

> <b_lp_Chiralities_Consistent>
1

> <s_lp_Variant>
AV-unprocessed.smi:1669-2

> <Gold.Version>
5.8.1

> <Gold.Id.Protein>
6NUR|6NUR_protein|mol2

> <Gold.PLP.Fitness>
52.1519

> <Gold.PLP.PLP>
-39.8738

> <Gold.PLP.part.hbond>
-4.0000

> <Gold.PLP.part.metal>
0.0000

> <Gold.PLP.part.buried>
-3.1748

> <Gold.PLP.part.nonpolar>
-32.1355

> <Gold.PLP.part.repulsive>
0.0139

> <Gold.PLP.ligand.clash>
0.0000

> <Gold.PLP.ligand.torsion>
1.4361

> <Gold.PLP.Chemscore.Hbond>
4.9833

> <Gold.PLP.Chemscore.CHOScore>
0.0000

> <Gold.PLP.Chemscore.Metal>
0.0000

> <Gold.Chemscore.Hbonds>
donor molecule, donor type, donor heavy atom, donor atom, acceptor molecule, acceptor atom, score
      L1  H     2    48       P1  7948  2.00
      L1  H    17    43       P1  7949  0.65
      P1  H  7997  8008       L1    18  1.00
      P1  H 10752 10763       L1    17  0.48

> <Gold.PLP.Chemscore.Internal.Correction>
0.2003

> <Gold.Rescore>
     Score         DG    S(hbond)    S(metal)    S(lipo)     H(rot)  DE(clash)    DE(int)     intcor
     12.74     -15.13       1.93        0.00      96.87       3.17       0.12       2.27       ----

> <Gold.Chemscore.Fitness>
12.7422

> <Gold.Chemscore.DG>
-15.1254

> <Gold.Chemscore.ZeroCoef>
-5.4800

> <Gold.Chemscore.Hbond>
1.9265

> <Gold.Chemscore.Metal>
0.0000

> <Gold.Chemscore.Lipo>
96.8728

> <Gold.Chemscore.Internal_Hbond>
0.0000

> <Gold.Chemscore.DEClash>
0.1166

> <Gold.Chemscore.DEInternal>
2.2667

> <Gold.Chemscore.Rot>
3.1731

> <Gold.Chemscore.Internal.Correction>
   9.000000E+99

> <Gold.Chemscore.Hbonds>
donor molecule, donor type, donor heavy atom, donor atom, acceptor molecule, acceptor atom, score
      L1  H     2    48       P1  7948  1.00
      L1  H    17    43       P1  7949  0.25
      P1  H  7997  8008       L1    18  0.26

> <Gold.Chemscore.Hbond.Weighted>
-6.4344

> <Gold.Chemscore.Metal.Weighted>
-0.0000

> <Gold.Chemscore.Lipo.Weighted>
-11.3341

> <Gold.Chemscore.Internal_Hbond.Weighted>
0.0000

> <Gold.Chemscore.DEClash.Weighted>
0.1166

> <Gold.Chemscore.DEInternal.Weighted>
2.2667

> <Gold.Chemscore.Rot.Weighted>
8.1230

> <Gold.Chemscore.Internal.Correction.Weighted>
   9.000000E+99

> <Gold.Protein.RotatedTorsions>
[ 6907 6896 6895 6894 ] final  171.22 input  -60.11 | X-H torsion
[ 7974 7965 7964 7962 ] final -139.38 input  175.53 | X-H torsion
[ 8008 7997 7996 7995 ] final  -56.45 input   59.86 | X-H torsion
[ 10167 10162 10161 10158 ] final   -8.35 input  -65.29 | X-H torsion
[ 10718 10713 10712 10709 ] final   56.30 input   66.30 | X-H torsion
[ 10763 10752 10751 10750 ] final   29.28 input  -60.55 | X-H torsion
[ 11005 11000 10999 10996 ] final   64.40 input  -57.11 | X-H torsion

> <Gold.Protein.ActiveResidues>
 VAL166  LYS551  ARG553  GLY616  TRP617  ASP618  TYR619  PRO620  LYS621  CYS622 
 ASP623  PHE694  ASN695  SER759  ASP760  ASP761  ALA762  ILE779  LEU786  VAL792 
 PHE793  MET794  SER795  GLU796  ALA797  LYS798  CYS799  TRP800  GLU811  SER814 

> <Gold.Protein.RotatedAtoms>
  151.8037  133.3373  159.3534 H   0  0  0  0  0  0  0  0  0  0  0  0  # atno 6907 bound_to 6896
  150.7350  134.5730  159.5909 H   0  0  0  0  0  0  0  0  0  0  0  0  # atno 6908 bound_to 6896
  152.3125  134.7481  160.0384 H   0  0  0  0  0  0  0  0  0  0  0  0  # atno 6909 bound_to 6896
  144.8681  140.6325  143.5284 H   0  0  0  0  0  0  0  0  0  0  0  0  # atno 7974 bound_to 7965
  154.4231  140.1129  156.5640 H   0  0  0  0  0  0  0  0  0  0  0  0  # atno 8008 bound_to 7997
  155.6282  140.3495  155.4655 H   0  0  0  0  0  0  0  0  0  0  0  0  # atno 8009 bound_to 7997
  155.9970  140.1191  157.0574 H   0  0  0  0  0  0  0  0  0  0  0  0  # atno 8010 bound_to 7997
  140.7056  143.5978  150.8828 H   0  0  0  0  0  0  0  0  0  0  0  0  # atno 10167 bound_to 10162
  157.5419  130.8703  149.8835 H   0  0  0  0  0  0  0  0  0  0  0  0  # atno 10718 bound_to 10713
  153.0440  135.6493  154.0866 H   0  0  0  0  0  0  0  0  0  0  0  0  # atno 10763 bound_to 10752
  154.0567  135.2891  155.3333 H   0  0  0  0  0  0  0  0  0  0  0  0  # atno 10764 bound_to 10752
  154.6684  135.5365  153.8172 H   0  0  0  0  0  0  0  0  0  0  0  0  # atno 10765 bound_to 10752
  139.9961  134.6514  156.0007 H   0  0  0  0  0  0  0  0  0  0  0  0  # atno 11005 bound_to 11000
  145.4182  139.1568  143.4088 LP  0  0  0  0  0  0  0  0  0  0  0  0  # atno 17320 bound_to 7965
  146.2911  140.4291  142.8739 LP  0  0  0  0  0  0  0  0  0  0  0  0  # atno 17321 bound_to 7965
  139.9703  143.6064  152.2975 LP  0  0  0  0  0  0  0  0  0  0  0  0  # atno 17342 bound_to 10162
  139.6649  144.7662  151.1893 LP  0  0  0  0  0  0  0  0  0  0  0  0  # atno 17343 bound_to 10162
  156.0504  130.3719  150.1215 LP  0  0  0  0  0  0  0  0  0  0  0  0  # atno 17370 bound_to 10713
  156.9394  130.9739  151.3519 LP  0  0  0  0  0  0  0  0  0  0  0  0  # atno 17371 bound_to 10713
  141.1606  133.6539  156.4305 LP  0  0  0  0  0  0  0  0  0  0  0  0  # atno 17394 bound_to 11000
  140.4815  134.6660  157.5173 LP  0  0  0  0  0  0  0  0  0  0  0  0  # atno 17395 bound_to 11000

$$$$
