#       Name:                AV-unprocessed.smi:3034
#       Creating user name   scv26
#       Creation time:       Fri Mar 27 16:55:01 2020


#       File generated by GOLD software.
#

@<TRIPOS>MOLECULE
AV-unprocessed.smi:3034
    35    35     1
SMALL
NO_CHARGES


@<TRIPOS>ATOM
      1 ****        -3.8885   3.5774   0.7676 C.3            1 S1                 0.0000
      2 ****        -3.6811   2.1910   0.1488 C.3            1 S1                 0.0000
      3 ****        -2.2422   1.6849   0.3126 C.3            1 S1                 0.0000
      4 ****        -2.0307   0.0136  -0.4514 S.o2           1 S1                 0.0000
      5 ****        -2.8706  -0.9081   0.3322 O.2            1 S1                 0.0000
      6 ****        -2.3961   0.1902  -1.8651 O.2            1 S1                 0.0000
      7 ****        -0.4339  -0.2418  -0.2871 N.pl3          1 S1                -1.0000
      8 ****         0.1384  -0.6615   0.9864 C.3            1 S1                 0.0000
      9 ****         1.6790  -0.4900   0.9724 C.3            1 S1                 0.0000
     10 ****         2.1548  -0.6788   2.2920 O.3            1 S1                 0.0000
     11 ****         2.4117  -1.3820  -0.0363 C.ar           1 S1                 0.0000
     12 ****         2.7959  -0.8653  -1.2953 C.ar           1 S1                 0.0000
     13 ****         3.4747  -1.7071  -2.1966 C.ar           1 S1                 0.0000
     14 ****         3.7552  -3.0307  -1.8086 C.ar           1 S1                 0.0000
     15 ****         3.3410  -3.4550  -0.5311 C.ar           1 S1                 0.0000
     16 ****         2.6894  -2.6562   0.3406 N.ar           1 S1                 0.0000
     17 ****        -4.9198   3.9076   0.6427 H              1 S1                 0.0000
     18 ****        -3.2418   4.3186   0.2973 H              1 S1                 0.0000
     19 ****        -3.6686   3.5686   1.8354 H              1 S1                 0.0000
     20 ****        -4.3707   1.4833   0.6098 H              1 S1                 0.0000
     21 ****        -3.9388   2.2282  -0.9099 H              1 S1                 0.0000
     22 ****        -1.5381   2.3654  -0.1661 H              1 S1                 0.0000
     23 ****        -1.9811   1.6209   1.3686 H              1 S1                 0.0000
     24 ****        -0.2673  -0.0662   1.8056 H              1 S1                 0.0000
     25 ****        -0.1138  -1.6961   1.2222 H              1 S1                 0.0000
     26 ****         1.9077   0.5477   0.7243 H              1 S1                 0.0000
     27 ****         3.0822  -0.5007   2.2998 H              1 S1                 0.0000
     28 ****         2.5641   0.1537  -1.5683 H              1 S1                 0.0000
     29 ****         3.7746  -1.3434  -3.1683 H              1 S1                 0.0000
     30 ****         4.2744  -3.7046  -2.4737 H              1 S1                 0.0000
     31 ****         3.5406  -4.4631  -0.1994 H              1 S1                 0.0000
     32 ****         0.1676  -0.1085  -1.0748 LP             1 S1                 0.0000
     33 ****         1.9888  -1.6220   2.5799 LP             1 S1                 0.0000
     34 ****         1.6847  -0.0528   2.9141 LP             1 S1                 0.0000
     35 ****         2.4180  -2.9948   1.2415 LP             1 S1                 0.0000
@<TRIPOS>BOND
    1    1    2 1     
    2    1   17 1     
    3    1   18 1     
    4    1   19 1     
    5    2    3 1     
    6    2   20 1     
    7    2   21 1     
    8    3    4 1     
    9    3   22 1     
   10    3   23 1     
   11    4    5 2     
   12    4    6 2     
   13    4    7 1     
   14    7    8 1     
   15    8    9 1     
   16    8   24 1     
   17    8   25 1     
   18    9   10 1     
   19    9   11 1     
   20    9   26 1     
   21   10   27 1     
   22   11   16 ar    
   23   11   12 ar    
   24   12   13 ar    
   25   12   28 1     
   26   13   14 ar    
   27   13   29 1     
   28   14   15 ar    
   29   14   30 1     
   30   15   16 ar    
   31   15   31 1     
   32    7   32 1     
   33   10   33 1     
   34   10   34 1     
   35   16   35 1     
@<TRIPOS>SUBSTRUCTURE
      1 S1             1
@<TRIPOS>SET
LONE_PAIRS      STATIC     ATOMS    <user>   **** ""
6 5 6 32 33 34 35
DONOR_HYDROGENS      STATIC     ATOMS    <user>   **** ""
1 27
ATOM$BLUE        STATIC     ATOMS    COLORGROUP SYSTEM
6 5 6 32 33 34 35
ATOM$RED        STATIC     ATOMS    COLORGROUP SYSTEM
1 27
