AV-unprocessed.smi:3090|AV-procd|sdf|11775|dock10
  -GOLD-   2272017153D 1   1.00000     0.00000
 Structure written by MMmdl.
 22 22  0  0  0  0  0  0  0  0  2 V2000
  151.7599  142.9913  158.1317 C   0  0  0  0  0  0  0  0  0  0  0  0
  151.3210  141.9805  157.1937 N   0  0  0  0  0  0  0  0  0  0  0  0
  150.2730  142.0324  156.3006 C   0  0  0  0  0  0  0  0  0  0  0  0
  150.2453  140.8417  155.6277 C   0  0  0  0  0  0  0  0  0  0  0  0
  149.3093  140.3794  154.5422 C   0  0  1  0  0  0  0  0  0  0  0  0
  149.5322  141.0817  153.3353 O   0  0  0  0  0  0  0  0  0  0  0  0
  149.4927  138.8758  154.2718 C   0  0  0  0  0  0  0  0  0  0  0  0
  148.8141  138.4549  153.0336 N   0  3  0  0  0  0  0  0  0  0  0  0
  151.3371  140.1219  156.1930 C   0  0  0  0  0  0  0  0  0  0  0  0
  151.9774  140.8046  157.1276 N   0  0  0  0  0  0  0  0  0  0  0  0
  151.1259  143.8751  158.0538 H   0  0  0  0  0  0  0  0  0  0  0  0
  152.7902  143.2746  157.9146 H   0  0  0  0  0  0  0  0  0  0  0  0
  151.7010  142.6020  159.1485 H   0  0  0  0  0  0  0  0  0  0  0  0
  149.6395  142.9035  156.2170 H   0  0  0  0  0  0  0  0  0  0  0  0
  148.2760  140.5647  154.8386 H   0  0  0  0  0  0  0  0  0  0  0  0
  149.4740  140.4699  152.6165 H   0  0  0  0  0  0  0  0  0  0  0  0
  150.5511  138.6196  154.2049 H   0  0  0  0  0  0  0  0  0  0  0  0
  149.0760  138.2945  155.0953 H   0  0  0  0  0  0  0  0  0  0  0  0
  149.0799  137.5072  152.8069 H   0  0  0  0  0  0  0  0  0  0  0  0
  149.0862  139.0715  152.2810 H   0  0  0  0  0  0  0  0  0  0  0  0
  151.6818  139.1272  155.9507 H   0  0  0  0  0  0  0  0  0  0  0  0
  147.8139  138.5043  153.1634 H   0  0  0  0  0  0  0  0  0  0  0  0
  1  2  1  0  0  0  0
  1 11  1  0  0  0  0
  1 12  1  0  0  0  0
  1 13  1  0  0  0  0
  2 10  1  0  0  0  0
  2  3  1  0  0  0  0
  3  4  2  0  0  0  0
  3 14  1  0  0  0  0
  4  5  1  0  0  0  0
  4  9  1  0  0  0  0
  5  6  1  0  0  0  0
  5  7  1  0  0  0  0
  5 15  1  0  0  0  0
  6 16  1  0  0  0  0
  7  8  1  0  0  0  0
  7 17  1  0  0  0  0
  7 18  1  0  0  0  0
  8 19  1  0  0  0  0
  8 20  1  0  0  0  0
  8 22  1  0  0  0  0
  9 10  2  0  0  0  0
  9 21  1  0  0  0  0
M  CHG  1   8   1
M  END
> <s_m_source_file>
AV-unprocessed.smi

> <i_m_source_file_index>
3090

> <i_lp_mmshare_version>
43012

> <i_f3d_flags>
0

> <s_epik_input>
W0NIM11uMVtjSF1jKFtjSF1uMSlbQ0BIXShbT0hdKVtDSDJdW05IMl0=

> <s_epik_cmdline>
J2VwaWtfcHl0aG9uJywgJy1waCcsICc3LjAnLCAnLXRuJywgJzgnLCAnLW1hJywgJzIwMCcsICctbWV0YWxfYmluZGluZycsICctaW1hZScsICc8aW5maWxlLm1hZT4nLCAnLW9tYWUnLCAnPG91dGZpbGUubWFlPic=

> <r_lp_tautomer_probability>
1

> <r_epik_Ionization_Penalty>
0.014056

> <r_epik_Ionization_Penalty_Charging>
0.0140431

> <r_epik_Ionization_Penalty_Neutral>
1.29738e-05

> <r_epik_State_Penalty>
0.0109628

> <r_epik_Charging_Adjusted_Penalty>
0.0250059

> <i_epik_Tot_Q>
1

> <i_epik_Tot_abs_Q>
1

> <r_epik_Metal_State_Penalty>
0.0109636

> <b_epik_Metal_Only>
0

> <s_lp_Force_Field>
OPLS_2005

> <r_lp_Energy>
1.35566

> <b_lp_Chiralities_Consistent>
1

> <s_lp_Variant>
AV-unprocessed.smi:3090-2

> <Gold.Version>
5.8.1

> <Gold.Id.Protein>
6NUR|6NUR_protein|mol2

> <Gold.PLP.Fitness>
38.4829

> <Gold.PLP.PLP>
-21.4864

> <Gold.PLP.part.hbond>
-4.4397

> <Gold.PLP.part.metal>
0.0000

> <Gold.PLP.part.buried>
-1.3576

> <Gold.PLP.part.nonpolar>
-15.0219

> <Gold.PLP.part.repulsive>
0.0710

> <Gold.PLP.ligand.clash>
0.0000

> <Gold.PLP.ligand.torsion>
0.2981

> <Gold.PLP.Chemscore.Hbond>
4.8640

> <Gold.PLP.Chemscore.CHOScore>
0.9994

> <Gold.PLP.Chemscore.Metal>
0.0000

> <Gold.Chemscore.Hbonds>
donor molecule, donor type, donor heavy atom, donor atom, acceptor molecule, acceptor atom, score
      L1  H     6    16       P1  7957  0.98
      L1  H     8    19       P1  7948  1.98
      L1  H     8    20       P1  7957  1.00
      P1  H  7989  7998       L1     6  0.07
      P1  H  8011  8017       L1     6  0.70
      L1  C     3    14       P1  8028  1.00

> <Gold.PLP.Chemscore.Internal.Correction>
0.0024

> <Gold.Rescore>
     Score         DG    S(hbond)    S(metal)    S(lipo)     H(rot)  DE(clash)    DE(int)     intcor
     15.20     -15.63       2.98        0.00      44.44       1.96       0.26       0.17       ----

> <Gold.Chemscore.Fitness>
15.2002

> <Gold.Chemscore.DG>
-15.6309

> <Gold.Chemscore.ZeroCoef>
-5.4800

> <Gold.Chemscore.Hbond>
2.9809

> <Gold.Chemscore.Metal>
0.0000

> <Gold.Chemscore.Lipo>
44.4433

> <Gold.Chemscore.Internal_Hbond>
0.0000

> <Gold.Chemscore.DEClash>
0.2637

> <Gold.Chemscore.DEInternal>
0.1670

> <Gold.Chemscore.Rot>
1.9551

> <Gold.Chemscore.Internal.Correction>
   9.000000E+99

> <Gold.Chemscore.Hbonds>
donor molecule, donor type, donor heavy atom, donor atom, acceptor molecule, acceptor atom, score
      L1  H     6    16       P1  7957  0.89
      L1  H     8    19       P1  7948  0.91
      L1  H     8    20       P1  7957  0.94
      P1  H  8011  8017       L1     6  0.07

> <Gold.Chemscore.Hbond.Weighted>
-9.9562

> <Gold.Chemscore.Metal.Weighted>
-0.0000

> <Gold.Chemscore.Lipo.Weighted>
-5.1999

> <Gold.Chemscore.Internal_Hbond.Weighted>
0.0000

> <Gold.Chemscore.DEClash.Weighted>
0.2637

> <Gold.Chemscore.DEInternal.Weighted>
0.1670

> <Gold.Chemscore.Rot.Weighted>
5.0051

> <Gold.Chemscore.Internal.Correction.Weighted>
   9.000000E+99

> <Gold.Protein.RotatedTorsions>
[ 6907 6896 6895 6894 ] final    8.67 input  -60.11 | X-H torsion
[ 7974 7965 7964 7962 ] final   73.62 input  175.53 | X-H torsion
[ 8008 7997 7996 7995 ] final  172.39 input   59.86 | X-H torsion
[ 10167 10162 10161 10158 ] final -118.04 input  -65.29 | X-H torsion
[ 10718 10713 10712 10709 ] final -104.43 input   66.30 | X-H torsion
[ 10763 10752 10751 10750 ] final -155.94 input  -60.55 | X-H torsion
[ 11005 11000 10999 10996 ] final  -80.54 input  -57.11 | X-H torsion

> <Gold.Protein.ActiveResidues>
 VAL166  LYS551  ARG553  GLY616  TRP617  ASP618  TYR619  PRO620  LYS621  CYS622 
 ASP623  PHE694  ASN695  SER759  ASP760  ASP761  ALA762  ILE779  LEU786  VAL792 
 PHE793  MET794  SER795  GLU796  ALA797  LYS798  CYS799  TRP800  GLU811  SER814 

> <Gold.Protein.RotatedAtoms>
  151.7098  135.0915  160.0265 H   0  0  0  0  0  0  0  0  0  0  0  0  # atno 6907 bound_to 6896
  152.3669  133.6364  159.6065 H   0  0  0  0  0  0  0  0  0  0  0  0  # atno 6908 bound_to 6896
  150.7644  133.9250  159.3451 H   0  0  0  0  0  0  0  0  0  0  0  0  # atno 6909 bound_to 6896
  145.7386  139.2712  143.1499 H   0  0  0  0  0  0  0  0  0  0  0  0  # atno 7974 bound_to 7965
  156.1179  140.1487  156.9246 H   0  0  0  0  0  0  0  0  0  0  0  0  # atno 8008 bound_to 7997
  154.4814  140.0878  156.7428 H   0  0  0  0  0  0  0  0  0  0  0  0  # atno 8009 bound_to 7997
  155.4481  140.3433  155.4300 H   0  0  0  0  0  0  0  0  0  0  0  0  # atno 8010 bound_to 7997
  140.0618  143.4960  152.2027 H   0  0  0  0  0  0  0  0  0  0  0  0  # atno 10167 bound_to 10162
  156.0304  130.5514  150.7395 H   0  0  0  0  0  0  0  0  0  0  0  0  # atno 10718 bound_to 10713
  154.7750  135.3157  154.8111 H   0  0  0  0  0  0  0  0  0  0  0  0  # atno 10763 bound_to 10752
  153.8836  135.6832  153.4769 H   0  0  0  0  0  0  0  0  0  0  0  0  # atno 10764 bound_to 10752
  153.1372  135.4755  154.9376 H   0  0  0  0  0  0  0  0  0  0  0  0  # atno 10765 bound_to 10752
  141.1668  133.7155  156.8288 H   0  0  0  0  0  0  0  0  0  0  0  0  # atno 11005 bound_to 11000
  146.0469  140.8109  142.9801 LP  0  0  0  0  0  0  0  0  0  0  0  0  # atno 17320 bound_to 7965
  144.6876  140.2994  143.7265 LP  0  0  0  0  0  0  0  0  0  0  0  0  # atno 17321 bound_to 7965
  139.5889  144.7542  151.3451 LP  0  0  0  0  0  0  0  0  0  0  0  0  # atno 17342 bound_to 10162
  140.7168  143.7245  150.7670 LP  0  0  0  0  0  0  0  0  0  0  0  0  # atno 17343 bound_to 10162
  157.4967  131.0915  151.0363 LP  0  0  0  0  0  0  0  0  0  0  0  0  # atno 17370 bound_to 10713
  157.0755  130.5881  149.5410 LP  0  0  0  0  0  0  0  0  0  0  0  0  # atno 17371 bound_to 10713
  140.2066  134.8858  157.3229 LP  0  0  0  0  0  0  0  0  0  0  0  0  # atno 17394 bound_to 11000
  140.2130  134.4115  155.7603 LP  0  0  0  0  0  0  0  0  0  0  0  0  # atno 17395 bound_to 11000

$$$$
