AV-unprocessed.smi:2879|AV-procd|sdf|11050|dock4
  -GOLD-   2272015513D 1   1.00000     0.00000
 Structure written by MMmdl.
 44 45  0  0  0  0  0  0  0  0  1 V2000
  152.0579  139.5798  155.4915 C   0  0  0  0  0  0  0  0  0  0  0  0
  150.8051  139.3322  154.7041 C   0  0  0  0  0  0  0  0  0  0  0  0
  149.6378  140.1472  154.6265 C   0  0  0  0  0  0  0  0  0  0  0  0
  148.8056  139.4680  153.7812 C   0  0  0  0  0  0  0  0  0  0  0  0
  147.4320  139.7873  153.2810 C   0  0  0  0  0  0  0  0  0  0  0  0
  146.4240  138.6884  153.6306 C   0  0  0  0  0  0  0  0  0  0  0  0
  145.3832  138.9645  154.2285 O   0  0  0  0  0  0  0  0  0  0  0  0
  146.7441  137.4442  153.2415 N   0  0  0  0  0  0  0  0  0  0  0  0
  145.9449  136.2450  153.4779 C   0  0  0  0  0  0  0  0  0  0  0  0
  146.0012  135.2540  152.2959 C   0  0  0  0  0  0  0  0  0  0  0  0
  145.0331  135.6258  151.1527 C   0  0  0  0  0  0  0  0  0  0  0  0
  145.0777  134.6034  150.0028 C   0  0  0  0  0  0  0  0  0  0  0  0
  144.8124  133.1487  150.4592 C   0  0  0  0  0  0  0  0  0  0  0  0
  143.3376  132.9619  150.8779 C   0  0  0  0  0  0  0  0  0  0  0  0
  145.0933  132.1959  149.2811 C   0  0  0  0  0  0  0  0  0  0  0  0
  145.7687  132.8014  151.6254 C   0  0  0  0  0  0  0  0  0  0  0  0
  145.7177  133.8191  152.7790 C   0  0  0  0  0  0  0  0  0  0  0  0
  149.4870  138.3312  153.4065 N   0  0  0  0  0  0  0  0  0  0  0  0
  150.7074  138.2367  153.9656 N   0  0  0  0  0  0  0  0  0  0  0  0
  149.1341  137.6186  152.7836 H   0  0  0  0  0  0  0  0  0  0  0  0
  152.0215  140.5453  155.9964 H   0  0  0  0  0  0  0  0  0  0  0  0
  152.9359  139.5768  154.8452 H   0  0  0  0  0  0  0  0  0  0  0  0
  152.2006  138.8122  156.2526 H   0  0  0  0  0  0  0  0  0  0  0  0
  149.4418  141.0887  155.1182 H   0  0  0  0  0  0  0  0  0  0  0  0
  147.4622  139.9404  152.2011 H   0  0  0  0  0  0  0  0  0  0  0  0
  147.0859  140.7242  153.7184 H   0  0  0  0  0  0  0  0  0  0  0  0
  147.6159  137.3149  152.7488 H   0  0  0  0  0  0  0  0  0  0  0  0
  146.3446  135.7675  154.3730 H   0  0  0  0  0  0  0  0  0  0  0  0
  144.9100  136.5017  153.7116 H   0  0  0  0  0  0  0  0  0  0  0  0
  147.0158  135.2717  151.8945 H   0  0  0  0  0  0  0  0  0  0  0  0
  144.0171  135.7112  151.5389 H   0  0  0  0  0  0  0  0  0  0  0  0
  145.2848  136.6068  150.7505 H   0  0  0  0  0  0  0  0  0  0  0  0
  144.3629  134.8911  149.2308 H   0  0  0  0  0  0  0  0  0  0  0  0
  146.0610  134.6610  149.5338 H   0  0  0  0  0  0  0  0  0  0  0  0
  143.1430  131.9345  151.1877 H   0  0  0  0  0  0  0  0  0  0  0  0
  142.6621  133.1859  150.0514 H   0  0  0  0  0  0  0  0  0  0  0  0
  143.0532  133.6070  151.7080 H   0  0  0  0  0  0  0  0  0  0  0  0
  144.9253  131.1559  149.5630 H   0  0  0  0  0  0  0  0  0  0  0  0
  146.1247  132.2780  148.9362 H   0  0  0  0  0  0  0  0  0  0  0  0
  144.4465  132.4144  148.4307 H   0  0  0  0  0  0  0  0  0  0  0  0
  145.5487  131.8040  152.0081 H   0  0  0  0  0  0  0  0  0  0  0  0
  146.7932  132.7584  151.2524 H   0  0  0  0  0  0  0  0  0  0  0  0
  146.4500  133.5354  153.5358 H   0  0  0  0  0  0  0  0  0  0  0  0
  144.7462  133.7772  153.2720 H   0  0  0  0  0  0  0  0  0  0  0  0
  1 21  1  0  0  0  0
  1 22  1  0  0  0  0
  1 23  1  0  0  0  0
  1  2  1  0  0  0  0
  2 19  2  0  0  0  0
  2  3  1  0  0  0  0
  3  4  2  0  0  0  0
  3 24  1  0  0  0  0
  4 18  1  0  0  0  0
  4  5  1  0  0  0  0
  5  6  1  0  0  0  0
  5 25  1  0  0  0  0
  5 26  1  0  0  0  0
  6  7  2  0  0  0  0
  6  8  1  0  0  0  0
  8  9  1  0  0  0  0
  8 27  1  0  0  0  0
  9 10  1  0  0  0  0
  9 28  1  0  0  0  0
  9 29  1  0  0  0  0
 10 17  1  0  0  0  0
 10 11  1  0  0  0  0
 10 30  1  0  0  0  0
 11 12  1  0  0  0  0
 11 31  1  0  0  0  0
 11 32  1  0  0  0  0
 12 13  1  0  0  0  0
 12 33  1  0  0  0  0
 12 34  1  0  0  0  0
 13 14  1  0  0  0  0
 13 15  1  0  0  0  0
 13 16  1  0  0  0  0
 14 35  1  0  0  0  0
 14 36  1  0  0  0  0
 14 37  1  0  0  0  0
 15 38  1  0  0  0  0
 15 39  1  0  0  0  0
 15 40  1  0  0  0  0
 16 17  1  0  0  0  0
 16 41  1  0  0  0  0
 16 42  1  0  0  0  0
 17 43  1  0  0  0  0
 17 44  1  0  0  0  0
 18 19  1  0  0  0  0
 18 20  1  0  0  0  0
M  END
> <s_m_source_file>
AV-unprocessed.smi

> <i_m_source_file_index>
2879

> <i_lp_mmshare_version>
43012

> <i_f3d_flags>
0

> <s_epik_input>
W0NIM11jMVtjSF1jKG5bbkhdMSlbQ0gyXUMoPU8pW05IXVtDSDJdW0NIXShbQ0gyXVtDSDJdMilbQ0gyXVtDSDJdQzIoW0NIM10pW0NIM10=

> <s_epik_cmdline>
J2VwaWtfcHl0aG9uJywgJy1waCcsICc3LjAnLCAnLXRuJywgJzgnLCAnLW1hJywgJzIwMCcsICctbWV0YWxfYmluZGluZycsICctaW1hZScsICc8aW5maWxlLm1hZT4nLCAnLW9tYWUnLCAnPG91dGZpbGUubWFlPic=

> <r_lp_tautomer_probability>
0.5

> <r_epik_Ionization_Penalty>
0.000119486

> <r_epik_Ionization_Penalty_Charging>
0

> <r_epik_Ionization_Penalty_Neutral>
0.000119486

> <r_epik_State_Penalty>
0.41068

> <r_epik_Charging_Adjusted_Penalty>
0.41068

> <i_epik_Tot_Q>
0

> <i_epik_Tot_abs_Q>
0

> <r_epik_Metal_State_Penalty>
0.41066

> <b_epik_Metal_Only>
0

> <s_lp_Force_Field>
OPLS_2005

> <r_lp_Energy>
12.3825

> <b_lp_Chiralities_Consistent>
1

> <s_lp_Variant>
AV-unprocessed.smi:2879-2

> <Gold.Version>
5.8.1

> <Gold.Id.Protein>
6NUR|6NUR_protein|mol2

> <Gold.PLP.Fitness>
37.8502

> <Gold.PLP.PLP>
-32.7415

> <Gold.PLP.part.hbond>
-3.0000

> <Gold.PLP.part.metal>
0.0000

> <Gold.PLP.part.buried>
1.0092

> <Gold.PLP.part.nonpolar>
-30.3793

> <Gold.PLP.part.repulsive>
0.4157

> <Gold.PLP.ligand.clash>
0.0000

> <Gold.PLP.ligand.torsion>
0.4557

> <Gold.PLP.Chemscore.Hbond>
2.0000

> <Gold.PLP.Chemscore.CHOScore>
0.0000

> <Gold.PLP.Chemscore.Metal>
0.0000

> <Gold.Chemscore.Hbonds>
donor molecule, donor type, donor heavy atom, donor atom, acceptor molecule, acceptor atom, score
      L1  H     8    27       P1  7948  1.00
      L1  H    18    20       P1  7948  1.00

> <Gold.PLP.Chemscore.Internal.Correction>
0.0201

> <Gold.Rescore>
     Score         DG    S(hbond)    S(metal)    S(lipo)     H(rot)  DE(clash)    DE(int)     intcor
     15.55     -18.72       1.95        0.00      91.48       1.55       1.53       1.64       ----

> <Gold.Chemscore.Fitness>
15.5517

> <Gold.Chemscore.DG>
-18.7212

> <Gold.Chemscore.ZeroCoef>
-5.4800

> <Gold.Chemscore.Hbond>
1.9471

> <Gold.Chemscore.Metal>
0.0000

> <Gold.Chemscore.Lipo>
91.4791

> <Gold.Chemscore.Internal_Hbond>
0.0000

> <Gold.Chemscore.DEClash>
1.5259

> <Gold.Chemscore.DEInternal>
1.6436

> <Gold.Chemscore.Rot>
1.5489

> <Gold.Chemscore.Internal.Correction>
   9.000000E+99

> <Gold.Chemscore.Hbonds>
donor molecule, donor type, donor heavy atom, donor atom, acceptor molecule, acceptor atom, score
      L1  H     8    27       P1  7948  0.97
      L1  H    18    20       P1  7948  0.98

> <Gold.Chemscore.Hbond.Weighted>
-6.5034

> <Gold.Chemscore.Metal.Weighted>
-0.0000

> <Gold.Chemscore.Lipo.Weighted>
-10.7031

> <Gold.Chemscore.Internal_Hbond.Weighted>
0.0000

> <Gold.Chemscore.DEClash.Weighted>
1.5259

> <Gold.Chemscore.DEInternal.Weighted>
1.6436

> <Gold.Chemscore.Rot.Weighted>
3.9652

> <Gold.Chemscore.Internal.Correction.Weighted>
   9.000000E+99

> <Gold.Protein.RotatedTorsions>
[ 6907 6896 6895 6894 ] final   61.10 input  -60.11 | X-H torsion
[ 7974 7965 7964 7962 ] final  -89.30 input  175.53 | X-H torsion
[ 8008 7997 7996 7995 ] final   66.57 input   59.86 | X-H torsion
[ 10167 10162 10161 10158 ] final  -21.58 input  -65.29 | X-H torsion
[ 10718 10713 10712 10709 ] final  -83.79 input   66.30 | X-H torsion
[ 10763 10752 10751 10750 ] final   -8.15 input  -60.55 | X-H torsion
[ 11005 11000 10999 10996 ] final -155.72 input  -57.11 | X-H torsion

> <Gold.Protein.ActiveResidues>
 VAL166  LYS551  ARG553  GLY616  TRP617  ASP618  TYR619  PRO620  LYS621  CYS622 
 ASP623  PHE694  ASN695  SER759  ASP760  ASP761  ALA762  ILE779  LEU786  VAL792 
 PHE793  MET794  SER795  GLU796  ALA797  LYS798  CYS799  TRP800  GLU811  SER814 

> <Gold.Protein.RotatedAtoms>
  152.4060  134.6206  160.0049 H   0  0  0  0  0  0  0  0  0  0  0  0  # atno 6907 bound_to 6896
  151.6397  133.3321  159.3135 H   0  0  0  0  0  0  0  0  0  0  0  0  # atno 6908 bound_to 6896
  150.7955  134.7052  159.6617 H   0  0  0  0  0  0  0  0  0  0  0  0  # atno 6909 bound_to 6896
  145.4416  140.9559  143.2072 H   0  0  0  0  0  0  0  0  0  0  0  0  # atno 7974 bound_to 7965
  155.6795  140.3496  155.4849 H   0  0  0  0  0  0  0  0  0  0  0  0  # atno 8008 bound_to 7997
  155.9619  140.1139  157.0910 H   0  0  0  0  0  0  0  0  0  0  0  0  # atno 8009 bound_to 7997
  154.4145  140.1174  156.5177 H   0  0  0  0  0  0  0  0  0  0  0  0  # atno 8010 bound_to 7997
  140.7282  143.4614  151.0374 H   0  0  0  0  0  0  0  0  0  0  0  0  # atno 10167 bound_to 10162
  156.0014  130.4677  150.4312 H   0  0  0  0  0  0  0  0  0  0  0  0  # atno 10718 bound_to 10713
  153.4364  135.7013  153.6197 H   0  0  0  0  0  0  0  0  0  0  0  0  # atno 10763 bound_to 10752
  153.4590  135.3740  155.2327 H   0  0  0  0  0  0  0  0  0  0  0  0  # atno 10764 bound_to 10752
  154.8727  135.4015  154.3756 H   0  0  0  0  0  0  0  0  0  0  0  0  # atno 10765 bound_to 10752
  140.6834  134.4120  157.5225 H   0  0  0  0  0  0  0  0  0  0  0  0  # atno 11005 bound_to 11000
  144.8118  139.5949  143.7026 LP  0  0  0  0  0  0  0  0  0  0  0  0  # atno 17320 bound_to 7965
  146.2553  139.6289  142.9399 LP  0  0  0  0  0  0  0  0  0  0  0  0  # atno 17321 bound_to 7965
  139.8299  143.7705  152.3179 LP  0  0  0  0  0  0  0  0  0  0  0  0  # atno 17342 bound_to 10162
  139.7817  144.7442  151.0079 LP  0  0  0  0  0  0  0  0  0  0  0  0  # atno 17343 bound_to 10162
  157.2360  131.0515  151.2464 LP  0  0  0  0  0  0  0  0  0  0  0  0  # atno 17370 bound_to 10713
  157.3665  130.7159  149.6536 LP  0  0  0  0  0  0  0  0  0  0  0  0  # atno 17371 bound_to 10713
  139.8945  134.8705  156.2174 LP  0  0  0  0  0  0  0  0  0  0  0  0  # atno 17394 bound_to 11000
  141.0300  133.6994  156.1413 LP  0  0  0  0  0  0  0  0  0  0  0  0  # atno 17395 bound_to 11000

$$$$
