#       Name:                AV-unprocessed.smi:1196
#       Creating user name   scv26
#       Creation time:       Fri Mar 27 04:00:19 2020


#       File generated by GOLD software.
#

@<TRIPOS>MOLECULE
AV-unprocessed.smi:1196
    44    45     1
SMALL
NO_CHARGES


@<TRIPOS>ATOM
      1 ****        -3.4249  -1.0746  -0.8848 C.3            1 S1                 0.0000
      2 ****        -2.7239  -0.2211   0.1839 C.3            1 S1                 0.0000
      3 ****        -3.2569  -0.5370   1.5949 C.3            1 S1                 0.0000
      4 ****        -2.7299   0.3691   2.6003 N.pl3          1 S1                 0.0000
      5 ****        -3.1813   1.6276   2.9373 C.2            1 S1                 0.0000
      6 ****        -2.3695   2.0982   3.9292 C.2            1 S1                 0.0000
      7 ****        -1.4385   1.0416   4.1339 C.2            1 S1                 0.0000
      8 ****        -1.6561   0.0080   3.3365 N.2            1 S1                 0.0000
      9 ****        -1.2804  -0.4424   0.1332 N.am           1 S1                 0.0000
     10 ****        -0.4219   0.1861  -0.6839 C.2            1 S1                 0.0000
     11 ****        -0.7698   1.0229  -1.5173 O.2            1 S1                 0.0000
     12 ****         1.0549  -0.1836  -0.5262 C.3            1 S1                 0.0000
     13 ****         1.7746  -0.3453  -1.8783 C.3            1 S1                 0.0000
     14 ****         3.2317  -0.8238  -1.7296 C.3            1 S1                 0.0000
     15 ****         4.0703   0.1346  -1.0298 N.am           1 S1                 0.0000
     16 ****         5.1018   0.5533  -1.7756 C.2            1 S1                 0.0000
     17 ****         5.9635   1.3577  -1.4291 O.2            1 S1                 0.0000
     18 ****         5.0274  -0.0576  -2.9629 N.am           1 S1                 0.0000
     19 ****         3.9756  -0.8697  -3.0522 C.2            1 S1                 0.0000
     20 ****         3.6433  -1.5468  -4.0230 O.2            1 S1                 0.0000
     21 ****        -4.5031  -0.9137  -0.8688 H              1 S1                 0.0000
     22 ****        -3.2448  -2.1381  -0.7245 H              1 S1                 0.0000
     23 ****        -3.0727  -0.8240  -1.8859 H              1 S1                 0.0000
     24 ****        -2.9338   0.8291  -0.0283 H              1 S1                 0.0000
     25 ****        -4.3443  -0.4541   1.6103 H              1 S1                 0.0000
     26 ****        -3.0206  -1.5644   1.8777 H              1 S1                 0.0000
     27 ****        -4.0314   2.0787   2.4468 H              1 S1                 0.0000
     28 ****        -2.4307   3.0521   4.4317 H              1 S1                 0.0000
     29 ****        -0.6165   0.9956   4.8330 H              1 S1                 0.0000
     30 ****        -0.9025  -1.1081   0.7919 H              1 S1                 0.0000
     31 ****         1.5366   0.5933   0.0682 H              1 S1                 0.0000
     32 ****         1.1387  -1.1102   0.0440 H              1 S1                 0.0000
     33 ****         1.2269  -1.0641  -2.4906 H              1 S1                 0.0000
     34 ****         1.7507   0.5995  -2.4250 H              1 S1                 0.0000
     35 ****         3.2842  -1.7965  -1.2391 H              1 S1                 0.0000
     36 ****         3.8862   0.4400  -0.0852 H              1 S1                 0.0000
     37 ****         5.6888   0.0884  -3.7116 H              1 S1                 0.0000
     38 ****        -1.1414  -0.8481   3.2894 LP             1 S1                 0.0000
     39 ****        -1.7358   1.2645  -1.6102 LP             1 S1                 0.0000
     40 ****        -0.0865   1.4610  -2.1014 LP             1 S1                 0.0000
     41 ****         5.9312   1.7622  -0.5152 LP             1 S1                 0.0000
     42 ****         6.6970   1.6078  -2.0611 LP             1 S1                 0.0000
     43 ****         2.8274  -2.1230  -3.9750 LP             1 S1                 0.0000
     44 ****         4.1888  -1.5214  -4.8607 LP             1 S1                 0.0000
@<TRIPOS>BOND
    1    1    2 1     
    2    1   21 1     
    3    1   22 1     
    4    1   23 1     
    5    2    3 1     
    6    2    9 1     
    7    2   24 1     
    8    3    4 1     
    9    3   25 1     
   10    3   26 1     
   11    4    8 1     
   12    4    5 1     
   13    5    6 2     
   14    5   27 1     
   15    6    7 1     
   16    6   28 1     
   17    7    8 2     
   18    7   29 1     
   19    9   10 am    
   20    9   30 1     
   21   10   11 2     
   22   10   12 1     
   23   12   13 1     
   24   12   31 1     
   25   12   32 1     
   26   13   14 1     
   27   13   33 1     
   28   13   34 1     
   29   14   19 1     
   30   14   15 1     
   31   14   35 1     
   32   15   16 am    
   33   15   36 1     
   34   16   17 2     
   35   16   18 am    
   36   18   19 am    
   37   18   37 1     
   38   19   20 2     
   39    8   38 1     
   40   11   39 1     
   41   11   40 1     
   42   17   41 1     
   43   17   42 1     
   44   20   43 1     
   45   20   44 1     
@<TRIPOS>SUBSTRUCTURE
      1 S1             1
@<TRIPOS>SET
LONE_PAIRS      STATIC     ATOMS    <user>   **** ""
7 38 39 40 41 42 43 44
DONOR_HYDROGENS      STATIC     ATOMS    <user>   **** ""
3 30 36 37
ATOM$BLUE        STATIC     ATOMS    COLORGROUP SYSTEM
7 38 39 40 41 42 43 44
ATOM$RED        STATIC     ATOMS    COLORGROUP SYSTEM
3 30 36 37
