AV-unprocessed.smi:38|AV-procd|sdf|337|dock2
  -GOLD-   2262016173D 1   1.00000     0.00000
 Structure written by MMmdl.
 28 29  0  0  0  0  0  0  0  0  1 V2000
  151.7402  144.7596  159.6274 O   0  0  0  0  0  0  0  0  0  0  0  0
  152.1039  143.5867  159.5673 C   0  0  0  0  0  0  0  0  0  0  0  0
  152.9708  143.0692  160.5334 N   0  0  0  0  0  0  0  0  0  0  0  0
  153.4496  141.7586  160.5743 C   0  0  0  0  0  0  0  0  0  0  0  0
  154.2276  141.4163  161.4638 O   0  0  0  0  0  0  0  0  0  0  0  0
  153.0074  140.8742  159.5650 N   0  0  0  0  0  0  0  0  0  0  0  0
  153.5296  139.4513  159.5779 C   0  0  1  0  0  0  0  0  0  0  0  0
  152.3889  138.4369  159.7491 C   0  0  0  0  0  0  0  0  0  0  0  0
  152.8245  137.3310  158.8126 C   0  0  1  0  0  0  0  0  0  0  0  0
  151.7489  136.4969  158.4313 O   0  0  0  0  0  0  0  0  0  0  0  0
  153.4730  138.1079  157.6607 C   0  0  1  0  0  0  0  0  0  0  0  0
  152.4814  138.7221  156.6471 C   0  0  0  0  0  0  0  0  0  0  0  0
  153.1785  139.1596  155.5006 O   0  0  0  0  0  0  0  0  0  0  0  0
  154.1493  139.1583  158.3547 O   0  0  0  0  0  0  0  0  0  0  0  0
  152.1646  141.3543  158.5679 C   0  0  0  0  0  0  0  0  0  0  0  0
  151.7106  142.6297  158.5375 C   0  0  0  0  0  0  0  0  0  0  0  0
  150.8946  143.0196  157.5434 F   0  0  0  0  0  0  0  0  0  0  0  0
  153.2814  143.6982  161.2595 H   0  0  0  0  0  0  0  0  0  0  0  0
  154.2733  139.4177  160.3765 H   0  0  0  0  0  0  0  0  0  0  0  0
  153.5821  136.7210  159.3069 H   0  0  0  0  0  0  0  0  0  0  0  0
  154.1898  137.4726  157.1385 H   0  0  0  0  0  0  0  0  0  0  0  0
  152.2903  138.1174  160.7869 H   0  0  0  0  0  0  0  0  0  0  0  0
  151.4466  138.8779  159.4192 H   0  0  0  0  0  0  0  0  0  0  0  0
  151.9937  136.0304  157.6465 H   0  0  0  0  0  0  0  0  0  0  0  0
  151.7637  137.9751  156.3083 H   0  0  0  0  0  0  0  0  0  0  0  0
  151.9063  139.5421  157.0759 H   0  0  0  0  0  0  0  0  0  0  0  0
  153.0996  138.4979  154.8300 H   0  0  0  0  0  0  0  0  0  0  0  0
  151.8416  140.7057  157.7679 H   0  0  0  0  0  0  0  0  0  0  0  0
  1  2  2  0  0  0  0
  2 16  1  0  0  0  0
  2  3  1  0  0  0  0
  3 18  1  0  0  0  0
  3  4  1  0  0  0  0
  4  5  2  0  0  0  0
  4  6  1  0  0  0  0
  6  7  1  0  0  0  0
  6 15  1  0  0  0  0
  7 19  1  0  0  0  0
  7 14  1  0  0  0  0
  7  8  1  0  0  0  0
  8  9  1  0  0  0  0
  8 22  1  0  0  0  0
  8 23  1  0  0  0  0
  9 20  1  0  0  0  0
  9 10  1  0  0  0  0
  9 11  1  0  0  0  0
 10 24  1  0  0  0  0
 11 21  1  0  0  0  0
 11 12  1  0  0  0  0
 11 14  1  0  0  0  0
 12 13  1  0  0  0  0
 12 25  1  0  0  0  0
 12 26  1  0  0  0  0
 13 27  1  0  0  0  0
 15 16  2  0  0  0  0
 15 28  1  0  0  0  0
 16 17  1  0  0  0  0
M  END
> <s_m_source_file>
AV-unprocessed.smi

> <i_m_source_file_index>
38

> <i_lp_mmshare_version>
43012

> <i_f3d_flags>
0

> <s_epik_input>
Tz1jMVtuSF1jKD1PKW4oW2NIXWMxRilbQ0BIXTJbQ0gyXVtDQEhdKFtPSF0pW0NASF0oTzIpW0NIMl1bT0hd

> <s_epik_cmdline>
J2VwaWtfcHl0aG9uJywgJy1waCcsICc3LjAnLCAnLXRuJywgJzgnLCAnLW1hJywgJzIwMCcsICctbWV0YWxfYmluZGluZycsICctaW1hZScsICc8aW5maWxlLm1hZT4nLCAnLW9tYWUnLCAnPG91dGZpbGUubWFlPic=

> <r_lp_tautomer_probability>
0.999537

> <r_epik_Ionization_Penalty>
0.0357432

> <r_epik_Ionization_Penalty_Charging>
0.0357431

> <r_epik_Ionization_Penalty_Neutral>
1.19946e-07

> <r_epik_State_Penalty>
0.0298169

> <r_epik_Charging_Adjusted_Penalty>
0.06556

> <i_epik_Tot_Q>
0

> <i_epik_Tot_abs_Q>
0

> <r_epik_Metal_State_Penalty>
2.348

> <b_epik_Metal_Only>
0

> <s_epik_Chemistry_Notes>
This compound contains an acetal/aminal-like group ( X-CH(R)-Y where X, Y are N, S, or O) that may be acid/base labile, releasing an aldehyde.

> <s_lp_Force_Field>
OPLS_2005

> <r_lp_Energy>
30.312

> <b_lp_Chiralities_Consistent>
1

> <s_lp_Variant>
AV-unprocessed.smi:38-3

> <Gold.Version>
5.8.1

> <Gold.Id.Protein>
6NUR|6NUR_protein|mol2

> <Gold.PLP.Fitness>
36.0657

> <Gold.PLP.PLP>
-28.6921

> <Gold.PLP.part.hbond>
-3.9467

> <Gold.PLP.part.metal>
0.0000

> <Gold.PLP.part.buried>
-4.9158

> <Gold.PLP.part.nonpolar>
-20.4157

> <Gold.PLP.part.repulsive>
0.0843

> <Gold.PLP.ligand.clash>
0.0000

> <Gold.PLP.ligand.torsion>
0.1529

> <Gold.PLP.Chemscore.Hbond>
2.5520

> <Gold.PLP.Chemscore.CHOScore>
0.0000

> <Gold.PLP.Chemscore.Metal>
0.0000

> <Gold.Chemscore.Hbonds>
donor molecule, donor type, donor heavy atom, donor atom, acceptor molecule, acceptor atom, score
      P1  H  6896  6907       L1    10  0.61
      P1  H  7997  8008       L1    14  1.00
      P1  H  7997  8009       L1    13  0.88

> <Gold.PLP.Chemscore.Internal.Correction>
0.0234

> <Gold.Rescore>
     Score         DG    S(hbond)    S(metal)    S(lipo)     H(rot)  DE(clash)    DE(int)     intcor
      8.84      -9.03       1.97        0.00      38.02       2.91       0.11       0.08       ----

> <Gold.Chemscore.Fitness>
8.8425

> <Gold.Chemscore.DG>
-9.0327

> <Gold.Chemscore.ZeroCoef>
-5.4800

> <Gold.Chemscore.Hbond>
1.9655

> <Gold.Chemscore.Metal>
0.0000

> <Gold.Chemscore.Lipo>
38.0189

> <Gold.Chemscore.Internal_Hbond>
0.0000

> <Gold.Chemscore.DEClash>
0.1107

> <Gold.Chemscore.DEInternal>
0.0795

> <Gold.Chemscore.Rot>
2.9141

> <Gold.Chemscore.Internal.Correction>
   9.000000E+99

> <Gold.Chemscore.Hbonds>
donor molecule, donor type, donor heavy atom, donor atom, acceptor molecule, acceptor atom, score
      P1  H  6896  6907       L1    10  0.26
      P1  H  7997  8008       L1    14  0.74
      P1  H  7997  8009       L1    13  0.83

> <Gold.Chemscore.Hbond.Weighted>
-6.5646

> <Gold.Chemscore.Metal.Weighted>
-0.0000

> <Gold.Chemscore.Lipo.Weighted>
-4.4482

> <Gold.Chemscore.Internal_Hbond.Weighted>
0.0000

> <Gold.Chemscore.DEClash.Weighted>
0.1107

> <Gold.Chemscore.DEInternal.Weighted>
0.0795

> <Gold.Chemscore.Rot.Weighted>
7.4601

> <Gold.Chemscore.Internal.Correction.Weighted>
   9.000000E+99

> <Gold.Protein.RotatedTorsions>
[ 6907 6896 6895 6894 ] final  -11.35 input  -60.11 | X-H torsion
[ 7974 7965 7964 7962 ] final    2.56 input  175.53 | X-H torsion
[ 8008 7997 7996 7995 ] final -123.54 input   59.86 | X-H torsion
[ 10167 10162 10161 10158 ] final   22.36 input  -65.29 | X-H torsion
[ 10718 10713 10712 10709 ] final -160.94 input   66.30 | X-H torsion
[ 10763 10752 10751 10750 ] final   91.15 input  -60.55 | X-H torsion
[ 11005 11000 10999 10996 ] final -173.48 input  -57.11 | X-H torsion

> <Gold.Protein.ActiveResidues>
 VAL166  LYS551  ARG553  GLY616  TRP617  ASP618  TYR619  PRO620  LYS621  CYS622 
 ASP623  PHE694  ASN695  SER759  ASP760  ASP761  ALA762  ILE779  LEU786  VAL792 
 PHE793  MET794  SER795  GLU796  ALA797  LYS798  CYS799  TRP800  GLU811  SER814 

> <Gold.Protein.RotatedAtoms>
  151.3876  135.0950  159.9515 H   0  0  0  0  0  0  0  0  0  0  0  0  # atno 6907 bound_to 6896
  152.5089  133.9011  159.7452 H   0  0  0  0  0  0  0  0  0  0  0  0  # atno 6908 bound_to 6896
  150.9458  133.6549  159.2810 H   0  0  0  0  0  0  0  0  0  0  0  0  # atno 6909 bound_to 6896
  146.2444  140.0818  142.8356 H   0  0  0  0  0  0  0  0  0  0  0  0  # atno 7974 bound_to 7965
  155.1822  140.0411  157.2884 H   0  0  0  0  0  0  0  0  0  0  0  0  # atno 8008 bound_to 7997
  154.6195  140.2497  155.7539 H   0  0  0  0  0  0  0  0  0  0  0  0  # atno 8009 bound_to 7997
  156.2426  140.2898  156.0497 H   0  0  0  0  0  0  0  0  0  0  0  0  # atno 8010 bound_to 7997
  140.5354  143.9769  150.6489 H   0  0  0  0  0  0  0  0  0  0  0  0  # atno 10167 bound_to 10162
  156.5892  130.8763  151.2885 H   0  0  0  0  0  0  0  0  0  0  0  0  # atno 10718 bound_to 10713
  153.2052  135.4408  155.0314 H   0  0  0  0  0  0  0  0  0  0  0  0  # atno 10763 bound_to 10752
  154.8169  135.3319  154.7152 H   0  0  0  0  0  0  0  0  0  0  0  0  # atno 10764 bound_to 10752
  153.7594  135.6992  153.4984 H   0  0  0  0  0  0  0  0  0  0  0  0  # atno 10765 bound_to 10752
  140.4853  134.6037  157.4934 H   0  0  0  0  0  0  0  0  0  0  0  0  # atno 11005 bound_to 11000
  145.0727  140.9166  143.4872 LP  0  0  0  0  0  0  0  0  0  0  0  0  # atno 17320 bound_to 7965
  145.0955  139.2860  143.5713 LP  0  0  0  0  0  0  0  0  0  0  0  0  # atno 17321 bound_to 7965
  140.3155  143.3170  152.0836 LP  0  0  0  0  0  0  0  0  0  0  0  0  # atno 17342 bound_to 10162
  139.4969  144.6608  151.6468 LP  0  0  0  0  0  0  0  0  0  0  0  0  # atno 17343 bound_to 10162
  157.7308  130.9690  150.1848 LP  0  0  0  0  0  0  0  0  0  0  0  0  # atno 17370 bound_to 10713
  156.2564  130.3706  149.8177 LP  0  0  0  0  0  0  0  0  0  0  0  0  # atno 17371 bound_to 10713
  139.9802  134.7150  155.9874 LP  0  0  0  0  0  0  0  0  0  0  0  0  # atno 17394 bound_to 11000
  141.1511  133.6548  156.4017 LP  0  0  0  0  0  0  0  0  0  0  0  0  # atno 17395 bound_to 11000

$$$$
