AV-unprocessed.smi:1830|AV-procd|sdf|7450|dock3
  -GOLD-   22720 9143D 1   1.00000     0.00000
 Structure written by MMmdl.
 54 57  0  0  0  0  0  0  0  0  3 V2000
  149.7418  134.0932  155.8263 O   0  0  0  0  0  0  0  0  0  0  0  0
  149.4398  134.6729  154.7836 C   0  0  0  0  0  0  0  0  0  0  0  0
  149.6886  135.9708  154.5610 N   0  0  0  0  0  0  0  0  0  0  0  0
  150.3384  136.8696  155.5095 C   0  0  0  0  0  0  0  0  0  0  0  0
  151.2351  137.9093  154.8002 C   0  0  2  0  0  0  0  0  0  0  0  0
  152.0285  138.7972  155.7896 C   0  0  0  0  0  0  0  0  0  0  0  0
  151.1163  139.7895  156.3876 N   0  3  1  0  0  0  0  0  0  0  0  0
  151.6701  140.7405  157.3668 C   0  0  0  0  0  0  0  0  0  0  0  0
  150.7149  141.9500  157.3273 C   0  0  0  0  0  0  0  0  0  0  0  0
  149.7413  141.6761  156.1670 C   0  0  0  0  0  0  0  0  0  0  0  0
  150.4590  140.5990  155.3595 C   0  0  2  0  0  0  0  0  0  0  0  0
  149.6127  139.6848  154.4662 C   0  0  0  0  0  0  0  0  0  0  0  0
  150.4831  138.7140  153.8779 O   0  0  0  0  0  0  0  0  0  0  0  0
  148.8113  134.1083  153.7390 N   0  0  0  0  0  0  0  0  0  0  0  0
  148.3455  132.7679  153.6197 C   0  0  0  0  0  0  0  0  0  0  0  0
  148.8651  131.7337  154.4405 C   0  0  0  0  0  0  0  0  0  0  0  0
  148.3693  130.4224  154.3178 C   0  0  0  0  0  0  0  0  0  0  0  0
  147.3631  130.1619  153.3720 C   0  0  0  0  0  0  0  0  0  0  0  0
  146.9044  131.1617  152.5912 N   0  3  0  0  0  0  0  0  0  0  0  0
  147.3522  132.4409  152.6511 C   0  0  0  0  0  0  0  0  0  0  0  0
  146.7871  133.3802  151.7586 N   0  0  0  0  0  0  0  0  0  0  0  0
  146.1045  134.5643  152.2671 C   0  0  0  0  0  0  0  0  0  0  0  0
  145.3507  135.1303  151.0674 C   0  0  0  0  0  0  0  0  0  0  0  0
  144.9388  133.8689  150.3139 C   0  0  0  0  0  0  0  0  0  0  0  0
  146.0968  132.8971  150.5668 C   0  0  0  0  0  0  0  0  0  0  0  0
  149.4062  136.3678  153.6767 H   0  0  0  0  0  0  0  0  0  0  0  0
  149.5652  137.3568  156.1028 H   0  0  0  0  0  0  0  0  0  0  0  0
  150.9306  136.2853  156.2160 H   0  0  0  0  0  0  0  0  0  0  0  0
  151.9661  137.3616  154.2046 H   0  0  0  0  0  0  0  0  0  0  0  0
  152.4934  138.1939  156.5702 H   0  0  0  0  0  0  0  0  0  0  0  0
  152.8326  139.3151  155.2644 H   0  0  0  0  0  0  0  0  0  0  0  0
  151.7353  140.2888  158.3569 H   0  0  0  0  0  0  0  0  0  0  0  0
  152.6736  141.0452  157.0649 H   0  0  0  0  0  0  0  0  0  0  0  0
  150.1759  142.0691  158.2676 H   0  0  0  0  0  0  0  0  0  0  0  0
  151.2781  142.8676  157.1535 H   0  0  0  0  0  0  0  0  0  0  0  0
  148.7989  141.2895  156.5581 H   0  0  0  0  0  0  0  0  0  0  0  0
  149.5209  142.5675  155.5788 H   0  0  0  0  0  0  0  0  0  0  0  0
  151.2266  141.0811  154.7499 H   0  0  0  0  0  0  0  0  0  0  0  0
  148.8133  139.2021  155.0289 H   0  0  0  0  0  0  0  0  0  0  0  0
  149.1393  140.2621  153.6722 H   0  0  0  0  0  0  0  0  0  0  0  0
  148.5395  134.7321  152.9935 H   0  0  0  0  0  0  0  0  0  0  0  0
  149.6439  131.9260  155.1628 H   0  0  0  0  0  0  0  0  0  0  0  0
  148.7549  129.6295  154.9421 H   0  0  0  0  0  0  0  0  0  0  0  0
  146.9203  129.1897  153.2103 H   0  0  0  0  0  0  0  0  0  0  0  0
  145.3945  134.2904  153.0487 H   0  0  0  0  0  0  0  0  0  0  0  0
  146.8105  135.2862  152.6787 H   0  0  0  0  0  0  0  0  0  0  0  0
  144.5042  135.7559  151.3529 H   0  0  0  0  0  0  0  0  0  0  0  0
  146.0237  135.7288  150.4517 H   0  0  0  0  0  0  0  0  0  0  0  0
  144.0214  133.4679  150.7471 H   0  0  0  0  0  0  0  0  0  0  0  0
  144.7585  134.0460  149.2531 H   0  0  0  0  0  0  0  0  0  0  0  0
  146.7900  132.9190  149.7255 H   0  0  0  0  0  0  0  0  0  0  0  0
  145.7366  131.8742  150.6866 H   0  0  0  0  0  0  0  0  0  0  0  0
  150.3853  139.2818  156.8650 H   0  0  0  0  0  0  0  0  0  0  0  0
  146.1812  130.9384  151.9072 H   0  0  0  0  0  0  0  0  0  0  0  0
  1  2  2  0  0  0  0
  2  3  1  0  0  0  0
  2 14  1  0  0  0  0
  3  4  1  0  0  0  0
  3 26  1  0  0  0  0
  4  5  1  0  0  0  0
  4 27  1  0  0  0  0
  4 28  1  0  0  0  0
  5 13  1  0  0  0  0
  5  6  1  0  0  0  0
  5 29  1  0  0  0  0
  6  7  1  0  0  0  0
  6 30  1  0  0  0  0
  6 31  1  0  0  0  0
  7 11  1  0  0  0  0
  7  8  1  0  0  0  0
  7 53  1  0  0  0  0
  8  9  1  0  0  0  0
  8 32  1  0  0  0  0
  8 33  1  0  0  0  0
  9 10  1  0  0  0  0
  9 34  1  0  0  0  0
  9 35  1  0  0  0  0
 10 11  1  0  0  0  0
 10 36  1  0  0  0  0
 10 37  1  0  0  0  0
 11 12  1  0  0  0  0
 11 38  1  0  0  0  0
 12 13  1  0  0  0  0
 12 39  1  0  0  0  0
 12 40  1  0  0  0  0
 14 15  1  0  0  0  0
 14 41  1  0  0  0  0
 15 20  1  0  0  0  0
 15 16  2  0  0  0  0
 16 17  1  0  0  0  0
 16 42  1  0  0  0  0
 17 18  2  0  0  0  0
 17 43  1  0  0  0  0
 18 19  1  0  0  0  0
 18 44  1  0  0  0  0
 19 20  2  0  0  0  0
 19 54  1  0  0  0  0
 20 21  1  0  0  0  0
 21 25  1  0  0  0  0
 21 22  1  0  0  0  0
 22 23  1  0  0  0  0
 22 45  1  0  0  0  0
 22 46  1  0  0  0  0
 23 24  1  0  0  0  0
 23 47  1  0  0  0  0
 23 48  1  0  0  0  0
 24 25  1  0  0  0  0
 24 49  1  0  0  0  0
 24 50  1  0  0  0  0
 25 51  1  0  0  0  0
 25 52  1  0  0  0  0
M  CHG  1   7   1
M  CHG  1  19   1
M  END
> <s_m_source_file>
AV-unprocessed.smi

> <i_m_source_file_index>
1830

> <i_lp_mmshare_version>
43012

> <i_f3d_flags>
0

> <s_epik_input>
W0NIMl0xW0NIMl1bQ0gyXVtDQEhdKE4xMilbQ0gyXU9bQ0BASF0oW0NIMl0yKVtDSDJdW05IXUMoPU8pW05IXWMzW2NIXVtjSF1bY0hdbmMzTjRbQ0gyXVtDSDJdW0NIMl1bQ0gyXTQ=

> <s_epik_cmdline>
J2VwaWtfcHl0aG9uJywgJy1waCcsICc3LjAnLCAnLXRuJywgJzgnLCAnLW1hJywgJzIwMCcsICctbWV0YWxfYmluZGluZycsICctaW1hZScsICc8aW5maWxlLm1hZT4nLCAnLW9tYWUnLCAnPG91dGZpbGUubWFlPic=

> <r_lp_tautomer_probability>
0.999994

> <r_epik_Ionization_Penalty>
1.29113

> <r_epik_Ionization_Penalty_Charging>
1.29111

> <r_epik_Ionization_Penalty_Neutral>
1.88144e-05

> <r_epik_State_Penalty>
1.32676

> <r_epik_Charging_Adjusted_Penalty>
2.61787

> <i_epik_Tot_Q>
2

> <i_epik_Tot_abs_Q>
2

> <r_epik_Metal_State_Penalty>
1.40425

> <b_epik_Metal_Only>
0

> <s_lp_Force_Field>
OPLS_2005

> <r_lp_Energy>
76.6475

> <b_lp_Chiralities_Consistent>
1

> <s_lp_Variant>
AV-unprocessed.smi:1830-19

> <Gold.Version>
5.8.1

> <Gold.Id.Protein>
6NUR|6NUR_protein|mol2

> <Gold.PLP.Fitness>
48.4351

> <Gold.PLP.PLP>
-43.1195

> <Gold.PLP.part.hbond>
-3.1004

> <Gold.PLP.part.metal>
0.0000

> <Gold.PLP.part.buried>
-4.1211

> <Gold.PLP.part.nonpolar>
-36.5750

> <Gold.PLP.part.repulsive>
0.5911

> <Gold.PLP.ligand.clash>
0.0000

> <Gold.PLP.ligand.torsion>
0.5289

> <Gold.PLP.Chemscore.Hbond>
1.9920

> <Gold.PLP.Chemscore.CHOScore>
0.0000

> <Gold.PLP.Chemscore.Metal>
0.0000

> <Gold.Chemscore.Hbonds>
donor molecule, donor type, donor heavy atom, donor atom, acceptor molecule, acceptor atom, score
      L1  H     3    26       P1  7948  1.00
      L1  H    14    41       P1  7948  0.98

> <Gold.PLP.Chemscore.Internal.Correction>
0.3974

> <Gold.Rescore>
     Score         DG    S(hbond)    S(metal)    S(lipo)     H(rot)  DE(clash)    DE(int)     intcor
     15.66     -17.80       1.45        0.00      95.17       1.43       0.27       1.87       ----

> <Gold.Chemscore.Fitness>
15.6591

> <Gold.Chemscore.DG>
-17.7952

> <Gold.Chemscore.ZeroCoef>
-5.4800

> <Gold.Chemscore.Hbond>
1.4478

> <Gold.Chemscore.Metal>
0.0000

> <Gold.Chemscore.Lipo>
95.1680

> <Gold.Chemscore.Internal_Hbond>
0.0000

> <Gold.Chemscore.DEClash>
0.2655

> <Gold.Chemscore.DEInternal>
1.8706

> <Gold.Chemscore.Rot>
1.4278

> <Gold.Chemscore.Internal.Correction>
   9.000000E+99

> <Gold.Chemscore.Hbonds>
donor molecule, donor type, donor heavy atom, donor atom, acceptor molecule, acceptor atom, score
      L1  H     3    26       P1  7948  0.79
      L1  H    14    41       P1  7948  0.37

> <Gold.Chemscore.Hbond.Weighted>
-4.8356

> <Gold.Chemscore.Metal.Weighted>
-0.0000

> <Gold.Chemscore.Lipo.Weighted>
-11.1347

> <Gold.Chemscore.Internal_Hbond.Weighted>
0.0000

> <Gold.Chemscore.DEClash.Weighted>
0.2655

> <Gold.Chemscore.DEInternal.Weighted>
1.8706

> <Gold.Chemscore.Rot.Weighted>
3.6551

> <Gold.Chemscore.Internal.Correction.Weighted>
   9.000000E+99

> <Gold.Protein.RotatedTorsions>
[ 6907 6896 6895 6894 ] final  -80.08 input  -60.11 | X-H torsion
[ 7974 7965 7964 7962 ] final   97.60 input  175.53 | X-H torsion
[ 8008 7997 7996 7995 ] final   27.83 input   59.86 | X-H torsion
[ 10167 10162 10161 10158 ] final  -35.50 input  -65.29 | X-H torsion
[ 10718 10713 10712 10709 ] final   52.87 input   66.30 | X-H torsion
[ 10763 10752 10751 10750 ] final   90.15 input  -60.55 | X-H torsion
[ 11005 11000 10999 10996 ] final   66.97 input  -57.11 | X-H torsion

> <Gold.Protein.ActiveResidues>
 VAL166  LYS551  ARG553  GLY616  TRP617  ASP618  TYR619  PRO620  LYS621  CYS622 
 ASP623  PHE694  ASN695  SER759  ASP760  ASP761  ALA762  ILE779  LEU786  VAL792 
 PHE793  MET794  SER795  GLU796  ALA797  LYS798  CYS799  TRP800  GLU811  SER814 

> <Gold.Protein.RotatedAtoms>
  150.6936  134.4024  159.5124 H   0  0  0  0  0  0  0  0  0  0  0  0  # atno 6907 bound_to 6896
  152.1795  134.8763  160.0537 H   0  0  0  0  0  0  0  0  0  0  0  0  # atno 6908 bound_to 6896
  151.9759  133.3706  159.4126 H   0  0  0  0  0  0  0  0  0  0  0  0  # atno 6909 bound_to 6896
  145.4234  139.2319  143.3184 H   0  0  0  0  0  0  0  0  0  0  0  0  # atno 7974 bound_to 7965
  155.0491  140.3178  155.4698 H   0  0  0  0  0  0  0  0  0  0  0  0  # atno 8008 bound_to 7997
  156.2838  140.2149  156.5560 H   0  0  0  0  0  0  0  0  0  0  0  0  # atno 8009 bound_to 7997
  154.7225  140.0488  157.0641 H   0  0  0  0  0  0  0  0  0  0  0  0  # atno 8010 bound_to 7997
  140.7163  143.3473  151.2230 H   0  0  0  0  0  0  0  0  0  0  0  0  # atno 10167 bound_to 10162
  157.5115  130.8504  149.8441 H   0  0  0  0  0  0  0  0  0  0  0  0  # atno 10718 bound_to 10713
  153.1945  135.4444  155.0191 H   0  0  0  0  0  0  0  0  0  0  0  0  # atno 10763 bound_to 10752
  154.8110  135.3294  154.7306 H   0  0  0  0  0  0  0  0  0  0  0  0  # atno 10764 bound_to 10752
  153.7757  135.6981  153.4953 H   0  0  0  0  0  0  0  0  0  0  0  0  # atno 10765 bound_to 10752
  139.9799  134.6761  156.0282 H   0  0  0  0  0  0  0  0  0  0  0  0  # atno 11005 bound_to 11000
  146.2645  140.4961  142.8840 LP  0  0  0  0  0  0  0  0  0  0  0  0  # atno 17320 bound_to 7965
  144.8230  140.6582  143.6340 LP  0  0  0  0  0  0  0  0  0  0  0  0  # atno 17321 bound_to 7965
  139.6995  143.9557  152.2899 LP  0  0  0  0  0  0  0  0  0  0  0  0  # atno 17342 bound_to 10162
  139.9245  144.6779  150.8427 LP  0  0  0  0  0  0  0  0  0  0  0  0  # atno 17343 bound_to 10162
  156.0292  130.3770  150.1736 LP  0  0  0  0  0  0  0  0  0  0  0  0  # atno 17370 bound_to 10713
  156.9925  130.9898  151.3411 LP  0  0  0  0  0  0  0  0  0  0  0  0  # atno 17371 bound_to 10713
  141.1472  133.6554  156.3904 LP  0  0  0  0  0  0  0  0  0  0  0  0  # atno 17394 bound_to 11000
  140.5118  134.6388  157.5287 LP  0  0  0  0  0  0  0  0  0  0  0  0  # atno 17395 bound_to 11000

$$$$
