#       Name:                AV-unprocessed.smi:337
#       Creating user name   scv26
#       Creation time:       Thu Mar 26 22:29:18 2020


#       File generated by GOLD software.
#

@<TRIPOS>MOLECULE
AV-unprocessed.smi:337
    51    52     1
SMALL
NO_CHARGES


@<TRIPOS>ATOM
      1 ****        -4.2395   0.5606  -3.7925 C.3            1 S1                 0.0000
      2 ****        -3.5100   0.8231  -2.4645 C.3            1 S1                 0.0000
      3 ****        -4.0483  -0.0894  -1.4562 N.am           1 S1                 0.0000
      4 ****        -3.8914   0.0498  -0.1309 C.2            1 S1                 0.0000
      5 ****        -4.4549  -0.9452   0.5546 N.am           1 S1                 0.0000
      6 ****        -3.2939   0.9805   0.4068 O.2            1 S1                 0.0000
      7 ****        -2.0097   0.5606  -2.6652 C.2            1 S1                 0.0000
      8 ****        -1.5942  -0.5844  -2.8509 O.2            1 S1                 0.0000
      9 ****        -1.2075   1.6346  -2.6112 N.am           1 S1                 0.0000
     10 ****         0.2495   1.5873  -2.6708 C.3            1 S1                 0.0000
     11 ****         0.8971   1.0893  -1.3859 C.ar           1 S1                 0.0000
     12 ****         0.3484   1.3744  -0.1179 C.ar           1 S1                 0.0000
     13 ****         0.9861   0.8725   1.0318 C.ar           1 S1                 0.0000
     14 ****         2.1620   0.0990   0.8871 C.ar           1 S1                 0.0000
     15 ****         2.8076  -0.4255   2.0277 N.3            1 S1                 0.0000
     16 ****         4.1472  -0.9852   1.8598 C.3            1 S1                 0.0000
     17 ****         4.7937  -1.2460   3.2308 C.3            1 S1                 0.0000
     18 ****         3.9449  -2.0829   4.0094 O.3            1 S1                 0.0000
     19 ****         2.6815  -1.4734   4.2538 C.3            1 S1                 0.0000
     20 ****         1.9601  -1.2126   2.9201 C.3            1 S1                 0.0000
     21 ****         2.6979  -0.1559  -0.3325 N.ar           1 S1                 0.0000
     22 ****         2.0803   0.3255  -1.4321 C.ar           1 S1                 0.0000
     23 ****        -3.8717   1.2176  -4.5815 H              1 S1                 0.0000
     24 ****        -5.3094   0.7450  -3.6908 H              1 S1                 0.0000
     25 ****        -4.1138  -0.4692  -4.1309 H              1 S1                 0.0000
     26 ****        -3.6784   1.8566  -2.1548 H              1 S1                 0.0000
     27 ****        -4.5509  -0.8960  -1.7963 H              1 S1                 0.0000
     28 ****        -4.4130  -0.9558   1.5630 H              1 S1                 0.0000
     29 ****        -4.9293  -1.6853   0.0576 H              1 S1                 0.0000
     30 ****        -1.6317   2.5387  -2.4611 H              1 S1                 0.0000
     31 ****         0.5636   0.9682  -3.5131 H              1 S1                 0.0000
     32 ****         0.6161   2.5941  -2.8717 H              1 S1                 0.0000
     33 ****        -0.5494   1.9667  -0.0192 H              1 S1                 0.0000
     34 ****         0.5741   1.0942   2.0048 H              1 S1                 0.0000
     35 ****         4.0824  -1.9165   1.2954 H              1 S1                 0.0000
     36 ****         4.7741  -0.2992   1.2887 H              1 S1                 0.0000
     37 ****         5.7579  -1.7381   3.1032 H              1 S1                 0.0000
     38 ****         4.9815  -0.3088   3.7576 H              1 S1                 0.0000
     39 ****         2.0836  -2.1361   4.8796 H              1 S1                 0.0000
     40 ****         2.8153  -0.5449   4.8115 H              1 S1                 0.0000
     41 ****         1.0130  -0.7141   3.1219 H              1 S1                 0.0000
     42 ****         1.7223  -2.1594   2.4331 H              1 S1                 0.0000
     43 ****         2.5437   0.0861  -2.3781 H              1 S1                 0.0000
     44 ****        -2.8842   1.7012  -0.1524 LP             1 S1                 0.0000
     45 ****        -3.2178   1.0166   1.4032 LP             1 S1                 0.0000
     46 ****        -2.2352  -1.3517  -2.8719 LP             1 S1                 0.0000
     47 ****        -0.6160  -0.7464  -2.9807 LP             1 S1                 0.0000
     48 ****         2.9953   0.4289   2.5121 LP             1 S1                 0.0000
     49 ****         4.3893  -2.2692   4.8856 LP             1 S1                 0.0000
     50 ****         3.8002  -2.9426   3.5195 LP             1 S1                 0.0000
     51 ****         3.5377  -0.6923  -0.4159 LP             1 S1                 0.0000
@<TRIPOS>BOND
    1    1    2 1     
    2    1   23 1     
    3    1   24 1     
    4    1   25 1     
    5    2    3 1     
    6    2    7 1     
    7    2   26 1     
    8    3    4 am    
    9    3   27 1     
   10    4    5 am    
   11    4    6 2     
   12    5   28 1     
   13    5   29 1     
   14    7    8 2     
   15    7    9 am    
   16    9   10 1     
   17    9   30 1     
   18   10   11 1     
   19   10   31 1     
   20   10   32 1     
   21   11   22 ar    
   22   11   12 ar    
   23   12   13 ar    
   24   12   33 1     
   25   13   14 ar    
   26   13   34 1     
   27   14   15 1     
   28   14   21 ar    
   29   15   20 1     
   30   15   16 1     
   31   16   17 1     
   32   16   35 1     
   33   16   36 1     
   34   17   18 1     
   35   17   37 1     
   36   17   38 1     
   37   18   19 1     
   38   19   20 1     
   39   19   39 1     
   40   19   40 1     
   41   20   41 1     
   42   20   42 1     
   43   21   22 ar    
   44   22   43 1     
   45    6   44 1     
   46    6   45 1     
   47    8   46 1     
   48    8   47 1     
   49   15   48 1     
   50   18   49 1     
   51   18   50 1     
   52   21   51 1     
@<TRIPOS>SUBSTRUCTURE
      1 S1             1
@<TRIPOS>SET
LONE_PAIRS      STATIC     ATOMS    <user>   **** ""
8 44 45 46 47 48 49 50 51
DONOR_HYDROGENS      STATIC     ATOMS    <user>   **** ""
4 27 28 29 30
ATOM$BLUE        STATIC     ATOMS    COLORGROUP SYSTEM
8 44 45 46 47 48 49 50 51
ATOM$RED        STATIC     ATOMS    COLORGROUP SYSTEM
4 27 28 29 30
