AV-unprocessed.smi:3284|AV-procd|sdf|12575|dock6
  -GOLD-   2272018493D 1   1.00000     0.00000
 Structure written by MMmdl.
 44 45  0  0  0  0  0  0  0  0  2 V2000
  146.2367  142.5197  154.5264 C   0  0  0  0  0  0  0  0  0  0  0  0
  147.2086  141.3608  154.3845 C   0  0  0  0  0  0  0  0  0  0  0  0
  146.9597  140.3371  153.5444 C   0  0  0  0  0  0  0  0  0  0  0  0
  147.8944  139.1642  153.3105 C   0  0  0  0  0  0  0  0  0  0  0  0
  149.0856  139.1417  154.2819 C   0  0  0  0  0  0  0  0  0  0  0  0
  149.6030  140.5616  154.5757 C   0  0  2  0  0  0  0  0  0  0  0  0
  150.9397  140.5368  155.3357 C   0  0  0  0  0  0  0  0  0  0  0  0
  148.4916  141.4494  155.2145 C   0  0  2  0  0  0  0  0  0  0  0  0
  148.1813  141.1335  156.7004 C   0  0  0  0  0  0  0  0  0  0  0  0
  149.0059  141.9299  157.6301 N   0  3  0  0  0  0  0  0  0  0  0  0
  150.1661  141.2053  158.1869 C   0  0  0  0  0  0  0  0  0  0  0  0
  151.4296  142.0791  158.1888 C   0  0  0  0  0  0  0  0  0  0  0  0
  151.4696  143.0543  159.3273 C   0  0  0  0  0  0  0  0  0  0  0  0
  151.3871  142.6968  160.6055 N   0  0  0  0  0  0  0  0  0  0  0  0
  151.4892  143.8885  161.3153 C   0  0  0  0  0  0  0  0  0  0  0  0
  151.6398  144.9316  160.4338 C   0  0  0  0  0  0  0  0  0  0  0  0
  151.6303  144.3810  159.1590 N   0  0  0  0  0  0  0  0  0  0  0  0
  151.7685  145.1131  157.9150 C   0  0  0  0  0  0  0  0  0  0  0  0
  146.7301  143.4590  154.2756 H   0  0  0  0  0  0  0  0  0  0  0  0
  145.8531  142.5950  155.5431 H   0  0  0  0  0  0  0  0  0  0  0  0
  145.3824  142.4038  153.8584 H   0  0  0  0  0  0  0  0  0  0  0  0
  146.0502  140.3335  152.9612 H   0  0  0  0  0  0  0  0  0  0  0  0
  147.3334  138.2320  153.3828 H   0  0  0  0  0  0  0  0  0  0  0  0
  148.2573  139.2346  152.2847 H   0  0  0  0  0  0  0  0  0  0  0  0
  148.7913  138.6545  155.2114 H   0  0  0  0  0  0  0  0  0  0  0  0
  149.8801  138.5250  153.8598 H   0  0  0  0  0  0  0  0  0  0  0  0
  149.8321  141.0121  153.6083 H   0  0  0  0  0  0  0  0  0  0  0  0
  150.8653  139.9798  156.2697 H   0  0  0  0  0  0  0  0  0  0  0  0
  151.2846  141.5458  155.5629 H   0  0  0  0  0  0  0  0  0  0  0  0
  151.7145  140.0559  154.7378 H   0  0  0  0  0  0  0  0  0  0  0  0
  148.8269  142.4860  155.1514 H   0  0  0  0  0  0  0  0  0  0  0  0
  147.1411  141.3594  156.9322 H   0  0  0  0  0  0  0  0  0  0  0  0
  148.3151  140.0714  156.9050 H   0  0  0  0  0  0  0  0  0  0  0  0
  149.3454  142.7436  157.1373 H   0  0  0  0  0  0  0  0  0  0  0  0
  149.9386  140.8742  159.2012 H   0  0  0  0  0  0  0  0  0  0  0  0
  150.3422  140.3103  157.5889 H   0  0  0  0  0  0  0  0  0  0  0  0
  152.3160  141.4456  158.2207 H   0  0  0  0  0  0  0  0  0  0  0  0
  151.4960  142.6356  157.2529 H   0  0  0  0  0  0  0  0  0  0  0  0
  151.4488  143.9033  162.3946 H   0  0  0  0  0  0  0  0  0  0  0  0
  151.7516  145.9924  160.6048 H   0  0  0  0  0  0  0  0  0  0  0  0
  151.9505  146.1690  158.1177 H   0  0  0  0  0  0  0  0  0  0  0  0
  150.8535  145.0210  157.3291 H   0  0  0  0  0  0  0  0  0  0  0  0
  152.6061  144.7152  157.3414 H   0  0  0  0  0  0  0  0  0  0  0  0
  148.4224  142.2398  158.3949 H   0  0  0  0  0  0  0  0  0  0  0  0
  1  2  1  0  0  0  0
  1 19  1  0  0  0  0
  1 20  1  0  0  0  0
  1 21  1  0  0  0  0
  2  8  1  0  0  0  0
  2  3  2  0  0  0  0
  3  4  1  0  0  0  0
  3 22  1  0  0  0  0
  4  5  1  0  0  0  0
  4 23  1  0  0  0  0
  4 24  1  0  0  0  0
  5  6  1  0  0  0  0
  5 25  1  0  0  0  0
  5 26  1  0  0  0  0
  6  7  1  0  0  0  0
  6  8  1  0  0  0  0
  6 27  1  0  0  0  0
  7 28  1  0  0  0  0
  7 29  1  0  0  0  0
  7 30  1  0  0  0  0
  8  9  1  0  0  0  0
  8 31  1  0  0  0  0
  9 10  1  0  0  0  0
  9 32  1  0  0  0  0
  9 33  1  0  0  0  0
 10 11  1  0  0  0  0
 10 34  1  0  0  0  0
 10 44  1  0  0  0  0
 11 12  1  0  0  0  0
 11 35  1  0  0  0  0
 11 36  1  0  0  0  0
 12 13  1  0  0  0  0
 12 37  1  0  0  0  0
 12 38  1  0  0  0  0
 13 17  1  0  0  0  0
 13 14  2  0  0  0  0
 14 15  1  0  0  0  0
 15 16  2  0  0  0  0
 15 39  1  0  0  0  0
 16 17  1  0  0  0  0
 16 40  1  0  0  0  0
 17 18  1  0  0  0  0
 18 41  1  0  0  0  0
 18 42  1  0  0  0  0
 18 43  1  0  0  0  0
M  CHG  1  10   1
M  END
> <s_m_source_file>
AV-unprocessed.smi

> <i_m_source_file_index>
3284

> <i_lp_mmshare_version>
43012

> <i_f3d_flags>
0

> <s_epik_input>
W0NIM11DMT1bQ0hdW0NIMl1bQ0gyXVtDQEBIXShbQ0gzXSlbQ0BIXTFbQ0gyXVtOSF1bQ0gyXVtDSDJdYzJuW2NIXVtjSF1uMltDSDNd

> <s_epik_cmdline>
J2VwaWtfcHl0aG9uJywgJy1waCcsICc3LjAnLCAnLXRuJywgJzgnLCAnLW1hJywgJzIwMCcsICctbWV0YWxfYmluZGluZycsICctaW1hZScsICc8aW5maWxlLm1hZT4nLCAnLW9tYWUnLCAnPG91dGZpbGUubWFlPic=

> <r_lp_tautomer_probability>
1

> <r_epik_Ionization_Penalty>
0.150779

> <r_epik_Ionization_Penalty_Charging>
0.150779

> <r_epik_Ionization_Penalty_Neutral>
1.39452e-13

> <r_epik_State_Penalty>
0.349447

> <r_epik_Charging_Adjusted_Penalty>
0.500226

> <i_epik_Tot_Q>
1

> <i_epik_Tot_abs_Q>
1

> <r_epik_Metal_State_Penalty>
0.000470967

> <b_epik_Metal_Only>
0

> <s_lp_Force_Field>
OPLS_2005

> <r_lp_Energy>
16.0755

> <b_lp_Chiralities_Consistent>
1

> <s_lp_Variant>
AV-unprocessed.smi:3284-4

> <Gold.Version>
5.8.1

> <Gold.Id.Protein>
6NUR|6NUR_protein|mol2

> <Gold.PLP.Fitness>
44.2090

> <Gold.PLP.PLP>
-42.3084

> <Gold.PLP.part.hbond>
-1.7198

> <Gold.PLP.part.metal>
0.0000

> <Gold.PLP.part.buried>
-2.3548

> <Gold.PLP.part.nonpolar>
-38.6103

> <Gold.PLP.part.repulsive>
0.0906

> <Gold.PLP.ligand.clash>
0.0000

> <Gold.PLP.ligand.torsion>
1.1296

> <Gold.PLP.Chemscore.Hbond>
1.3760

> <Gold.PLP.Chemscore.CHOScore>
0.0000

> <Gold.PLP.Chemscore.Metal>
0.0000

> <Gold.Chemscore.Hbonds>
donor molecule, donor type, donor heavy atom, donor atom, acceptor molecule, acceptor atom, score
      P1  H  6933  6945       L1    14  0.03

> <Gold.PLP.Chemscore.Internal.Correction>
0.0318

> <Gold.Rescore>
     Score         DG    S(hbond)    S(metal)    S(lipo)     H(rot)  DE(clash)    DE(int)     intcor
     12.81     -14.36       0.16        0.00     106.49       1.61       0.37       1.18       ----

> <Gold.Chemscore.Fitness>
12.8075

> <Gold.Chemscore.DG>
-14.3598

> <Gold.Chemscore.ZeroCoef>
-5.4800

> <Gold.Chemscore.Hbond>
0.1627

> <Gold.Chemscore.Metal>
0.0000

> <Gold.Chemscore.Lipo>
106.4908

> <Gold.Chemscore.Internal_Hbond>
0.0000

> <Gold.Chemscore.DEClash>
0.3715

> <Gold.Chemscore.DEInternal>
1.1808

> <Gold.Chemscore.Rot>
1.6105

> <Gold.Chemscore.Internal.Correction>
   9.000000E+99

> <Gold.Chemscore.Hbonds>
donor molecule, donor type, donor heavy atom, donor atom, acceptor molecule, acceptor atom, score
      L1  H    10    34       P1  8028  0.01

> <Gold.Chemscore.Hbond.Weighted>
-0.5433

> <Gold.Chemscore.Metal.Weighted>
-0.0000

> <Gold.Chemscore.Lipo.Weighted>
-12.4594

> <Gold.Chemscore.Internal_Hbond.Weighted>
0.0000

> <Gold.Chemscore.DEClash.Weighted>
0.3715

> <Gold.Chemscore.DEInternal.Weighted>
1.1808

> <Gold.Chemscore.Rot.Weighted>
4.1230

> <Gold.Chemscore.Internal.Correction.Weighted>
   9.000000E+99

> <Gold.Protein.RotatedTorsions>
[ 6907 6896 6895 6894 ] final -112.84 input  -60.11 | X-H torsion
[ 7974 7965 7964 7962 ] final  -30.10 input  175.53 | X-H torsion
[ 8008 7997 7996 7995 ] final  -16.28 input   59.86 | X-H torsion
[ 10167 10162 10161 10158 ] final  -54.13 input  -65.29 | X-H torsion
[ 10718 10713 10712 10709 ] final  -48.96 input   66.30 | X-H torsion
[ 10763 10752 10751 10750 ] final  -34.76 input  -60.55 | X-H torsion
[ 11005 11000 10999 10996 ] final  -23.36 input  -57.11 | X-H torsion

> <Gold.Protein.ActiveResidues>
 VAL166  LYS551  ARG553  GLY616  TRP617  ASP618  TYR619  PRO620  LYS621  CYS622 
 ASP623  PHE694  ASN695  SER759  ASP760  ASP761  ALA762  ILE779  LEU786  VAL792 
 PHE793  MET794  SER795  GLU796  ALA797  LYS798  CYS799  TRP800  GLU811  SER814 

> <Gold.Protein.RotatedAtoms>
  150.7786  133.9031  159.3347 H   0  0  0  0  0  0  0  0  0  0  0  0  # atno 6907 bound_to 6896
  151.6900  135.0946  160.0241 H   0  0  0  0  0  0  0  0  0  0  0  0  # atno 6908 bound_to 6896
  152.3831  133.6535  159.6212 H   0  0  0  0  0  0  0  0  0  0  0  0  # atno 6909 bound_to 6896
  146.1168  140.5497  142.8753 H   0  0  0  0  0  0  0  0  0  0  0  0  # atno 7974 bound_to 7965
  154.5065  140.2173  155.9241 H   0  0  0  0  0  0  0  0  0  0  0  0  # atno 8008 bound_to 7997
  156.1499  140.3163  155.8598 H   0  0  0  0  0  0  0  0  0  0  0  0  # atno 8009 bound_to 7997
  155.3958  140.0481  157.3029 H   0  0  0  0  0  0  0  0  0  0  0  0  # atno 8010 bound_to 7997
  140.6447  143.2528  151.4892 H   0  0  0  0  0  0  0  0  0  0  0  0  # atno 10167 bound_to 10162
  156.1938  130.4153  149.9334 H   0  0  0  0  0  0  0  0  0  0  0  0  # atno 10718 bound_to 10713
  153.8521  135.6848  153.4791 H   0  0  0  0  0  0  0  0  0  0  0  0  # atno 10763 bound_to 10752
  153.1391  135.4665  154.9466 H   0  0  0  0  0  0  0  0  0  0  0  0  # atno 10764 bound_to 10752
  154.7797  135.3265  154.7963 H   0  0  0  0  0  0  0  0  0  0  0  0  # atno 10765 bound_to 10752
  140.8744  133.7697  156.0226 H   0  0  0  0  0  0  0  0  0  0  0  0  # atno 11005 bound_to 11000
  144.7560  140.5308  143.6768 LP  0  0  0  0  0  0  0  0  0  0  0  0  # atno 17320 bound_to 7965
  145.5550  139.1477  143.3373 LP  0  0  0  0  0  0  0  0  0  0  0  0  # atno 17321 bound_to 7965
  139.5657  144.2047  152.1761 LP  0  0  0  0  0  0  0  0  0  0  0  0  # atno 17342 bound_to 10162
  140.1328  144.5272  150.6791 LP  0  0  0  0  0  0  0  0  0  0  0  0  # atno 17343 bound_to 10162
  156.7066  130.8953  151.3605 LP  0  0  0  0  0  0  0  0  0  0  0  0  # atno 17370 bound_to 10713
  157.6945  130.9268  150.0607 LP  0  0  0  0  0  0  0  0  0  0  0  0  # atno 17371 bound_to 10713
  140.8535  134.2926  157.5265 LP  0  0  0  0  0  0  0  0  0  0  0  0  # atno 17394 bound_to 11000
  139.8714  134.9480  156.3984 LP  0  0  0  0  0  0  0  0  0  0  0  0  # atno 17395 bound_to 11000

$$$$
