#       Name:                AV-unprocessed.smi:1029
#       Creating user name   scv26
#       Creation time:       Fri Mar 27 02:45:25 2020


#       File generated by GOLD software.
#

@<TRIPOS>MOLECULE
AV-unprocessed.smi:1029
    53    54     1
SMALL
NO_CHARGES


@<TRIPOS>ATOM
      1 ****        -7.6292   4.5928  -1.8116 C.3            1 S1                 0.0000
      2 ****        -6.1650   4.4265  -1.5298 C.2            1 S1                 0.0000
      3 ****        -5.4431   3.2229  -1.2980 C.2            1 S1                 0.0000
      4 ****        -4.1633   3.6694  -1.1008 C.2            1 S1                 0.0000
      5 ****        -3.0451   2.9421  -0.8405 N.am           1 S1                 0.0000
      6 ****        -2.9129   1.6078  -0.7365 C.2            1 S1                 0.0000
      7 ****        -3.8254   0.7874  -0.8360 O.2            1 S1                 0.0000
      8 ****        -1.6392   1.2597  -0.5094 N.am           1 S1                 0.0000
      9 ****        -1.1790  -0.1183  -0.3917 C.3            1 S1                 0.0000
     10 ****         0.3546  -0.1877  -0.2922 C.3            1 S1                 0.0000
     11 ****         0.8941   0.1185  -1.5638 O.3            1 S1                 0.0000
     12 ****         0.8313  -1.6031   0.0931 C.3            1 S1                 0.0000
     13 ****         2.3029  -1.6746   0.2850 N.4            1 S1                 1.0000
     14 ****         2.8456  -3.0293   0.0081 C.3            1 S1                 0.0000
     15 ****         4.3841  -3.0341   0.0632 C.3            1 S1                 0.0000
     16 ****         4.9219  -2.4996   1.4029 C.3            1 S1                 0.0000
     17 ****         4.7465  -3.5027   2.5565 C.3            1 S1                 0.0000
     18 ****         4.2848  -1.1297   1.7010 C.3            1 S1                 0.0000
     19 ****         2.7484  -1.1675   1.6097 C.3            1 S1                 0.0000
     20 ****        -4.0942   5.0193  -1.1978 O.3            1 S1                 0.0000
     21 ****        -5.3824   5.4941  -1.4721 N.2            1 S1                 0.0000
     22 ****        -8.0812   3.6478  -2.1142 H              1 S1                 0.0000
     23 ****        -7.7997   5.3112  -2.6139 H              1 S1                 0.0000
     24 ****        -8.1593   4.9470  -0.9272 H              1 S1                 0.0000
     25 ****        -5.8214   2.2120  -1.2847 H              1 S1                 0.0000
     26 ****        -2.2000   3.4826  -0.7304 H              1 S1                 0.0000
     27 ****        -0.9427   1.9874  -0.4416 H              1 S1                 0.0000
     28 ****        -1.6243  -0.5409   0.5103 H              1 S1                 0.0000
     29 ****        -1.5400  -0.7147  -1.2320 H              1 S1                 0.0000
     30 ****         0.7064   0.5456   0.4337 H              1 S1                 0.0000
     31 ****         0.4954  -0.4481  -2.2072 H              1 S1                 0.0000
     32 ****         0.3345  -1.9433   1.0033 H              1 S1                 0.0000
     33 ****         0.5240  -2.2956  -0.6925 H              1 S1                 0.0000
     34 ****         2.4316  -3.7442   0.7204 H              1 S1                 0.0000
     35 ****         2.5289  -3.3551  -0.9834 H              1 S1                 0.0000
     36 ****         4.7633  -4.0396  -0.1229 H              1 S1                 0.0000
     37 ****         4.7676  -2.4130  -0.7476 H              1 S1                 0.0000
     38 ****         5.9959  -2.3460   1.2894 H              1 S1                 0.0000
     39 ****         3.6985  -3.7293   2.7506 H              1 S1                 0.0000
     40 ****         5.1764  -3.1142   3.4802 H              1 S1                 0.0000
     41 ****         5.2504  -4.4439   2.3345 H              1 S1                 0.0000
     42 ****         4.5936  -0.7769   2.6856 H              1 S1                 0.0000
     43 ****         4.6624  -0.3972   0.9860 H              1 S1                 0.0000
     44 ****         2.3618  -0.1630   1.7784 H              1 S1                 0.0000
     45 ****         2.3353  -1.7955   2.4003 H              1 S1                 0.0000
     46 ****         2.7051  -1.0659  -0.4140 H              1 S1                 0.0000
     47 ****        -4.7601   1.0977  -1.0089 LP             1 S1                 0.0000
     48 ****        -3.6318  -0.1894  -0.7440 LP             1 S1                 0.0000
     49 ****         1.8833  -0.0278  -1.5536 LP             1 S1                 0.0000
     50 ****         0.7007   1.0731  -1.7903 LP             1 S1                 0.0000
     51 ****        -3.4721   5.2760  -1.9375 LP             1 S1                 0.0000
     52 ****        -3.7651   5.4060  -0.3363 LP             1 S1                 0.0000
     53 ****        -5.6567   6.4473  -1.5990 LP             1 S1                 0.0000
@<TRIPOS>BOND
    1    1    2 1     
    2    1   22 1     
    3    1   23 1     
    4    1   24 1     
    5    2   21 2     
    6    2    3 1     
    7    3    4 2     
    8    3   25 1     
    9    4    5 1     
   10    4   20 1     
   11    5    6 am    
   12    5   26 1     
   13    6    7 2     
   14    6    8 am    
   15    8    9 1     
   16    8   27 1     
   17    9   10 1     
   18    9   28 1     
   19    9   29 1     
   20   10   11 1     
   21   10   12 1     
   22   10   30 1     
   23   11   31 1     
   24   12   13 1     
   25   12   32 1     
   26   12   33 1     
   27   13   19 1     
   28   13   14 1     
   29   13   46 1     
   30   14   15 1     
   31   14   34 1     
   32   14   35 1     
   33   15   16 1     
   34   15   36 1     
   35   15   37 1     
   36   16   17 1     
   37   16   18 1     
   38   16   38 1     
   39   17   39 1     
   40   17   40 1     
   41   17   41 1     
   42   18   19 1     
   43   18   42 1     
   44   18   43 1     
   45   19   44 1     
   46   19   45 1     
   47   20   21 1     
   48    7   47 1     
   49    7   48 1     
   50   11   49 1     
   51   11   50 1     
   52   20   51 1     
   53   20   52 1     
   54   21   53 1     
@<TRIPOS>SUBSTRUCTURE
      1 S1             1
@<TRIPOS>SET
LONE_PAIRS      STATIC     ATOMS    <user>   **** ""
7 47 48 49 50 51 52 53
DONOR_HYDROGENS      STATIC     ATOMS    <user>   **** ""
4 26 27 31 46
ATOM$BLUE        STATIC     ATOMS    COLORGROUP SYSTEM
7 47 48 49 50 51 52 53
ATOM$RED        STATIC     ATOMS    COLORGROUP SYSTEM
4 26 27 31 46
