AV-unprocessed.smi:2032|AV-procd|sdf|8236|dock3
  -GOLD-   2272010503D 1   1.00000     0.00000
 Structure written by MMmdl.
 42 43  0  0  0  0  0  0  0  0  1 V2000
  150.6214  141.9541  156.3707 C   0  0  0  0  0  0  0  0  0  0  0  0
  150.2024  140.5501  155.9219 C   0  0  1  0  0  0  0  0  0  0  0  0
  148.7733  140.5294  155.3518 C   0  0  0  0  0  0  0  0  0  0  0  0
  148.3891  139.2096  154.8476 N   0  0  0  0  0  0  0  0  0  0  0  0
  147.0016  139.1787  154.3344 C   0  0  1  0  0  0  0  0  0  0  0  0
  146.8889  139.5528  152.8391 C   0  0  0  0  0  0  0  0  0  0  0  0
  146.2769  137.8248  154.5574 C   0  0  0  0  0  0  0  0  0  0  0  0
  146.6834  136.8091  153.5879 N   0  0  0  0  0  0  0  0  0  0  0  0
  145.9047  135.8294  153.1075 C   0  0  0  0  0  0  0  0  0  0  0  0
  144.7373  135.6534  153.4577 O   0  0  0  0  0  0  0  0  0  0  0  0
  146.5656  135.0863  152.2026 N   0  0  0  0  0  0  0  0  0  0  0  0
  146.0857  133.9765  151.4589 C   0  0  0  0  0  0  0  0  0  0  0  0
  146.8692  133.0480  150.8982 N   0  0  0  0  0  0  0  0  0  0  0  0
  146.1280  132.0715  150.2279 C   0  0  0  0  0  0  0  0  0  0  0  0
  144.7716  132.2732  150.2896 C   0  0  0  0  0  0  0  0  0  0  0  0
  144.3686  133.7065  151.1970 S   0  0  0  0  0  0  0  0  0  0  0  0
  149.3719  138.8045  153.8388 C   0  0  0  0  0  0  0  0  0  0  0  0
  150.8254  138.8410  154.3519 C   0  0  2  0  0  0  0  0  0  0  0  0
  151.1600  137.6899  155.3159 C   0  0  0  0  0  0  0  0  0  0  0  0
  151.1195  140.1144  154.9233 O   0  0  0  0  0  0  0  0  0  0  0  0
  149.9516  142.3364  157.1412 H   0  0  0  0  0  0  0  0  0  0  0  0
  150.6073  142.6555  155.5361 H   0  0  0  0  0  0  0  0  0  0  0  0
  151.6309  141.9459  156.7824 H   0  0  0  0  0  0  0  0  0  0  0  0
  150.2593  139.8845  156.7838 H   0  0  0  0  0  0  0  0  0  0  0  0
  148.1026  140.8447  156.1491 H   0  0  0  0  0  0  0  0  0  0  0  0
  148.6845  141.2691  154.5545 H   0  0  0  0  0  0  0  0  0  0  0  0
  146.4254  139.9267  154.8811 H   0  0  0  0  0  0  0  0  0  0  0  0
  145.8760  139.3957  152.4673 H   0  0  0  0  0  0  0  0  0  0  0  0
  147.5613  138.9541  152.2239 H   0  0  0  0  0  0  0  0  0  0  0  0
  147.1163  140.6033  152.6608 H   0  0  0  0  0  0  0  0  0  0  0  0
  146.4783  137.4386  155.5560 H   0  0  0  0  0  0  0  0  0  0  0  0
  145.1952  137.9681  154.5379 H   0  0  0  0  0  0  0  0  0  0  0  0
  147.6267  136.8788  153.2353 H   0  0  0  0  0  0  0  0  0  0  0  0
  147.5218  135.3508  152.0173 H   0  0  0  0  0  0  0  0  0  0  0  0
  146.6491  131.2658  149.7322 H   0  0  0  0  0  0  0  0  0  0  0  0
  143.9887  131.6678  149.8577 H   0  0  0  0  0  0  0  0  0  0  0  0
  149.1701  137.7943  153.4856 H   0  0  0  0  0  0  0  0  0  0  0  0
  149.2874  139.4592  152.9701 H   0  0  0  0  0  0  0  0  0  0  0  0
  151.4859  138.7346  153.4909 H   0  0  0  0  0  0  0  0  0  0  0  0
  151.0438  136.7250  154.8217 H   0  0  0  0  0  0  0  0  0  0  0  0
  150.5115  137.6856  156.1919 H   0  0  0  0  0  0  0  0  0  0  0  0
  152.1909  137.7606  155.6627 H   0  0  0  0  0  0  0  0  0  0  0  0
  1  2  1  0  0  0  0
  1 21  1  0  0  0  0
  1 22  1  0  0  0  0
  1 23  1  0  0  0  0
  2 20  1  0  0  0  0
  2  3  1  0  0  0  0
  2 24  1  0  0  0  0
  3  4  1  0  0  0  0
  3 25  1  0  0  0  0
  3 26  1  0  0  0  0
  4  5  1  0  0  0  0
  4 17  1  0  0  0  0
  5  6  1  0  0  0  0
  5  7  1  0  0  0  0
  5 27  1  0  0  0  0
  6 28  1  0  0  0  0
  6 29  1  0  0  0  0
  6 30  1  0  0  0  0
  7  8  1  0  0  0  0
  7 31  1  0  0  0  0
  7 32  1  0  0  0  0
  8  9  1  0  0  0  0
  8 33  1  0  0  0  0
  9 10  2  0  0  0  0
  9 11  1  0  0  0  0
 11 12  1  0  0  0  0
 11 34  1  0  0  0  0
 12 16  1  0  0  0  0
 12 13  2  0  0  0  0
 13 14  1  0  0  0  0
 14 15  2  0  0  0  0
 14 35  1  0  0  0  0
 15 16  1  0  0  0  0
 15 36  1  0  0  0  0
 17 18  1  0  0  0  0
 17 37  1  0  0  0  0
 17 38  1  0  0  0  0
 18 19  1  0  0  0  0
 18 20  1  0  0  0  0
 18 39  1  0  0  0  0
 19 40  1  0  0  0  0
 19 41  1  0  0  0  0
 19 42  1  0  0  0  0
M  END
> <s_m_source_file>
AV-unprocessed.smi

> <i_m_source_file_index>
2032

> <i_lp_mmshare_version>
43012

> <i_f3d_flags>
0

> <s_epik_input>
W0NIM11bQ0BASF0xW0NIMl1OKFtDSDJdW0NASF0oTzEpW0NIM10pW0NASF0oW0NIM10pW0NIMl1bTkhdQyg9TylbTkhdYzJuW2NIXVtjSF1zMg==

> <s_epik_cmdline>
J2VwaWtfcHl0aG9uJywgJy1waCcsICc3LjAnLCAnLXRuJywgJzgnLCAnLW1hJywgJzIwMCcsICctbWV0YWxfYmluZGluZycsICctaW1hZScsICc8aW5maWxlLm1hZT4nLCAnLW9tYWUnLCAnPG91dGZpbGUubWFlPic=

> <r_lp_tautomer_probability>
0.999

> <r_epik_Ionization_Penalty>
0.219202

> <r_epik_Ionization_Penalty_Charging>
0

> <r_epik_Ionization_Penalty_Neutral>
0.219202

> <r_epik_State_Penalty>
0.209349

> <r_epik_Charging_Adjusted_Penalty>
0.209349

> <i_epik_Tot_Q>
0

> <i_epik_Tot_abs_Q>
0

> <r_epik_Metal_State_Penalty>
0.247737

> <b_epik_Metal_Only>
0

> <s_lp_Force_Field>
OPLS_2005

> <r_lp_Energy>
32.3781

> <b_lp_Chiralities_Consistent>
1

> <s_lp_Variant>
AV-unprocessed.smi:2032-6

> <Gold.Version>
5.8.1

> <Gold.Id.Protein>
6NUR|6NUR_protein|mol2

> <Gold.PLP.Fitness>
38.9432

> <Gold.PLP.PLP>
-29.9901

> <Gold.PLP.part.hbond>
-3.0000

> <Gold.PLP.part.metal>
0.0000

> <Gold.PLP.part.buried>
-0.6016

> <Gold.PLP.part.nonpolar>
-27.1587

> <Gold.PLP.part.repulsive>
0.5205

> <Gold.PLP.ligand.clash>
0.0000

> <Gold.PLP.ligand.torsion>
1.1397

> <Gold.PLP.Chemscore.Hbond>
2.9280

> <Gold.PLP.Chemscore.CHOScore>
0.7989

> <Gold.PLP.Chemscore.Metal>
0.0000

> <Gold.Chemscore.Hbonds>
donor molecule, donor type, donor heavy atom, donor atom, acceptor molecule, acceptor atom, score
      L1  H     8    33       P1  7948  0.93
      L1  H    11    34       P1  7948  1.00
      P1  H  7989  7998       L1    20  0.85
      L1  C    14    35       P1 10747  0.80

> <Gold.PLP.Chemscore.Internal.Correction>
0.0521

> <Gold.Rescore>
     Score         DG    S(hbond)    S(metal)    S(lipo)     H(rot)  DE(clash)    DE(int)     intcor
     17.31     -20.01       2.73        0.00      80.75       1.57       0.98       1.71       ----

> <Gold.Chemscore.Fitness>
17.3137

> <Gold.Chemscore.DG>
-20.0073

> <Gold.Chemscore.ZeroCoef>
-5.4800

> <Gold.Chemscore.Hbond>
2.7279

> <Gold.Chemscore.Metal>
0.0000

> <Gold.Chemscore.Lipo>
80.7516

> <Gold.Chemscore.Internal_Hbond>
0.0000

> <Gold.Chemscore.DEClash>
0.9835

> <Gold.Chemscore.DEInternal>
1.7101

> <Gold.Chemscore.Rot>
1.5750

> <Gold.Chemscore.Internal.Correction>
   9.000000E+99

> <Gold.Chemscore.Hbonds>
donor molecule, donor type, donor heavy atom, donor atom, acceptor molecule, acceptor atom, score
      L1  H     8    33       P1  7948  0.85
      L1  H    11    34       P1  7948  0.99
      P1  H  7989  7998       L1    20  0.15

> <Gold.Chemscore.Hbond.Weighted>
-9.1113

> <Gold.Chemscore.Metal.Weighted>
-0.0000

> <Gold.Chemscore.Lipo.Weighted>
-9.4479

> <Gold.Chemscore.Internal_Hbond.Weighted>
0.0000

> <Gold.Chemscore.DEClash.Weighted>
0.9835

> <Gold.Chemscore.DEInternal.Weighted>
1.7101

> <Gold.Chemscore.Rot.Weighted>
4.0319

> <Gold.Chemscore.Internal.Correction.Weighted>
   9.000000E+99

> <Gold.Protein.RotatedTorsions>
[ 6907 6896 6895 6894 ] final -158.00 input  -60.11 | X-H torsion
[ 7974 7965 7964 7962 ] final   69.01 input  175.53 | X-H torsion
[ 8008 7997 7996 7995 ] final -134.18 input   59.86 | X-H torsion
[ 10167 10162 10161 10158 ] final  149.93 input  -65.29 | X-H torsion
[ 10718 10713 10712 10709 ] final  -82.82 input   66.30 | X-H torsion
[ 10763 10752 10751 10750 ] final   30.77 input  -60.55 | X-H torsion
[ 11005 11000 10999 10996 ] final  -95.72 input  -57.11 | X-H torsion

> <Gold.Protein.ActiveResidues>
 VAL166  LYS551  ARG553  GLY616  TRP617  ASP618  TYR619  PRO620  LYS621  CYS622 
 ASP623  PHE694  ASN695  SER759  ASP760  ASP761  ALA762  ILE779  LEU786  VAL792 
 PHE793  MET794  SER795  GLU796  ALA797  LYS798  CYS799  TRP800  GLU811  SER814 

> <Gold.Protein.RotatedAtoms>
  151.3115  133.4078  159.2647 H   0  0  0  0  0  0  0  0  0  0  0  0  # atno 6907 bound_to 6896
  151.0110  134.9397  159.8017 H   0  0  0  0  0  0  0  0  0  0  0  0  # atno 6908 bound_to 6896
  152.5300  134.3080  159.9155 H   0  0  0  0  0  0  0  0  0  0  0  0  # atno 6909 bound_to 6896
  145.7956  139.2956  143.1184 H   0  0  0  0  0  0  0  0  0  0  0  0  # atno 7974 bound_to 7965
  155.3578  140.0481  157.3046 H   0  0  0  0  0  0  0  0  0  0  0  0  # atno 8008 bound_to 7997
  154.5194  140.2219  155.8968 H   0  0  0  0  0  0  0  0  0  0  0  0  # atno 8009 bound_to 7997
  156.1672  140.3103  155.8916 H   0  0  0  0  0  0  0  0  0  0  0  0  # atno 8010 bound_to 7997
  139.4856  144.5562  151.7313 H   0  0  0  0  0  0  0  0  0  0  0  0  # atno 10167 bound_to 10162
  156.0027  130.4646  150.4162 H   0  0  0  0  0  0  0  0  0  0  0  0  # atno 10718 bound_to 10713
  153.0353  135.6456  154.1095 H   0  0  0  0  0  0  0  0  0  0  0  0  # atno 10763 bound_to 10752
  154.0811  135.2873  155.3291 H   0  0  0  0  0  0  0  0  0  0  0  0  # atno 10764 bound_to 10752
  154.6529  135.5419  153.7988 H   0  0  0  0  0  0  0  0  0  0  0  0  # atno 10765 bound_to 10752
  141.1433  133.8046  157.0474 H   0  0  0  0  0  0  0  0  0  0  0  0  # atno 11005 bound_to 11000
  145.9931  140.8585  143.0056 LP  0  0  0  0  0  0  0  0  0  0  0  0  # atno 17320 bound_to 7965
  144.6775  140.2244  143.7362 LP  0  0  0  0  0  0  0  0  0  0  0  0  # atno 17321 bound_to 7965
  140.5124  144.1004  150.5999 LP  0  0  0  0  0  0  0  0  0  0  0  0  # atno 17342 bound_to 10162
  140.3934  143.2740  152.0033 LP  0  0  0  0  0  0  0  0  0  0  0  0  # atno 17343 bound_to 10162
  157.2222  131.0485  151.2540 LP  0  0  0  0  0  0  0  0  0  0  0  0  # atno 17370 bound_to 10713
  157.3790  130.7221  149.6617 LP  0  0  0  0  0  0  0  0  0  0  0  0  # atno 17371 bound_to 10713
  140.0654  134.9732  157.1376 LP  0  0  0  0  0  0  0  0  0  0  0  0  # atno 17394 bound_to 11000
  140.3788  134.2310  155.7172 LP  0  0  0  0  0  0  0  0  0  0  0  0  # atno 17395 bound_to 11000

$$$$
