AV-unprocessed.smi:158|AV-procd|sdf|1336|dock2
  -GOLD-   2262019 33D 1   1.00000     0.00000
 Structure written by MMmdl.
 31 33  0  0  0  0  0  0  0  0  1 V2000
  153.9925  140.8017  161.0511 N   0  0  0  0  0  0  0  0  0  0  0  0
  153.1958  141.4763  160.2106 C   0  0  0  0  0  0  0  0  0  0  0  0
  152.8382  142.7400  160.5372 N   0  0  0  0  0  0  0  0  0  0  0  0
  152.0447  143.4488  159.7248 C   0  0  0  0  0  0  0  0  0  0  0  0
  151.6524  145.0473  160.2378 Cl  0  0  0  0  0  0  0  0  0  0  0  0
  151.5208  143.0568  158.5590 N   0  0  0  0  0  0  0  0  0  0  0  0
  151.8787  141.7825  158.2260 C   0  0  0  0  0  0  0  0  0  0  0  0
  152.7120  140.9292  158.9972 C   0  0  0  0  0  0  0  0  0  0  0  0
  152.8644  139.7078  158.3551 N   0  0  0  0  0  0  0  0  0  0  0  0
  152.1593  139.8380  157.2631 C   0  0  0  0  0  0  0  0  0  0  0  0
  151.5338  141.0553  157.1041 N   0  0  0  0  0  0  0  0  0  0  0  0
  150.6677  141.4935  155.9653 C   0  0  1  0  0  0  0  0  0  0  0  0
  150.5621  140.4542  155.0383 O   0  0  0  0  0  0  0  0  0  0  0  0
  149.1914  140.1710  154.7646 C   0  0  2  0  0  0  0  0  0  0  0  0
  149.0004  139.7495  153.2974 C   0  0  0  0  0  0  0  0  0  0  0  0
  148.1648  138.6144  153.2168 O   0  0  0  0  0  0  0  0  0  0  0  0
  148.4157  141.4101  155.2396 C   0  0  2  0  0  0  0  0  0  0  0  0
  148.3392  142.4204  154.2513 O   0  0  0  0  0  0  0  0  0  0  0  0
  149.2498  141.8738  156.4172 C   0  0  1  0  0  0  0  0  0  0  0  0
  148.8972  141.1979  157.5136 F   0  0  0  0  0  0  0  0  0  0  0  0
  151.2021  142.3263  155.5069 H   0  0  0  0  0  0  0  0  0  0  0  0
  148.9184  139.3332  155.4084 H   0  0  0  0  0  0  0  0  0  0  0  0
  147.3978  141.1564  155.5379 H   0  0  0  0  0  0  0  0  0  0  0  0
  149.1712  142.9384  156.6403 H   0  0  0  0  0  0  0  0  0  0  0  0
  154.2733  139.8575  160.8280 H   0  0  0  0  0  0  0  0  0  0  0  0
  154.3132  141.2388  161.9028 H   0  0  0  0  0  0  0  0  0  0  0  0
  152.0769  139.0432  156.5362 H   0  0  0  0  0  0  0  0  0  0  0  0
  148.5820  140.5588  152.6988 H   0  0  0  0  0  0  0  0  0  0  0  0
  149.9651  139.4962  152.8576 H   0  0  0  0  0  0  0  0  0  0  0  0
  148.5891  137.9672  152.6742 H   0  0  0  0  0  0  0  0  0  0  0  0
  148.6583  143.2274  154.6265 H   0  0  0  0  0  0  0  0  0  0  0  0
  1  2  1  0  0  0  0
  1 25  1  0  0  0  0
  1 26  1  0  0  0  0
  2  8  1  0  0  0  0
  2  3  2  0  0  0  0
  3  4  1  0  0  0  0
  4  5  1  0  0  0  0
  4  6  2  0  0  0  0
  6  7  1  0  0  0  0
  7 11  1  0  0  0  0
  7  8  2  0  0  0  0
  8  9  1  0  0  0  0
  9 10  2  0  0  0  0
 10 11  1  0  0  0  0
 10 27  1  0  0  0  0
 11 12  1  0  0  0  0
 12 21  1  0  0  0  0
 12 19  1  0  0  0  0
 12 13  1  0  0  0  0
 13 14  1  0  0  0  0
 14 22  1  0  0  0  0
 14 15  1  0  0  0  0
 14 17  1  0  0  0  0
 15 16  1  0  0  0  0
 15 28  1  0  0  0  0
 15 29  1  0  0  0  0
 16 30  1  0  0  0  0
 17 23  1  0  0  0  0
 17 18  1  0  0  0  0
 17 19  1  0  0  0  0
 18 31  1  0  0  0  0
 19 24  1  0  0  0  0
 19 20  1  0  0  0  0
M  END
> <s_m_source_file>
AV-unprocessed.smi

> <i_m_source_file_index>
158

> <i_lp_mmshare_version>
43012

> <i_f3d_flags>
0

> <s_epik_input>
Q2xjKG4xKW5jKFtOSDJdKWMoYzEyKW5bY0hdbjJbQ0BASF0zT1tDQEhdKFtDSDJdW09IXSlbQ0BASF0oW09IXSlbQ0BASF0zRg==

> <s_epik_cmdline>
J2VwaWtfcHl0aG9uJywgJy1waCcsICc3LjAnLCAnLXRuJywgJzgnLCAnLW1hJywgJzIwMCcsICctbWV0YWxfYmluZGluZycsICctaW1hZScsICc8aW5maWxlLm1hZT4nLCAnLW9tYWUnLCAnPG91dGZpbGUubWFlPic=

> <r_lp_tautomer_probability>
1

> <r_epik_Ionization_Penalty>
6.51543e-05

> <r_epik_Ionization_Penalty_Charging>
0

> <r_epik_Ionization_Penalty_Neutral>
6.51543e-05

> <r_epik_State_Penalty>
-0

> <r_epik_Charging_Adjusted_Penalty>
0

> <i_epik_Tot_Q>
0

> <i_epik_Tot_abs_Q>
0

> <r_epik_Metal_State_Penalty>
-0

> <b_epik_Metal_Only>
0

> <s_epik_Chemistry_Notes>
This compound contains an acetal/aminal-like group ( X-CH(R)-Y where X, Y are N, S, or O) that may be acid/base labile, releasing an aldehyde.

> <s_lp_Force_Field>
OPLS_2005

> <r_lp_Energy>
35.164

> <b_lp_Chiralities_Consistent>
1

> <s_lp_Variant>
AV-unprocessed.smi:158-14

> <Gold.Version>
5.8.1

> <Gold.Id.Protein>
6NUR|6NUR_protein|mol2

> <Gold.PLP.Fitness>
43.8680

> <Gold.PLP.PLP>
-34.0806

> <Gold.PLP.part.hbond>
-5.9882

> <Gold.PLP.part.metal>
0.0000

> <Gold.PLP.part.buried>
-0.1040

> <Gold.PLP.part.nonpolar>
-27.1888

> <Gold.PLP.part.repulsive>
0.1424

> <Gold.PLP.ligand.clash>
0.0000

> <Gold.PLP.ligand.torsion>
0.6402

> <Gold.PLP.Chemscore.Hbond>
3.6891

> <Gold.PLP.Chemscore.CHOScore>
0.0000

> <Gold.PLP.Chemscore.Metal>
0.0000

> <Gold.Chemscore.Hbonds>
donor molecule, donor type, donor heavy atom, donor atom, acceptor molecule, acceptor atom, score
      L1  H    16    30       P1  7948  1.00
      L1  H    18    31       P1  8028  1.00
      P1  H  7989  7998       L1    13  1.00
      P1  H  7997  8009       L1     9  0.23
      P1  H  8011  8017       L1    18  0.01

> <Gold.PLP.Chemscore.Internal.Correction>
0.0003

> <Gold.Rescore>
     Score         DG    S(hbond)    S(metal)    S(lipo)     H(rot)  DE(clash)    DE(int)     intcor
      9.01     -11.35       2.56        0.00      45.28       3.12       1.74       0.60       ----

> <Gold.Chemscore.Fitness>
9.0110

> <Gold.Chemscore.DG>
-11.3493

> <Gold.Chemscore.ZeroCoef>
-5.4800

> <Gold.Chemscore.Hbond>
2.5649

> <Gold.Chemscore.Metal>
0.0000

> <Gold.Chemscore.Lipo>
45.2790

> <Gold.Chemscore.Internal_Hbond>
0.0000

> <Gold.Chemscore.DEClash>
1.7388

> <Gold.Chemscore.DEInternal>
0.5996

> <Gold.Chemscore.Rot>
3.1230

> <Gold.Chemscore.Internal.Correction>
   9.000000E+99

> <Gold.Chemscore.Hbonds>
donor molecule, donor type, donor heavy atom, donor atom, acceptor molecule, acceptor atom, score
      L1  H    16    30       P1  7948  0.99
      L1  H    18    31       P1  8028  1.00
      P1  H  7989  7998       L1    13  0.61

> <Gold.Chemscore.Hbond.Weighted>
-8.5666

> <Gold.Chemscore.Metal.Weighted>
-0.0000

> <Gold.Chemscore.Lipo.Weighted>
-5.2976

> <Gold.Chemscore.Internal_Hbond.Weighted>
0.0000

> <Gold.Chemscore.DEClash.Weighted>
1.7388

> <Gold.Chemscore.DEInternal.Weighted>
0.5996

> <Gold.Chemscore.Rot.Weighted>
7.9950

> <Gold.Chemscore.Internal.Correction.Weighted>
   9.000000E+99

> <Gold.Protein.RotatedTorsions>
[ 6907 6896 6895 6894 ] final   12.83 input  -60.11 | X-H torsion
[ 7974 7965 7964 7962 ] final -161.69 input  175.53 | X-H torsion
[ 8008 7997 7996 7995 ] final  141.22 input   59.86 | X-H torsion
[ 10167 10162 10161 10158 ] final  -77.98 input  -65.29 | X-H torsion
[ 10718 10713 10712 10709 ] final  -68.23 input   66.30 | X-H torsion
[ 10763 10752 10751 10750 ] final  -87.97 input  -60.55 | X-H torsion
[ 11005 11000 10999 10996 ] final   32.69 input  -57.11 | X-H torsion

> <Gold.Protein.ActiveResidues>
 VAL166  LYS551  ARG553  GLY616  TRP617  ASP618  TYR619  PRO620  LYS621  CYS622 
 ASP623  PHE694  ASN695  SER759  ASP760  ASP761  ALA762  ILE779  LEU786  VAL792 
 PHE793  MET794  SER795  GLU796  ALA797  LYS798  CYS799  TRP800  GLU811  SER814 

> <Gold.Protein.RotatedAtoms>
  151.7766  135.0772  160.0367 H   0  0  0  0  0  0  0  0  0  0  0  0  # atno 6907 bound_to 6896
  152.3252  133.5893  159.5780 H   0  0  0  0  0  0  0  0  0  0  0  0  # atno 6908 bound_to 6896
  150.7391  133.9867  159.3635 H   0  0  0  0  0  0  0  0  0  0  0  0  # atno 6909 bound_to 6896
  144.7382  140.3360  143.6144 H   0  0  0  0  0  0  0  0  0  0  0  0  # atno 7974 bound_to 7965
  156.2969  140.2321  156.4529 H   0  0  0  0  0  0  0  0  0  0  0  0  # atno 8008 bound_to 7997
  154.8086  140.0444  157.1346 H   0  0  0  0  0  0  0  0  0  0  0  0  # atno 8009 bound_to 7997
  154.9450  140.3034  155.5106 H   0  0  0  0  0  0  0  0  0  0  0  0  # atno 8010 bound_to 7997
  140.4723  143.2423  151.8186 H   0  0  0  0  0  0  0  0  0  0  0  0  # atno 10167 bound_to 10162
  156.0516  130.4291  150.1970 H   0  0  0  0  0  0  0  0  0  0  0  0  # atno 10718 bound_to 10713
  154.6394  135.5394  153.7772 H   0  0  0  0  0  0  0  0  0  0  0  0  # atno 10763 bound_to 10752
  153.0325  135.6455  154.1182 H   0  0  0  0  0  0  0  0  0  0  0  0  # atno 10764 bound_to 10752
  154.1108  135.2927  155.3211 H   0  0  0  0  0  0  0  0  0  0  0  0  # atno 10765 bound_to 10752
  140.2708  134.3084  155.7828 H   0  0  0  0  0  0  0  0  0  0  0  0  # atno 11005 bound_to 11000
  145.7423  139.1768  143.2369 LP  0  0  0  0  0  0  0  0  0  0  0  0  # atno 17320 bound_to 7965
  146.1125  140.7411  142.9496 LP  0  0  0  0  0  0  0  0  0  0  0  0  # atno 17321 bound_to 7965
  139.4820  144.4877  151.9226 LP  0  0  0  0  0  0  0  0  0  0  0  0  # atno 17342 bound_to 10162
  140.3962  144.2552  150.5896 LP  0  0  0  0  0  0  0  0  0  0  0  0  # atno 17343 bound_to 10162
  157.0052  130.9934  151.3380 LP  0  0  0  0  0  0  0  0  0  0  0  0  # atno 17370 bound_to 10713
  157.5448  130.8143  149.8072 LP  0  0  0  0  0  0  0  0  0  0  0  0  # atno 17371 bound_to 10713
  141.2177  133.7466  156.9332 LP  0  0  0  0  0  0  0  0  0  0  0  0  # atno 17394 bound_to 11000
  140.1375  134.9316  157.2421 LP  0  0  0  0  0  0  0  0  0  0  0  0  # atno 17395 bound_to 11000

$$$$
