AV-unprocessed.smi:3349|AV-procd|sdf|12937|dock7
  -GOLD-   2272019373D 1   1.00000     0.00000
 Structure written by MMmdl.
 41 42  0  0  0  0  0  0  0  0  2 V2000
  146.3970  139.2423  154.7033 C   0  0  0  0  0  0  0  0  0  0  0  0
  146.9493  138.1796  153.7222 C   0  0  2  0  0  0  0  0  0  0  0  0
  145.9946  136.9516  153.6686 C   0  0  0  0  0  0  0  0  0  0  0  0
  146.5074  135.8548  152.8517 N   0  0  0  0  0  0  0  0  0  0  0  0
  146.0234  134.6021  152.8528 C   0  0  0  0  0  0  0  0  0  0  0  0
  145.0815  134.2491  153.5632 O   0  0  0  0  0  0  0  0  0  0  0  0
  146.7124  133.6040  151.9097 C   0  0  1  0  0  0  0  0  0  0  0  0
  147.3952  132.4477  152.6680 C   0  0  0  0  0  0  0  0  0  0  0  0
  145.7693  133.1270  150.9057 N   0  0  0  0  0  0  0  0  0  0  0  0
  145.9717  132.3450  149.8430 C   0  0  0  0  0  0  0  0  0  0  0  0
  144.8883  132.1456  149.1058 N   0  0  0  0  0  0  0  0  0  0  0  0
  143.9907  132.8936  149.8132 C   0  0  0  0  0  0  0  0  0  0  0  0
  144.4686  133.5120  150.8928 N   0  0  0  0  0  0  0  0  0  0  0  0
  148.3627  137.8070  154.0675 N   0  3  0  0  0  0  0  0  0  0  0  0
  149.2851  138.9667  154.2276 C   0  0  0  0  0  0  0  0  0  0  0  0
  150.7096  138.5129  154.5900 C   0  0  0  0  0  0  0  0  0  0  0  0
  150.6800  137.7265  155.7699 O   0  0  0  0  0  0  0  0  0  0  0  0
  149.9132  136.5484  155.5805 C   0  0  0  0  0  0  0  0  0  0  0  0
  148.4565  136.9257  155.2658 C   0  0  0  0  0  0  0  0  0  0  0  0
  145.3509  139.4771  154.5093 H   0  0  0  0  0  0  0  0  0  0  0  0
  146.9203  140.1936  154.6247 H   0  0  0  0  0  0  0  0  0  0  0  0
  146.4685  138.9008  155.7363 H   0  0  0  0  0  0  0  0  0  0  0  0
  146.9702  138.6233  152.7255 H   0  0  0  0  0  0  0  0  0  0  0  0
  145.8100  136.5383  154.6600 H   0  0  0  0  0  0  0  0  0  0  0  0
  145.0254  137.2483  153.2663 H   0  0  0  0  0  0  0  0  0  0  0  0
  147.2818  136.0642  152.2381 H   0  0  0  0  0  0  0  0  0  0  0  0
  147.4976  134.1445  151.3782 H   0  0  0  0  0  0  0  0  0  0  0  0
  148.1342  132.8253  153.3754 H   0  0  0  0  0  0  0  0  0  0  0  0
  147.9156  131.7845  151.9765 H   0  0  0  0  0  0  0  0  0  0  0  0
  146.6810  131.8439  153.2288 H   0  0  0  0  0  0  0  0  0  0  0  0
  146.9328  131.9160  149.6007 H   0  0  0  0  0  0  0  0  0  0  0  0
  142.9557  132.9909  149.5200 H   0  0  0  0  0  0  0  0  0  0  0  0
  149.3625  139.5346  153.3021 H   0  0  0  0  0  0  0  0  0  0  0  0
  148.8988  139.6389  154.9956 H   0  0  0  0  0  0  0  0  0  0  0  0
  151.1596  137.9487  153.7712 H   0  0  0  0  0  0  0  0  0  0  0  0
  151.3460  139.3812  154.7627 H   0  0  0  0  0  0  0  0  0  0  0  0
  150.3416  135.9397  154.7824 H   0  0  0  0  0  0  0  0  0  0  0  0
  149.9557  135.9516  156.4918 H   0  0  0  0  0  0  0  0  0  0  0  0
  148.0115  137.4301  156.1250 H   0  0  0  0  0  0  0  0  0  0  0  0
  147.9068  135.9988  155.1170 H   0  0  0  0  0  0  0  0  0  0  0  0
  148.7180  137.2731  153.2871 H   0  0  0  0  0  0  0  0  0  0  0  0
  1  2  1  0  0  0  0
  1 20  1  0  0  0  0
  1 21  1  0  0  0  0
  1 22  1  0  0  0  0
  2  3  1  0  0  0  0
  2 14  1  0  0  0  0
  2 23  1  0  0  0  0
  3  4  1  0  0  0  0
  3 24  1  0  0  0  0
  3 25  1  0  0  0  0
  4  5  1  0  0  0  0
  4 26  1  0  0  0  0
  5  6  2  0  0  0  0
  5  7  1  0  0  0  0
  7  8  1  0  0  0  0
  7  9  1  0  0  0  0
  7 27  1  0  0  0  0
  8 28  1  0  0  0  0
  8 29  1  0  0  0  0
  8 30  1  0  0  0  0
  9 13  1  0  0  0  0
  9 10  1  0  0  0  0
 10 11  2  0  0  0  0
 10 31  1  0  0  0  0
 11 12  1  0  0  0  0
 12 13  2  0  0  0  0
 12 32  1  0  0  0  0
 14 19  1  0  0  0  0
 14 15  1  0  0  0  0
 14 41  1  0  0  0  0
 15 16  1  0  0  0  0
 15 33  1  0  0  0  0
 15 34  1  0  0  0  0
 16 17  1  0  0  0  0
 16 35  1  0  0  0  0
 16 36  1  0  0  0  0
 17 18  1  0  0  0  0
 18 19  1  0  0  0  0
 18 37  1  0  0  0  0
 18 38  1  0  0  0  0
 19 39  1  0  0  0  0
 19 40  1  0  0  0  0
M  CHG  1  14   1
M  END
> <s_m_source_file>
AV-unprocessed.smi

> <i_m_source_file_index>
3349

> <i_lp_mmshare_version>
43012

> <i_f3d_flags>
0

> <s_epik_input>
W0NIMl0xW0NIMl1PW0NIMl1bQ0gyXU4xW0NASF0oW0NIM10pW0NIMl1bTkhdQyg9TylbQ0BIXShbQ0gzXSluMltjSF1uW2NIXW4y

> <s_epik_cmdline>
J2VwaWtfcHl0aG9uJywgJy1waCcsICc3LjAnLCAnLXRuJywgJzgnLCAnLW1hJywgJzIwMCcsICctbWV0YWxfYmluZGluZycsICctaW1hZScsICc8aW5maWxlLm1hZT4nLCAnLW9tYWUnLCAnPG91dGZpbGUubWFlPic=

> <r_lp_tautomer_probability>
1

> <r_epik_Ionization_Penalty>
0.71326

> <r_epik_Ionization_Penalty_Charging>
0.713252

> <r_epik_Ionization_Penalty_Neutral>
8.10337e-06

> <r_epik_State_Penalty>
0.737017

> <r_epik_Charging_Adjusted_Penalty>
1.45027

> <i_epik_Tot_Q>
1

> <i_epik_Tot_abs_Q>
1

> <r_epik_Metal_State_Penalty>
0.73702

> <b_epik_Metal_Only>
0

> <s_lp_Force_Field>
OPLS_2005

> <r_lp_Energy>
26.6465

> <b_lp_Chiralities_Consistent>
1

> <s_lp_Variant>
AV-unprocessed.smi:3349-7

> <Gold.Version>
5.8.1

> <Gold.Id.Protein>
6NUR|6NUR_protein|mol2

> <Gold.PLP.Fitness>
41.6681

> <Gold.PLP.PLP>
-27.0668

> <Gold.PLP.part.hbond>
-2.5341

> <Gold.PLP.part.metal>
0.0000

> <Gold.PLP.part.buried>
-4.5958

> <Gold.PLP.part.nonpolar>
-20.5570

> <Gold.PLP.part.repulsive>
0.4668

> <Gold.PLP.ligand.clash>
0.0000

> <Gold.PLP.ligand.torsion>
0.2723

> <Gold.PLP.Chemscore.Hbond>
3.0000

> <Gold.PLP.Chemscore.CHOScore>
2.0000

> <Gold.PLP.Chemscore.Metal>
0.0000

> <Gold.Chemscore.Hbonds>
donor molecule, donor type, donor heavy atom, donor atom, acceptor molecule, acceptor atom, score
      L1  H     4    26       P1  7948  1.00
      L1  H    14    41       P1  7948  2.00
      L1  C    10    31       P1 10747  1.00
      L1  C    12    32       P1 10186  1.00

> <Gold.PLP.Chemscore.Internal.Correction>
0.1459

> <Gold.Rescore>
     Score         DG    S(hbond)    S(metal)    S(lipo)     H(rot)  DE(clash)    DE(int)     intcor
      8.55     -10.06       1.99        0.00      39.83       2.63       0.00       1.50       ----

> <Gold.Chemscore.Fitness>
8.5540

> <Gold.Chemscore.DG>
-10.0557

> <Gold.Chemscore.ZeroCoef>
-5.4800

> <Gold.Chemscore.Hbond>
1.9927

> <Gold.Chemscore.Metal>
0.0000

> <Gold.Chemscore.Lipo>
39.8312

> <Gold.Chemscore.Internal_Hbond>
0.0000

> <Gold.Chemscore.DEClash>
0.0038

> <Gold.Chemscore.DEInternal>
1.4978

> <Gold.Chemscore.Rot>
2.6329

> <Gold.Chemscore.Internal.Correction>
   9.000000E+99

> <Gold.Chemscore.Hbonds>
donor molecule, donor type, donor heavy atom, donor atom, acceptor molecule, acceptor atom, score
      L1  H     4    26       P1  7948  0.98
      L1  H    14    41       P1  7948  1.00

> <Gold.Chemscore.Hbond.Weighted>
-6.6557

> <Gold.Chemscore.Metal.Weighted>
-0.0000

> <Gold.Chemscore.Lipo.Weighted>
-4.6602

> <Gold.Chemscore.Internal_Hbond.Weighted>
0.0000

> <Gold.Chemscore.DEClash.Weighted>
0.0038

> <Gold.Chemscore.DEInternal.Weighted>
1.4978

> <Gold.Chemscore.Rot.Weighted>
6.7403

> <Gold.Chemscore.Internal.Correction.Weighted>
   9.000000E+99

> <Gold.Protein.RotatedTorsions>
[ 6907 6896 6895 6894 ] final -117.08 input  -60.11 | X-H torsion
[ 7974 7965 7964 7962 ] final  102.74 input  175.53 | X-H torsion
[ 8008 7997 7996 7995 ] final  117.06 input   59.86 | X-H torsion
[ 10167 10162 10161 10158 ] final  -59.72 input  -65.29 | X-H torsion
[ 10718 10713 10712 10709 ] final  126.20 input   66.30 | X-H torsion
[ 10763 10752 10751 10750 ] final  147.67 input  -60.55 | X-H torsion
[ 11005 11000 10999 10996 ] final   75.63 input  -57.11 | X-H torsion

> <Gold.Protein.ActiveResidues>
 VAL166  LYS551  ARG553  GLY616  TRP617  ASP618  TYR619  PRO620  LYS621  CYS622 
 ASP623  PHE694  ASN695  SER759  ASP760  ASP761  ALA762  ILE779  LEU786  VAL792 
 PHE793  MET794  SER795  GLU796  ALA797  LYS798  CYS799  TRP800  GLU811  SER814 

> <Gold.Protein.RotatedAtoms>
  150.8107  133.8427  159.3183 H   0  0  0  0  0  0  0  0  0  0  0  0  # atno 6907 bound_to 6896
  151.6213  135.1030  160.0112 H   0  0  0  0  0  0  0  0  0  0  0  0  # atno 6908 bound_to 6896
  152.4199  133.7059  159.6507 H   0  0  0  0  0  0  0  0  0  0  0  0  # atno 6909 bound_to 6896
  145.3551  139.2430  143.3537 H   0  0  0  0  0  0  0  0  0  0  0  0  # atno 7974 bound_to 7965
  156.2474  140.2904  156.0620 H   0  0  0  0  0  0  0  0  0  0  0  0  # atno 8008 bound_to 7997
  155.1765  140.0403  157.2891 H   0  0  0  0  0  0  0  0  0  0  0  0  # atno 8009 bound_to 7997
  154.6289  140.2494  155.7464 H   0  0  0  0  0  0  0  0  0  0  0  0  # atno 8010 bound_to 7997
  140.6117  143.2389  151.5693 H   0  0  0  0  0  0  0  0  0  0  0  0  # atno 10167 bound_to 10162
  157.5439  131.1096  150.8813 H   0  0  0  0  0  0  0  0  0  0  0  0  # atno 10718 bound_to 10713
  154.0421  135.2889  155.3353 H   0  0  0  0  0  0  0  0  0  0  0  0  # atno 10763 bound_to 10752
  154.6922  135.5222  153.8412 H   0  0  0  0  0  0  0  0  0  0  0  0  # atno 10764 bound_to 10752
  153.0595  135.6608  154.0624 H   0  0  0  0  0  0  0  0  0  0  0  0  # atno 10765 bound_to 10752
  139.9335  134.7533  156.1295 H   0  0  0  0  0  0  0  0  0  0  0  0  # atno 11005 bound_to 11000
  146.2951  140.4175  142.8725 LP  0  0  0  0  0  0  0  0  0  0  0  0  # atno 17320 bound_to 7965
  144.8688  140.7243  143.6060 LP  0  0  0  0  0  0  0  0  0  0  0  0  # atno 17321 bound_to 7965
  139.5366  144.2763  152.1265 LP  0  0  0  0  0  0  0  0  0  0  0  0  # atno 17342 bound_to 10162
  140.1963  144.4702  150.6453 LP  0  0  0  0  0  0  0  0  0  0  0  0  # atno 17343 bound_to 10162
  156.9358  130.5366  149.5279 LP  0  0  0  0  0  0  0  0  0  0  0  0  # atno 17370 bound_to 10713
  156.0520  130.5587  150.9009 LP  0  0  0  0  0  0  0  0  0  0  0  0  # atno 17371 bound_to 10713
  141.0936  133.6704  156.2596 LP  0  0  0  0  0  0  0  0  0  0  0  0  # atno 17394 bound_to 11000
  140.6138  134.5431  157.5537 LP  0  0  0  0  0  0  0  0  0  0  0  0  # atno 17395 bound_to 11000

$$$$
