AV-unprocessed.smi:2478|AV-procd|sdf|9765|dock8
  -GOLD-   2272013413D 1   1.00000     0.00000
 Structure written by MMmdl.
 42 43  0  0  0  0  0  0  0  0  1 V2000
  143.9567  136.2372  151.9683 C   0  0  0  0  0  0  0  0  0  0  0  0
  144.6870  135.0147  151.3906 C   0  0  2  0  0  0  0  0  0  0  0  0
  143.8472  133.7291  151.5317 C   0  0  0  0  0  0  0  0  0  0  0  0
  144.5672  132.5152  150.9230 C   0  0  0  0  0  0  0  0  0  0  0  0
  145.9609  132.3263  151.5403 C   0  0  0  0  0  0  0  0  0  0  0  0
  146.8084  133.6033  151.4073 C   0  0  0  0  0  0  0  0  0  0  0  0
  146.0946  134.8308  152.0028 C   0  0  2  0  0  0  0  0  0  0  0  0
  145.9728  134.6294  153.4047 O   0  0  0  0  0  0  0  0  0  0  0  0
  147.0576  135.1333  154.1720 C   0  0  0  0  0  0  0  0  0  0  0  0
  146.8168  136.6123  154.4768 C   0  0  0  0  0  0  0  0  0  0  0  0
  145.8584  136.9353  155.1782 O   0  0  0  0  0  0  0  0  0  0  0  0
  147.7073  137.4734  153.9500 N   0  0  0  0  0  0  0  0  0  0  0  0
  147.7422  138.8898  154.0418 C   0  0  0  0  0  0  0  0  0  0  0  0
  146.6733  139.6785  153.7682 N   0  0  0  0  0  0  0  0  0  0  0  0
  146.7946  141.0166  153.8823 C   0  0  0  0  0  0  0  0  0  0  0  0
  147.9858  141.6491  154.2786 C   0  0  0  0  0  0  0  0  0  0  0  0
  149.1008  140.8428  154.5660 C   0  0  0  0  0  0  0  0  0  0  0  0
  148.9868  139.4382  154.4406 C   0  0  0  0  0  0  0  0  0  0  0  0
  150.0377  138.5930  154.7219 O   0  0  0  0  0  0  0  0  0  0  0  0
  151.2714  139.1282  154.9185 C   0  0  0  0  0  0  0  0  0  0  0  0
  151.3724  139.6373  156.1707 F   0  0  0  0  0  0  0  0  0  0  0  0
  152.2154  138.1651  154.7878 F   0  0  0  0  0  0  0  0  0  0  0  0
  143.7588  136.1174  153.0340 H   0  0  0  0  0  0  0  0  0  0  0  0
  142.9996  136.3926  151.4699 H   0  0  0  0  0  0  0  0  0  0  0  0
  144.5468  137.1448  151.8385 H   0  0  0  0  0  0  0  0  0  0  0  0
  144.8201  135.2016  150.3240 H   0  0  0  0  0  0  0  0  0  0  0  0
  143.6364  133.5374  152.5846 H   0  0  0  0  0  0  0  0  0  0  0  0
  142.8805  133.8599  151.0445 H   0  0  0  0  0  0  0  0  0  0  0  0
  143.9696  131.6156  151.0730 H   0  0  0  0  0  0  0  0  0  0  0  0
  144.6609  132.6486  149.8446 H   0  0  0  0  0  0  0  0  0  0  0  0
  145.8602  132.0587  152.5930 H   0  0  0  0  0  0  0  0  0  0  0  0
  146.4703  131.4912  151.0588 H   0  0  0  0  0  0  0  0  0  0  0  0
  147.7741  133.4611  151.8935 H   0  0  0  0  0  0  0  0  0  0  0  0
  147.0196  133.7856  150.3529 H   0  0  0  0  0  0  0  0  0  0  0  0
  146.6947  135.7169  151.7851 H   0  0  0  0  0  0  0  0  0  0  0  0
  147.1514  134.5730  155.1035 H   0  0  0  0  0  0  0  0  0  0  0  0
  147.9945  135.0356  153.6216 H   0  0  0  0  0  0  0  0  0  0  0  0
  148.4379  137.0598  153.3886 H   0  0  0  0  0  0  0  0  0  0  0  0
  145.9153  141.6000  153.6530 H   0  0  0  0  0  0  0  0  0  0  0  0
  148.0417  142.7242  154.3628 H   0  0  0  0  0  0  0  0  0  0  0  0
  150.0256  141.3024  154.8817 H   0  0  0  0  0  0  0  0  0  0  0  0
  151.4908  139.9121  154.1929 H   0  0  0  0  0  0  0  0  0  0  0  0
  1  2  1  0  0  0  0
  1 23  1  0  0  0  0
  1 24  1  0  0  0  0
  1 25  1  0  0  0  0
  2  7  1  0  0  0  0
  2  3  1  0  0  0  0
  2 26  1  0  0  0  0
  3  4  1  0  0  0  0
  3 27  1  0  0  0  0
  3 28  1  0  0  0  0
  4  5  1  0  0  0  0
  4 29  1  0  0  0  0
  4 30  1  0  0  0  0
  5  6  1  0  0  0  0
  5 31  1  0  0  0  0
  5 32  1  0  0  0  0
  6  7  1  0  0  0  0
  6 33  1  0  0  0  0
  6 34  1  0  0  0  0
  7  8  1  0  0  0  0
  7 35  1  0  0  0  0
  8  9  1  0  0  0  0
  9 10  1  0  0  0  0
  9 36  1  0  0  0  0
  9 37  1  0  0  0  0
 10 11  2  0  0  0  0
 10 12  1  0  0  0  0
 12 13  1  0  0  0  0
 12 38  1  0  0  0  0
 13 18  1  0  0  0  0
 13 14  2  0  0  0  0
 14 15  1  0  0  0  0
 15 16  2  0  0  0  0
 15 39  1  0  0  0  0
 16 17  1  0  0  0  0
 16 40  1  0  0  0  0
 17 18  2  0  0  0  0
 17 41  1  0  0  0  0
 18 19  1  0  0  0  0
 19 20  1  0  0  0  0
 20 21  1  0  0  0  0
 20 22  1  0  0  0  0
 20 42  1  0  0  0  0
M  END
> <s_m_source_file>
AV-unprocessed.smi

> <i_m_source_file_index>
2478

> <i_lp_mmshare_version>
43012

> <i_f3d_flags>
0

> <s_epik_input>
W0NIM11bQ0BASF0xW0NIMl1bQ0gyXVtDSDJdW0NIMl1bQ0BIXTFPW0NIMl1DKD1PKVtOSF1jMm5bY0hdW2NIXVtjSF1jMk9bQ0hdKEYpRg==

> <s_epik_cmdline>
J2VwaWtfcHl0aG9uJywgJy1waCcsICc3LjAnLCAnLXRuJywgJzgnLCAnLW1hJywgJzIwMCcsICctbWV0YWxfYmluZGluZycsICctaW1hZScsICc8aW5maWxlLm1hZT4nLCAnLW9tYWUnLCAnPG91dGZpbGUubWFlPic=

> <r_lp_tautomer_probability>
1

> <r_epik_Ionization_Penalty>
6.06012e-05

> <r_epik_Ionization_Penalty_Charging>
0

> <r_epik_Ionization_Penalty_Neutral>
6.06012e-05

> <r_epik_State_Penalty>
-0

> <r_epik_Charging_Adjusted_Penalty>
0

> <i_epik_Tot_Q>
0

> <i_epik_Tot_abs_Q>
0

> <r_epik_Metal_State_Penalty>
-0

> <b_epik_Metal_Only>
0

> <s_lp_Force_Field>
OPLS_2005

> <r_lp_Energy>
14.1885

> <b_lp_Chiralities_Consistent>
1

> <s_lp_Variant>
AV-unprocessed.smi:2478-3

> <Gold.Version>
5.8.1

> <Gold.Id.Protein>
6NUR|6NUR_protein|mol2

> <Gold.PLP.Fitness>
40.7839

> <Gold.PLP.PLP>
-37.4008

> <Gold.PLP.part.hbond>
-1.0000

> <Gold.PLP.part.metal>
0.0000

> <Gold.PLP.part.buried>
-3.9111

> <Gold.PLP.part.nonpolar>
-33.9159

> <Gold.PLP.part.repulsive>
0.4942

> <Gold.PLP.ligand.clash>
0.0000

> <Gold.PLP.ligand.torsion>
1.2647

> <Gold.PLP.Chemscore.Hbond>
1.0000

> <Gold.PLP.Chemscore.CHOScore>
0.9475

> <Gold.PLP.Chemscore.Metal>
0.0000

> <Gold.Chemscore.Hbonds>
donor molecule, donor type, donor heavy atom, donor atom, acceptor molecule, acceptor atom, score
      L1  H    12    38       P1  7948  1.00
      L1  C    15    39       P1 10175  0.36

> <Gold.PLP.Chemscore.Internal.Correction>
0.0699

> <Gold.Rescore>
     Score         DG    S(hbond)    S(metal)    S(lipo)     H(rot)  DE(clash)    DE(int)     intcor
     11.57     -13.47       0.94        0.00      81.84       1.85       0.04       1.86       ----

> <Gold.Chemscore.Fitness>
11.5681

> <Gold.Chemscore.DG>
-13.4748

> <Gold.Chemscore.ZeroCoef>
-5.4800

> <Gold.Chemscore.Hbond>
0.9435

> <Gold.Chemscore.Metal>
0.0000

> <Gold.Chemscore.Lipo>
81.8354

> <Gold.Chemscore.Internal_Hbond>
0.0000

> <Gold.Chemscore.DEClash>
0.0437

> <Gold.Chemscore.DEInternal>
1.8630

> <Gold.Chemscore.Rot>
1.8481

> <Gold.Chemscore.Internal.Correction>
   9.000000E+99

> <Gold.Chemscore.Hbonds>
donor molecule, donor type, donor heavy atom, donor atom, acceptor molecule, acceptor atom, score
      L1  H    12    38       P1  7948  0.94

> <Gold.Chemscore.Hbond.Weighted>
-3.1512

> <Gold.Chemscore.Metal.Weighted>
-0.0000

> <Gold.Chemscore.Lipo.Weighted>
-9.5747

> <Gold.Chemscore.Internal_Hbond.Weighted>
0.0000

> <Gold.Chemscore.DEClash.Weighted>
0.0437

> <Gold.Chemscore.DEInternal.Weighted>
1.8630

> <Gold.Chemscore.Rot.Weighted>
4.7311

> <Gold.Chemscore.Internal.Correction.Weighted>
   9.000000E+99

> <Gold.Protein.RotatedTorsions>
[ 6907 6896 6895 6894 ] final  -78.02 input  -60.11 | X-H torsion
[ 7974 7965 7964 7962 ] final   95.16 input  175.53 | X-H torsion
[ 8008 7997 7996 7995 ] final  -94.19 input   59.86 | X-H torsion
[ 10167 10162 10161 10158 ] final  168.48 input  -65.29 | X-H torsion
[ 10718 10713 10712 10709 ] final -115.08 input   66.30 | X-H torsion
[ 10763 10752 10751 10750 ] final  -36.52 input  -60.55 | X-H torsion
[ 11005 11000 10999 10996 ] final   78.92 input  -57.11 | X-H torsion

> <Gold.Protein.ActiveResidues>
 VAL166  LYS551  ARG553  GLY616  TRP617  ASP618  TYR619  PRO620  LYS621  CYS622 
 ASP623  PHE694  ASN695  SER759  ASP760  ASP761  ALA762  ILE779  LEU786  VAL792 
 PHE793  MET794  SER795  GLU796  ALA797  LYS798  CYS799  TRP800  GLU811  SER814 

> <Gold.Protein.RotatedAtoms>
  150.6983  134.4335  159.5258 H   0  0  0  0  0  0  0  0  0  0  0  0  # atno 6907 bound_to 6896
  152.2057  134.8544  160.0512 H   0  0  0  0  0  0  0  0  0  0  0  0  # atno 6908 bound_to 6896
  151.9448  133.3613  159.4015 H   0  0  0  0  0  0  0  0  0  0  0  0  # atno 6909 bound_to 6896
  145.4559  139.2290  143.3014 H   0  0  0  0  0  0  0  0  0  0  0  0  # atno 7974 bound_to 7965
  154.7453  140.0491  157.0847 H   0  0  0  0  0  0  0  0  0  0  0  0  # atno 8008 bound_to 7997
  155.0126  140.3137  155.4804 H   0  0  0  0  0  0  0  0  0  0  0  0  # atno 8009 bound_to 7997
  156.2873  140.2181  156.5241 H   0  0  0  0  0  0  0  0  0  0  0  0  # atno 8010 bound_to 7997
  139.4969  144.3810  151.9622 H   0  0  0  0  0  0  0  0  0  0  0  0  # atno 10167 bound_to 10162
  156.0872  130.6061  150.8860 H   0  0  0  0  0  0  0  0  0  0  0  0  # atno 10718 bound_to 10713
  153.8811  135.6821  153.4767 H   0  0  0  0  0  0  0  0  0  0  0  0  # atno 10763 bound_to 10752
  153.1233  135.4730  154.9229 H   0  0  0  0  0  0  0  0  0  0  0  0  # atno 10764 bound_to 10752
  154.7668  135.3227  154.8221 H   0  0  0  0  0  0  0  0  0  0  0  0  # atno 10765 bound_to 10752
  139.9193  134.7802  156.1712 H   0  0  0  0  0  0  0  0  0  0  0  0  # atno 11005 bound_to 11000
  146.2478  140.5323  142.8906 LP  0  0  0  0  0  0  0  0  0  0  0  0  # atno 17320 bound_to 7965
  144.8033  140.6252  143.6464 LP  0  0  0  0  0  0  0  0  0  0  0  0  # atno 17321 bound_to 7965
  140.3246  144.3388  150.6001 LP  0  0  0  0  0  0  0  0  0  0  0  0  # atno 17342 bound_to 10162
  140.5695  143.2182  151.7625 LP  0  0  0  0  0  0  0  0  0  0  0  0  # atno 17343 bound_to 10162
  157.6010  131.0941  150.8960 LP  0  0  0  0  0  0  0  0  0  0  0  0  # atno 17370 bound_to 10713
  156.9117  130.5283  149.5280 LP  0  0  0  0  0  0  0  0  0  0  0  0  # atno 17371 bound_to 10713
  141.0699  133.6802  156.2119 LP  0  0  0  0  0  0  0  0  0  0  0  0  # atno 17394 bound_to 11000
  140.6524  134.5053  157.5578 LP  0  0  0  0  0  0  0  0  0  0  0  0  # atno 17395 bound_to 11000

$$$$
