AV-unprocessed.smi:2999|AV-procd|sdf|11427|dock7
  -GOLD-   2272016353D 1   1.00000     0.00000
 Structure written by MMmdl.
 37 39  0  0  0  0  0  0  0  0  3 V2000
  149.3672  136.0246  158.8879 O   0  0  0  0  0  0  0  0  0  0  0  0
  148.8075  137.0685  159.2312 C   0  0  0  0  0  0  0  0  0  0  0  0
  149.0780  138.2156  158.5920 N   0  0  0  0  0  0  0  0  0  0  0  0
  150.0261  138.3899  157.4944 C   0  0  0  0  0  0  0  0  0  0  0  0
  149.3518  138.8871  156.2008 C   0  0  2  0  0  0  0  0  0  0  0  0
  149.2560  137.8210  155.0840 C   0  0  0  0  0  0  0  0  0  0  0  0
  148.6501  138.3767  153.8522 N   0  3  1  0  0  0  0  0  0  0  0  0
  147.1783  138.5239  153.9323 C   0  0  0  0  0  0  0  0  0  0  0  0
  146.4219  137.2928  153.4909 C   0  0  0  0  0  0  0  0  0  0  0  0
  146.4959  138.5015  152.5848 C   0  0  0  0  0  0  0  0  0  0  0  0
  149.3456  139.6168  153.4340 C   0  0  0  0  0  0  0  0  0  0  0  0
  149.4402  140.6250  154.5944 C   0  0  0  0  0  0  0  0  0  0  0  0
  150.0724  140.0155  155.7135 O   0  0  0  0  0  0  0  0  0  0  0  0
  147.9184  137.2069  160.2395 N   0  5  0  0  0  0  0  0  0  0  0  0
  147.4374  136.1202  160.8651 C   0  0  0  0  0  0  0  0  0  0  0  0
  147.6019  134.8774  160.3976 N   0  0  0  0  0  0  0  0  0  0  0  0
  147.0279  133.8982  161.2109 C   0  0  0  0  0  0  0  0  0  0  0  0
  146.4186  134.4070  162.3271 C   0  0  0  0  0  0  0  0  0  0  0  0
  146.5477  136.1416  162.3903 S   0  0  0  0  0  0  0  0  0  0  0  0
  148.5933  139.0428  158.9086 H   0  0  0  0  0  0  0  0  0  0  0  0
  150.8306  139.0688  157.7814 H   0  0  0  0  0  0  0  0  0  0  0  0
  150.5014  137.4265  157.3088 H   0  0  0  0  0  0  0  0  0  0  0  0
  148.3469  139.2144  156.4716 H   0  0  0  0  0  0  0  0  0  0  0  0
  150.2502  137.4626  154.8172 H   0  0  0  0  0  0  0  0  0  0  0  0
  148.6932  136.9512  155.4244 H   0  0  0  0  0  0  0  0  0  0  0  0
  146.7878  139.1474  154.7341 H   0  0  0  0  0  0  0  0  0  0  0  0
  146.9937  136.4124  153.2028 H   0  0  0  0  0  0  0  0  0  0  0  0
  145.4687  137.0896  153.9748 H   0  0  0  0  0  0  0  0  0  0  0  0
  145.5909  139.0946  152.4704 H   0  0  0  0  0  0  0  0  0  0  0  0
  147.1162  138.4231  151.6936 H   0  0  0  0  0  0  0  0  0  0  0  0
  150.3509  139.3518  153.1040 H   0  0  0  0  0  0  0  0  0  0  0  0
  148.8431  140.0615  152.5743 H   0  0  0  0  0  0  0  0  0  0  0  0
  150.0286  141.4902  154.2887 H   0  0  0  0  0  0  0  0  0  0  0  0
  148.4551  140.9996  154.8757 H   0  0  0  0  0  0  0  0  0  0  0  0
  147.1027  132.8614  160.9186 H   0  0  0  0  0  0  0  0  0  0  0  0
  145.9055  133.8719  163.1119 H   0  0  0  0  0  0  0  0  0  0  0  0
  148.8142  137.6960  153.1239 H   0  0  0  0  0  0  0  0  0  0  0  0
  1  2  2  0  0  0  0
  2  3  1  0  0  0  0
  2 14  1  0  0  0  0
  3  4  1  0  0  0  0
  3 20  1  0  0  0  0
  4  5  1  0  0  0  0
  4 21  1  0  0  0  0
  4 22  1  0  0  0  0
  5 13  1  0  0  0  0
  5  6  1  0  0  0  0
  5 23  1  0  0  0  0
  6  7  1  0  0  0  0
  6 24  1  0  0  0  0
  6 25  1  0  0  0  0
  7  8  1  0  0  0  0
  7 11  1  0  0  0  0
  7 37  1  0  0  0  0
  8 10  1  0  0  0  0
  8  9  1  0  0  0  0
  8 26  1  0  0  0  0
  9 10  1  0  0  0  0
  9 27  1  0  0  0  0
  9 28  1  0  0  0  0
 10 29  1  0  0  0  0
 10 30  1  0  0  0  0
 11 12  1  0  0  0  0
 11 31  1  0  0  0  0
 11 32  1  0  0  0  0
 12 13  1  0  0  0  0
 12 33  1  0  0  0  0
 12 34  1  0  0  0  0
 14 15  1  0  0  0  0
 15 19  1  0  0  0  0
 15 16  2  0  0  0  0
 16 17  1  0  0  0  0
 17 18  2  0  0  0  0
 17 35  1  0  0  0  0
 18 19  1  0  0  0  0
 18 36  1  0  0  0  0
M  CHG  1   7   1
M  CHG  1  14  -1
M  END
> <s_m_source_file>
AV-unprocessed.smi

> <i_m_source_file_index>
2999

> <i_lp_mmshare_version>
43012

> <i_f3d_flags>
0

> <s_epik_input>
czFbY0hdW2NIXW5jMVtOSF1DKD1PKVtOSF1bQ0gyXVtDQEBIXTJbQ0gyXU4oW0NIMl1bQ0gyXU8yKVtDSF0zW0NIMl1bQ0gyXTM=

> <s_epik_cmdline>
J2VwaWtfcHl0aG9uJywgJy1waCcsICc3LjAnLCAnLXRuJywgJzgnLCAnLW1hJywgJzIwMCcsICctbWV0YWxfYmluZGluZycsICctaW1hZScsICc8aW5maWxlLm1hZT4nLCAnLW9tYWUnLCAnPG91dGZpbGUubWFlPic=

> <r_lp_tautomer_probability>
0.999

> <r_epik_Ionization_Penalty>
7.79196

> <r_epik_Ionization_Penalty_Charging>
6.93299

> <r_epik_Ionization_Penalty_Neutral>
0.858963

> <r_epik_State_Penalty>
7.05108

> <r_epik_Charging_Adjusted_Penalty>
13.9841

> <i_epik_Tot_Q>
0

> <i_epik_Tot_abs_Q>
2

> <r_epik_Metal_State_Penalty>
3.05936

> <b_epik_Metal_Only>
1

> <s_lp_Force_Field>
OPLS_2005

> <r_lp_Energy>
16.1762

> <b_lp_Chiralities_Consistent>
1

> <s_lp_Variant>
AV-unprocessed.smi:2999-11

> <Gold.Version>
5.8.1

> <Gold.Id.Protein>
6NUR|6NUR_protein|mol2

> <Gold.PLP.Fitness>
41.6185

> <Gold.PLP.PLP>
-26.3562

> <Gold.PLP.part.hbond>
-4.0000

> <Gold.PLP.part.metal>
0.0000

> <Gold.PLP.part.buried>
1.1405

> <Gold.PLP.part.nonpolar>
-24.2374

> <Gold.PLP.part.repulsive>
0.2465

> <Gold.PLP.ligand.clash>
0.0000

> <Gold.PLP.ligand.torsion>
1.3809

> <Gold.PLP.Chemscore.Hbond>
5.5670

> <Gold.PLP.Chemscore.CHOScore>
0.0000

> <Gold.PLP.Chemscore.Metal>
0.0000

> <Gold.Chemscore.Hbonds>
donor molecule, donor type, donor heavy atom, donor atom, acceptor molecule, acceptor atom, score
      L1  H     7    37       P1  7948  2.00
      P1  H  6896  6907       L1     1  0.88
      P1  H  6931  6943       L1    14  0.61
      P1  H  6934  6947       L1    14  1.43

> <Gold.PLP.Chemscore.Internal.Correction>
1.3229

> <Gold.Rescore>
     Score         DG    S(hbond)    S(metal)    S(lipo)     H(rot)  DE(clash)    DE(int)     intcor
     13.23     -18.00       2.74        0.00      62.81       1.55       1.71       3.07       ----

> <Gold.Chemscore.Fitness>
13.2317

> <Gold.Chemscore.DG>
-18.0047

> <Gold.Chemscore.ZeroCoef>
-5.4800

> <Gold.Chemscore.Hbond>
2.7380

> <Gold.Chemscore.Metal>
0.0000

> <Gold.Chemscore.Lipo>
62.8102

> <Gold.Chemscore.Internal_Hbond>
0.0000

> <Gold.Chemscore.DEClash>
1.7076

> <Gold.Chemscore.DEInternal>
3.0653

> <Gold.Chemscore.Rot>
1.5504

> <Gold.Chemscore.Internal.Correction>
   9.000000E+99

> <Gold.Chemscore.Hbonds>
donor molecule, donor type, donor heavy atom, donor atom, acceptor molecule, acceptor atom, score
      L1  H     7    37       P1  7948  1.00
      P1  H  6896  6907       L1     1  0.84
      P1  H  6931  6943       L1    14  0.06
      P1  H  6934  6947       L1    14  0.62

> <Gold.Chemscore.Hbond.Weighted>
-9.1449

> <Gold.Chemscore.Metal.Weighted>
-0.0000

> <Gold.Chemscore.Lipo.Weighted>
-7.3488

> <Gold.Chemscore.Internal_Hbond.Weighted>
0.0000

> <Gold.Chemscore.DEClash.Weighted>
1.7076

> <Gold.Chemscore.DEInternal.Weighted>
3.0653

> <Gold.Chemscore.Rot.Weighted>
3.9690

> <Gold.Chemscore.Internal.Correction.Weighted>
   9.000000E+99

> <Gold.Protein.RotatedTorsions>
[ 6907 6896 6895 6894 ] final  -40.57 input  -60.11 | X-H torsion
[ 7974 7965 7964 7962 ] final   -6.33 input  175.53 | X-H torsion
[ 8008 7997 7996 7995 ] final   27.32 input   59.86 | X-H torsion
[ 10167 10162 10161 10158 ] final  -42.94 input  -65.29 | X-H torsion
[ 10718 10713 10712 10709 ] final -152.13 input   66.30 | X-H torsion
[ 10763 10752 10751 10750 ] final  -90.39 input  -60.55 | X-H torsion
[ 11005 11000 10999 10996 ] final  160.33 input  -57.11 | X-H torsion

> <Gold.Protein.ActiveResidues>
 VAL166  LYS551  ARG553  GLY616  TRP617  ASP618  TYR619  PRO620  LYS621  CYS622 
 ASP623  PHE694  ASN695  SER759  ASP760  ASP761  ALA762  ILE779  LEU786  VAL792 
 PHE793  MET794  SER795  GLU796  ALA797  LYS798  CYS799  TRP800  GLU811  SER814 

> <Gold.Protein.RotatedAtoms>
  150.9769  134.9132  159.7821 H   0  0  0  0  0  0  0  0  0  0  0  0  # atno 6907 bound_to 6896
  152.5209  134.3463  159.9245 H   0  0  0  0  0  0  0  0  0  0  0  0  # atno 6908 bound_to 6896
  151.3471  133.3899  159.2711 H   0  0  0  0  0  0  0  0  0  0  0  0  # atno 6909 bound_to 6896
  146.2333  140.2154  142.8336 H   0  0  0  0  0  0  0  0  0  0  0  0  # atno 7974 bound_to 7965
  155.0412  140.3169  155.4724 H   0  0  0  0  0  0  0  0  0  0  0  0  # atno 8008 bound_to 7997
  156.2854  140.2163  156.5479 H   0  0  0  0  0  0  0  0  0  0  0  0  # atno 8009 bound_to 7997
  154.7289  140.0483  157.0696 H   0  0  0  0  0  0  0  0  0  0  0  0  # atno 8010 bound_to 7997
  140.6951  143.3010  151.3281 H   0  0  0  0  0  0  0  0  0  0  0  0  # atno 10167 bound_to 10162
  156.4685  130.8247  151.2477 H   0  0  0  0  0  0  0  0  0  0  0  0  # atno 10718 bound_to 10713
  154.6653  135.5306  153.8069 H   0  0  0  0  0  0  0  0  0  0  0  0  # atno 10763 bound_to 10752
  153.0467  135.6515  154.0809 H   0  0  0  0  0  0  0  0  0  0  0  0  # atno 10764 bound_to 10752
  154.0714  135.2954  155.3287 H   0  0  0  0  0  0  0  0  0  0  0  0  # atno 10765 bound_to 10752
  140.2049  134.8310  157.3058 H   0  0  0  0  0  0  0  0  0  0  0  0  # atno 11005 bound_to 11000
  144.9674  140.8335  143.5476 LP  0  0  0  0  0  0  0  0  0  0  0  0  # atno 17320 bound_to 7965
  145.2131  139.2195  143.5132 LP  0  0  0  0  0  0  0  0  0  0  0  0  # atno 17321 bound_to 7965
  139.6398  144.0561  152.2545 LP  0  0  0  0  0  0  0  0  0  0  0  0  # atno 17342 bound_to 10162
  140.0063  144.6256  150.7686 LP  0  0  0  0  0  0  0  0  0  0  0  0  # atno 17343 bound_to 10162
  157.7493  131.0084  150.3227 LP  0  0  0  0  0  0  0  0  0  0  0  0  # atno 17370 bound_to 10713
  156.3643  130.3852  149.7226 LP  0  0  0  0  0  0  0  0  0  0  0  0  # atno 17371 bound_to 10713
  140.2014  134.4250  155.7661 LP  0  0  0  0  0  0  0  0  0  0  0  0  # atno 17394 bound_to 11000
  141.2227  133.7073  156.8189 LP  0  0  0  0  0  0  0  0  0  0  0  0  # atno 17395 bound_to 11000

$$$$
