#       Name:                AV-unprocessed.smi:2355
#       Creating user name   scv26
#       Creation time:       Fri Mar 27 13:02:08 2020


#       File generated by GOLD software.
#

@<TRIPOS>MOLECULE
AV-unprocessed.smi:2355
    54    55     1
SMALL
NO_CHARGES


@<TRIPOS>ATOM
      1 ****        -6.1791   0.7566   0.6732 C.3            1 S1                 0.0000
      2 ****        -4.7853   1.2738   0.9608 C.ar           1 S1                 0.0000
      3 ****        -4.5710   2.6209   1.3103 C.ar           1 S1                 0.0000
      4 ****        -3.2504   3.0390   1.5659 C.ar           1 S1                 0.0000
      5 ****        -2.9472   4.4719   1.9503 C.3            1 S1                 0.0000
      6 ****        -2.1873   2.2100   1.4906 N.ar           1 S1                 0.0000
      7 ****        -2.3815   0.9107   1.1537 C.ar           1 S1                 0.0000
      8 ****        -1.3323  -0.0399   1.0423 N.am           1 S1                 0.0000
      9 ****        -0.0146   0.1508   1.2303 C.2            1 S1                 0.0000
     10 ****         0.5102   1.2134   1.5650 O.2            1 S1                 0.0000
     11 ****         0.6731  -0.9777   1.0024 N.am           1 S1                 0.0000
     12 ****         2.1270  -1.1240   1.0746 C.3            1 S1                 0.0000
     13 ****         2.5160  -1.7930   2.4053 C.3            1 S1                 0.0000
     14 ****         2.6721  -1.8435  -0.1994 C.3            1 S1                 0.0000
     15 ****         2.1576  -3.3061  -0.2391 C.3            1 S1                 0.0000
     16 ****         2.4010  -1.1101  -1.4621 N.3            1 S1                 0.0000
     17 ****         2.9024   0.2700  -1.4477 C.3            1 S1                 0.0000
     18 ****         2.6389   1.0156  -2.7671 C.3            1 S1                 0.0000
     19 ****         3.2199   0.2984  -3.8469 O.3            1 S1                 0.0000
     20 ****         2.7023  -1.0206  -3.9486 C.3            1 S1                 0.0000
     21 ****         2.9636  -1.7836  -2.6384 C.3            1 S1                 0.0000
     22 ****        -3.6745   0.4098   0.8826 C.ar           1 S1                 0.0000
     23 ****        -6.9217   1.5515   0.7486 H              1 S1                 0.0000
     24 ****        -6.4443  -0.0271   1.3830 H              1 S1                 0.0000
     25 ****        -6.2270   0.3400  -0.3332 H              1 S1                 0.0000
     26 ****        -5.3960   3.3148   1.3809 H              1 S1                 0.0000
     27 ****        -3.8373   5.0975   1.8783 H              1 S1                 0.0000
     28 ****        -2.1842   4.8896   1.2926 H              1 S1                 0.0000
     29 ****        -2.5801   4.5176   2.9758 H              1 S1                 0.0000
     30 ****        -1.6167  -0.9703   0.7743 H              1 S1                 0.0000
     31 ****         0.1541  -1.7992   0.7294 H              1 S1                 0.0000
     32 ****         2.5962  -0.1433   1.1367 H              1 S1                 0.0000
     33 ****         3.5859  -1.9991   2.4447 H              1 S1                 0.0000
     34 ****         1.9834  -2.7286   2.5734 H              1 S1                 0.0000
     35 ****         2.2789  -1.1394   3.2456 H              1 S1                 0.0000
     36 ****         3.7552  -1.8996  -0.0797 H              1 S1                 0.0000
     37 ****         2.3280  -3.8314   0.6985 H              1 S1                 0.0000
     38 ****         2.6744  -3.9044  -0.9878 H              1 S1                 0.0000
     39 ****         1.0895  -3.3504  -0.4541 H              1 S1                 0.0000
     40 ****         2.4181   0.8491  -0.6642 H              1 S1                 0.0000
     41 ****         3.9722   0.2741  -1.2341 H              1 S1                 0.0000
     42 ****         1.5674   1.1373  -2.9341 H              1 S1                 0.0000
     43 ****         3.0718   2.0152  -2.7297 H              1 S1                 0.0000
     44 ****         1.6343  -0.9857  -4.1697 H              1 S1                 0.0000
     45 ****         3.1853  -1.5274  -4.7842 H              1 S1                 0.0000
     46 ****         4.0382  -1.9200  -2.5074 H              1 S1                 0.0000
     47 ****         2.5306  -2.7748  -2.7581 H              1 S1                 0.0000
     48 ****        -3.8162  -0.6277   0.6155 H              1 S1                 0.0000
     49 ****        -1.2666   2.5504   1.6812 LP             1 S1                 0.0000
     50 ****        -0.0553   2.0236   1.7192 LP             1 S1                 0.0000
     51 ****         1.5018   1.2661   1.6826 LP             1 S1                 0.0000
     52 ****         1.4032  -1.0960  -1.5264 LP             1 S1                 0.0000
     53 ****         4.2086   0.2474  -3.7059 LP             1 S1                 0.0000
     54 ****         3.0294   0.7866  -4.6985 LP             1 S1                 0.0000
@<TRIPOS>BOND
    1    1    2 1     
    2    1   23 1     
    3    1   24 1     
    4    1   25 1     
    5    2   22 ar    
    6    2    3 ar    
    7    3    4 ar    
    8    3   26 1     
    9    4    5 1     
   10    4    6 ar    
   11    5   27 1     
   12    5   28 1     
   13    5   29 1     
   14    6    7 ar    
   15    7    8 1     
   16    7   22 ar    
   17    8    9 am    
   18    8   30 1     
   19    9   10 2     
   20    9   11 am    
   21   11   12 1     
   22   11   31 1     
   23   12   13 1     
   24   12   14 1     
   25   12   32 1     
   26   13   33 1     
   27   13   34 1     
   28   13   35 1     
   29   14   15 1     
   30   14   16 1     
   31   14   36 1     
   32   15   37 1     
   33   15   38 1     
   34   15   39 1     
   35   16   21 1     
   36   16   17 1     
   37   17   18 1     
   38   17   40 1     
   39   17   41 1     
   40   18   19 1     
   41   18   42 1     
   42   18   43 1     
   43   19   20 1     
   44   20   21 1     
   45   20   44 1     
   46   20   45 1     
   47   21   46 1     
   48   21   47 1     
   49   22   48 1     
   50    6   49 1     
   51   10   50 1     
   52   10   51 1     
   53   16   52 1     
   54   19   53 1     
   55   19   54 1     
@<TRIPOS>SUBSTRUCTURE
      1 S1             1
@<TRIPOS>SET
LONE_PAIRS      STATIC     ATOMS    <user>   **** ""
6 49 50 51 52 53 54
DONOR_HYDROGENS      STATIC     ATOMS    <user>   **** ""
2 30 31
ATOM$BLUE        STATIC     ATOMS    COLORGROUP SYSTEM
6 49 50 51 52 53 54
ATOM$RED        STATIC     ATOMS    COLORGROUP SYSTEM
2 30 31
