AV-unprocessed.smi:249|AV-procd|sdf|1915|dock2
  -GOLD-   2262021 13D 1   1.00000     0.00000
 Structure written by MMmdl.
 64 67  0  0  0  0  0  0  0  0  2 V2000
  146.6236  128.7752  150.9211 C   0  0  0  0  0  0  0  0  0  0  0  0
  147.2686  129.0986  152.2786 C   0  0  0  0  0  0  0  0  0  0  0  0
  147.7279  130.5134  152.3921 N   0  3  1  0  0  0  0  0  0  0  0  0
  146.5827  131.4666  152.3203 C   0  0  0  0  0  0  0  0  0  0  0  0
  147.0404  132.9332  152.3552 C   0  0  0  0  0  0  0  0  0  0  0  0
  147.8479  133.2393  153.6277 C   0  0  1  0  0  0  0  0  0  0  0  0
  147.0219  133.1746  154.8448 N   0  0  0  0  0  0  0  0  0  0  0  0
  145.7623  133.9118  154.8405 C   0  0  0  0  0  0  0  0  0  0  0  0
  147.6814  133.3779  156.0069 C   0  0  0  0  0  0  0  0  0  0  0  0
  148.9690  133.7938  155.9261 N   0  0  0  0  0  0  0  0  0  0  0  0
  149.6671  134.0200  157.0432 C   0  0  0  0  0  0  0  0  0  0  0  0
  149.2752  133.8932  158.3132 N   0  0  0  0  0  0  0  0  0  0  0  0
  147.9818  133.4667  158.3942 C   0  0  0  0  0  0  0  0  0  0  0  0
  147.1179  133.1866  157.2993 C   0  0  0  0  0  0  0  0  0  0  0  0
  145.8749  132.7767  157.7661 N   0  0  0  0  0  0  0  0  0  0  0  0
  145.9962  132.8149  159.0654 C   0  0  0  0  0  0  0  0  0  0  0  0
  147.2264  133.2242  159.5279 N   0  0  0  0  0  0  0  0  0  0  0  0
  147.6291  133.3536  160.9180 C   0  0  0  0  0  0  0  0  0  0  0  0
  147.1306  134.6620  161.5821 C   0  0  2  0  0  0  0  0  0  0  0  0
  147.8898  134.9410  162.9048 C   0  0  0  0  0  0  0  0  0  0  0  0
  148.0567  136.3249  163.1303 O   0  0  0  0  0  0  0  0  0  0  0  0
  145.5912  134.6061  161.7843 C   0  0  2  0  0  0  0  0  0  0  0  0
  144.9739  135.8957  162.3198 C   0  0  0  0  0  0  0  0  0  0  0  0
  143.7535  135.4401  163.1254 C   0  0  0  0  0  0  0  0  0  0  0  0
  143.7619  134.0202  163.0750 O   0  0  0  0  0  0  0  0  0  0  0  0
  145.0886  133.5951  162.8163 C   0  0  0  0  0  0  0  0  0  0  0  0
  149.0394  132.2573  153.6325 C   0  0  0  0  0  0  0  0  0  0  0  0
  148.5994  130.7747  153.5846 C   0  0  2  0  0  0  0  0  0  0  0  0
  149.8637  129.8905  153.6168 C   0  0  0  0  0  0  0  0  0  0  0  0
  146.4378  127.7042  150.8352 H   0  0  0  0  0  0  0  0  0  0  0  0
  147.2762  129.0613  150.0957 H   0  0  0  0  0  0  0  0  0  0  0  0
  145.6635  129.2717  150.7857 H   0  0  0  0  0  0  0  0  0  0  0  0
  146.5823  128.8635  153.0934 H   0  0  0  0  0  0  0  0  0  0  0  0
  148.1068  128.4135  152.3772 H   0  0  0  0  0  0  0  0  0  0  0  0
  146.0228  131.3189  151.3985 H   0  0  0  0  0  0  0  0  0  0  0  0
  145.8909  131.2682  153.1406 H   0  0  0  0  0  0  0  0  0  0  0  0
  147.6581  133.1341  151.4788 H   0  0  0  0  0  0  0  0  0  0  0  0
  146.1825  133.5993  152.2630 H   0  0  0  0  0  0  0  0  0  0  0  0
  148.2352  134.2555  153.5455 H   0  0  0  0  0  0  0  0  0  0  0  0
  145.3546  134.0311  155.8460 H   0  0  0  0  0  0  0  0  0  0  0  0
  145.0158  133.3796  154.2512 H   0  0  0  0  0  0  0  0  0  0  0  0
  145.8961  134.9044  154.4092 H   0  0  0  0  0  0  0  0  0  0  0  0
  150.6855  134.3501  156.8994 H   0  0  0  0  0  0  0  0  0  0  0  0
  145.1857  132.5467  159.7278 H   0  0  0  0  0  0  0  0  0  0  0  0
  147.2448  132.4791  161.4425 H   0  0  0  0  0  0  0  0  0  0  0  0
  148.7165  133.2931  160.9776 H   0  0  0  0  0  0  0  0  0  0  0  0
  147.3530  135.4772  160.8915 H   0  0  0  0  0  0  0  0  0  0  0  0
  147.3720  134.4898  163.7516 H   0  0  0  0  0  0  0  0  0  0  0  0
  148.8928  134.5170  162.8902 H   0  0  0  0  0  0  0  0  0  0  0  0
  148.1322  136.4712  164.0611 H   0  0  0  0  0  0  0  0  0  0  0  0
  145.1143  134.3725  160.8308 H   0  0  0  0  0  0  0  0  0  0  0  0
  145.6696  136.4176  162.9782 H   0  0  0  0  0  0  0  0  0  0  0  0
  144.6997  136.5795  161.5158 H   0  0  0  0  0  0  0  0  0  0  0  0
  143.8283  135.7724  164.1616 H   0  0  0  0  0  0  0  0  0  0  0  0
  142.8204  135.8240  162.7124 H   0  0  0  0  0  0  0  0  0  0  0  0
  145.0984  132.5695  162.4469 H   0  0  0  0  0  0  0  0  0  0  0  0
  145.6740  133.6405  163.7364 H   0  0  0  0  0  0  0  0  0  0  0  0
  149.6673  132.4672  152.7652 H   0  0  0  0  0  0  0  0  0  0  0  0
  149.6832  132.4348  154.4945 H   0  0  0  0  0  0  0  0  0  0  0  0
  148.0159  130.5564  154.4802 H   0  0  0  0  0  0  0  0  0  0  0  0
  150.5488  130.2210  154.3982 H   0  0  0  0  0  0  0  0  0  0  0  0
  150.4034  129.9319  152.6700 H   0  0  0  0  0  0  0  0  0  0  0  0
  149.6407  128.8479  153.8395 H   0  0  0  0  0  0  0  0  0  0  0  0
  148.3042  130.6929  151.5824 H   0  0  0  0  0  0  0  0  0  0  0  0
  1  2  1  0  0  0  0
  1 30  1  0  0  0  0
  1 31  1  0  0  0  0
  1 32  1  0  0  0  0
  2  3  1  0  0  0  0
  2 33  1  0  0  0  0
  2 34  1  0  0  0  0
  3 28  1  0  0  0  0
  3  4  1  0  0  0  0
  3 64  1  0  0  0  0
  4  5  1  0  0  0  0
  4 35  1  0  0  0  0
  4 36  1  0  0  0  0
  5  6  1  0  0  0  0
  5 37  1  0  0  0  0
  5 38  1  0  0  0  0
  6  7  1  0  0  0  0
  6 27  1  0  0  0  0
  6 39  1  0  0  0  0
  7  8  1  0  0  0  0
  7  9  1  0  0  0  0
  8 40  1  0  0  0  0
  8 41  1  0  0  0  0
  8 42  1  0  0  0  0
  9 14  1  0  0  0  0
  9 10  2  0  0  0  0
 10 11  1  0  0  0  0
 11 12  2  0  0  0  0
 11 43  1  0  0  0  0
 12 13  1  0  0  0  0
 13 17  1  0  0  0  0
 13 14  2  0  0  0  0
 14 15  1  0  0  0  0
 15 16  2  0  0  0  0
 16 17  1  0  0  0  0
 16 44  1  0  0  0  0
 17 18  1  0  0  0  0
 18 19  1  0  0  0  0
 18 45  1  0  0  0  0
 18 46  1  0  0  0  0
 19 20  1  0  0  0  0
 19 22  1  0  0  0  0
 19 47  1  0  0  0  0
 20 21  1  0  0  0  0
 20 48  1  0  0  0  0
 20 49  1  0  0  0  0
 21 50  1  0  0  0  0
 22 26  1  0  0  0  0
 22 23  1  0  0  0  0
 22 51  1  0  0  0  0
 23 24  1  0  0  0  0
 23 52  1  0  0  0  0
 23 53  1  0  0  0  0
 24 25  1  0  0  0  0
 24 54  1  0  0  0  0
 24 55  1  0  0  0  0
 25 26  1  0  0  0  0
 26 56  1  0  0  0  0
 26 57  1  0  0  0  0
 27 28  1  0  0  0  0
 27 58  1  0  0  0  0
 27 59  1  0  0  0  0
 28 29  1  0  0  0  0
 28 60  1  0  0  0  0
 29 61  1  0  0  0  0
 29 62  1  0  0  0  0
 29 63  1  0  0  0  0
M  CHG  1   3   1
M  END
> <s_m_source_file>
AV-unprocessed.smi

> <i_m_source_file_index>
249

> <i_lp_mmshare_version>
43012

> <i_f3d_flags>
0

> <s_epik_input>
W0NIM11bQ0gyXU4xW0NIMl1bQ0gyXVtDQEhdKFtDSDJdW0NASF0xW0NIM10pTihbQ0gzXSljKG5bY0hdbjIpYyhjMjMpbltjSF1uM1tDSDJdW0NASF0oW0NIMl1bT0hdKVtDQEBIXTRbQ0gyXVtDSDJdT1tDSDJdNA==

> <s_epik_cmdline>
J2VwaWtfcHl0aG9uJywgJy1waCcsICc3LjAnLCAnLXRuJywgJzgnLCAnLW1hJywgJzIwMCcsICctbWV0YWxfYmluZGluZycsICctaW1hZScsICc8aW5maWxlLm1hZT4nLCAnLW9tYWUnLCAnPG91dGZpbGUubWFlPic=

> <r_lp_tautomer_probability>
1

> <r_epik_Ionization_Penalty>
0.00294688

> <r_epik_Ionization_Penalty_Charging>
0.00169971

> <r_epik_Ionization_Penalty_Neutral>
0.00124717

> <r_epik_State_Penalty>
-0

> <r_epik_Charging_Adjusted_Penalty>
0.00169971

> <i_epik_Tot_Q>
1

> <i_epik_Tot_abs_Q>
1

> <r_epik_Metal_State_Penalty>
-0

> <b_epik_Metal_Only>
0

> <s_lp_Force_Field>
OPLS_2005

> <r_lp_Energy>
57.0606

> <b_lp_Chiralities_Consistent>
1

> <s_lp_Variant>
AV-unprocessed.smi:249-18

> <Gold.Version>
5.8.1

> <Gold.Id.Protein>
6NUR|6NUR_protein|mol2

> <Gold.PLP.Fitness>
50.1790

> <Gold.PLP.PLP>
-43.3403

> <Gold.PLP.part.hbond>
-3.0000

> <Gold.PLP.part.metal>
0.0000

> <Gold.PLP.part.buried>
-6.7280

> <Gold.PLP.part.nonpolar>
-32.9372

> <Gold.PLP.part.repulsive>
0.1867

> <Gold.PLP.ligand.clash>
0.0000

> <Gold.PLP.ligand.torsion>
1.0066

> <Gold.PLP.Chemscore.Hbond>
2.7520

> <Gold.PLP.Chemscore.CHOScore>
0.0000

> <Gold.PLP.Chemscore.Metal>
0.0000

> <Gold.Chemscore.Hbonds>
donor molecule, donor type, donor heavy atom, donor atom, acceptor molecule, acceptor atom, score
      L1  H     3    64       P1 10747  0.83
      P1  H  6896  6907       L1    12  1.00

> <Gold.PLP.Chemscore.Internal.Correction>
0.5960

> <Gold.Rescore>
     Score         DG    S(hbond)    S(metal)    S(lipo)     H(rot)  DE(clash)    DE(int)     intcor
     15.95     -18.46       2.50        0.00     102.97       2.90       0.22       2.29       ----

> <Gold.Chemscore.Fitness>
15.9513

> <Gold.Chemscore.DG>
-18.4585

> <Gold.Chemscore.ZeroCoef>
-5.4800

> <Gold.Chemscore.Hbond>
2.5020

> <Gold.Chemscore.Metal>
0.0000

> <Gold.Chemscore.Lipo>
102.9687

> <Gold.Chemscore.Internal_Hbond>
0.0000

> <Gold.Chemscore.DEClash>
0.2187

> <Gold.Chemscore.DEInternal>
2.2885

> <Gold.Chemscore.Rot>
2.9006

> <Gold.Chemscore.Internal.Correction>
   9.000000E+99

> <Gold.Chemscore.Hbonds>
donor molecule, donor type, donor heavy atom, donor atom, acceptor molecule, acceptor atom, score
      L1  H     3    64       P1 10747  0.82
      P1  H  6896  6907       L1    12  0.70
      P1  H  6931  6943       L1    21  0.02

> <Gold.Chemscore.Hbond.Weighted>
-8.3568

> <Gold.Chemscore.Metal.Weighted>
-0.0000

> <Gold.Chemscore.Lipo.Weighted>
-12.0473

> <Gold.Chemscore.Internal_Hbond.Weighted>
0.0000

> <Gold.Chemscore.DEClash.Weighted>
0.2187

> <Gold.Chemscore.DEInternal.Weighted>
2.2885

> <Gold.Chemscore.Rot.Weighted>
7.4256

> <Gold.Chemscore.Internal.Correction.Weighted>
   9.000000E+99

> <Gold.Protein.RotatedTorsions>
[ 6907 6896 6895 6894 ] final  -99.40 input  -60.11 | X-H torsion
[ 7974 7965 7964 7962 ] final   84.20 input  175.53 | X-H torsion
[ 8008 7997 7996 7995 ] final   30.89 input   59.86 | X-H torsion
[ 10167 10162 10161 10158 ] final  130.82 input  -65.29 | X-H torsion
[ 10718 10713 10712 10709 ] final   97.06 input   66.30 | X-H torsion
[ 10763 10752 10751 10750 ] final   -0.38 input  -60.55 | X-H torsion
[ 11005 11000 10999 10996 ] final  -17.00 input  -57.11 | X-H torsion

> <Gold.Protein.ActiveResidues>
 VAL166  LYS551  ARG553  GLY616  TRP617  ASP618  TYR619  PRO620  LYS621  CYS622 
 ASP623  PHE694  ASN695  SER759  ASP760  ASP761  ALA762  ILE779  LEU786  VAL792 
 PHE793  MET794  SER795  GLU796  ALA797  LYS798  CYS799  TRP800  GLU811  SER814 

> <Gold.Protein.RotatedAtoms>
  150.7079  134.1046  159.3977 H   0  0  0  0  0  0  0  0  0  0  0  0  # atno 6907 bound_to 6896
  151.9032  135.0367  160.0517 H   0  0  0  0  0  0  0  0  0  0  0  0  # atno 6908 bound_to 6896
  152.2396  133.5089  159.5299 H   0  0  0  0  0  0  0  0  0  0  0  0  # atno 6909 bound_to 6896
  145.6019  139.2354  143.2241 H   0  0  0  0  0  0  0  0  0  0  0  0  # atno 7974 bound_to 7965
  155.0976  140.3226  155.4556 H   0  0  0  0  0  0  0  0  0  0  0  0  # atno 8008 bound_to 7997
  156.2726  140.2067  156.6049 H   0  0  0  0  0  0  0  0  0  0  0  0  # atno 8009 bound_to 7997
  154.6854  140.0522  157.0296 H   0  0  0  0  0  0  0  0  0  0  0  0  # atno 8010 bound_to 7997
  139.5412  144.6732  151.4619 H   0  0  0  0  0  0  0  0  0  0  0  0  # atno 10167 bound_to 10162
  157.6918  131.0598  150.4587 H   0  0  0  0  0  0  0  0  0  0  0  0  # atno 10718 bound_to 10713
  153.3311  135.6975  153.6947 H   0  0  0  0  0  0  0  0  0  0  0  0  # atno 10763 bound_to 10752
  153.5749  135.3509  155.2853 H   0  0  0  0  0  0  0  0  0  0  0  0  # atno 10764 bound_to 10752
  154.8618  135.4281  154.2500 H   0  0  0  0  0  0  0  0  0  0  0  0  # atno 10765 bound_to 10752
  140.8124  133.8130  155.9577 H   0  0  0  0  0  0  0  0  0  0  0  0  # atno 11005 bound_to 11000
  146.1570  140.6844  142.9295 LP  0  0  0  0  0  0  0  0  0  0  0  0  # atno 17320 bound_to 7965
  144.7306  140.4660  143.6940 LP  0  0  0  0  0  0  0  0  0  0  0  0  # atno 17321 bound_to 7965
  140.6642  143.8433  150.6923 LP  0  0  0  0  0  0  0  0  0  0  0  0  # atno 17342 bound_to 10162
  140.1837  143.4094  152.1914 LP  0  0  0  0  0  0  0  0  0  0  0  0  # atno 17343 bound_to 10162
  156.4933  130.4100  149.6394 LP  0  0  0  0  0  0  0  0  0  0  0  0  # atno 17370 bound_to 10713
  156.3397  130.7375  151.2318 LP  0  0  0  0  0  0  0  0  0  0  0  0  # atno 17371 bound_to 10713
  140.9184  134.2173  157.4942 LP  0  0  0  0  0  0  0  0  0  0  0  0  # atno 17394 bound_to 11000
  139.8713  134.9781  156.4985 LP  0  0  0  0  0  0  0  0  0  0  0  0  # atno 17395 bound_to 11000

$$$$
