#       Name:                AV-unprocessed.smi:2164
#       Creating user name   scv26
#       Creation time:       Fri Mar 27 11:59:58 2020


#       File generated by GOLD software.
#

@<TRIPOS>MOLECULE
AV-unprocessed.smi:2164
    43    45     1
SMALL
NO_CHARGES


@<TRIPOS>ATOM
      1 ****         0.4600   2.9651   0.0709 O.2            1 S1                 0.0000
      2 ****         0.0583   1.7949   0.0325 C.2            1 S1                 0.0000
      3 ****         0.8625   0.6889   0.0105 N.pl3          1 S1                -1.0000
      4 ****         2.3252   0.7062   0.0179 C.3            1 S1                 0.0000
      5 ****         2.8599  -0.7397  -0.0073 C.3            1 S1                 0.0000
      6 ****         4.3797  -0.8320  -0.0067 C.ar           1 S1                 0.0000
      7 ****         5.1060  -0.8799  -1.2167 C.ar           1 S1                 0.0000
      8 ****         6.5097  -0.9778  -1.1647 C.ar           1 S1                 0.0000
      9 ****         7.1316  -1.0277   0.0985 C.ar           1 S1                 0.0000
     10 ****         6.4501  -0.9894   1.2634 N.ar           1 S1                 0.0000
     11 ****         5.1040  -0.8951   1.2050 C.ar           1 S1                 0.0000
     12 ****        -1.3932   1.5601   0.0082 C.2            1 S1                 0.0000
     13 ****        -1.9433   0.3272  -0.0460 C.2            1 S1                 0.0000
     14 ****        -3.3210   0.0950  -0.0706 N.pl3          1 S1                 0.0000
     15 ****        -3.7816  -1.2797  -0.2288 C.3            1 S1                 0.0000
     16 ****        -4.9810  -1.5428   0.6678 C.3            1 S1                 0.0000
     17 ****        -6.3133  -0.4245   0.0883 S.o2           1 S1                 0.0000
     18 ****        -6.6120  -0.7597  -1.3129 O.2            1 S1                 0.0000
     19 ****        -7.3973  -0.4512   1.0821 O.2            1 S1                 0.0000
     20 ****        -5.5250   1.0536   0.1452 N.2            1 S1                 0.0000
     21 ****        -4.2364   1.1730   0.0354 C.2            1 S1                 0.0000
     22 ****        -3.6493   2.5026   0.0527 C.2            1 S1                 0.0000
     23 ****        -2.3133   2.6859   0.0415 C.2            1 S1                 0.0000
     24 ****         2.7244   1.2463  -0.8416 H              1 S1                 0.0000
     25 ****         2.7172   1.2133   0.9005 H              1 S1                 0.0000
     26 ****         2.4799  -1.2905   0.8546 H              1 S1                 0.0000
     27 ****         2.4822  -1.2588  -0.8895 H              1 S1                 0.0000
     28 ****         4.5965  -0.8400  -2.1683 H              1 S1                 0.0000
     29 ****         7.0951  -1.0139  -2.0713 H              1 S1                 0.0000
     30 ****         8.2062  -1.1032   0.1753 H              1 S1                 0.0000
     31 ****         4.5888  -0.8691   2.1540 H              1 S1                 0.0000
     32 ****        -1.3514  -0.5763  -0.0760 H              1 S1                 0.0000
     33 ****        -4.0326  -1.4569  -1.2751 H              1 S1                 0.0000
     34 ****        -2.9877  -1.9826   0.0261 H              1 S1                 0.0000
     35 ****        -5.3276  -2.5727   0.5872 H              1 S1                 0.0000
     36 ****        -4.7614  -1.3324   1.7151 H              1 S1                 0.0000
     37 ****        -4.2705   3.3859   0.0851 H              1 S1                 0.0000
     38 ****        -1.9376   3.6987   0.0580 H              1 S1                 0.0000
     39 ****         1.4413   3.1565   0.0882 LP             1 S1                 0.0000
     40 ****        -0.1969   3.7190   0.0846 LP             1 S1                 0.0000
     41 ****         0.4139  -0.2046  -0.0125 LP             1 S1                 0.0000
     42 ****         6.9268  -1.0296   2.1415 LP             1 S1                 0.0000
     43 ****        -6.0720   1.8815   0.2694 LP             1 S1                 0.0000
@<TRIPOS>BOND
    1    1    2 2     
    2    2    3 1     
    3    2   12 1     
    4    3    4 1     
    5    4    5 1     
    6    4   24 1     
    7    4   25 1     
    8    5    6 1     
    9    5   26 1     
   10    5   27 1     
   11    6   11 ar    
   12    6    7 ar    
   13    7    8 ar    
   14    7   28 1     
   15    8    9 ar    
   16    8   29 1     
   17    9   10 ar    
   18    9   30 1     
   19   10   11 ar    
   20   11   31 1     
   21   12   23 1     
   22   12   13 2     
   23   13   14 1     
   24   13   32 1     
   25   14   21 1     
   26   14   15 1     
   27   15   16 1     
   28   15   33 1     
   29   15   34 1     
   30   16   17 1     
   31   16   35 1     
   32   16   36 1     
   33   17   18 2     
   34   17   19 2     
   35   17   20 1     
   36   20   21 2     
   37   21   22 1     
   38   22   23 2     
   39   22   37 1     
   40   23   38 1     
   41    1   39 1     
   42    1   40 1     
   43    3   41 1     
   44   10   42 1     
   45   20   43 1     
@<TRIPOS>SUBSTRUCTURE
      1 S1             1
@<TRIPOS>SET
LONE_PAIRS      STATIC     ATOMS    <user>   **** ""
7 39 40 41 42 18 19 43
ATOM$BLUE        STATIC     ATOMS    COLORGROUP SYSTEM
7 39 40 41 42 18 19 43
