AV-unprocessed.smi:2579|AV-procd|sdf|10126|dock10
  -GOLD-   2272014143D 1   1.00000     0.00000
 Structure written by MMmdl.
 38 40  0  0  0  0  0  0  0  0  1 V2000
  151.2338  136.1860  154.4539 O   0  0  0  0  0  0  0  0  0  0  0  0
  150.7430  137.5041  154.5749 C   0  0  0  0  0  0  0  0  0  0  0  0
  151.8420  138.4303  155.1112 C   0  0  0  0  0  0  0  0  0  0  0  0
  151.3244  139.7510  155.4130 N   0  0  0  0  0  0  0  0  0  0  0  0
  151.5480  140.6283  156.4661 C   0  0  0  0  0  0  0  0  0  0  0  0
  152.3579  140.3693  157.4911 N   0  0  0  0  0  0  0  0  0  0  0  0
  152.2296  141.5105  158.2608 C   0  0  0  0  0  0  0  0  0  0  0  0
  152.8339  141.8609  159.4896 C   0  0  0  0  0  0  0  0  0  0  0  0
  152.5444  143.0988  160.1004 C   0  0  0  0  0  0  0  0  0  0  0  0
  151.6477  144.0022  159.4937 C   0  0  0  0  0  0  0  0  0  0  0  0
  151.0354  143.6745  158.2688 C   0  0  0  0  0  0  0  0  0  0  0  0
  151.3287  142.4387  157.6616 C   0  0  0  0  0  0  0  0  0  0  0  0
  150.9107  141.8233  156.4855 N   0  0  0  0  0  0  0  0  0  0  0  0
  149.9815  142.3697  155.5068 C   0  0  0  0  0  0  0  0  0  0  0  0
  148.8157  141.4099  155.2195 C   0  0  1  0  0  0  0  0  0  0  0  0
  147.6154  142.0739  154.5447 C   0  0  0  0  0  0  0  0  0  0  0  0
  146.9885  140.9556  153.7231 C   0  0  0  0  0  0  0  0  0  0  0  0
  147.9857  139.8001  153.8333 C   0  0  0  0  0  0  0  0  0  0  0  0
  149.1854  140.4054  154.2880 O   0  0  0  0  0  0  0  0  0  0  0  0
  151.0351  135.8708  153.5854 H   0  0  0  0  0  0  0  0  0  0  0  0
  150.3497  137.8558  153.6201 H   0  0  0  0  0  0  0  0  0  0  0  0
  149.9090  137.4814  155.2766 H   0  0  0  0  0  0  0  0  0  0  0  0
  152.2419  138.0126  156.0355 H   0  0  0  0  0  0  0  0  0  0  0  0
  152.6749  138.5044  154.4114 H   0  0  0  0  0  0  0  0  0  0  0  0
  150.6581  140.0822  154.7302 H   0  0  0  0  0  0  0  0  0  0  0  0
  153.5213  141.1758  159.9634 H   0  0  0  0  0  0  0  0  0  0  0  0
  153.0120  143.3560  161.0394 H   0  0  0  0  0  0  0  0  0  0  0  0
  151.4306  144.9474  159.9695 H   0  0  0  0  0  0  0  0  0  0  0  0
  150.3482  144.3645  157.8022 H   0  0  0  0  0  0  0  0  0  0  0  0
  149.5983  143.3179  155.8850 H   0  0  0  0  0  0  0  0  0  0  0  0
  150.5244  142.6046  154.5907 H   0  0  0  0  0  0  0  0  0  0  0  0
  148.4950  140.9242  156.1432 H   0  0  0  0  0  0  0  0  0  0  0  0
  146.9233  142.5061  155.2680 H   0  0  0  0  0  0  0  0  0  0  0  0
  147.9442  142.8729  153.8787 H   0  0  0  0  0  0  0  0  0  0  0  0
  146.0079  140.6667  154.1027 H   0  0  0  0  0  0  0  0  0  0  0  0
  146.8668  141.2710  152.6861 H   0  0  0  0  0  0  0  0  0  0  0  0
  147.6498  139.0719  154.5730 H   0  0  0  0  0  0  0  0  0  0  0  0
  148.1356  139.2806  152.8865 H   0  0  0  0  0  0  0  0  0  0  0  0
  1  2  1  0  0  0  0
  1 20  1  0  0  0  0
  2  3  1  0  0  0  0
  2 21  1  0  0  0  0
  2 22  1  0  0  0  0
  3  4  1  0  0  0  0
  3 23  1  0  0  0  0
  3 24  1  0  0  0  0
  4  5  1  0  0  0  0
  4 25  1  0  0  0  0
  5 13  1  0  0  0  0
  5  6  2  0  0  0  0
  6  7  1  0  0  0  0
  7 12  2  0  0  0  0
  7  8  1  0  0  0  0
  8  9  2  0  0  0  0
  8 26  1  0  0  0  0
  9 10  1  0  0  0  0
  9 27  1  0  0  0  0
 10 11  2  0  0  0  0
 10 28  1  0  0  0  0
 11 12  1  0  0  0  0
 11 29  1  0  0  0  0
 12 13  1  0  0  0  0
 13 14  1  0  0  0  0
 14 15  1  0  0  0  0
 14 30  1  0  0  0  0
 14 31  1  0  0  0  0
 15 19  1  0  0  0  0
 15 16  1  0  0  0  0
 15 32  1  0  0  0  0
 16 17  1  0  0  0  0
 16 33  1  0  0  0  0
 16 34  1  0  0  0  0
 17 18  1  0  0  0  0
 17 35  1  0  0  0  0
 17 36  1  0  0  0  0
 18 19  1  0  0  0  0
 18 37  1  0  0  0  0
 18 38  1  0  0  0  0
M  END
> <s_m_source_file>
AV-unprocessed.smi

> <i_m_source_file_index>
2579

> <i_lp_mmshare_version>
43012

> <i_f3d_flags>
0

> <s_epik_input>
W09IXVtDSDJdW0NIMl1bTkhdYyhuMSluKGMoYzEyKVtjSF1bY0hdW2NIXVtjSF0yKVtDSDJdW0NAQEhdM1tDSDJdW0NIMl1bQ0gyXU8z

> <s_epik_cmdline>
J2VwaWtfcHl0aG9uJywgJy1waCcsICc3LjAnLCAnLXRuJywgJzgnLCAnLW1hJywgJzIwMCcsICctbWV0YWxfYmluZGluZycsICctaW1hZScsICc8aW5maWxlLm1hZT4nLCAnLW9tYWUnLCAnPG91dGZpbGUubWFlPic=

> <r_epik_Ionization_Penalty>
1.27244

> <r_epik_Ionization_Penalty_Charging>
0

> <r_epik_Ionization_Penalty_Neutral>
1.27244

> <r_epik_State_Penalty>
1.34401

> <r_epik_Charging_Adjusted_Penalty>
1.34401

> <i_epik_Tot_Q>
0

> <i_epik_Tot_abs_Q>
0

> <r_epik_Metal_State_Penalty>
0.00511131

> <b_epik_Metal_Only>
0

> <s_lp_Force_Field>
OPLS_2005

> <r_lp_Energy>
20.6152

> <b_lp_Chiralities_Consistent>
1

> <s_lp_Variant>
AV-unprocessed.smi:2579-4

> <Gold.Version>
5.8.1

> <Gold.Id.Protein>
6NUR|6NUR_protein|mol2

> <Gold.PLP.Fitness>
45.8779

> <Gold.PLP.PLP>
-38.4557

> <Gold.PLP.part.hbond>
-3.0199

> <Gold.PLP.part.metal>
0.0000

> <Gold.PLP.part.buried>
-0.0107

> <Gold.PLP.part.nonpolar>
-35.3007

> <Gold.PLP.part.repulsive>
0.7708

> <Gold.PLP.ligand.clash>
0.0000

> <Gold.PLP.ligand.torsion>
0.3611

> <Gold.PLP.Chemscore.Hbond>
2.7114

> <Gold.PLP.Chemscore.CHOScore>
0.0000

> <Gold.PLP.Chemscore.Metal>
0.0000

> <Gold.Chemscore.Hbonds>
donor molecule, donor type, donor heavy atom, donor atom, acceptor molecule, acceptor atom, score
      L1  H     1    20       P1  7949  0.80
      P1  H  7997  8010       L1     6  0.51
      P1  H 10752 10763       L1     1  0.80

> <Gold.PLP.Chemscore.Internal.Correction>
0.0102

> <Gold.Rescore>
     Score         DG    S(hbond)    S(metal)    S(lipo)     H(rot)  DE(clash)    DE(int)     intcor
     16.51     -20.21       2.46        0.00     103.23       2.17       1.73       1.96       ----

> <Gold.Chemscore.Fitness>
16.5126

> <Gold.Chemscore.DG>
-20.2072

> <Gold.Chemscore.ZeroCoef>
-5.4800

> <Gold.Chemscore.Hbond>
2.4554

> <Gold.Chemscore.Metal>
0.0000

> <Gold.Chemscore.Lipo>
103.2345

> <Gold.Chemscore.Internal_Hbond>
0.0000

> <Gold.Chemscore.DEClash>
1.7349

> <Gold.Chemscore.DEInternal>
1.9597

> <Gold.Chemscore.Rot>
2.1688

> <Gold.Chemscore.Internal.Correction>
   9.000000E+99

> <Gold.Chemscore.Hbonds>
donor molecule, donor type, donor heavy atom, donor atom, acceptor molecule, acceptor atom, score
      L1  H     1    20       P1  7949  0.17
      P1  H  7997  8010       L1     6  0.22
      P1  H 10752 10763       L1     1  0.12

> <Gold.Chemscore.Hbond.Weighted>
-8.2009

> <Gold.Chemscore.Metal.Weighted>
-0.0000

> <Gold.Chemscore.Lipo.Weighted>
-12.0784

> <Gold.Chemscore.Internal_Hbond.Weighted>
0.0000

> <Gold.Chemscore.DEClash.Weighted>
1.7349

> <Gold.Chemscore.DEInternal.Weighted>
1.9597

> <Gold.Chemscore.Rot.Weighted>
5.5522

> <Gold.Chemscore.Internal.Correction.Weighted>
   9.000000E+99

> <Gold.Protein.RotatedTorsions>
[ 6907 6896 6895 6894 ] final -147.14 input  -60.11 | X-H torsion
[ 7974 7965 7964 7962 ] final  -64.08 input  175.53 | X-H torsion
[ 8008 7997 7996 7995 ] final   63.45 input   59.86 | X-H torsion
[ 10167 10162 10161 10158 ] final  -74.33 input  -65.29 | X-H torsion
[ 10718 10713 10712 10709 ] final  -67.18 input   66.30 | X-H torsion
[ 10763 10752 10751 10750 ] final   54.11 input  -60.55 | X-H torsion
[ 11005 11000 10999 10996 ] final    2.84 input  -57.11 | X-H torsion

> <Gold.Protein.ActiveResidues>
 VAL166  LYS551  ARG553  GLY616  TRP617  ASP618  TYR619  PRO620  LYS621  CYS622 
 ASP623  PHE694  ASN695  SER759  ASP760  ASP761  ALA762  ILE779  LEU786  VAL792 
 PHE793  MET794  SER795  GLU796  ALA797  LYS798  CYS799  TRP800  GLU811  SER814 

> <Gold.Protein.RotatedAtoms>
  151.1515  133.4904  159.2595 H   0  0  0  0  0  0  0  0  0  0  0  0  # atno 6907 bound_to 6896
  151.1549  135.0245  159.8694 H   0  0  0  0  0  0  0  0  0  0  0  0  # atno 6908 bound_to 6896
  152.5463  134.1395  159.8526 H   0  0  0  0  0  0  0  0  0  0  0  0  # atno 6909 bound_to 6896
  145.7711  140.8812  143.0379 H   0  0  0  0  0  0  0  0  0  0  0  0  # atno 7974 bound_to 7965
  155.6304  140.3496  155.4681 H   0  0  0  0  0  0  0  0  0  0  0  0  # atno 8008 bound_to 7997
  156.0008  140.1213  157.0573 H   0  0  0  0  0  0  0  0  0  0  0  0  # atno 8009 bound_to 7997
  154.4248  140.1101  156.5680 H   0  0  0  0  0  0  0  0  0  0  0  0  # atno 8010 bound_to 7997
  140.5036  143.2357  151.7711 H   0  0  0  0  0  0  0  0  0  0  0  0  # atno 10167 bound_to 10162
  156.0572  130.4274  150.1816 H   0  0  0  0  0  0  0  0  0  0  0  0  # atno 10718 bound_to 10713
  152.9801  135.5756  154.4852 H   0  0  0  0  0  0  0  0  0  0  0  0  # atno 10763 bound_to 10752
  154.4394  135.2775  155.1860 H   0  0  0  0  0  0  0  0  0  0  0  0  # atno 10764 bound_to 10752
  154.3534  135.6204  153.5708 H   0  0  0  0  0  0  0  0  0  0  0  0  # atno 10765 bound_to 10752
  140.5998  133.9847  155.8126 H   0  0  0  0  0  0  0  0  0  0  0  0  # atno 11005 bound_to 11000
  144.6812  139.9857  143.7484 LP  0  0  0  0  0  0  0  0  0  0  0  0  # atno 17320 bound_to 7965
  146.0169  139.3217  143.0837 LP  0  0  0  0  0  0  0  0  0  0  0  0  # atno 17321 bound_to 7965
  139.4878  144.4488  151.9679 LP  0  0  0  0  0  0  0  0  0  0  0  0  # atno 17342 bound_to 10162
  140.3577  144.3011  150.5938 LP  0  0  0  0  0  0  0  0  0  0  0  0  # atno 17343 bound_to 10162
  156.9890  130.9887  151.3419 LP  0  0  0  0  0  0  0  0  0  0  0  0  # atno 17370 bound_to 10713
  157.5551  130.8208  149.8194 LP  0  0  0  0  0  0  0  0  0  0  0  0  # atno 17371 bound_to 10713
  141.0880  133.9961  157.3283 LP  0  0  0  0  0  0  0  0  0  0  0  0  # atno 17394 bound_to 11000
  139.9237  135.0201  156.8159 LP  0  0  0  0  0  0  0  0  0  0  0  0  # atno 17395 bound_to 11000

$$$$
