AV-unprocessed.smi:272|AV-procd|sdf|2053|dock3
  -GOLD-   2262021293D 1   1.00000     0.00000
 Structure written by MMmdl.
 62 65  0  0  0  0  0  0  0  0  1 V2000
  152.0142  145.0844  159.2809 C   0  0  0  0  0  0  0  0  0  0  0  0
  151.5796  143.6217  159.0883 C   0  0  0  0  0  0  0  0  0  0  0  0
  152.6938  142.6677  159.5455 C   0  0  0  0  0  0  0  0  0  0  0  0
  151.1637  143.3182  157.6345 C   0  0  0  0  0  0  0  0  0  0  0  0
  150.5277  141.9283  157.4421 C   0  0  0  0  0  0  0  0  0  0  0  0
  151.5174  140.9264  157.2501 O   0  0  0  0  0  0  0  0  0  0  0  0
  151.0362  139.6929  156.7289 C   0  0  0  0  0  0  0  0  0  0  0  0
  150.3384  139.9640  155.3857 C   0  0  0  0  0  0  0  0  0  0  0  0
  149.6767  138.6850  154.8463 C   0  0  0  0  0  0  0  0  0  0  0  0
  148.7699  138.1134  155.8390 N   0  0  0  0  0  0  0  0  0  0  0  0
  148.0205  137.0987  155.3596 C   0  0  0  0  0  0  0  0  0  0  0  0
  148.2098  135.8741  155.9084 N   0  0  0  0  0  0  0  0  0  0  0  0
  147.4919  134.8321  155.4774 C   0  0  0  0  0  0  0  0  0  0  0  0
  146.5541  134.7990  154.5276 N   0  0  0  0  0  0  0  0  0  0  0  0
  146.3653  136.0305  153.9718 C   0  0  0  0  0  0  0  0  0  0  0  0
  147.0501  137.2266  154.3263 C   0  0  0  0  0  0  0  0  0  0  0  0
  146.5908  138.2844  153.5511 N   0  0  0  0  0  0  0  0  0  0  0  0
  145.6825  137.7453  152.7852 C   0  0  0  0  0  0  0  0  0  0  0  0
  145.4887  136.3933  152.9636 N   0  0  0  0  0  0  0  0  0  0  0  0
  144.5410  135.5511  152.2486 C   0  0  0  0  0  0  0  0  0  0  0  0
  145.1080  134.9053  150.9542 C   0  0  0  0  0  0  0  0  0  0  0  0
  145.4258  135.9546  150.0597 O   0  0  0  0  0  0  0  0  0  0  0  0
  146.4104  134.1269  151.2288 C   0  0  0  0  0  0  0  0  0  0  0  0
  146.1334  132.7846  151.9322 C   0  0  0  0  0  0  0  0  0  0  0  0
  145.2130  132.0098  151.1707 O   0  0  0  0  0  0  0  0  0  0  0  0
  143.9489  132.6428  151.0039 C   0  0  0  0  0  0  0  0  0  0  0  0
  144.1251  133.9602  150.2300 C   0  0  0  0  0  0  0  0  0  0  0  0
  149.3775  137.8236  157.1356 C   0  0  0  0  0  0  0  0  0  0  0  0
  150.0330  139.0843  157.7237 C   0  0  0  0  0  0  0  0  0  0  0  0
  152.8545  145.3364  158.6335 H   0  0  0  0  0  0  0  0  0  0  0  0
  152.3230  145.2685  160.3102 H   0  0  0  0  0  0  0  0  0  0  0  0
  151.2032  145.7783  159.0613 H   0  0  0  0  0  0  0  0  0  0  0  0
  150.7176  143.4415  159.7319 H   0  0  0  0  0  0  0  0  0  0  0  0
  153.5938  142.7908  158.9420 H   0  0  0  0  0  0  0  0  0  0  0  0
  152.3793  141.6268  159.4655 H   0  0  0  0  0  0  0  0  0  0  0  0
  152.9640  142.8482  160.5866 H   0  0  0  0  0  0  0  0  0  0  0  0
  150.4872  144.0968  157.2812 H   0  0  0  0  0  0  0  0  0  0  0  0
  152.0461  143.3751  156.9961 H   0  0  0  0  0  0  0  0  0  0  0  0
  149.9674  141.6628  158.3389 H   0  0  0  0  0  0  0  0  0  0  0  0
  149.8153  141.9155  156.6162 H   0  0  0  0  0  0  0  0  0  0  0  0
  151.8466  138.9805  156.5613 H   0  0  0  0  0  0  0  0  0  0  0  0
  149.5800  140.7376  155.5147 H   0  0  0  0  0  0  0  0  0  0  0  0
  151.0556  140.3487  154.6602 H   0  0  0  0  0  0  0  0  0  0  0  0
  149.1282  138.9099  153.9304 H   0  0  0  0  0  0  0  0  0  0  0  0
  150.4457  137.9560  154.5876 H   0  0  0  0  0  0  0  0  0  0  0  0
  147.6981  133.8897  155.9637 H   0  0  0  0  0  0  0  0  0  0  0  0
  145.1279  138.3237  152.0609 H   0  0  0  0  0  0  0  0  0  0  0  0
  144.1882  134.7779  152.9329 H   0  0  0  0  0  0  0  0  0  0  0  0
  143.6690  136.1638  152.0213 H   0  0  0  0  0  0  0  0  0  0  0  0
  145.7069  135.5769  149.2401 H   0  0  0  0  0  0  0  0  0  0  0  0
  146.9185  133.9182  150.2857 H   0  0  0  0  0  0  0  0  0  0  0  0
  147.1020  134.7277  151.8206 H   0  0  0  0  0  0  0  0  0  0  0  0
  147.0611  132.2213  152.0333 H   0  0  0  0  0  0  0  0  0  0  0  0
  145.7499  132.9344  152.9418 H   0  0  0  0  0  0  0  0  0  0  0  0
  143.2928  131.9710  150.4506 H   0  0  0  0  0  0  0  0  0  0  0  0
  143.4816  132.8112  151.9746 H   0  0  0  0  0  0  0  0  0  0  0  0
  143.1599  134.4368  150.0594 H   0  0  0  0  0  0  0  0  0  0  0  0
  144.5149  133.7210  149.2391 H   0  0  0  0  0  0  0  0  0  0  0  0
  148.6189  137.4460  157.8228 H   0  0  0  0  0  0  0  0  0  0  0  0
  150.1270  137.0393  157.0235 H   0  0  0  0  0  0  0  0  0  0  0  0
  150.5312  138.8416  158.6627 H   0  0  0  0  0  0  0  0  0  0  0  0
  149.2611  139.8173  157.9623 H   0  0  0  0  0  0  0  0  0  0  0  0
  1  2  1  0  0  0  0
  1 30  1  0  0  0  0
  1 31  1  0  0  0  0
  1 32  1  0  0  0  0
  2  3  1  0  0  0  0
  2  4  1  0  0  0  0
  2 33  1  0  0  0  0
  3 34  1  0  0  0  0
  3 35  1  0  0  0  0
  3 36  1  0  0  0  0
  4  5  1  0  0  0  0
  4 37  1  0  0  0  0
  4 38  1  0  0  0  0
  5  6  1  0  0  0  0
  5 39  1  0  0  0  0
  5 40  1  0  0  0  0
  6  7  1  0  0  0  0
  7 29  1  0  0  0  0
  7  8  1  0  0  0  0
  7 41  1  0  0  0  0
  8  9  1  0  0  0  0
  8 42  1  0  0  0  0
  8 43  1  0  0  0  0
  9 10  1  0  0  0  0
  9 44  1  0  0  0  0
  9 45  1  0  0  0  0
 10 11  1  0  0  0  0
 10 28  1  0  0  0  0
 11 16  1  0  0  0  0
 11 12  2  0  0  0  0
 12 13  1  0  0  0  0
 13 14  2  0  0  0  0
 13 46  1  0  0  0  0
 14 15  1  0  0  0  0
 15 19  1  0  0  0  0
 15 16  2  0  0  0  0
 16 17  1  0  0  0  0
 17 18  2  0  0  0  0
 18 19  1  0  0  0  0
 18 47  1  0  0  0  0
 19 20  1  0  0  0  0
 20 21  1  0  0  0  0
 20 48  1  0  0  0  0
 20 49  1  0  0  0  0
 21 27  1  0  0  0  0
 21 22  1  0  0  0  0
 21 23  1  0  0  0  0
 22 50  1  0  0  0  0
 23 24  1  0  0  0  0
 23 51  1  0  0  0  0
 23 52  1  0  0  0  0
 24 25  1  0  0  0  0
 24 53  1  0  0  0  0
 24 54  1  0  0  0  0
 25 26  1  0  0  0  0
 26 27  1  0  0  0  0
 26 55  1  0  0  0  0
 26 56  1  0  0  0  0
 27 57  1  0  0  0  0
 27 58  1  0  0  0  0
 28 29  1  0  0  0  0
 28 59  1  0  0  0  0
 28 60  1  0  0  0  0
 29 61  1  0  0  0  0
 29 62  1  0  0  0  0
M  END
> <s_m_source_file>
AV-unprocessed.smi

> <i_m_source_file_index>
272

> <i_lp_mmshare_version>
43012

> <i_f3d_flags>
0

> <s_epik_input>
W0NIM11bQ0hdKFtDSDNdKVtDSDJdW0NIMl1PW0NIXTFbQ0gyXVtDSDJdTihbQ0gyXVtDSDJdMSljKG5bY0hdbjIpYyhjMjMpbltjSF1uM1tDSDJdQzQoW09IXSlbQ0gyXVtDSDJdT1tDSDJdW0NIMl00

> <s_epik_cmdline>
J2VwaWtfcHl0aG9uJywgJy1waCcsICc3LjAnLCAnLXRuJywgJzgnLCAnLW1hJywgJzIwMCcsICctbWV0YWxfYmluZGluZycsICctaW1hZScsICc8aW5maWxlLm1hZT4nLCAnLW9tYWUnLCAnPG91dGZpbGUubWFlPic=

> <r_lp_tautomer_probability>
1

> <r_epik_Ionization_Penalty>
0.00344734

> <r_epik_Ionization_Penalty_Charging>
0

> <r_epik_Ionization_Penalty_Neutral>
0.00344734

> <r_epik_State_Penalty>
0.0022364

> <r_epik_Charging_Adjusted_Penalty>
0.0022364

> <i_epik_Tot_Q>
0

> <i_epik_Tot_abs_Q>
0

> <r_epik_Metal_State_Penalty>
-0

> <b_epik_Metal_Only>
0

> <s_lp_Force_Field>
OPLS_2005

> <r_lp_Energy>
34.8885

> <b_lp_Chiralities_Consistent>
1

> <s_lp_Variant>
AV-unprocessed.smi:272-1

> <Gold.Version>
5.8.1

> <Gold.Id.Protein>
6NUR|6NUR_protein|mol2

> <Gold.PLP.Fitness>
51.0580

> <Gold.PLP.PLP>
-43.4354

> <Gold.PLP.part.hbond>
-2.0000

> <Gold.PLP.part.metal>
0.0000

> <Gold.PLP.part.buried>
-4.3606

> <Gold.PLP.part.nonpolar>
-38.0810

> <Gold.PLP.part.repulsive>
0.4834

> <Gold.PLP.ligand.clash>
0.0000

> <Gold.PLP.ligand.torsion>
0.8632

> <Gold.PLP.Chemscore.Hbond>
1.0000

> <Gold.PLP.Chemscore.CHOScore>
1.9958

> <Gold.PLP.Chemscore.Metal>
0.0000

> <Gold.Chemscore.Hbonds>
donor molecule, donor type, donor heavy atom, donor atom, acceptor molecule, acceptor atom, score
      L1  H    22    50       P1  7921  1.00
      L1  C    18    47       P1 10171  0.87
      L1  C    18    47       P1 10175  0.80

> <Gold.PLP.Chemscore.Internal.Correction>
0.3615

> <Gold.Rescore>
     Score         DG    S(hbond)    S(metal)    S(lipo)     H(rot)  DE(clash)    DE(int)     intcor
     14.53     -15.42       1.00        0.00     115.52       2.70       0.04       0.85       ----

> <Gold.Chemscore.Fitness>
14.5314

> <Gold.Chemscore.DG>
-15.4197

> <Gold.Chemscore.ZeroCoef>
-5.4800

> <Gold.Chemscore.Hbond>
0.9997

> <Gold.Chemscore.Metal>
0.0000

> <Gold.Chemscore.Lipo>
115.5190

> <Gold.Chemscore.Internal_Hbond>
0.0000

> <Gold.Chemscore.DEClash>
0.0371

> <Gold.Chemscore.DEInternal>
0.8512

> <Gold.Chemscore.Rot>
2.7012

> <Gold.Chemscore.Internal.Correction>
   9.000000E+99

> <Gold.Chemscore.Hbonds>
donor molecule, donor type, donor heavy atom, donor atom, acceptor molecule, acceptor atom, score
      L1  H    22    50       P1  7921  1.00

> <Gold.Chemscore.Hbond.Weighted>
-3.3391

> <Gold.Chemscore.Metal.Weighted>
-0.0000

> <Gold.Chemscore.Lipo.Weighted>
-13.5157

> <Gold.Chemscore.Internal_Hbond.Weighted>
0.0000

> <Gold.Chemscore.DEClash.Weighted>
0.0371

> <Gold.Chemscore.DEInternal.Weighted>
0.8512

> <Gold.Chemscore.Rot.Weighted>
6.9151

> <Gold.Chemscore.Internal.Correction.Weighted>
   9.000000E+99

> <Gold.Protein.RotatedTorsions>
[ 6907 6896 6895 6894 ] final  169.35 input  -60.11 | X-H torsion
[ 7974 7965 7964 7962 ] final  108.76 input  175.53 | X-H torsion
[ 8008 7997 7996 7995 ] final   22.78 input   59.86 | X-H torsion
[ 10167 10162 10161 10158 ] final   -4.64 input  -65.29 | X-H torsion
[ 10718 10713 10712 10709 ] final  -57.15 input   66.30 | X-H torsion
[ 10763 10752 10751 10750 ] final  -26.57 input  -60.55 | X-H torsion
[ 11005 11000 10999 10996 ] final  -98.74 input  -57.11 | X-H torsion

> <Gold.Protein.ActiveResidues>
 VAL166  LYS551  ARG553  GLY616  TRP617  ASP618  TYR619  PRO620  LYS621  CYS622 
 ASP623  PHE694  ASN695  SER759  ASP760  ASP761  ALA762  ILE779  LEU786  VAL792 
 PHE793  MET794  SER795  GLU796  ALA797  LYS798  CYS799  TRP800  GLU811  SER814 

> <Gold.Protein.RotatedAtoms>
  151.8332  133.3412  159.3619 H   0  0  0  0  0  0  0  0  0  0  0  0  # atno 6907 bound_to 6896
  150.7257  134.5462  159.5781 H   0  0  0  0  0  0  0  0  0  0  0  0  # atno 6908 bound_to 6896
  152.2920  134.7711  160.0427 H   0  0  0  0  0  0  0  0  0  0  0  0  # atno 6909 bound_to 6896
  145.2766  139.2647  143.3938 H   0  0  0  0  0  0  0  0  0  0  0  0  # atno 7974 bound_to 7965
  154.9710  140.3090  155.4988 H   0  0  0  0  0  0  0  0  0  0  0  0  # atno 8008 bound_to 7997
  156.2966  140.2284  156.4741 H   0  0  0  0  0  0  0  0  0  0  0  0  # atno 8009 bound_to 7997
  154.7877  140.0442  157.1165 H   0  0  0  0  0  0  0  0  0  0  0  0  # atno 8010 bound_to 7997
  140.6935  143.6400  150.8444 H   0  0  0  0  0  0  0  0  0  0  0  0  # atno 10167 bound_to 10162
  156.1233  130.4164  150.0401 H   0  0  0  0  0  0  0  0  0  0  0  0  # atno 10718 bound_to 10713
  153.7181  135.6946  153.5020 H   0  0  0  0  0  0  0  0  0  0  0  0  # atno 10763 bound_to 10752
  153.2223  135.4365  155.0502 H   0  0  0  0  0  0  0  0  0  0  0  0  # atno 10764 bound_to 10752
  154.8293  135.3463  154.6716 H   0  0  0  0  0  0  0  0  0  0  0  0  # atno 10765 bound_to 10752
  141.1334  133.8268  157.0879 H   0  0  0  0  0  0  0  0  0  0  0  0  # atno 11005 bound_to 11000
  146.3230  140.3222  142.8634 LP  0  0  0  0  0  0  0  0  0  0  0  0  # atno 17320 bound_to 7965
  144.9289  140.7953  143.5701 LP  0  0  0  0  0  0  0  0  0  0  0  0  # atno 17321 bound_to 7965
  140.0115  143.5637  152.2837 LP  0  0  0  0  0  0  0  0  0  0  0  0  # atno 17342 bound_to 10162
  139.6363  144.7650  151.2432 LP  0  0  0  0  0  0  0  0  0  0  0  0  # atno 17343 bound_to 10162
  156.8334  130.9400  151.3636 LP  0  0  0  0  0  0  0  0  0  0  0  0  # atno 17370 bound_to 10713
  157.6416  130.8810  149.9458 LP  0  0  0  0  0  0  0  0  0  0  0  0  # atno 17371 bound_to 10713
  140.0410  134.9854  157.0962 LP  0  0  0  0  0  0  0  0  0  0  0  0  # atno 17394 bound_to 11000
  140.4135  134.1956  155.7163 LP  0  0  0  0  0  0  0  0  0  0  0  0  # atno 17395 bound_to 11000

$$$$
