#       Name:                AV-unprocessed.smi:1799
#       Creating user name   scv26
#       Creation time:       Fri Mar 27 08:51:32 2020


#       File generated by GOLD software.
#

@<TRIPOS>MOLECULE
AV-unprocessed.smi:1799
    45    46     1
SMALL
NO_CHARGES


@<TRIPOS>ATOM
      1 ****         0.2322  -1.4252   2.1688 C.3            1 S1                 0.0000
      2 ****        -1.2016  -1.1496   1.6639 C.3            1 S1                 0.0000
      3 ****        -2.1580  -1.7569   2.7085 C.3            1 S1                 0.0000
      4 ****        -1.5119   0.3671   1.5597 C.3            1 S1                 0.0000
      5 ****        -0.9653   1.0615   0.3024 C.3            1 S1                 0.0000
      6 ****         0.4726   1.3018   0.3971 N.am           1 S1                 0.0000
      7 ****         1.1999   2.1176  -0.3787 C.2            1 S1                 0.0000
      8 ****         0.6506   2.7890  -1.2547 O.2            1 S1                 0.0000
      9 ****         2.5218   2.0908  -0.0975 N.pl3          1 S1                -1.0000
     10 ****         3.3779   2.8209  -0.8312 C.2            1 S1                 0.0000
     11 ****         3.8173   4.0270  -0.4374 N.2            1 S1                 0.0000
     12 ****         4.6969   4.6087  -1.3404 N.2            1 S1                 0.0000
     13 ****         4.9056   3.8186  -2.3933 C.2            1 S1                 0.0000
     14 ****         4.0490   2.2916  -2.3763 S.3            1 S1                 0.0000
     15 ****        -1.3768   0.2696  -0.9538 C.3            1 S1                 0.0000
     16 ****        -1.0450  -1.2427  -0.9130 C.3            1 S1                 0.0000
     17 ****        -1.8593  -1.9349  -2.0233 C.3            1 S1                 0.0000
     18 ****         0.4423  -1.5315  -1.2156 C.3            1 S1                 0.0000
     19 ****        -1.4720  -1.8532   0.3776 N.4            1 S1                 1.0000
     20 ****         0.3670  -1.0411   3.1806 H              1 S1                 0.0000
     21 ****         1.0070  -0.9621   1.5667 H              1 S1                 0.0000
     22 ****         0.4418  -2.4950   2.2002 H              1 S1                 0.0000
     23 ****        -2.0403  -1.2803   3.6826 H              1 S1                 0.0000
     24 ****        -1.9772  -2.8243   2.8428 H              1 S1                 0.0000
     25 ****        -3.2015  -1.6400   2.4128 H              1 S1                 0.0000
     26 ****        -2.5949   0.4995   1.5467 H              1 S1                 0.0000
     27 ****        -1.1704   0.8877   2.4560 H              1 S1                 0.0000
     28 ****        -1.4355   2.0450   0.2486 H              1 S1                 0.0000
     29 ****         0.9725   0.7861   1.1066 H              1 S1                 0.0000
     30 ****         5.5701   4.1351  -3.1831 H              1 S1                 0.0000
     31 ****        -2.4569   0.3845  -1.0571 H              1 S1                 0.0000
     32 ****        -0.9581   0.7227  -1.8531 H              1 S1                 0.0000
     33 ****        -1.6230  -1.5229  -3.0054 H              1 S1                 0.0000
     34 ****        -2.9324  -1.8148  -1.8693 H              1 S1                 0.0000
     35 ****        -1.6550  -3.0058  -2.0608 H              1 S1                 0.0000
     36 ****         0.7049  -1.1966  -2.2199 H              1 S1                 0.0000
     37 ****         0.6564  -2.5995  -1.1652 H              1 S1                 0.0000
     38 ****         1.1333  -1.0335  -0.5441 H              1 S1                 0.0000
     39 ****        -1.1045  -2.7922   0.4333 H              1 S1                 0.0000
     40 ****        -2.4777  -1.9210   0.3181 H              1 S1                 0.0000
     41 ****        -0.3386   2.7252  -1.3870 LP             1 S1                 0.0000
     42 ****         1.1942   3.3973  -1.8330 LP             1 S1                 0.0000
     43 ****         2.8619   1.5280   0.6559 LP             1 S1                 0.0000
     44 ****         3.5393   4.4619   0.4191 LP             1 S1                 0.0000
     45 ****         5.1200   5.5062  -1.2166 LP             1 S1                 0.0000
@<TRIPOS>BOND
    1    1    2 1     
    2    1   20 1     
    3    1   21 1     
    4    1   22 1     
    5    2   19 1     
    6    2    3 1     
    7    2    4 1     
    8    3   23 1     
    9    3   24 1     
   10    3   25 1     
   11    4    5 1     
   12    4   26 1     
   13    4   27 1     
   14    5    6 1     
   15    5   15 1     
   16    5   28 1     
   17    6    7 am    
   18    6   29 1     
   19    7    8 2     
   20    7    9 1     
   21    9   10 1     
   22   10   14 1     
   23   10   11 2     
   24   11   12 1     
   25   12   13 2     
   26   13   14 1     
   27   13   30 1     
   28   15   16 1     
   29   15   31 1     
   30   15   32 1     
   31   16   17 1     
   32   16   18 1     
   33   16   19 1     
   34   17   33 1     
   35   17   34 1     
   36   17   35 1     
   37   18   36 1     
   38   18   37 1     
   39   18   38 1     
   40   19   39 1     
   41   19   40 1     
   42    8   41 1     
   43    8   42 1     
   44    9   43 1     
   45   11   44 1     
   46   12   45 1     
@<TRIPOS>SUBSTRUCTURE
      1 S1             1
@<TRIPOS>SET
LONE_PAIRS      STATIC     ATOMS    <user>   **** ""
5 41 42 43 44 45
DONOR_HYDROGENS      STATIC     ATOMS    <user>   **** ""
3 29 39 40
ATOM$BLUE        STATIC     ATOMS    COLORGROUP SYSTEM
5 41 42 43 44 45
ATOM$RED        STATIC     ATOMS    COLORGROUP SYSTEM
3 29 39 40
