AV-unprocessed.smi:573|AV-procd|sdf|2972|dock6
  -GOLD-   2262023483D 1   1.00000     0.00000
 Structure written by MMmdl.
 44 46  0  0  0  0  0  0  0  0  1 V2000
  150.0365  136.4327  157.7864 C   0  0  0  0  0  0  0  0  0  0  0  0
  151.5664  136.3146  157.7133 C   0  0  1  0  0  0  0  0  0  0  0  0
  151.9352  136.2423  156.3526 O   0  0  0  0  0  0  0  0  0  0  0  0
  152.3066  137.5055  158.3464 C   0  0  0  0  0  0  0  0  0  0  0  0
  151.9586  138.7687  157.7217 N   0  0  0  0  0  0  0  0  0  0  0  0
  152.0168  140.0824  158.1720 C   0  0  0  0  0  0  0  0  0  0  0  0
  152.4454  140.4375  159.3820 N   0  0  0  0  0  0  0  0  0  0  0  0
  152.3072  141.8124  159.3495 C   0  0  0  0  0  0  0  0  0  0  0  0
  152.5905  142.7861  160.3341 C   0  0  0  0  0  0  0  0  0  0  0  0
  152.3633  144.1532  160.0723 C   0  0  0  0  0  0  0  0  0  0  0  0
  151.8492  144.5661  158.8261 C   0  0  0  0  0  0  0  0  0  0  0  0
  151.5594  143.6131  157.8307 C   0  0  0  0  0  0  0  0  0  0  0  0
  151.7902  142.2497  158.0950 C   0  0  0  0  0  0  0  0  0  0  0  0
  151.6177  141.0843  157.3539 N   0  0  0  0  0  0  0  0  0  0  0  0
  151.1048  140.9853  155.9948 C   0  0  0  0  0  0  0  0  0  0  0  0
  149.6874  141.5687  155.8748 C   0  0  2  0  0  0  0  0  0  0  0  0
  148.7483  141.0469  156.9784 C   0  0  0  0  0  0  0  0  0  0  0  0
  147.3326  141.6019  156.7841 C   0  0  0  0  0  0  0  0  0  0  0  0
  146.8532  141.3089  155.3582 C   0  0  0  0  0  0  0  0  0  0  0  0
  147.8853  141.8057  154.3331 C   0  0  0  0  0  0  0  0  0  0  0  0
  149.1549  141.2186  154.5984 O   0  0  0  0  0  0  0  0  0  0  0  0
  149.6875  136.4305  158.8190 H   0  0  0  0  0  0  0  0  0  0  0  0
  149.5540  135.5962  157.2799 H   0  0  0  0  0  0  0  0  0  0  0  0
  149.6863  137.3535  157.3186 H   0  0  0  0  0  0  0  0  0  0  0  0
  151.8842  135.3870  158.1914 H   0  0  0  0  0  0  0  0  0  0  0  0
  151.1744  135.9988  155.8478 H   0  0  0  0  0  0  0  0  0  0  0  0
  152.0517  137.5819  159.4039 H   0  0  0  0  0  0  0  0  0  0  0  0
  153.3862  137.3585  158.2938 H   0  0  0  0  0  0  0  0  0  0  0  0
  151.6379  138.6705  156.7694 H   0  0  0  0  0  0  0  0  0  0  0  0
  152.9822  142.4802  161.2928 H   0  0  0  0  0  0  0  0  0  0  0  0
  152.5832  144.8884  160.8322 H   0  0  0  0  0  0  0  0  0  0  0  0
  151.6767  145.6150  158.6347 H   0  0  0  0  0  0  0  0  0  0  0  0
  151.1620  143.9261  156.8766 H   0  0  0  0  0  0  0  0  0  0  0  0
  151.7872  141.5107  155.3259 H   0  0  0  0  0  0  0  0  0  0  0  0
  151.1185  139.9397  155.6847 H   0  0  0  0  0  0  0  0  0  0  0  0
  149.7515  142.6564  155.9428 H   0  0  0  0  0  0  0  0  0  0  0  0
  148.7192  139.9568  156.9522 H   0  0  0  0  0  0  0  0  0  0  0  0
  149.1268  141.3265  157.9621 H   0  0  0  0  0  0  0  0  0  0  0  0
  146.6485  141.1669  157.5133 H   0  0  0  0  0  0  0  0  0  0  0  0
  147.3333  142.6789  156.9575 H   0  0  0  0  0  0  0  0  0  0  0  0
  146.7067  140.2352  155.2344 H   0  0  0  0  0  0  0  0  0  0  0  0
  145.8863  141.7801  155.1802 H   0  0  0  0  0  0  0  0  0  0  0  0
  147.5754  141.5293  153.3251 H   0  0  0  0  0  0  0  0  0  0  0  0
  147.9644  142.8936  154.3547 H   0  0  0  0  0  0  0  0  0  0  0  0
  1  2  1  0  0  0  0
  1 22  1  0  0  0  0
  1 23  1  0  0  0  0
  1 24  1  0  0  0  0
  2  3  1  0  0  0  0
  2  4  1  0  0  0  0
  2 25  1  0  0  0  0
  3 26  1  0  0  0  0
  4  5  1  0  0  0  0
  4 27  1  0  0  0  0
  4 28  1  0  0  0  0
  5  6  1  0  0  0  0
  5 29  1  0  0  0  0
  6 14  1  0  0  0  0
  6  7  2  0  0  0  0
  7  8  1  0  0  0  0
  8 13  2  0  0  0  0
  8  9  1  0  0  0  0
  9 10  2  0  0  0  0
  9 30  1  0  0  0  0
 10 11  1  0  0  0  0
 10 31  1  0  0  0  0
 11 12  2  0  0  0  0
 11 32  1  0  0  0  0
 12 13  1  0  0  0  0
 12 33  1  0  0  0  0
 13 14  1  0  0  0  0
 14 15  1  0  0  0  0
 15 16  1  0  0  0  0
 15 34  1  0  0  0  0
 15 35  1  0  0  0  0
 16 21  1  0  0  0  0
 16 17  1  0  0  0  0
 16 36  1  0  0  0  0
 17 18  1  0  0  0  0
 17 37  1  0  0  0  0
 17 38  1  0  0  0  0
 18 19  1  0  0  0  0
 18 39  1  0  0  0  0
 18 40  1  0  0  0  0
 19 20  1  0  0  0  0
 19 41  1  0  0  0  0
 19 42  1  0  0  0  0
 20 21  1  0  0  0  0
 20 43  1  0  0  0  0
 20 44  1  0  0  0  0
M  END
> <s_m_source_file>
AV-unprocessed.smi

> <i_m_source_file_index>
573

> <i_lp_mmshare_version>
43012

> <i_f3d_flags>
0

> <s_epik_input>
W0NIM11bQ0BIXShbT0hdKVtDSDJdW05IXWMobjEpbihjKGMxMilbY0hdW2NIXVtjSF1bY0hdMilbQ0gyXVtDQEBIXTNbQ0gyXVtDSDJdW0NIMl1bQ0gyXU8z

> <s_epik_cmdline>
J2VwaWtfcHl0aG9uJywgJy1waCcsICc3LjAnLCAnLXRuJywgJzgnLCAnLW1hJywgJzIwMCcsICctbWV0YWxfYmluZGluZycsICctaW1hZScsICc8aW5maWxlLm1hZT4nLCAnLW9tYWUnLCAnPG91dGZpbGUubWFlPic=

> <r_epik_Ionization_Penalty>
1.30635

> <r_epik_Ionization_Penalty_Charging>
0

> <r_epik_Ionization_Penalty_Neutral>
1.30635

> <r_epik_State_Penalty>
1.38073

> <r_epik_Charging_Adjusted_Penalty>
1.38073

> <i_epik_Tot_Q>
0

> <i_epik_Tot_abs_Q>
0

> <r_epik_Metal_State_Penalty>
0.00547412

> <b_epik_Metal_Only>
0

> <s_lp_Force_Field>
OPLS_2005

> <r_lp_Energy>
6.58613

> <b_lp_Chiralities_Consistent>
1

> <s_lp_Variant>
AV-unprocessed.smi:573-6

> <Gold.Version>
5.8.1

> <Gold.Id.Protein>
6NUR|6NUR_protein|mol2

> <Gold.PLP.Fitness>
40.5644

> <Gold.PLP.PLP>
-38.0125

> <Gold.PLP.part.hbond>
-1.1692

> <Gold.PLP.part.metal>
0.0000

> <Gold.PLP.part.buried>
-4.4396

> <Gold.PLP.part.nonpolar>
-32.5781

> <Gold.PLP.part.repulsive>
0.2069

> <Gold.PLP.ligand.clash>
0.0000

> <Gold.PLP.ligand.torsion>
0.2276

> <Gold.PLP.Chemscore.Hbond>
1.0000

> <Gold.PLP.Chemscore.CHOScore>
0.0000

> <Gold.PLP.Chemscore.Metal>
0.0000

> <Gold.Chemscore.Hbonds>
donor molecule, donor type, donor heavy atom, donor atom, acceptor molecule, acceptor atom, score
      P1  H 10752 10765       L1     3  0.65

> <Gold.PLP.Chemscore.Internal.Correction>
0.0072

> <Gold.Rescore>
     Score         DG    S(hbond)    S(metal)    S(lipo)     H(rot)  DE(clash)    DE(int)     intcor
     15.64     -16.08       0.99        0.00     106.62       2.02       0.18       0.26       ----

> <Gold.Chemscore.Fitness>
15.6398

> <Gold.Chemscore.DG>
-16.0833

> <Gold.Chemscore.ZeroCoef>
-5.4800

> <Gold.Chemscore.Hbond>
0.9897

> <Gold.Chemscore.Metal>
0.0000

> <Gold.Chemscore.Lipo>
106.6242

> <Gold.Chemscore.Internal_Hbond>
0.0000

> <Gold.Chemscore.DEClash>
0.1823

> <Gold.Chemscore.DEInternal>
0.2612

> <Gold.Chemscore.Rot>
2.0224

> <Gold.Chemscore.Internal.Correction>
   9.000000E+99

> <Gold.Chemscore.Hbonds>
donor molecule, donor type, donor heavy atom, donor atom, acceptor molecule, acceptor atom, score
      P1  H 10752 10765       L1     3  0.06

> <Gold.Chemscore.Hbond.Weighted>
-3.3056

> <Gold.Chemscore.Metal.Weighted>
-0.0000

> <Gold.Chemscore.Lipo.Weighted>
-12.4750

> <Gold.Chemscore.Internal_Hbond.Weighted>
0.0000

> <Gold.Chemscore.DEClash.Weighted>
0.1823

> <Gold.Chemscore.DEInternal.Weighted>
0.2612

> <Gold.Chemscore.Rot.Weighted>
5.1773

> <Gold.Chemscore.Internal.Correction.Weighted>
   9.000000E+99

> <Gold.Protein.RotatedTorsions>
[ 6907 6896 6895 6894 ] final   22.04 input  -60.11 | X-H torsion
[ 7974 7965 7964 7962 ] final -110.40 input  175.53 | X-H torsion
[ 8008 7997 7996 7995 ] final   39.08 input   59.86 | X-H torsion
[ 10167 10162 10161 10158 ] final   34.43 input  -65.29 | X-H torsion
[ 10718 10713 10712 10709 ] final   46.91 input   66.30 | X-H torsion
[ 10763 10752 10751 10750 ] final -150.30 input  -60.55 | X-H torsion
[ 11005 11000 10999 10996 ] final   54.84 input  -57.11 | X-H torsion

> <Gold.Protein.ActiveResidues>
 VAL166  LYS551  ARG553  GLY616  TRP617  ASP618  TYR619  PRO620  LYS621  CYS622 
 ASP623  PHE694  ASN695  SER759  ASP760  ASP761  ALA762  ILE779  LEU786  VAL792 
 PHE793  MET794  SER795  GLU796  ALA797  LYS798  CYS799  TRP800  GLU811  SER814 

> <Gold.Protein.RotatedAtoms>
  151.9211  135.0298  160.0521 H   0  0  0  0  0  0  0  0  0  0  0  0  # atno 6907 bound_to 6896
  152.2198  133.4970  159.5165 H   0  0  0  0  0  0  0  0  0  0  0  0  # atno 6908 bound_to 6896
  150.6997  134.1273  159.4099 H   0  0  0  0  0  0  0  0  0  0  0  0  # atno 6909 bound_to 6896
  145.1687  140.8915  143.3548 H   0  0  0  0  0  0  0  0  0  0  0  0  # atno 7974 bound_to 7965
  155.2307  140.3338  155.4304 H   0  0  0  0  0  0  0  0  0  0  0  0  # atno 8008 bound_to 7997
  156.2296  140.1844  156.7322 H   0  0  0  0  0  0  0  0  0  0  0  0  # atno 8009 bound_to 7997
  154.5956  140.0631  156.9284 H   0  0  0  0  0  0  0  0  0  0  0  0  # atno 8010 bound_to 7997
  140.4316  144.1316  150.6160 H   0  0  0  0  0  0  0  0  0  0  0  0  # atno 10167 bound_to 10162
  157.4530  130.8150  149.7808 H   0  0  0  0  0  0  0  0  0  0  0  0  # atno 10718 bound_to 10713
  154.8127  135.3288  154.7262 H   0  0  0  0  0  0  0  0  0  0  0  0  # atno 10763 bound_to 10752
  153.7908  135.6911  153.4876 H   0  0  0  0  0  0  0  0  0  0  0  0  # atno 10764 bound_to 10752
  153.1918  135.4548  155.0105 H   0  0  0  0  0  0  0  0  0  0  0  0  # atno 10765 bound_to 10752
  140.0654  134.5544  155.9105 H   0  0  0  0  0  0  0  0  0  0  0  0  # atno 11005 bound_to 11000
  145.0255  139.3386  143.6051 LP  0  0  0  0  0  0  0  0  0  0  0  0  # atno 17320 bound_to 7965
  146.3472  139.9572  142.8721 LP  0  0  0  0  0  0  0  0  0  0  0  0  # atno 17321 bound_to 7965
  140.4421  143.2522  151.9460 LP  0  0  0  0  0  0  0  0  0  0  0  0  # atno 17342 bound_to 10162
  139.4785  144.5644  151.8187 LP  0  0  0  0  0  0  0  0  0  0  0  0  # atno 17343 bound_to 10162
  155.9995  130.3888  150.2661 LP  0  0  0  0  0  0  0  0  0  0  0  0  # atno 17370 bound_to 10713
  157.0834  131.0149  151.3148 LP  0  0  0  0  0  0  0  0  0  0  0  0  # atno 17371 bound_to 10713
  141.1990  133.6604  156.5823 LP  0  0  0  0  0  0  0  0  0  0  0  0  # atno 17394 bound_to 11000
  140.3707  134.7608  157.4596 LP  0  0  0  0  0  0  0  0  0  0  0  0  # atno 17395 bound_to 11000

$$$$
