AV-unprocessed.smi:2880|AV-procd|sdf|11052|dock9
  -GOLD-   2272015523D 1   1.00000     0.00000
 Structure written by MMmdl.
 47 48  0  0  0  0  0  0  0  0  1 V2000
  147.6820  136.8948  163.4066 C   0  0  0  0  0  0  0  0  0  0  0  0
  146.8927  135.9556  162.4727 C   0  0  0  0  0  0  0  0  0  0  0  0
  146.9956  134.5170  163.0340 C   0  0  0  0  0  0  0  0  0  0  0  0
  145.4108  136.3743  162.4495 C   0  0  0  0  0  0  0  0  0  0  0  0
  147.4353  136.0583  161.1109 N   0  0  0  0  0  0  0  0  0  0  0  0
  147.9361  135.0422  160.3135 C   0  0  0  0  0  0  0  0  0  0  0  0
  148.3646  135.5944  159.1400 C   0  0  0  0  0  0  0  0  0  0  0  0
  148.0977  136.9779  159.3165 C   0  0  0  0  0  0  0  0  0  0  0  0
  148.4118  137.9137  158.2981 N   0  0  0  0  0  0  0  0  0  0  0  0
  148.8760  137.6562  157.0633 C   0  0  0  0  0  0  0  0  0  0  0  0
  149.1191  136.5345  156.6168 O   0  0  0  0  0  0  0  0  0  0  0  0
  149.0532  138.7890  156.3669 N   0  0  0  0  0  0  0  0  0  0  0  0
  149.5299  138.8888  154.9850 C   0  0  1  0  0  0  0  0  0  0  0  0
  148.3331  138.8069  154.0159 C   0  0  0  0  0  0  0  0  0  0  0  0
  147.4467  140.0629  154.0780 C   0  0  0  0  0  0  0  0  0  0  0  0
  148.2705  141.3365  153.8391 C   0  0  0  0  0  0  0  0  0  0  0  0
  149.4514  141.4327  154.8182 C   0  0  0  0  0  0  0  0  0  0  0  0
  150.3551  140.1808  154.7447 C   0  0  1  0  0  0  0  0  0  0  0  0
  151.5777  140.2881  155.6797 C   0  0  0  0  0  0  0  0  0  0  0  0
  152.6698  139.5555  155.1639 O   0  0  0  0  0  0  0  0  0  0  0  0
  147.5562  137.2577  160.4922 N   0  0  0  0  0  0  0  0  0  0  0  0
  147.3180  136.8296  164.4326 H   0  0  0  0  0  0  0  0  0  0  0  0
  147.5972  137.9382  163.1020 H   0  0  0  0  0  0  0  0  0  0  0  0
  148.7424  136.6398  163.4184 H   0  0  0  0  0  0  0  0  0  0  0  0
  148.0292  134.1691  163.0582 H   0  0  0  0  0  0  0  0  0  0  0  0
  146.4183  133.8076  162.4393 H   0  0  0  0  0  0  0  0  0  0  0  0
  146.6128  134.4632  164.0536 H   0  0  0  0  0  0  0  0  0  0  0  0
  144.9642  136.3068  163.4419 H   0  0  0  0  0  0  0  0  0  0  0  0
  144.8301  135.7354  161.7833 H   0  0  0  0  0  0  0  0  0  0  0  0
  145.2897  137.4026  162.1070 H   0  0  0  0  0  0  0  0  0  0  0  0
  147.9482  134.0141  160.6437 H   0  0  0  0  0  0  0  0  0  0  0  0
  148.8039  135.0874  158.2937 H   0  0  0  0  0  0  0  0  0  0  0  0
  148.2661  138.8837  158.5354 H   0  0  0  0  0  0  0  0  0  0  0  0
  148.8287  139.6603  156.8242 H   0  0  0  0  0  0  0  0  0  0  0  0
  150.1724  138.0337  154.7679 H   0  0  0  0  0  0  0  0  0  0  0  0
  148.7058  138.6848  152.9979 H   0  0  0  0  0  0  0  0  0  0  0  0
  147.7367  137.9184  154.2266 H   0  0  0  0  0  0  0  0  0  0  0  0
  146.6506  139.9918  153.3362 H   0  0  0  0  0  0  0  0  0  0  0  0
  146.9548  140.1225  155.0495 H   0  0  0  0  0  0  0  0  0  0  0  0
  148.6457  141.3411  152.8150 H   0  0  0  0  0  0  0  0  0  0  0  0
  147.6327  142.2152  153.9381 H   0  0  0  0  0  0  0  0  0  0  0  0
  150.0294  142.3288  154.5905 H   0  0  0  0  0  0  0  0  0  0  0  0
  149.0751  141.5630  155.8336 H   0  0  0  0  0  0  0  0  0  0  0  0
  150.7401  140.1167  153.7253 H   0  0  0  0  0  0  0  0  0  0  0  0
  151.8786  141.3268  155.8189 H   0  0  0  0  0  0  0  0  0  0  0  0
  151.3374  139.8874  156.6650 H   0  0  0  0  0  0  0  0  0  0  0  0
  152.3965  138.6601  155.0352 H   0  0  0  0  0  0  0  0  0  0  0  0
  1  2  1  0  0  0  0
  1 22  1  0  0  0  0
  1 23  1  0  0  0  0
  1 24  1  0  0  0  0
  2  3  1  0  0  0  0
  2  4  1  0  0  0  0
  2  5  1  0  0  0  0
  3 25  1  0  0  0  0
  3 26  1  0  0  0  0
  3 27  1  0  0  0  0
  4 28  1  0  0  0  0
  4 29  1  0  0  0  0
  4 30  1  0  0  0  0
  5 21  1  0  0  0  0
  5  6  1  0  0  0  0
  6  7  2  0  0  0  0
  6 31  1  0  0  0  0
  7  8  1  0  0  0  0
  7 32  1  0  0  0  0
  8  9  1  0  0  0  0
  8 21  2  0  0  0  0
  9 10  1  0  0  0  0
  9 33  1  0  0  0  0
 10 11  2  0  0  0  0
 10 12  1  0  0  0  0
 12 13  1  0  0  0  0
 12 34  1  0  0  0  0
 13 18  1  0  0  0  0
 13 14  1  0  0  0  0
 13 35  1  0  0  0  0
 14 15  1  0  0  0  0
 14 36  1  0  0  0  0
 14 37  1  0  0  0  0
 15 16  1  0  0  0  0
 15 38  1  0  0  0  0
 15 39  1  0  0  0  0
 16 17  1  0  0  0  0
 16 40  1  0  0  0  0
 16 41  1  0  0  0  0
 17 18  1  0  0  0  0
 17 42  1  0  0  0  0
 17 43  1  0  0  0  0
 18 19  1  0  0  0  0
 18 44  1  0  0  0  0
 19 20  1  0  0  0  0
 19 45  1  0  0  0  0
 19 46  1  0  0  0  0
 20 47  1  0  0  0  0
M  END
> <s_m_source_file>
AV-unprocessed.smi

> <i_m_source_file_index>
2880

> <i_lp_mmshare_version>
43012

> <i_f3d_flags>
0

> <s_epik_input>
W0NIM11DKFtDSDNdKShbQ0gzXSluMVtjSF1bY0hdYyhuMSlbTkhdQyg9TylbTkhdW0NAQEhdMltDSDJdW0NIMl1bQ0gyXVtDSDJdW0NASF0yW0NIMl1bT0hd

> <s_epik_cmdline>
J2VwaWtfcHl0aG9uJywgJy1waCcsICc3LjAnLCAnLXRuJywgJzgnLCAnLW1hJywgJzIwMCcsICctbWV0YWxfYmluZGluZycsICctaW1hZScsICc8aW5maWxlLm1hZT4nLCAnLW9tYWUnLCAnPG91dGZpbGUubWFlPic=

> <r_lp_tautomer_probability>
1

> <r_epik_Ionization_Penalty>
3.89283e-05

> <r_epik_Ionization_Penalty_Charging>
0

> <r_epik_Ionization_Penalty_Neutral>
3.89283e-05

> <r_epik_State_Penalty>
-0

> <r_epik_Charging_Adjusted_Penalty>
0

> <i_epik_Tot_Q>
0

> <i_epik_Tot_abs_Q>
0

> <r_epik_Metal_State_Penalty>
-0

> <b_epik_Metal_Only>
0

> <s_lp_Force_Field>
OPLS_2005

> <r_lp_Energy>
20.5246

> <b_lp_Chiralities_Consistent>
1

> <s_lp_Variant>
AV-unprocessed.smi:2880-2

> <Gold.Version>
5.8.1

> <Gold.Id.Protein>
6NUR|6NUR_protein|mol2

> <Gold.PLP.Fitness>
41.8815

> <Gold.PLP.PLP>
-36.3321

> <Gold.PLP.part.hbond>
-3.7636

> <Gold.PLP.part.metal>
0.0000

> <Gold.PLP.part.buried>
1.2556

> <Gold.PLP.part.nonpolar>
-34.9657

> <Gold.PLP.part.repulsive>
0.1396

> <Gold.PLP.ligand.clash>
0.0000

> <Gold.PLP.ligand.torsion>
0.7532

> <Gold.PLP.Chemscore.Hbond>
2.3387

> <Gold.PLP.Chemscore.CHOScore>
0.0000

> <Gold.PLP.Chemscore.Metal>
0.0000

> <Gold.Chemscore.Hbonds>
donor molecule, donor type, donor heavy atom, donor atom, acceptor molecule, acceptor atom, score
      P1  H  6931  6943       L1    21  0.29
      P1  H  6934  6947       L1    21  0.99
      P1  H  7997  8009       L1    20  1.00

> <Gold.PLP.Chemscore.Internal.Correction>
0.0397

> <Gold.Rescore>
     Score         DG    S(hbond)    S(metal)    S(lipo)     H(rot)  DE(clash)    DE(int)     intcor
     15.39     -17.71       1.97        0.00      91.41       1.97       0.16       2.16       ----

> <Gold.Chemscore.Fitness>
15.3922

> <Gold.Chemscore.DG>
-17.7139

> <Gold.Chemscore.ZeroCoef>
-5.4800

> <Gold.Chemscore.Hbond>
1.9685

> <Gold.Chemscore.Metal>
0.0000

> <Gold.Chemscore.Lipo>
91.4103

> <Gold.Chemscore.Internal_Hbond>
0.0000

> <Gold.Chemscore.DEClash>
0.1574

> <Gold.Chemscore.DEInternal>
2.1642

> <Gold.Chemscore.Rot>
1.9672

> <Gold.Chemscore.Internal.Correction>
   9.000000E+99

> <Gold.Chemscore.Hbonds>
donor molecule, donor type, donor heavy atom, donor atom, acceptor molecule, acceptor atom, score
      P1  H  6931  6943       L1    21  0.06
      P1  H  6934  6947       L1    21  0.90
      P1  H  7997  8009       L1    20  0.74

> <Gold.Chemscore.Hbond.Weighted>
-6.5749

> <Gold.Chemscore.Metal.Weighted>
-0.0000

> <Gold.Chemscore.Lipo.Weighted>
-10.6950

> <Gold.Chemscore.Internal_Hbond.Weighted>
0.0000

> <Gold.Chemscore.DEClash.Weighted>
0.1574

> <Gold.Chemscore.DEInternal.Weighted>
2.1642

> <Gold.Chemscore.Rot.Weighted>
5.0360

> <Gold.Chemscore.Internal.Correction.Weighted>
   9.000000E+99

> <Gold.Protein.RotatedTorsions>
[ 6907 6896 6895 6894 ] final -168.10 input  -60.11 | X-H torsion
[ 7974 7965 7964 7962 ] final  -85.07 input  175.53 | X-H torsion
[ 8008 7997 7996 7995 ] final -142.94 input   59.86 | X-H torsion
[ 10167 10162 10161 10158 ] final   31.15 input  -65.29 | X-H torsion
[ 10718 10713 10712 10709 ] final  156.34 input   66.30 | X-H torsion
[ 10763 10752 10751 10750 ] final  140.20 input  -60.55 | X-H torsion
[ 11005 11000 10999 10996 ] final   51.14 input  -57.11 | X-H torsion

> <Gold.Protein.ActiveResidues>
 VAL166  LYS551  ARG553  GLY616  TRP617  ASP618  TYR619  PRO620  LYS621  CYS622 
 ASP623  PHE694  ASN695  SER759  ASP760  ASP761  ALA762  ILE779  LEU786  VAL792 
 PHE793  MET794  SER795  GLU796  ALA797  LYS798  CYS799  TRP800  GLU811  SER814 

> <Gold.Protein.RotatedAtoms>
  151.4702  133.3571  159.2822 H   0  0  0  0  0  0  0  0  0  0  0  0  # atno 6907 bound_to 6896
  150.8966  134.8376  159.7341 H   0  0  0  0  0  0  0  0  0  0  0  0  # atno 6908 bound_to 6896
  152.4855  134.4618  159.9659 H   0  0  0  0  0  0  0  0  0  0  0  0  # atno 6909 bound_to 6896
  145.4982  140.9549  143.1774 H   0  0  0  0  0  0  0  0  0  0  0  0  # atno 7974 bound_to 7965
  155.5025  140.0576  157.2937 H   0  0  0  0  0  0  0  0  0  0  0  0  # atno 8008 bound_to 7997
  154.4582  140.1983  156.0270 H   0  0  0  0  0  0  0  0  0  0  0  0  # atno 8009 bound_to 7997
  156.0839  140.3243  155.7733 H   0  0  0  0  0  0  0  0  0  0  0  0  # atno 8010 bound_to 7997
  140.4615  144.0900  150.6214 H   0  0  0  0  0  0  0  0  0  0  0  0  # atno 10167 bound_to 10162
  157.2063  131.0687  151.1996 H   0  0  0  0  0  0  0  0  0  0  0  0  # atno 10718 bound_to 10713
  153.9187  135.3003  155.3448 H   0  0  0  0  0  0  0  0  0  0  0  0  # atno 10763 bound_to 10752
  154.7586  135.4945  153.9425 H   0  0  0  0  0  0  0  0  0  0  0  0  # atno 10764 bound_to 10752
  153.1153  135.6769  153.9531 H   0  0  0  0  0  0  0  0  0  0  0  0  # atno 10765 bound_to 10752
  140.0958  134.5148  155.8808 H   0  0  0  0  0  0  0  0  0  0  0  0  # atno 11005 bound_to 11000
  144.7795  139.6557  143.7160 LP  0  0  0  0  0  0  0  0  0  0  0  0  # atno 17320 bound_to 7965
  146.2242  139.5692  142.9598 LP  0  0  0  0  0  0  0  0  0  0  0  0  # atno 17321 bound_to 7965
  140.4088  143.2667  151.9858 LP  0  0  0  0  0  0  0  0  0  0  0  0  # atno 17342 bound_to 10162
  139.4807  144.5933  151.7733 LP  0  0  0  0  0  0  0  0  0  0  0  0  # atno 17343 bound_to 10162
  157.3717  130.7185  149.6569 LP  0  0  0  0  0  0  0  0  0  0  0  0  # atno 17370 bound_to 10713
  155.9695  130.4197  150.4387 LP  0  0  0  0  0  0  0  0  0  0  0  0  # atno 17371 bound_to 10713
  141.2091  133.6681  156.6419 LP  0  0  0  0  0  0  0  0  0  0  0  0  # atno 17394 bound_to 11000
  140.3288  134.7946  157.4310 LP  0  0  0  0  0  0  0  0  0  0  0  0  # atno 17395 bound_to 11000

$$$$
