AV-unprocessed.smi:2662|AV-procd|sdf|10318|dock1
  -GOLD-   2272014333D 1   1.00000     0.00000
 Structure written by MMmdl.
 36 38  0  0  0  0  0  0  0  0  1 V2000
  153.4401  139.4376  154.8015 O   0  0  0  0  0  0  0  0  0  0  0  0
  152.3905  138.9858  155.6292 C   0  0  0  0  0  0  0  0  0  0  0  0
  151.1080  139.7308  155.4114 C   0  0  0  0  0  0  0  0  0  0  0  0
  150.4047  139.5952  154.2860 N   0  0  0  0  0  0  0  0  0  0  0  0
  149.3139  140.4122  154.5070 C   0  0  0  0  0  0  0  0  0  0  0  0
  148.1975  140.6952  153.6879 C   0  0  0  0  0  0  0  0  0  0  0  0
  147.1852  141.5685  154.1371 C   0  0  0  0  0  0  0  0  0  0  0  0
  147.2744  142.1694  155.4094 C   0  0  0  0  0  0  0  0  0  0  0  0
  148.3796  141.9031  156.2401 C   0  0  0  0  0  0  0  0  0  0  0  0
  149.3889  141.0326  155.7859 C   0  0  0  0  0  0  0  0  0  0  0  0
  150.5805  140.5725  156.3383 N   0  0  0  0  0  0  0  0  0  0  0  0
  151.1040  140.9306  157.6512 C   0  0  0  0  0  0  0  0  0  0  0  0
  150.8062  142.3945  158.0370 C   0  0  2  0  0  0  0  0  0  0  0  0
  151.1639  143.2587  156.9758 O   0  0  0  0  0  0  0  0  0  0  0  0
  151.4902  142.7657  159.3456 C   0  0  0  0  0  0  0  0  0  0  0  0
  152.3652  141.8538  159.9777 C   0  0  0  0  0  0  0  0  0  0  0  0
  152.9884  142.1914  161.1945 C   0  0  0  0  0  0  0  0  0  0  0  0
  153.8257  141.3117  161.7929 F   0  0  0  0  0  0  0  0  0  0  0  0
  152.7398  143.4428  161.7894 C   0  0  0  0  0  0  0  0  0  0  0  0
  151.8650  144.3542  161.1682 C   0  0  0  0  0  0  0  0  0  0  0  0
  151.2390  144.0177  159.9519 C   0  0  0  0  0  0  0  0  0  0  0  0
  150.3925  144.9035  159.3733 F   0  0  0  0  0  0  0  0  0  0  0  0
  153.1406  140.1961  154.3245 H   0  0  0  0  0  0  0  0  0  0  0  0
  152.2287  137.9259  155.4296 H   0  0  0  0  0  0  0  0  0  0  0  0
  152.6875  139.0607  156.6752 H   0  0  0  0  0  0  0  0  0  0  0  0
  148.1185  140.2374  152.7131 H   0  0  0  0  0  0  0  0  0  0  0  0
  146.3355  141.7764  153.5036 H   0  0  0  0  0  0  0  0  0  0  0  0
  146.4939  142.8352  155.7471 H   0  0  0  0  0  0  0  0  0  0  0  0
  148.4496  142.3624  157.2149 H   0  0  0  0  0  0  0  0  0  0  0  0
  150.6528  140.2574  158.3812 H   0  0  0  0  0  0  0  0  0  0  0  0
  152.1762  140.7426  157.6895 H   0  0  0  0  0  0  0  0  0  0  0  0
  149.7311  142.5167  158.1671 H   0  0  0  0  0  0  0  0  0  0  0  0
  150.3770  143.6499  156.6288 H   0  0  0  0  0  0  0  0  0  0  0  0
  152.5591  140.8886  159.5328 H   0  0  0  0  0  0  0  0  0  0  0  0
  153.2173  143.7024  162.7227 H   0  0  0  0  0  0  0  0  0  0  0  0
  151.6717  145.3128  161.6268 H   0  0  0  0  0  0  0  0  0  0  0  0
  1  2  1  0  0  0  0
  1 23  1  0  0  0  0
  2  3  1  0  0  0  0
  2 24  1  0  0  0  0
  2 25  1  0  0  0  0
  3 11  1  0  0  0  0
  3  4  2  0  0  0  0
  4  5  1  0  0  0  0
  5 10  2  0  0  0  0
  5  6  1  0  0  0  0
  6  7  2  0  0  0  0
  6 26  1  0  0  0  0
  7  8  1  0  0  0  0
  7 27  1  0  0  0  0
  8  9  2  0  0  0  0
  8 28  1  0  0  0  0
  9 10  1  0  0  0  0
  9 29  1  0  0  0  0
 10 11  1  0  0  0  0
 11 12  1  0  0  0  0
 12 13  1  0  0  0  0
 12 30  1  0  0  0  0
 12 31  1  0  0  0  0
 13 14  1  0  0  0  0
 13 15  1  0  0  0  0
 13 32  1  0  0  0  0
 14 33  1  0  0  0  0
 15 21  1  0  0  0  0
 15 16  2  0  0  0  0
 16 17  1  0  0  0  0
 16 34  1  0  0  0  0
 17 18  1  0  0  0  0
 17 19  2  0  0  0  0
 19 20  1  0  0  0  0
 19 35  1  0  0  0  0
 20 21  2  0  0  0  0
 20 36  1  0  0  0  0
 21 22  1  0  0  0  0
M  END
> <s_m_source_file>
AV-unprocessed.smi

> <i_m_source_file_index>
2662

> <i_lp_mmshare_version>
43012

> <i_f3d_flags>
0

> <s_epik_input>
W2NIXTFbY0hdW2NIXVtjSF1jKGMxMiluKGMobjIpW0NIMl1bT0hdKVtDSDJdW0NASF0oW09IXSljM1tjSF1jKEYpW2NIXVtjSF1jM0Y=

> <s_epik_cmdline>
J2VwaWtfcHl0aG9uJywgJy1waCcsICc3LjAnLCAnLXRuJywgJzgnLCAnLW1hJywgJzIwMCcsICctbWV0YWxfYmluZGluZycsICctaW1hZScsICc8aW5maWxlLm1hZT4nLCAnLW9tYWUnLCAnPG91dGZpbGUubWFlPic=

> <r_epik_Ionization_Penalty>
0.0634732

> <r_epik_Ionization_Penalty_Charging>
0

> <r_epik_Ionization_Penalty_Neutral>
0.0634732

> <r_epik_State_Penalty>
0.0551572

> <r_epik_Charging_Adjusted_Penalty>
0.0551572

> <i_epik_Tot_Q>
0

> <i_epik_Tot_abs_Q>
0

> <r_epik_Metal_State_Penalty>
5.78034e-05

> <b_epik_Metal_Only>
0

> <s_lp_Force_Field>
OPLS_2005

> <r_lp_Energy>
12.627

> <b_lp_Chiralities_Consistent>
1

> <s_lp_Variant>
AV-unprocessed.smi:2662-1

> <Gold.Version>
5.8.1

> <Gold.Id.Protein>
6NUR|6NUR_protein|mol2

> <Gold.PLP.Fitness>
56.3245

> <Gold.PLP.PLP>
-50.3834

> <Gold.PLP.part.hbond>
-4.0000

> <Gold.PLP.part.metal>
0.0000

> <Gold.PLP.part.buried>
-0.9666

> <Gold.PLP.part.nonpolar>
-45.4087

> <Gold.PLP.part.repulsive>
0.1517

> <Gold.PLP.ligand.clash>
0.0000

> <Gold.PLP.ligand.torsion>
0.5035

> <Gold.PLP.Chemscore.Hbond>
2.3000

> <Gold.PLP.Chemscore.CHOScore>
0.0000

> <Gold.PLP.Chemscore.Metal>
0.0000

> <Gold.Chemscore.Hbonds>
donor molecule, donor type, donor heavy atom, donor atom, acceptor molecule, acceptor atom, score
      L1  H    14    33       P1  8028  0.91
      P1  H  7989  7998       L1     4  0.35
      P1  H  7997  8009       L1     1  0.95

> <Gold.PLP.Chemscore.Internal.Correction>
0.0480

> <Gold.Rescore>
     Score         DG    S(hbond)    S(metal)    S(lipo)     H(rot)  DE(clash)    DE(int)     intcor
     14.53     -16.32       1.33        0.00     117.53       2.88       0.42       1.36       ----

> <Gold.Chemscore.Fitness>
14.5299

> <Gold.Chemscore.DG>
-16.3189

> <Gold.Chemscore.ZeroCoef>
-5.4800

> <Gold.Chemscore.Hbond>
1.3330

> <Gold.Chemscore.Metal>
0.0000

> <Gold.Chemscore.Lipo>
117.5316

> <Gold.Chemscore.Internal_Hbond>
0.0000

> <Gold.Chemscore.DEClash>
0.4240

> <Gold.Chemscore.DEInternal>
1.3650

> <Gold.Chemscore.Rot>
2.8767

> <Gold.Chemscore.Internal.Correction>
   9.000000E+99

> <Gold.Chemscore.Hbonds>
donor molecule, donor type, donor heavy atom, donor atom, acceptor molecule, acceptor atom, score
      L1  H    14    33       P1  8028  0.89
      P1  H  7997  8009       L1     1  0.10

> <Gold.Chemscore.Hbond.Weighted>
-4.4521

> <Gold.Chemscore.Metal.Weighted>
-0.0000

> <Gold.Chemscore.Lipo.Weighted>
-13.7512

> <Gold.Chemscore.Internal_Hbond.Weighted>
0.0000

> <Gold.Chemscore.DEClash.Weighted>
0.4240

> <Gold.Chemscore.DEInternal.Weighted>
1.3650

> <Gold.Chemscore.Rot.Weighted>
7.3644

> <Gold.Chemscore.Internal.Correction.Weighted>
   9.000000E+99

> <Gold.Protein.RotatedTorsions>
[ 6907 6896 6895 6894 ] final  -78.41 input  -60.11 | X-H torsion
[ 7974 7965 7964 7962 ] final  169.06 input  175.53 | X-H torsion
[ 8008 7997 7996 7995 ] final -132.93 input   59.86 | X-H torsion
[ 10167 10162 10161 10158 ] final  169.88 input  -65.29 | X-H torsion
[ 10718 10713 10712 10709 ] final -150.19 input   66.30 | X-H torsion
[ 10763 10752 10751 10750 ] final -145.49 input  -60.55 | X-H torsion
[ 11005 11000 10999 10996 ] final  -61.62 input  -57.11 | X-H torsion

> <Gold.Protein.ActiveResidues>
 VAL166  LYS551  ARG553  GLY616  TRP617  ASP618  TYR619  PRO620  LYS621  CYS622 
 ASP623  PHE694  ASN695  SER759  ASP760  ASP761  ALA762  ILE779  LEU786  VAL792 
 PHE793  MET794  SER795  GLU796  ALA797  LYS798  CYS799  TRP800  GLU811  SER814 

> <Gold.Protein.RotatedAtoms>
  150.6973  134.4276  159.5233 H   0  0  0  0  0  0  0  0  0  0  0  0  # atno 6907 bound_to 6896
  152.2008  134.8587  160.0517 H   0  0  0  0  0  0  0  0  0  0  0  0  # atno 6908 bound_to 6896
  151.9508  133.3630  159.4036 H   0  0  0  0  0  0  0  0  0  0  0  0  # atno 6909 bound_to 6896
  144.7367  139.8998  143.6408 H   0  0  0  0  0  0  0  0  0  0  0  0  # atno 7974 bound_to 7965
  155.3371  140.0470  157.3044 H   0  0  0  0  0  0  0  0  0  0  0  0  # atno 8008 bound_to 7997
  154.5297  140.2253  155.8791 H   0  0  0  0  0  0  0  0  0  0  0  0  # atno 8009 bound_to 7997
  156.1776  140.3081  155.9094 H   0  0  0  0  0  0  0  0  0  0  0  0  # atno 8010 bound_to 7997
  139.5004  144.3657  151.9778 H   0  0  0  0  0  0  0  0  0  0  0  0  # atno 10167 bound_to 10162
  156.4429  130.8130  151.2360 H   0  0  0  0  0  0  0  0  0  0  0  0  # atno 10718 bound_to 10713
  154.8381  135.3412  154.6512 H   0  0  0  0  0  0  0  0  0  0  0  0  # atno 10763 bound_to 10752
  153.7125  135.6963  153.5038 H   0  0  0  0  0  0  0  0  0  0  0  0  # atno 10764 bound_to 10752
  153.2441  135.4375  155.0682 H   0  0  0  0  0  0  0  0  0  0  0  0  # atno 10765 bound_to 10752
  141.1331  133.6632  156.5402 H   0  0  0  0  0  0  0  0  0  0  0  0  # atno 11005 bound_to 11000
  146.1080  139.4081  143.0305 LP  0  0  0  0  0  0  0  0  0  0  0  0  # atno 17320 bound_to 7965
  145.7484  140.9982  143.1263 LP  0  0  0  0  0  0  0  0  0  0  0  0  # atno 17321 bound_to 7965
  140.3093  144.3556  150.6038 LP  0  0  0  0  0  0  0  0  0  0  0  0  # atno 17342 bound_to 10162
  140.5811  143.2173  151.7426 LP  0  0  0  0  0  0  0  0  0  0  0  0  # atno 17343 bound_to 10162
  157.7505  131.0162  150.3537 LP  0  0  0  0  0  0  0  0  0  0  0  0  # atno 17370 bound_to 10713
  156.3898  130.3896  149.7038 LP  0  0  0  0  0  0  0  0  0  0  0  0  # atno 17371 bound_to 10713
  140.4145  134.7242  157.4855 LP  0  0  0  0  0  0  0  0  0  0  0  0  # atno 17394 bound_to 11000
  140.0403  134.6277  155.8989 LP  0  0  0  0  0  0  0  0  0  0  0  0  # atno 17395 bound_to 11000

$$$$
