AV-unprocessed.smi:2837|AV-procd|sdf|10925|dock8
  -GOLD-   2272015373D 1   1.00000     0.00000
 Structure written by MMmdl.
 33 35  0  0  0  0  0  0  0  0  2 V2000
  145.8835  133.2323  150.7560 F   0  0  0  0  0  0  0  0  0  0  0  0
  144.5437  133.3878  150.8820 C   0  0  0  0  0  0  0  0  0  0  0  0
  143.9753  132.1651  150.7437 F   0  0  0  0  0  0  0  0  0  0  0  0
  144.2555  133.9100  152.1040 O   0  0  0  0  0  0  0  0  0  0  0  0
  144.6384  135.1998  152.3933 C   0  0  0  0  0  0  0  0  0  0  0  0
  145.8579  135.3996  153.0729 C   0  0  0  0  0  0  0  0  0  0  0  0
  146.2767  136.7063  153.3971 C   0  0  0  0  0  0  0  0  0  0  0  0
  145.4591  137.8059  153.0439 C   0  0  0  0  0  0  0  0  0  0  0  0
  145.7692  139.1464  153.3122 N   0  0  0  0  0  0  0  0  0  0  0  0
  147.0013  139.5158  153.9995 C   0  0  1  0  0  0  0  0  0  0  0  0
  147.9127  140.4104  153.1556 C   0  0  0  0  0  0  0  0  0  0  0  0
  148.1577  141.5941  154.1021 C   0  0  1  0  0  0  0  0  0  0  0  0
  146.9283  142.5069  154.1917 C   0  0  0  0  0  0  0  0  0  0  0  0
  145.9676  141.6527  155.0164 C   0  0  0  0  0  0  0  0  0  0  0  0
  146.7991  140.3814  155.2598 C   0  0  2  0  0  0  0  0  0  0  0  0
  148.0930  140.9501  155.3639 O   0  0  0  0  0  0  0  0  0  0  0  0
  144.2927  137.5725  152.4028 N   0  3  0  0  0  0  0  0  0  0  0  0
  143.8579  136.3366  152.0729 C   0  0  0  0  0  0  0  0  0  0  0  0
  144.2067  134.0399  150.0758 H   0  0  0  0  0  0  0  0  0  0  0  0
  146.4726  134.5530  153.3419 H   0  0  0  0  0  0  0  0  0  0  0  0
  147.2169  136.8418  153.9101 H   0  0  0  0  0  0  0  0  0  0  0  0
  145.0566  139.8527  153.1977 H   0  0  0  0  0  0  0  0  0  0  0  0
  147.5559  138.6131  154.2584 H   0  0  0  0  0  0  0  0  0  0  0  0
  148.8459  139.8928  152.9306 H   0  0  0  0  0  0  0  0  0  0  0  0
  147.4683  140.7293  152.2116 H   0  0  0  0  0  0  0  0  0  0  0  0
  149.0906  142.1261  153.9142 H   0  0  0  0  0  0  0  0  0  0  0  0
  147.1677  143.4306  154.7200 H   0  0  0  0  0  0  0  0  0  0  0  0
  146.5301  142.7673  153.2105 H   0  0  0  0  0  0  0  0  0  0  0  0
  145.7409  142.1471  155.9615 H   0  0  0  0  0  0  0  0  0  0  0  0
  145.0242  141.4583  154.5060 H   0  0  0  0  0  0  0  0  0  0  0  0
  146.4925  139.8192  156.1419 H   0  0  0  0  0  0  0  0  0  0  0  0
  142.9016  136.3033  151.5712 H   0  0  0  0  0  0  0  0  0  0  0  0
  143.7060  138.3699  152.1561 H   0  0  0  0  0  0  0  0  0  0  0  0
  1  2  1  0  0  0  0
  2  3  1  0  0  0  0
  2  4  1  0  0  0  0
  2 19  1  0  0  0  0
  4  5  1  0  0  0  0
  5 18  1  0  0  0  0
  5  6  2  0  0  0  0
  6  7  1  0  0  0  0
  6 20  1  0  0  0  0
  7  8  2  0  0  0  0
  7 21  1  0  0  0  0
  8  9  1  0  0  0  0
  8 17  1  0  0  0  0
  9 10  1  0  0  0  0
  9 22  1  0  0  0  0
 10 15  1  0  0  0  0
 10 11  1  0  0  0  0
 10 23  1  0  0  0  0
 11 12  1  0  0  0  0
 11 24  1  0  0  0  0
 11 25  1  0  0  0  0
 12 16  1  0  0  0  0
 12 13  1  0  0  0  0
 12 26  1  0  0  0  0
 13 14  1  0  0  0  0
 13 27  1  0  0  0  0
 13 28  1  0  0  0  0
 14 15  1  0  0  0  0
 14 29  1  0  0  0  0
 14 30  1  0  0  0  0
 15 16  1  0  0  0  0
 15 31  1  0  0  0  0
 17 18  2  0  0  0  0
 17 33  1  0  0  0  0
 18 32  1  0  0  0  0
M  CHG  1  17   1
M  END
> <s_m_source_file>
AV-unprocessed.smi

> <i_m_source_file_index>
2837

> <i_lp_mmshare_version>
43012

> <i_f3d_flags>
0

> <s_epik_input>
RltDSF0oRilPYzFbY0hdW2NIXWMobltjSF0xKVtOSF1bQ0BIXShbQ0gyXVtDQEBIXTIzKVtDQEBIXShPMylbQ0gyXVtDSDJdMg==

> <s_epik_cmdline>
J2VwaWtfcHl0aG9uJywgJy1waCcsICc3LjAnLCAnLXRuJywgJzgnLCAnLW1hJywgJzIwMCcsICctbWV0YWxfYmluZGluZycsICctaW1hZScsICc8aW5maWxlLm1hZT4nLCAnLW9tYWUnLCAnPG91dGZpbGUubWFlPic=

> <r_lp_tautomer_probability>
0.999429

> <r_epik_Ionization_Penalty>
2.29716

> <r_epik_Ionization_Penalty_Charging>
2.29716

> <r_epik_Ionization_Penalty_Neutral>
1.42285e-06

> <r_epik_State_Penalty>
2.44762

> <r_epik_Charging_Adjusted_Penalty>
4.74478

> <i_epik_Tot_Q>
1

> <i_epik_Tot_abs_Q>
1

> <r_epik_Metal_State_Penalty>
6.53078

> <b_epik_Metal_Only>
0

> <s_lp_Force_Field>
OPLS_2005

> <r_lp_Energy>
46.8356

> <b_lp_Chiralities_Consistent>
1

> <s_lp_Variant>
AV-unprocessed.smi:2837-6

> <Gold.Version>
5.8.1

> <Gold.Id.Protein>
6NUR|6NUR_protein|mol2

> <Gold.PLP.Fitness>
37.2706

> <Gold.PLP.PLP>
-27.2420

> <Gold.PLP.part.hbond>
-3.0000

> <Gold.PLP.part.metal>
0.0000

> <Gold.PLP.part.buried>
1.0424

> <Gold.PLP.part.nonpolar>
-24.7625

> <Gold.PLP.part.repulsive>
0.2235

> <Gold.PLP.ligand.clash>
0.0000

> <Gold.PLP.ligand.torsion>
0.3917

> <Gold.PLP.Chemscore.Hbond>
3.6000

> <Gold.PLP.Chemscore.CHOScore>
0.0000

> <Gold.PLP.Chemscore.Metal>
0.0000

> <Gold.Chemscore.Hbonds>
donor molecule, donor type, donor heavy atom, donor atom, acceptor molecule, acceptor atom, score
      L1  H     9    22       P1 10175  2.00
      L1  H    17    33       P1 10175  1.40

> <Gold.PLP.Chemscore.Internal.Correction>
0.0119

> <Gold.Rescore>
     Score         DG    S(hbond)    S(metal)    S(lipo)     H(rot)  DE(clash)    DE(int)     intcor
     12.62     -13.64       1.75        0.00      49.15       1.34       0.59       0.43       ----

> <Gold.Chemscore.Fitness>
12.6221

> <Gold.Chemscore.DG>
-13.6439

> <Gold.Chemscore.ZeroCoef>
-5.4800

> <Gold.Chemscore.Hbond>
1.7471

> <Gold.Chemscore.Metal>
0.0000

> <Gold.Chemscore.Lipo>
49.1529

> <Gold.Chemscore.Internal_Hbond>
0.0000

> <Gold.Chemscore.DEClash>
0.5880

> <Gold.Chemscore.DEInternal>
0.4338

> <Gold.Chemscore.Rot>
1.3368

> <Gold.Chemscore.Internal.Correction>
   9.000000E+99

> <Gold.Chemscore.Hbonds>
donor molecule, donor type, donor heavy atom, donor atom, acceptor molecule, acceptor atom, score
      L1  H     9    22       P1 10175  0.97
      L1  H    17    33       P1 10175  0.68

> <Gold.Chemscore.Hbond.Weighted>
-5.8354

> <Gold.Chemscore.Metal.Weighted>
-0.0000

> <Gold.Chemscore.Lipo.Weighted>
-5.7509

> <Gold.Chemscore.Internal_Hbond.Weighted>
0.0000

> <Gold.Chemscore.DEClash.Weighted>
0.5880

> <Gold.Chemscore.DEInternal.Weighted>
0.4338

> <Gold.Chemscore.Rot.Weighted>
3.4223

> <Gold.Chemscore.Internal.Correction.Weighted>
   9.000000E+99

> <Gold.Protein.RotatedTorsions>
[ 6907 6896 6895 6894 ] final -100.60 input  -60.11 | X-H torsion
[ 7974 7965 7964 7962 ] final -136.22 input  175.53 | X-H torsion
[ 8008 7997 7996 7995 ] final   47.68 input   59.86 | X-H torsion
[ 10167 10162 10161 10158 ] final   48.72 input  -65.29 | X-H torsion
[ 10718 10713 10712 10709 ] final  145.42 input   66.30 | X-H torsion
[ 10763 10752 10751 10750 ] final -127.59 input  -60.55 | X-H torsion
[ 11005 11000 10999 10996 ] final  118.64 input  -57.11 | X-H torsion

> <Gold.Protein.ActiveResidues>
 VAL166  LYS551  ARG553  GLY616  TRP617  ASP618  TYR619  PRO620  LYS621  CYS622 
 ASP623  PHE694  ASN695  SER759  ASP760  ASP761  ALA762  ILE779  LEU786  VAL792 
 PHE793  MET794  SER795  GLU796  ALA797  LYS798  CYS799  TRP800  GLU811  SER814 

> <Gold.Protein.RotatedAtoms>
  150.7122  134.0862  159.3915 H   0  0  0  0  0  0  0  0  0  0  0  0  # atno 6907 bound_to 6896
  151.8847  135.0438  160.0501 H   0  0  0  0  0  0  0  0  0  0  0  0  # atno 6908 bound_to 6896
  152.2540  133.5204  159.5378 H   0  0  0  0  0  0  0  0  0  0  0  0  # atno 6909 bound_to 6896
  144.8946  140.6688  143.5124 H   0  0  0  0  0  0  0  0  0  0  0  0  # atno 7974 bound_to 7965
  155.3730  140.3424  155.4244 H   0  0  0  0  0  0  0  0  0  0  0  0  # atno 8008 bound_to 7997
  156.1652  140.1613  156.8577 H   0  0  0  0  0  0  0  0  0  0  0  0  # atno 8009 bound_to 7997
  154.5178  140.0774  156.8097 H   0  0  0  0  0  0  0  0  0  0  0  0  # atno 8010 bound_to 7997
  140.2903  144.3054  150.6242 H   0  0  0  0  0  0  0  0  0  0  0  0  # atno 10167 bound_to 10162
  157.3455  131.0942  151.1045 H   0  0  0  0  0  0  0  0  0  0  0  0  # atno 10718 bound_to 10713
  154.8753  135.3957  154.3619 H   0  0  0  0  0  0  0  0  0  0  0  0  # atno 10763 bound_to 10752
  153.4390  135.7026  153.6186 H   0  0  0  0  0  0  0  0  0  0  0  0  # atno 10764 bound_to 10752
  153.4775  135.3776  155.2394 H   0  0  0  0  0  0  0  0  0  0  0  0  # atno 10765 bound_to 10752
  139.9117  134.9622  156.7535 H   0  0  0  0  0  0  0  0  0  0  0  0  # atno 11005 bound_to 11000
  145.3723  139.1655  143.4325 LP  0  0  0  0  0  0  0  0  0  0  0  0  # atno 17320 bound_to 7965
  146.3073  140.3796  142.8682 LP  0  0  0  0  0  0  0  0  0  0  0  0  # atno 17321 bound_to 7965
  140.5738  143.2178  151.7552 LP  0  0  0  0  0  0  0  0  0  0  0  0  # atno 17342 bound_to 10162
  139.4940  144.4179  152.0010 LP  0  0  0  0  0  0  0  0  0  0  0  0  # atno 17343 bound_to 10162
  157.2241  130.6495  149.5823 LP  0  0  0  0  0  0  0  0  0  0  0  0  # atno 17370 bound_to 10713
  155.9714  130.4620  150.6129 LP  0  0  0  0  0  0  0  0  0  0  0  0  # atno 17371 bound_to 10713
  140.6755  133.9521  155.7880 LP  0  0  0  0  0  0  0  0  0  0  0  0  # atno 17394 bound_to 11000
  141.0547  134.0433  157.3737 LP  0  0  0  0  0  0  0  0  0  0  0  0  # atno 17395 bound_to 11000

$$$$
