AV-unprocessed.smi:1884|AV-procd|sdf|7646|dock5
  -GOLD-   22720 9373D 1   1.00000     0.00000
 Structure written by MMmdl.
 40 42  0  0  0  0  0  0  0  0  1 V2000
  151.7919  139.3218  155.0466 C   0  0  0  0  0  0  0  0  0  0  0  0
  151.9150  140.1407  156.2920 C   0  0  0  0  0  0  0  0  0  0  0  0
  152.6799  139.7655  157.3174 N   0  0  0  0  0  0  0  0  0  0  0  0
  152.4894  140.7878  158.2272 C   0  0  0  0  0  0  0  0  0  0  0  0
  153.0275  140.9790  159.5200 C   0  0  0  0  0  0  0  0  0  0  0  0
  152.6826  142.1187  160.2756 C   0  0  0  0  0  0  0  0  0  0  0  0
  151.7970  143.0821  159.7504 C   0  0  0  0  0  0  0  0  0  0  0  0
  151.2504  142.9118  158.4640 C   0  0  0  0  0  0  0  0  0  0  0  0
  151.5974  141.7719  157.7139 C   0  0  0  0  0  0  0  0  0  0  0  0
  151.2499  141.3117  156.4472 N   0  0  0  0  0  0  0  0  0  0  0  0
  150.3539  141.9650  155.5024 C   0  0  0  0  0  0  0  0  0  0  0  0
  149.3099  140.9999  154.9042 C   0  0  2  0  0  0  0  0  0  0  0  0
  149.2862  141.1268  153.4964 O   0  0  0  0  0  0  0  0  0  0  0  0
  147.8935  141.2647  155.4349 C   0  0  0  0  0  0  0  0  0  0  0  0
  147.0981  141.8077  154.3892 O   0  0  0  0  0  0  0  0  0  0  0  0
  146.1645  142.7688  154.7127 C   0  0  0  0  0  0  0  0  0  0  0  0
  145.6472  143.5415  153.6527 C   0  0  0  0  0  0  0  0  0  0  0  0
  144.6905  144.5469  153.8914 C   0  0  0  0  0  0  0  0  0  0  0  0
  144.2385  144.7924  155.2029 C   0  0  0  0  0  0  0  0  0  0  0  0
  143.2536  145.8312  155.4539 C   0  0  0  0  0  0  0  0  0  0  0  0
  142.4698  146.6585  155.6537 N   0  0  0  0  0  0  0  0  0  0  0  0
  144.7463  144.0264  156.2706 C   0  0  0  0  0  0  0  0  0  0  0  0
  145.7030  143.0211  156.0296 C   0  0  0  0  0  0  0  0  0  0  0  0
  152.4245  138.4355  155.1085 H   0  0  0  0  0  0  0  0  0  0  0  0
  152.1002  139.9021  154.1773 H   0  0  0  0  0  0  0  0  0  0  0  0
  150.7606  138.9970  154.9088 H   0  0  0  0  0  0  0  0  0  0  0  0
  153.7071  140.2472  159.9313 H   0  0  0  0  0  0  0  0  0  0  0  0
  153.0992  142.2544  161.2629 H   0  0  0  0  0  0  0  0  0  0  0  0
  151.5381  143.9522  160.3358 H   0  0  0  0  0  0  0  0  0  0  0  0
  150.5744  143.6498  158.0583 H   0  0  0  0  0  0  0  0  0  0  0  0
  149.8594  142.7959  156.0058 H   0  0  0  0  0  0  0  0  0  0  0  0
  150.9541  142.4109  154.7083 H   0  0  0  0  0  0  0  0  0  0  0  0
  149.5852  139.9700  155.1326 H   0  0  0  0  0  0  0  0  0  0  0  0
  149.5182  140.2926  153.1172 H   0  0  0  0  0  0  0  0  0  0  0  0
  147.4555  140.3390  155.8122 H   0  0  0  0  0  0  0  0  0  0  0  0
  147.9407  141.9780  156.2597 H   0  0  0  0  0  0  0  0  0  0  0  0
  145.9877  143.3609  152.6436 H   0  0  0  0  0  0  0  0  0  0  0  0
  144.3079  145.1263  153.0632 H   0  0  0  0  0  0  0  0  0  0  0  0
  144.4063  144.2051  157.2808 H   0  0  0  0  0  0  0  0  0  0  0  0
  146.0683  142.4579  156.8748 H   0  0  0  0  0  0  0  0  0  0  0  0
  1  2  1  0  0  0  0
  1 24  1  0  0  0  0
  1 25  1  0  0  0  0
  1 26  1  0  0  0  0
  2 10  1  0  0  0  0
  2  3  2  0  0  0  0
  3  4  1  0  0  0  0
  4  9  2  0  0  0  0
  4  5  1  0  0  0  0
  5  6  2  0  0  0  0
  5 27  1  0  0  0  0
  6  7  1  0  0  0  0
  6 28  1  0  0  0  0
  7  8  2  0  0  0  0
  7 29  1  0  0  0  0
  8  9  1  0  0  0  0
  8 30  1  0  0  0  0
  9 10  1  0  0  0  0
 10 11  1  0  0  0  0
 11 12  1  0  0  0  0
 11 31  1  0  0  0  0
 11 32  1  0  0  0  0
 12 13  1  0  0  0  0
 12 14  1  0  0  0  0
 12 33  1  0  0  0  0
 13 34  1  0  0  0  0
 14 15  1  0  0  0  0
 14 35  1  0  0  0  0
 14 36  1  0  0  0  0
 15 16  1  0  0  0  0
 16 23  1  0  0  0  0
 16 17  2  0  0  0  0
 17 18  1  0  0  0  0
 17 37  1  0  0  0  0
 18 19  2  0  0  0  0
 18 38  1  0  0  0  0
 19 20  1  0  0  0  0
 19 22  1  0  0  0  0
 20 21  3  0  0  0  0
 22 23  2  0  0  0  0
 22 39  1  0  0  0  0
 23 40  1  0  0  0  0
M  END
> <s_m_source_file>
AV-unprocessed.smi

> <i_m_source_file_index>
1884

> <i_lp_mmshare_version>
43012

> <i_f3d_flags>
0

> <s_epik_input>
W2NIXTFbY0hdW2NIXVtjSF1jKGMxMiluKGMobjIpW0NIM10pW0NIMl1bQ0BIXShbT0hdKVtDSDJdT2MzW2NIXVtjSF1jKEMjTilbY0hdW2NIXTM=

> <s_epik_cmdline>
J2VwaWtfcHl0aG9uJywgJy1waCcsICc3LjAnLCAnLXRuJywgJzgnLCAnLW1hJywgJzIwMCcsICctbWV0YWxfYmluZGluZycsICctaW1hZScsICc8aW5maWxlLm1hZT4nLCAnLW9tYWUnLCAnPG91dGZpbGUubWFlPic=

> <r_epik_Ionization_Penalty>
0.110799

> <r_epik_Ionization_Penalty_Charging>
0

> <r_epik_Ionization_Penalty_Neutral>
0.110799

> <r_epik_State_Penalty>
0.100537

> <r_epik_Charging_Adjusted_Penalty>
0.100537

> <i_epik_Tot_Q>
0

> <i_epik_Tot_abs_Q>
0

> <r_epik_Metal_State_Penalty>
0.000109561

> <b_epik_Metal_Only>
0

> <s_lp_Force_Field>
OPLS_2005

> <r_lp_Energy>
14.1942

> <b_lp_Chiralities_Consistent>
1

> <s_lp_Variant>
AV-unprocessed.smi:1884-1

> <Gold.Version>
5.8.1

> <Gold.Id.Protein>
6NUR|6NUR_protein|mol2

> <Gold.PLP.Fitness>
50.3807

> <Gold.PLP.PLP>
-48.6364

> <Gold.PLP.part.hbond>
-4.0000

> <Gold.PLP.part.metal>
0.0000

> <Gold.PLP.part.buried>
-6.4148

> <Gold.PLP.part.nonpolar>
-37.9682

> <Gold.PLP.part.repulsive>
0.1466

> <Gold.PLP.ligand.clash>
1.6280

> <Gold.PLP.ligand.torsion>
1.9813

> <Gold.PLP.Chemscore.Hbond>
2.4000

> <Gold.PLP.Chemscore.CHOScore>
0.0000

> <Gold.PLP.Chemscore.Metal>
0.0000

> <Gold.Chemscore.Hbonds>
donor molecule, donor type, donor heavy atom, donor atom, acceptor molecule, acceptor atom, score
      L1  H    13    34       P1  7957  0.43
      P1  H  7997  8009       L1     3  1.00
      P1  H  8011  8017       L1    13  1.00

> <Gold.PLP.Chemscore.Internal.Correction>
0.1349

> <Gold.Rescore>
     Score         DG    S(hbond)    S(metal)    S(lipo)     H(rot)  DE(clash)    DE(int)     intcor
     14.25     -17.57       1.39        0.00     114.15       2.31       0.38       2.94       ----

> <Gold.Chemscore.Fitness>
14.2534

> <Gold.Chemscore.DG>
-17.5700

> <Gold.Chemscore.ZeroCoef>
-5.4800

> <Gold.Chemscore.Hbond>
1.3919

> <Gold.Chemscore.Metal>
0.0000

> <Gold.Chemscore.Lipo>
114.1468

> <Gold.Chemscore.Internal_Hbond>
0.0000

> <Gold.Chemscore.DEClash>
0.3781

> <Gold.Chemscore.DEInternal>
2.9385

> <Gold.Chemscore.Rot>
2.3102

> <Gold.Chemscore.Internal.Correction>
   9.000000E+99

> <Gold.Chemscore.Hbonds>
donor molecule, donor type, donor heavy atom, donor atom, acceptor molecule, acceptor atom, score
      L1  H    13    34       P1  7957  0.41
      P1  H  7997  8009       L1     3  0.14
      P1  H  8011  8017       L1    13  0.58

> <Gold.Chemscore.Hbond.Weighted>
-4.6490

> <Gold.Chemscore.Metal.Weighted>
-0.0000

> <Gold.Chemscore.Lipo.Weighted>
-13.3552

> <Gold.Chemscore.Internal_Hbond.Weighted>
0.0000

> <Gold.Chemscore.DEClash.Weighted>
0.3781

> <Gold.Chemscore.DEInternal.Weighted>
2.9385

> <Gold.Chemscore.Rot.Weighted>
5.9141

> <Gold.Chemscore.Internal.Correction.Weighted>
   9.000000E+99

> <Gold.Protein.RotatedTorsions>
[ 6907 6896 6895 6894 ] final  -47.82 input  -60.11 | X-H torsion
[ 7974 7965 7964 7962 ] final -129.70 input  175.53 | X-H torsion
[ 8008 7997 7996 7995 ] final  179.54 input   59.86 | X-H torsion
[ 10167 10162 10161 10158 ] final -131.80 input  -65.29 | X-H torsion
[ 10718 10713 10712 10709 ] final  -12.52 input   66.30 | X-H torsion
[ 10763 10752 10751 10750 ] final  -67.81 input  -60.55 | X-H torsion
[ 11005 11000 10999 10996 ] final  108.72 input  -57.11 | X-H torsion

> <Gold.Protein.ActiveResidues>
 VAL166  LYS551  ARG553  GLY616  TRP617  ASP618  TYR619  PRO620  LYS621  CYS622 
 ASP623  PHE694  ASN695  SER759  ASP760  ASP761  ALA762  ILE779  LEU786  VAL792 
 PHE793  MET794  SER795  GLU796  ALA797  LYS798  CYS799  TRP800  GLU811  SER814 

> <Gold.Protein.RotatedAtoms>
  150.8968  134.8377  159.7332 H   0  0  0  0  0  0  0  0  0  0  0  0  # atno 6907 bound_to 6896
  152.4869  134.4563  159.9600 H   0  0  0  0  0  0  0  0  0  0  0  0  # atno 6908 bound_to 6896
  151.4619  133.3551  159.2846 H   0  0  0  0  0  0  0  0  0  0  0  0  # atno 6909 bound_to 6896
  144.9547  140.7382  143.4766 H   0  0  0  0  0  0  0  0  0  0  0  0  # atno 7974 bound_to 7965
  156.0423  140.1306  157.0142 H   0  0  0  0  0  0  0  0  0  0  0  0  # atno 8008 bound_to 7997
  154.4396  140.1028  156.6325 H   0  0  0  0  0  0  0  0  0  0  0  0  # atno 8009 bound_to 7997
  155.5649  140.3465  155.4502 H   0  0  0  0  0  0  0  0  0  0  0  0  # atno 8010 bound_to 7997
  139.9152  143.6447  152.2566 H   0  0  0  0  0  0  0  0  0  0  0  0  # atno 10167 bound_to 10162
  156.6434  130.4934  149.6087 H   0  0  0  0  0  0  0  0  0  0  0  0  # atno 10718 bound_to 10713
  154.3800  135.6076  153.5785 H   0  0  0  0  0  0  0  0  0  0  0  0  # atno 10763 bound_to 10752
  152.9788  135.5858  154.4422 H   0  0  0  0  0  0  0  0  0  0  0  0  # atno 10764 bound_to 10752
  154.4189  135.2845  155.1966 H   0  0  0  0  0  0  0  0  0  0  0  0  # atno 10765 bound_to 10752
  139.8849  134.9438  156.6015 H   0  0  0  0  0  0  0  0  0  0  0  0  # atno 11005 bound_to 11000
  145.2791  139.1925  143.4801 LP  0  0  0  0  0  0  0  0  0  0  0  0  # atno 17320 bound_to 7965
  146.3333  140.2750  142.8607 LP  0  0  0  0  0  0  0  0  0  0  0  0  # atno 17321 bound_to 7965
  139.6908  144.7647  151.1442 LP  0  0  0  0  0  0  0  0  0  0  0  0  # atno 17342 bound_to 10162
  140.7676  143.5591  150.9118 LP  0  0  0  0  0  0  0  0  0  0  0  0  # atno 17343 bound_to 10162
  156.2141  130.6697  151.1300 LP  0  0  0  0  0  0  0  0  0  0  0  0  # atno 17370 bound_to 10713
  157.7164  131.0707  150.6311 LP  0  0  0  0  0  0  0  0  0  0  0  0  # atno 17371 bound_to 10713
  140.7880  133.8605  155.8622 LP  0  0  0  0  0  0  0  0  0  0  0  0  # atno 17394 bound_to 11000
  140.9702  134.1541  157.4582 LP  0  0  0  0  0  0  0  0  0  0  0  0  # atno 17395 bound_to 11000

$$$$
