AV-unprocessed.smi:3199|AV-procd|sdf|12232|dock5
  -GOLD-   2272018 63D 1   1.00000     0.00000
 Structure written by MMmdl.
 35 36  0  0  0  0  0  0  0  0  1 V2000
  152.9940  142.8733  163.0238 C   0  0  0  0  0  0  0  0  0  0  0  0
  152.6383  143.0303  161.5602 C   0  0  0  0  0  0  0  0  0  0  0  0
  152.9924  142.0411  160.6184 C   0  0  0  0  0  0  0  0  0  0  0  0
  152.6338  142.2388  159.2713 C   0  0  0  0  0  0  0  0  0  0  0  0
  151.9382  143.4132  158.9183 C   0  0  0  0  0  0  0  0  0  0  0  0
  151.5216  143.6691  157.4834 C   0  0  0  0  0  0  0  0  0  0  0  0
  151.2852  142.3647  156.7106 C   0  0  0  0  0  0  0  0  0  0  0  0
  150.0467  142.4369  155.9487 N   0  0  0  0  0  0  0  0  0  0  0  0
  149.6312  141.4982  155.0862 C   0  0  0  0  0  0  0  0  0  0  0  0
  150.2631  140.4658  154.8583 O   0  0  0  0  0  0  0  0  0  0  0  0
  148.2921  141.7635  154.3887 C   0  0  1  0  0  0  0  0  0  0  0  0
  147.7864  140.6018  153.5107 C   0  0  0  0  0  0  0  0  0  0  0  0
  146.5150  140.1474  154.2037 C   0  0  0  0  0  0  0  0  0  0  0  0
  146.0716  141.4130  154.9237 C   0  0  0  0  0  0  0  0  0  0  0  0
  147.2971  141.9504  155.3921 O   0  0  0  0  0  0  0  0  0  0  0  0
  151.6320  144.3402  159.9370 C   0  0  0  0  0  0  0  0  0  0  0  0
  151.9721  144.1591  161.2313 N   0  0  0  0  0  0  0  0  0  0  0  0
  153.4982  141.9243  163.2090 H   0  0  0  0  0  0  0  0  0  0  0  0
  152.0938  142.9051  163.6384 H   0  0  0  0  0  0  0  0  0  0  0  0
  153.6567  143.6788  163.3411 H   0  0  0  0  0  0  0  0  0  0  0  0
  153.5249  141.1504  160.9181 H   0  0  0  0  0  0  0  0  0  0  0  0
  152.8869  141.5002  158.5250 H   0  0  0  0  0  0  0  0  0  0  0  0
  150.6151  144.2764  157.4808 H   0  0  0  0  0  0  0  0  0  0  0  0
  152.2924  144.2633  156.9905 H   0  0  0  0  0  0  0  0  0  0  0  0
  152.1146  142.1767  156.0269 H   0  0  0  0  0  0  0  0  0  0  0  0
  151.2396  141.5233  157.4042 H   0  0  0  0  0  0  0  0  0  0  0  0
  149.4660  143.2516  156.0862 H   0  0  0  0  0  0  0  0  0  0  0  0
  148.3562  142.6713  153.7862 H   0  0  0  0  0  0  0  0  0  0  0  0
  147.5550  140.9722  152.5113 H   0  0  0  0  0  0  0  0  0  0  0  0
  148.4975  139.7828  153.3941 H   0  0  0  0  0  0  0  0  0  0  0  0
  145.7640  139.7636  153.5126 H   0  0  0  0  0  0  0  0  0  0  0  0
  146.7438  139.3673  154.9309 H   0  0  0  0  0  0  0  0  0  0  0  0
  145.6019  142.1142  154.2320 H   0  0  0  0  0  0  0  0  0  0  0  0
  145.3796  141.2143  155.7423 H   0  0  0  0  0  0  0  0  0  0  0  0
  151.0969  145.2506  159.7091 H   0  0  0  0  0  0  0  0  0  0  0  0
  1  2  1  0  0  0  0
  1 18  1  0  0  0  0
  1 19  1  0  0  0  0
  1 20  1  0  0  0  0
  2 17  1  0  0  0  0
  2  3  2  0  0  0  0
  3  4  1  0  0  0  0
  3 21  1  0  0  0  0
  4  5  2  0  0  0  0
  4 22  1  0  0  0  0
  5  6  1  0  0  0  0
  5 16  1  0  0  0  0
  6  7  1  0  0  0  0
  6 23  1  0  0  0  0
  6 24  1  0  0  0  0
  7  8  1  0  0  0  0
  7 25  1  0  0  0  0
  7 26  1  0  0  0  0
  8  9  1  0  0  0  0
  8 27  1  0  0  0  0
  9 10  2  0  0  0  0
  9 11  1  0  0  0  0
 11 15  1  0  0  0  0
 11 12  1  0  0  0  0
 11 28  1  0  0  0  0
 12 13  1  0  0  0  0
 12 29  1  0  0  0  0
 12 30  1  0  0  0  0
 13 14  1  0  0  0  0
 13 31  1  0  0  0  0
 13 32  1  0  0  0  0
 14 15  1  0  0  0  0
 14 33  1  0  0  0  0
 14 34  1  0  0  0  0
 16 17  2  0  0  0  0
 16 35  1  0  0  0  0
M  END
> <s_m_source_file>
AV-unprocessed.smi

> <i_m_source_file_index>
3199

> <i_lp_mmshare_version>
43012

> <i_f3d_flags>
0

> <s_epik_input>
W0NIM11jMVtjSF1bY0hdYyhbY0hdbjEpW0NIMl1bQ0gyXVtOSF1DKD1PKVtDQEBIXTJbQ0gyXVtDSDJdW0NIMl1PMg==

> <s_epik_cmdline>
J2VwaWtfcHl0aG9uJywgJy1waCcsICc3LjAnLCAnLXRuJywgJzgnLCAnLW1hJywgJzIwMCcsICctbWV0YWxfYmluZGluZycsICctaW1hZScsICc8aW5maWxlLm1hZT4nLCAnLW9tYWUnLCAnPG91dGZpbGUubWFlPic=

> <r_epik_Ionization_Penalty>
0.0519155

> <r_epik_Ionization_Penalty_Charging>
0

> <r_epik_Ionization_Penalty_Neutral>
0.0519155

> <r_epik_State_Penalty>
0.0445047

> <r_epik_Charging_Adjusted_Penalty>
0.0445047

> <i_epik_Tot_Q>
0

> <i_epik_Tot_abs_Q>
0

> <r_epik_Metal_State_Penalty>
0.0408967

> <b_epik_Metal_Only>
0

> <s_lp_Force_Field>
OPLS_2005

> <r_lp_Energy>
16.9644

> <b_lp_Chiralities_Consistent>
1

> <s_lp_Variant>
AV-unprocessed.smi:3199-2

> <Gold.Version>
5.8.1

> <Gold.Id.Protein>
6NUR|6NUR_protein|mol2

> <Gold.PLP.Fitness>
45.9568

> <Gold.PLP.PLP>
-41.4693

> <Gold.PLP.part.hbond>
-2.0000

> <Gold.PLP.part.metal>
0.0000

> <Gold.PLP.part.buried>
-4.4637

> <Gold.PLP.part.nonpolar>
-35.3543

> <Gold.PLP.part.repulsive>
0.5052

> <Gold.PLP.ligand.clash>
0.0000

> <Gold.PLP.ligand.torsion>
0.7524

> <Gold.PLP.Chemscore.Hbond>
1.9920

> <Gold.PLP.Chemscore.CHOScore>
0.0000

> <Gold.PLP.Chemscore.Metal>
0.0000

> <Gold.Chemscore.Hbonds>
donor molecule, donor type, donor heavy atom, donor atom, acceptor molecule, acceptor atom, score
      L1  H     8    27       P1  8028  1.00
      P1  H  7989  7998       L1    10  0.99

> <Gold.PLP.Chemscore.Internal.Correction>
0.0163

> <Gold.Rescore>
     Score         DG    S(hbond)    S(metal)    S(lipo)     H(rot)  DE(clash)    DE(int)     intcor
     19.34     -20.44       1.71        0.00     111.64       1.49       0.38       0.72       ----

> <Gold.Chemscore.Fitness>
19.3358

> <Gold.Chemscore.DG>
-20.4389

> <Gold.Chemscore.ZeroCoef>
-5.4800

> <Gold.Chemscore.Hbond>
1.7068

> <Gold.Chemscore.Metal>
0.0000

> <Gold.Chemscore.Lipo>
111.6432

> <Gold.Chemscore.Internal_Hbond>
0.0000

> <Gold.Chemscore.DEClash>
0.3821

> <Gold.Chemscore.DEInternal>
0.7210

> <Gold.Chemscore.Rot>
1.4859

> <Gold.Chemscore.Internal.Correction>
   9.000000E+99

> <Gold.Chemscore.Hbonds>
donor molecule, donor type, donor heavy atom, donor atom, acceptor molecule, acceptor atom, score
      L1  H     8    27       P1  8028  0.96
      P1  H  7989  7998       L1    10  0.60

> <Gold.Chemscore.Hbond.Weighted>
-5.7006

> <Gold.Chemscore.Metal.Weighted>
-0.0000

> <Gold.Chemscore.Lipo.Weighted>
-13.0623

> <Gold.Chemscore.Internal_Hbond.Weighted>
0.0000

> <Gold.Chemscore.DEClash.Weighted>
0.3821

> <Gold.Chemscore.DEInternal.Weighted>
0.7210

> <Gold.Chemscore.Rot.Weighted>
3.8039

> <Gold.Chemscore.Internal.Correction.Weighted>
   9.000000E+99

> <Gold.Protein.RotatedTorsions>
[ 6907 6896 6895 6894 ] final   37.81 input  -60.11 | X-H torsion
[ 7974 7965 7964 7962 ] final   47.05 input  175.53 | X-H torsion
[ 8008 7997 7996 7995 ] final   85.10 input   59.86 | X-H torsion
[ 10167 10162 10161 10158 ] final  -19.63 input  -65.29 | X-H torsion
[ 10718 10713 10712 10709 ] final  -43.58 input   66.30 | X-H torsion
[ 10763 10752 10751 10750 ] final   63.74 input  -60.55 | X-H torsion
[ 11005 11000 10999 10996 ] final -106.22 input  -57.11 | X-H torsion

> <Gold.Protein.ActiveResidues>
 VAL166  LYS551  ARG553  GLY616  TRP617  ASP618  TYR619  PRO620  LYS621  CYS622 
 ASP623  PHE694  ASN695  SER759  ASP760  ASP761  ALA762  ILE779  LEU786  VAL792 
 PHE793  MET794  SER795  GLU796  ALA797  LYS798  CYS799  TRP800  GLU811  SER814 

> <Gold.Protein.RotatedAtoms>
  152.1481  134.9010  160.0549 H   0  0  0  0  0  0  0  0  0  0  0  0  # atno 6907 bound_to 6896
  152.0052  133.3835  159.4206 H   0  0  0  0  0  0  0  0  0  0  0  0  # atno 6908 bound_to 6896
  150.6872  134.3712  159.5036 H   0  0  0  0  0  0  0  0  0  0  0  0  # atno 6909 bound_to 6896
  146.0333  139.4790  142.9824 H   0  0  0  0  0  0  0  0  0  0  0  0  # atno 7974 bound_to 7965
  155.9457  140.3404  155.6365 H   0  0  0  0  0  0  0  0  0  0  0  0  # atno 8008 bound_to 7997
  155.6983  140.0757  157.2439 H   0  0  0  0  0  0  0  0  0  0  0  0  # atno 8009 bound_to 7997
  154.4111  140.1644  156.2150 H   0  0  0  0  0  0  0  0  0  0  0  0  # atno 8010 bound_to 7997
  140.7270  143.4800  151.0130 H   0  0  0  0  0  0  0  0  0  0  0  0  # atno 10167 bound_to 10162
  156.2475  130.4185  149.8688 H   0  0  0  0  0  0  0  0  0  0  0  0  # atno 10718 bound_to 10713
  153.0029  135.5418  154.6400 H   0  0  0  0  0  0  0  0  0  0  0  0  # atno 10763 bound_to 10752
  154.5657  135.2837  155.0878 H   0  0  0  0  0  0  0  0  0  0  0  0  # atno 10764 bound_to 10752
  154.2063  135.6475  153.5154 H   0  0  0  0  0  0  0  0  0  0  0  0  # atno 10765 bound_to 10752
  141.1015  133.8875  157.1829 H   0  0  0  0  0  0  0  0  0  0  0  0  # atno 11005 bound_to 11000
  145.7005  141.0137  143.1507 LP  0  0  0  0  0  0  0  0  0  0  0  0  # atno 17320 bound_to 7965
  144.7040  139.8638  143.7435 LP  0  0  0  0  0  0  0  0  0  0  0  0  # atno 17321 bound_to 7965
  139.8498  143.7453  152.3178 LP  0  0  0  0  0  0  0  0  0  0  0  0  # atno 17342 bound_to 10162
  139.7631  144.7500  151.0334 LP  0  0  0  0  0  0  0  0  0  0  0  0  # atno 17343 bound_to 10162
  156.6248  130.8641  151.3483 LP  0  0  0  0  0  0  0  0  0  0  0  0  # atno 17370 bound_to 10713
  157.7201  130.9547  150.1405 LP  0  0  0  0  0  0  0  0  0  0  0  0  # atno 17371 bound_to 10713
  139.9869  135.0079  156.9883 LP  0  0  0  0  0  0  0  0  0  0  0  0  # atno 17394 bound_to 11000
  140.5009  134.1098  155.7250 LP  0  0  0  0  0  0  0  0  0  0  0  0  # atno 17395 bound_to 11000

$$$$
