AV-unprocessed.smi:54|AV-procd|sdf|554|dock10
  -GOLD-   2262016453D 1   1.00000     0.00000
 Structure written by MMmdl.
 43 45  0  0  0  0  0  0  0  0  2 V2000
  152.7339  144.0349  159.2586 C   0  0  0  0  0  0  0  0  0  0  0  0
  152.4079  142.7812  160.0868 C   0  0  0  0  0  0  0  0  0  0  0  0
  153.1264  142.8081  161.4461 C   0  0  0  0  0  0  0  0  0  0  0  0
  152.7637  141.5080  159.3057 C   0  0  0  0  0  0  0  0  0  0  0  0
  153.7901  140.8915  159.5999 O   0  0  0  0  0  0  0  0  0  0  0  0
  151.8973  141.1732  158.3239 N   0  0  0  0  0  0  0  0  0  0  0  0
  151.9417  140.0942  157.4331 C   0  0  0  0  0  0  0  0  0  0  0  0
  150.7633  139.7750  156.9552 N   0  0  0  0  0  0  0  0  0  0  0  0
  150.8124  138.6940  156.0955 C   0  0  0  0  0  0  0  0  0  0  0  0
  151.9123  137.9739  155.7189 C   0  0  0  0  0  0  0  0  0  0  0  0
  151.5774  136.9697  154.8194 N   0  0  0  0  0  0  0  0  0  0  0  0
  150.2615  137.1351  154.6947 C   0  0  0  0  0  0  0  0  0  0  0  0
  149.7249  138.1253  155.4398 N   0  0  0  0  0  0  0  0  0  0  0  0
  148.2945  138.5810  155.5004 C   0  0  1  0  0  0  0  0  0  0  0  0
  148.2496  139.9670  155.3564 O   0  0  0  0  0  0  0  0  0  0  0  0
  148.1739  140.2926  153.9743 C   0  0  2  0  0  0  0  0  0  0  0  0
  147.6323  141.7197  153.8001 C   0  0  0  0  0  0  0  0  0  0  0  0
  148.6337  142.6611  154.1218 O   0  0  0  0  0  0  0  0  0  0  0  0
  147.2341  139.2108  153.4285 C   0  0  1  0  0  0  0  0  0  0  0  0
  147.5706  138.9148  152.0878 O   0  0  0  0  0  0  0  0  0  0  0  0
  147.4881  137.9974  154.3258 C   0  0  2  0  0  0  0  0  0  0  0  0
  146.2674  137.4417  154.7705 O   0  0  0  0  0  0  0  0  0  0  0  0
  153.2121  138.3825  156.3013 C   0  0  0  0  0  0  0  0  0  0  0  0
  154.2279  137.7621  155.9930 O   0  0  0  0  0  0  0  0  0  0  0  0
  153.1628  139.4461  157.1579 N   0  5  0  0  0  0  0  0  0  0  0  0
  147.9596  138.2634  156.4886 H   0  0  0  0  0  0  0  0  0  0  0  0
  149.1605  140.1932  153.5175 H   0  0  0  0  0  0  0  0  0  0  0  0
  146.1952  139.5385  153.4937 H   0  0  0  0  0  0  0  0  0  0  0  0
  148.0638  137.2240  153.8148 H   0  0  0  0  0  0  0  0  0  0  0  0
  152.2260  144.0150  158.2935 H   0  0  0  0  0  0  0  0  0  0  0  0
  153.8044  144.1248  159.0698 H   0  0  0  0  0  0  0  0  0  0  0  0
  152.4137  144.9385  159.7779 H   0  0  0  0  0  0  0  0  0  0  0  0
  151.3337  142.7783  160.2794 H   0  0  0  0  0  0  0  0  0  0  0  0
  152.9072  141.9121  162.0284 H   0  0  0  0  0  0  0  0  0  0  0  0
  152.8086  143.6675  162.0372 H   0  0  0  0  0  0  0  0  0  0  0  0
  154.2090  142.8719  161.3275 H   0  0  0  0  0  0  0  0  0  0  0  0
  151.1445  141.8308  158.1842 H   0  0  0  0  0  0  0  0  0  0  0  0
  149.6735  136.5132  154.0362 H   0  0  0  0  0  0  0  0  0  0  0  0
  147.3482  141.8882  152.7609 H   0  0  0  0  0  0  0  0  0  0  0  0
  146.7438  141.8854  154.4099 H   0  0  0  0  0  0  0  0  0  0  0  0
  149.3280  142.2153  154.5827 H   0  0  0  0  0  0  0  0  0  0  0  0
  147.9259  138.0395  152.0550 H   0  0  0  0  0  0  0  0  0  0  0  0
  145.5772  138.0650  154.6047 H   0  0  0  0  0  0  0  0  0  0  0  0
  1  2  1  0  0  0  0
  1 30  1  0  0  0  0
  1 31  1  0  0  0  0
  1 32  1  0  0  0  0
  2  3  1  0  0  0  0
  2  4  1  0  0  0  0
  2 33  1  0  0  0  0
  3 34  1  0  0  0  0
  3 35  1  0  0  0  0
  3 36  1  0  0  0  0
  4  5  2  0  0  0  0
  4  6  1  0  0  0  0
  6 37  1  0  0  0  0
  6  7  1  0  0  0  0
  7 25  1  0  0  0  0
  7  8  2  0  0  0  0
  8  9  1  0  0  0  0
  9 13  1  0  0  0  0
  9 10  2  0  0  0  0
 10 11  1  0  0  0  0
 10 23  1  0  0  0  0
 11 12  2  0  0  0  0
 12 13  1  0  0  0  0
 12 38  1  0  0  0  0
 13 14  1  0  0  0  0
 14 26  1  0  0  0  0
 14 21  1  0  0  0  0
 14 15  1  0  0  0  0
 15 16  1  0  0  0  0
 16 27  1  0  0  0  0
 16 17  1  0  0  0  0
 16 19  1  0  0  0  0
 17 18  1  0  0  0  0
 17 39  1  0  0  0  0
 17 40  1  0  0  0  0
 18 41  1  0  0  0  0
 19 28  1  0  0  0  0
 19 20  1  0  0  0  0
 19 21  1  0  0  0  0
 20 42  1  0  0  0  0
 21 29  1  0  0  0  0
 21 22  1  0  0  0  0
 22 43  1  0  0  0  0
 23 24  2  0  0  0  0
 23 25  1  0  0  0  0
M  CHG  1  25  -1
M  END
> <s_m_source_file>
AV-unprocessed.smi

> <i_m_source_file_index>
54

> <i_lp_mmshare_version>
43012

> <i_f3d_flags>
0

> <s_epik_input>
W0NIM11bQ0hdKFtDSDNdKUMoPU8pW05IXWMobjEpW25IXWMoPU8pYyhjMTIpbltjSF1uMltDQEBIXTNPW0NASF0oW0NIMl1bT0hdKVtDQEBIXShbT0hdKVtDQEhdM1tPSF0=

> <s_epik_cmdline>
J2VwaWtfcHl0aG9uJywgJy1waCcsICc3LjAnLCAnLXRuJywgJzgnLCAnLW1hJywgJzIwMCcsICctbWV0YWxfYmluZGluZycsICctaW1hZScsICc8aW5maWxlLm1hZT4nLCAnLW9tYWUnLCAnPG91dGZpbGUubWFlPic=

> <r_lp_tautomer_probability>
0.85571

> <r_epik_Ionization_Penalty>
1.75936

> <r_epik_Ionization_Penalty_Charging>
4.55893e-11

> <r_epik_Ionization_Penalty_Neutral>
1.75936

> <r_epik_State_Penalty>
1.72072

> <r_epik_Charging_Adjusted_Penalty>
1.72072

> <i_epik_Tot_Q>
-1

> <i_epik_Tot_abs_Q>
1

> <r_epik_Metal_State_Penalty>
0.400338

> <b_epik_Metal_Only>
1

> <s_epik_Chemistry_Notes>
This compound contains an acetal/aminal-like group ( X-CH(R)-Y where X, Y are N, S, or O) that may be acid/base labile, releasing an aldehyde.

> <s_lp_Force_Field>
OPLS_2005

> <r_lp_Energy>
54.6298

> <b_lp_Chiralities_Consistent>
1

> <s_lp_Variant>
AV-unprocessed.smi:54-26

> <Gold.Version>
5.8.1

> <Gold.Id.Protein>
6NUR|6NUR_protein|mol2

> <Gold.PLP.Fitness>
52.8257

> <Gold.PLP.PLP>
-37.8403

> <Gold.PLP.part.hbond>
-8.0091

> <Gold.PLP.part.metal>
0.0000

> <Gold.PLP.part.buried>
-1.9426

> <Gold.PLP.part.nonpolar>
-25.8465

> <Gold.PLP.part.repulsive>
0.2628

> <Gold.PLP.ligand.clash>
0.0000

> <Gold.PLP.ligand.torsion>
1.0349

> <Gold.PLP.Chemscore.Hbond>
4.6645

> <Gold.PLP.Chemscore.CHOScore>
1.0000

> <Gold.PLP.Chemscore.Metal>
0.0000

> <Gold.Chemscore.Hbonds>
donor molecule, donor type, donor heavy atom, donor atom, acceptor molecule, acceptor atom, score
      L1  H    20    42       P1  7948  0.93
      P1  H  7997  8009       L1    25  1.89
      P1  H  8011  8017       L1    18  0.02
      P1  H  8022  8030       L1    18  0.68
      P1  H 10752 10763       L1    11  1.00
      L1  C    12    38       P1  7948  1.00

> <Gold.PLP.Chemscore.Internal.Correction>
0.0618

> <Gold.Rescore>
     Score         DG    S(hbond)    S(metal)    S(lipo)     H(rot)  DE(clash)    DE(int)     intcor
      9.14     -12.87       2.99        0.00      65.82       4.02       0.30       3.42       ----

> <Gold.Chemscore.Fitness>
9.1449

> <Gold.Chemscore.DG>
-12.8718

> <Gold.Chemscore.ZeroCoef>
-5.4800

> <Gold.Chemscore.Hbond>
2.9880

> <Gold.Chemscore.Metal>
0.0000

> <Gold.Chemscore.Lipo>
65.8225

> <Gold.Chemscore.Internal_Hbond>
0.0000

> <Gold.Chemscore.DEClash>
0.3037

> <Gold.Chemscore.DEInternal>
3.4232

> <Gold.Chemscore.Rot>
4.0192

> <Gold.Chemscore.Internal.Correction>
   9.000000E+99

> <Gold.Chemscore.Hbonds>
donor molecule, donor type, donor heavy atom, donor atom, acceptor molecule, acceptor atom, score
      L1  H    20    42       P1  7948  0.89
      P1  H  7997  8009       L1    25  0.30
      P1  H  8022  8030       L1    18  0.67
      P1  H 10752 10763       L1    11  0.94

> <Gold.Chemscore.Hbond.Weighted>
-9.9798

> <Gold.Chemscore.Metal.Weighted>
-0.0000

> <Gold.Chemscore.Lipo.Weighted>
-7.7012

> <Gold.Chemscore.Internal_Hbond.Weighted>
0.0000

> <Gold.Chemscore.DEClash.Weighted>
0.3037

> <Gold.Chemscore.DEInternal.Weighted>
3.4232

> <Gold.Chemscore.Rot.Weighted>
10.2893

> <Gold.Chemscore.Internal.Correction.Weighted>
   9.000000E+99

> <Gold.Protein.RotatedTorsions>
[ 6907 6896 6895 6894 ] final -124.23 input  -60.11 | X-H torsion
[ 7974 7965 7964 7962 ] final -137.25 input  175.53 | X-H torsion
[ 8008 7997 7996 7995 ] final  152.86 input   59.86 | X-H torsion
[ 10167 10162 10161 10158 ] final -147.97 input  -65.29 | X-H torsion
[ 10718 10713 10712 10709 ] final  131.81 input   66.30 | X-H torsion
[ 10763 10752 10751 10750 ] final   43.71 input  -60.55 | X-H torsion
[ 11005 11000 10999 10996 ] final   12.69 input  -57.11 | X-H torsion

> <Gold.Protein.ActiveResidues>
 VAL166  LYS551  ARG553  GLY616  TRP617  ASP618  TYR619  PRO620  LYS621  CYS622 
 ASP623  PHE694  ASN695  SER759  ASP760  ASP761  ALA762  ILE779  LEU786  VAL792 
 PHE793  MET794  SER795  GLU796  ALA797  LYS798  CYS799  TRP800  GLU811  SER814 

> <Gold.Protein.RotatedAtoms>
  150.8748  133.7455  159.2949 H   0  0  0  0  0  0  0  0  0  0  0  0  # atno 6907 bound_to 6896
  151.5055  135.1062  159.9850 H   0  0  0  0  0  0  0  0  0  0  0  0  # atno 6908 bound_to 6896
  152.4720  133.8006  159.7006 H   0  0  0  0  0  0  0  0  0  0  0  0  # atno 6909 bound_to 6896
  144.8857  140.6572  143.5177 H   0  0  0  0  0  0  0  0  0  0  0  0  # atno 7974 bound_to 7965
  156.2609  140.2009  156.6400 H   0  0  0  0  0  0  0  0  0  0  0  0  # atno 8008 bound_to 7997
  154.6616  140.0560  157.0093 H   0  0  0  0  0  0  0  0  0  0  0  0  # atno 8009 bound_to 7997
  155.1267  140.3230  155.4487 H   0  0  0  0  0  0  0  0  0  0  0  0  # atno 8010 bound_to 7997
  139.7574  143.8428  152.2600 H   0  0  0  0  0  0  0  0  0  0  0  0  # atno 10167 bound_to 10162
  157.4932  131.1091  150.9529 H   0  0  0  0  0  0  0  0  0  0  0  0  # atno 10718 bound_to 10713
  152.9855  135.6093  154.3155 H   0  0  0  0  0  0  0  0  0  0  0  0  # atno 10763 bound_to 10752
  154.2868  135.2775  155.2674 H   0  0  0  0  0  0  0  0  0  0  0  0  # atno 10764 bound_to 10752
  154.4988  135.5872  153.6572 H   0  0  0  0  0  0  0  0  0  0  0  0  # atno 10765 bound_to 10752
  140.4891  134.0858  155.7767 H   0  0  0  0  0  0  0  0  0  0  0  0  # atno 11005 bound_to 11000
  145.3873  139.1624  143.4248 LP  0  0  0  0  0  0  0  0  0  0  0  0  # atno 17320 bound_to 7965
  146.3023  140.3959  142.8699 LP  0  0  0  0  0  0  0  0  0  0  0  0  # atno 17321 bound_to 7965
  139.8424  144.7203  150.9314 LP  0  0  0  0  0  0  0  0  0  0  0  0  # atno 17342 bound_to 10162
  140.7804  143.3971  151.1211 LP  0  0  0  0  0  0  0  0  0  0  0  0  # atno 17343 bound_to 10162
  157.0223  130.5679  149.5333 LP  0  0  0  0  0  0  0  0  0  0  0  0  # atno 17370 bound_to 10713
  156.0185  130.5280  150.8206 LP  0  0  0  0  0  0  0  0  0  0  0  0  # atno 17371 bound_to 10713
  141.1493  133.8998  157.2138 LP  0  0  0  0  0  0  0  0  0  0  0  0  # atno 17394 bound_to 11000
  139.9780  135.0107  156.9679 LP  0  0  0  0  0  0  0  0  0  0  0  0  # atno 17395 bound_to 11000

$$$$
