AV-unprocessed.smi:2762|AV-procd|sdf|10636|dock8
  -GOLD-   2272015 83D 1   1.00000     0.00000
 Structure written by MMmdl.
 39 40  0  0  0  0  0  0  0  0  1 V2000
  150.8467  140.7669  156.3344 O   0  0  0  0  0  0  0  0  0  0  0  0
  150.2262  141.8018  156.0886 C   0  0  0  0  0  0  0  0  0  0  0  0
  149.2461  141.8798  155.1765 N   0  0  0  0  0  0  0  0  0  0  0  0
  148.7379  140.7631  154.3857 C   0  0  0  0  0  0  0  0  0  0  0  0
  148.5381  139.5019  155.2494 C   0  0  0  0  0  0  0  0  0  0  0  0
  149.3109  138.3284  154.8422 N   0  0  0  0  0  0  0  0  0  0  0  0
  149.2981  137.2682  155.8480 C   0  0  0  0  0  0  0  0  0  0  0  0
  150.1220  136.0485  155.4011 C   0  0  0  0  0  0  0  0  0  0  0  0
  151.4556  136.4533  155.1082 O   0  0  0  0  0  0  0  0  0  0  0  0
  151.5147  137.4589  154.1018 C   0  0  0  0  0  0  0  0  0  0  0  0
  150.6944  138.6820  154.5465 C   0  0  0  0  0  0  0  0  0  0  0  0
  150.4296  142.9894  156.6856 N   0  0  0  0  0  0  0  0  0  0  0  0
  151.3265  143.2974  157.7431 C   0  0  0  0  0  0  0  0  0  0  0  0
  151.8550  142.1777  158.4239 C   0  0  0  0  0  0  0  0  0  0  0  0
  152.7640  142.3711  159.4874 C   0  0  0  0  0  0  0  0  0  0  0  0
  153.3521  141.1955  160.2519 C   0  0  0  0  0  0  0  0  0  0  0  0
  154.6615  141.1052  160.0171 F   0  0  0  0  0  0  0  0  0  0  0  0
  153.1615  141.3812  161.5575 F   0  0  0  0  0  0  0  0  0  0  0  0
  152.7820  140.0438  159.8956 F   0  0  0  0  0  0  0  0  0  0  0  0
  153.1080  143.6913  159.8398 C   0  0  0  0  0  0  0  0  0  0  0  0
  152.5359  144.7492  159.1107 C   0  0  0  0  0  0  0  0  0  0  0  0
  151.6722  144.5612  158.0921 N   0  0  0  0  0  0  0  0  0  0  0  0
  148.7954  142.7724  155.0394 H   0  0  0  0  0  0  0  0  0  0  0  0
  147.7724  141.0686  153.9823 H   0  0  0  0  0  0  0  0  0  0  0  0
  149.3691  140.5679  153.5181 H   0  0  0  0  0  0  0  0  0  0  0  0
  148.7974  139.7607  156.2770 H   0  0  0  0  0  0  0  0  0  0  0  0
  147.4776  139.2465  155.2687 H   0  0  0  0  0  0  0  0  0  0  0  0
  149.6957  137.6469  156.7907 H   0  0  0  0  0  0  0  0  0  0  0  0
  148.2781  136.9441  156.0486 H   0  0  0  0  0  0  0  0  0  0  0  0
  150.1422  135.2949  156.1884 H   0  0  0  0  0  0  0  0  0  0  0  0
  149.6739  135.5822  154.5222 H   0  0  0  0  0  0  0  0  0  0  0  0
  152.5553  137.7388  153.9376 H   0  0  0  0  0  0  0  0  0  0  0  0
  151.1360  137.0621  153.1586 H   0  0  0  0  0  0  0  0  0  0  0  0
  150.7236  139.4384  153.7616 H   0  0  0  0  0  0  0  0  0  0  0  0
  151.1592  139.1279  155.4272 H   0  0  0  0  0  0  0  0  0  0  0  0
  149.8577  143.7560  156.3640 H   0  0  0  0  0  0  0  0  0  0  0  0
  151.5634  141.1795  158.1314 H   0  0  0  0  0  0  0  0  0  0  0  0
  153.7937  143.8901  160.6501 H   0  0  0  0  0  0  0  0  0  0  0  0
  152.7777  145.7738  159.3517 H   0  0  0  0  0  0  0  0  0  0  0  0
  1  2  2  0  0  0  0
  2  3  1  0  0  0  0
  2 12  1  0  0  0  0
  3  4  1  0  0  0  0
  3 23  1  0  0  0  0
  4  5  1  0  0  0  0
  4 24  1  0  0  0  0
  4 25  1  0  0  0  0
  5  6  1  0  0  0  0
  5 26  1  0  0  0  0
  5 27  1  0  0  0  0
  6 11  1  0  0  0  0
  6  7  1  0  0  0  0
  7  8  1  0  0  0  0
  7 28  1  0  0  0  0
  7 29  1  0  0  0  0
  8  9  1  0  0  0  0
  8 30  1  0  0  0  0
  8 31  1  0  0  0  0
  9 10  1  0  0  0  0
 10 11  1  0  0  0  0
 10 32  1  0  0  0  0
 10 33  1  0  0  0  0
 11 34  1  0  0  0  0
 11 35  1  0  0  0  0
 12 13  1  0  0  0  0
 12 36  1  0  0  0  0
 13 22  1  0  0  0  0
 13 14  2  0  0  0  0
 14 15  1  0  0  0  0
 14 37  1  0  0  0  0
 15 16  1  0  0  0  0
 15 20  2  0  0  0  0
 16 17  1  0  0  0  0
 16 18  1  0  0  0  0
 16 19  1  0  0  0  0
 20 21  1  0  0  0  0
 20 38  1  0  0  0  0
 21 22  2  0  0  0  0
 21 39  1  0  0  0  0
M  END
> <s_m_source_file>
AV-unprocessed.smi

> <i_m_source_file_index>
2762

> <i_lp_mmshare_version>
43012

> <i_f3d_flags>
0

> <s_epik_input>
bjFbY0hdW2NIXWMoQyhGKShGKUYpW2NIXWMxW05IXUMoPU8pW05IXVtDSDJdW0NIMl1OMltDSDJdW0NIMl1PW0NIMl1bQ0gyXTI=

> <s_epik_cmdline>
J2VwaWtfcHl0aG9uJywgJy1waCcsICc3LjAnLCAnLXRuJywgJzgnLCAnLW1hJywgJzIwMCcsICctbWV0YWxfYmluZGluZycsICctaW1hZScsICc8aW5maWxlLm1hZT4nLCAnLW9tYWUnLCAnPG91dGZpbGUubWFlPic=

> <r_epik_Ionization_Penalty>
0.266026

> <r_epik_Ionization_Penalty_Charging>
0

> <r_epik_Ionization_Penalty_Neutral>
0.266026

> <r_epik_State_Penalty>
0.257924

> <r_epik_Charging_Adjusted_Penalty>
0.257924

> <i_epik_Tot_Q>
0

> <i_epik_Tot_abs_Q>
0

> <r_epik_Metal_State_Penalty>
0.257924

> <b_epik_Metal_Only>
0

> <s_lp_Force_Field>
OPLS_2005

> <r_lp_Energy>
26.9092

> <b_lp_Chiralities_Consistent>
1

> <s_lp_Variant>
AV-unprocessed.smi:2762-1

> <Gold.Version>
5.8.1

> <Gold.Id.Protein>
6NUR|6NUR_protein|mol2

> <Gold.PLP.Fitness>
47.9723

> <Gold.PLP.PLP>
-42.2568

> <Gold.PLP.part.hbond>
-2.9716

> <Gold.PLP.part.metal>
0.0000

> <Gold.PLP.part.buried>
-5.8175

> <Gold.PLP.part.nonpolar>
-35.3256

> <Gold.PLP.part.repulsive>
0.6685

> <Gold.PLP.ligand.clash>
1.2502

> <Gold.PLP.ligand.torsion>
0.7953

> <Gold.PLP.Chemscore.Hbond>
2.8247

> <Gold.PLP.Chemscore.CHOScore>
0.0000

> <Gold.PLP.Chemscore.Metal>
0.0000

> <Gold.Chemscore.Hbonds>
donor molecule, donor type, donor heavy atom, donor atom, acceptor molecule, acceptor atom, score
      L1  H     3    23       P1  8028  0.84
      L1  H    12    36       P1  8028  1.00
      P1  H 10752 10765       L1     9  0.90

> <Gold.PLP.Chemscore.Internal.Correction>
0.0822

> <Gold.Rescore>
     Score         DG    S(hbond)    S(metal)    S(lipo)     H(rot)  DE(clash)    DE(int)     intcor
     16.07     -21.32       2.85        0.00      89.75       1.63       0.13       5.12       ----

> <Gold.Chemscore.Fitness>
16.0663

> <Gold.Chemscore.DG>
-21.3227

> <Gold.Chemscore.ZeroCoef>
-5.4800

> <Gold.Chemscore.Hbond>
2.8459

> <Gold.Chemscore.Metal>
0.0000

> <Gold.Chemscore.Lipo>
89.7541

> <Gold.Chemscore.Internal_Hbond>
0.0000

> <Gold.Chemscore.DEClash>
0.1337

> <Gold.Chemscore.DEInternal>
5.1227

> <Gold.Chemscore.Rot>
1.6265

> <Gold.Chemscore.Internal.Correction>
   9.000000E+99

> <Gold.Chemscore.Hbonds>
donor molecule, donor type, donor heavy atom, donor atom, acceptor molecule, acceptor atom, score
      L1  H     3    23       P1  8028  0.77
      L1  H    12    36       P1  8028  0.93
      P1  H 10752 10765       L1     9  0.18

> <Gold.Chemscore.Hbond.Weighted>
-9.5053

> <Gold.Chemscore.Metal.Weighted>
-0.0000

> <Gold.Chemscore.Lipo.Weighted>
-10.5012

> <Gold.Chemscore.Internal_Hbond.Weighted>
0.0000

> <Gold.Chemscore.DEClash.Weighted>
0.1337

> <Gold.Chemscore.DEInternal.Weighted>
5.1227

> <Gold.Chemscore.Rot.Weighted>
4.1638

> <Gold.Chemscore.Internal.Correction.Weighted>
   9.000000E+99

> <Gold.Protein.RotatedTorsions>
[ 6907 6896 6895 6894 ] final   73.64 input  -60.11 | X-H torsion
[ 7974 7965 7964 7962 ] final  -59.60 input  175.53 | X-H torsion
[ 8008 7997 7996 7995 ] final  -97.64 input   59.86 | X-H torsion
[ 10167 10162 10161 10158 ] final   -4.69 input  -65.29 | X-H torsion
[ 10718 10713 10712 10709 ] final  174.10 input   66.30 | X-H torsion
[ 10763 10752 10751 10750 ] final -174.80 input  -60.55 | X-H torsion
[ 11005 11000 10999 10996 ] final  -95.45 input  -57.11 | X-H torsion

> <Gold.Protein.ActiveResidues>
 VAL166  LYS551  ARG553  GLY616  TRP617  ASP618  TYR619  PRO620  LYS621  CYS622 
 ASP623  PHE694  ASN695  SER759  ASP760  ASP761  ALA762  ILE779  LEU786  VAL792 
 PHE793  MET794  SER795  GLU796  ALA797  LYS798  CYS799  TRP800  GLU811  SER814 

> <Gold.Protein.RotatedAtoms>
  152.4934  134.4391  159.9537 H   0  0  0  0  0  0  0  0  0  0  0  0  # atno 6907 bound_to 6896
  151.4374  133.3647  159.2785 H   0  0  0  0  0  0  0  0  0  0  0  0  # atno 6908 bound_to 6896
  150.9111  134.8551  159.7486 H   0  0  0  0  0  0  0  0  0  0  0  0  # atno 6909 bound_to 6896
  145.8255  140.8513  143.0110 H   0  0  0  0  0  0  0  0  0  0  0  0  # atno 7974 bound_to 7965
  154.7905  140.0461  157.1197 H   0  0  0  0  0  0  0  0  0  0  0  0  # atno 8008 bound_to 7997
  154.9597  140.3076  155.5017 H   0  0  0  0  0  0  0  0  0  0  0  0  # atno 8009 bound_to 7997
  156.2949  140.2273  156.4681 H   0  0  0  0  0  0  0  0  0  0  0  0  # atno 8010 bound_to 7997
  140.6937  143.6394  150.8449 H   0  0  0  0  0  0  0  0  0  0  0  0  # atno 10167 bound_to 10162
  156.9545  131.0041  151.2941 H   0  0  0  0  0  0  0  0  0  0  0  0  # atno 10718 bound_to 10713
  154.5920  135.2846  155.0625 H   0  0  0  0  0  0  0  0  0  0  0  0  # atno 10763 bound_to 10752
  154.1922  135.6438  153.5067 H   0  0  0  0  0  0  0  0  0  0  0  0  # atno 10764 bound_to 10752
  153.0125  135.5449  154.6609 H   0  0  0  0  0  0  0  0  0  0  0  0  # atno 10765 bound_to 10752
  141.1441  133.8027  157.0437 H   0  0  0  0  0  0  0  0  0  0  0  0  # atno 11005 bound_to 11000
  144.6744  140.0596  143.7476 LP  0  0  0  0  0  0  0  0  0  0  0  0  # atno 17320 bound_to 7965
  145.9628  139.2813  143.1145 LP  0  0  0  0  0  0  0  0  0  0  0  0  # atno 17321 bound_to 7965
  140.0109  143.5643  152.2839 LP  0  0  0  0  0  0  0  0  0  0  0  0  # atno 17342 bound_to 10162
  139.6367  144.7650  151.2424 LP  0  0  0  0  0  0  0  0  0  0  0  0  # atno 17343 bound_to 10162
  157.5699  130.8303  149.8378 LP  0  0  0  0  0  0  0  0  0  0  0  0  # atno 17370 bound_to 10713
  156.0348  130.3754  150.1589 LP  0  0  0  0  0  0  0  0  0  0  0  0  # atno 17371 bound_to 10713
  140.0676  134.9720  157.1412 LP  0  0  0  0  0  0  0  0  0  0  0  0  # atno 17394 bound_to 11000
  140.3757  134.2342  155.7174 LP  0  0  0  0  0  0  0  0  0  0  0  0  # atno 17395 bound_to 11000

$$$$
