AV-unprocessed.smi:112|AV-procd|sdf|1086|dock2
  -GOLD-   2262018183D 1   1.00000     0.00000
 Structure written by MMmdl.
 54 57  0  0  0  0  0  0  0  0  3 V2000
  148.6892  136.0762  156.0249 C   0  0  0  0  0  0  0  0  0  0  0  0
  148.8881  134.6319  155.5941 C   0  0  0  0  0  0  0  0  0  0  0  0
  148.4027  134.1571  154.4245 C   0  0  0  0  0  0  0  0  0  0  0  0
  148.5666  132.8515  154.0034 N   0  0  0  0  0  0  0  0  0  0  0  0
  148.0028  132.4050  152.6766 C   0  0  1  0  0  0  0  0  0  0  0  0
  146.8215  131.4578  152.8680 C   0  0  0  0  0  0  0  0  0  0  0  0
  146.0261  131.6977  151.5970 C   0  0  2  0  0  0  0  0  0  0  0  0
  146.4102  130.7728  150.5975 O   0  0  0  0  0  0  0  0  0  0  0  0
  146.4216  133.1303  151.1822 C   0  0  1  0  0  0  0  0  0  0  0  0
  145.3095  134.1883  151.3048 C   0  0  0  0  0  0  0  0  0  0  0  0
  144.5221  134.2629  150.1333 O   0  0  0  0  0  0  0  0  0  0  0  0
  147.5206  133.5217  152.0017 O   0  0  0  0  0  0  0  0  0  0  0  0
  149.2575  131.9330  154.8195 C   0  0  0  0  0  0  0  0  0  0  0  0
  149.4083  130.7602  154.4700 O   0  0  0  0  0  0  0  0  0  0  0  0
  149.7680  132.3944  156.0542 N   0  0  0  0  0  0  0  0  0  0  0  0
  150.4906  131.4405  156.9268 C   0  0  0  0  0  0  0  0  0  0  0  0
  152.0289  131.5514  156.8424 C   0  0  0  0  0  0  0  0  0  0  0  0
  152.6144  132.3111  157.6148 O   0  0  0  0  0  0  0  0  0  0  0  0
  152.6670  130.8007  155.9097 N   0  0  0  0  0  0  0  0  0  0  0  0
  151.9696  129.8922  154.9826 C   0  0  0  0  0  0  0  0  0  0  0  0
  153.0621  129.2448  154.1042 C   0  0  0  0  0  0  0  0  0  0  0  0
  154.3259  129.8621  154.6250 C   0  0  0  0  0  0  0  0  0  0  0  0
  155.6307  129.6141  154.1666 C   0  0  0  0  0  0  0  0  0  0  0  0
  156.7122  130.2934  154.7802 C   0  0  0  0  0  0  0  0  0  0  0  0
  158.0967  130.0587  154.3240 N   0  3  0  0  0  0  0  0  0  0  0  0
  159.0119  130.5882  154.9463 O   0  0  0  0  0  0  0  0  0  0  0  0
  158.2713  129.3443  153.3421 O   0  5  0  0  0  0  0  0  0  0  0  0
  156.4453  131.2018  155.8390 C   0  0  0  0  0  0  0  0  0  0  0  0
  155.1273  131.4379  156.2881 C   0  0  0  0  0  0  0  0  0  0  0  0
  154.0649  130.7510  155.6615 C   0  0  0  0  0  0  0  0  0  0  0  0
  149.6274  133.7367  156.4873 C   0  0  0  0  0  0  0  0  0  0  0  0
  150.1123  134.1041  157.5593 O   0  0  0  0  0  0  0  0  0  0  0  0
  148.1239  136.6450  155.2863 H   0  0  0  0  0  0  0  0  0  0  0  0
  149.6521  136.5698  156.1604 H   0  0  0  0  0  0  0  0  0  0  0  0
  148.1444  136.1211  156.9686 H   0  0  0  0  0  0  0  0  0  0  0  0
  147.8544  134.8341  153.7848 H   0  0  0  0  0  0  0  0  0  0  0  0
  148.8087  131.9704  152.0839 H   0  0  0  0  0  0  0  0  0  0  0  0
  147.1519  130.4290  153.0167 H   0  0  0  0  0  0  0  0  0  0  0  0
  146.2381  131.7716  153.7346 H   0  0  0  0  0  0  0  0  0  0  0  0
  144.9548  131.5840  151.7673 H   0  0  0  0  0  0  0  0  0  0  0  0
  147.3411  130.6250  150.6644 H   0  0  0  0  0  0  0  0  0  0  0  0
  146.7779  133.1368  150.1505 H   0  0  0  0  0  0  0  0  0  0  0  0
  144.6702  133.9775  152.1625 H   0  0  0  0  0  0  0  0  0  0  0  0
  145.7536  135.1700  151.4711 H   0  0  0  0  0  0  0  0  0  0  0  0
  145.0936  134.2015  149.3831 H   0  0  0  0  0  0  0  0  0  0  0  0
  150.1789  131.5761  157.9629 H   0  0  0  0  0  0  0  0  0  0  0  0
  150.2013  130.4145  156.6952 H   0  0  0  0  0  0  0  0  0  0  0  0
  151.4239  129.1230  155.5308 H   0  0  0  0  0  0  0  0  0  0  0  0
  151.2595  130.4413  154.3627 H   0  0  0  0  0  0  0  0  0  0  0  0
  153.0901  128.1614  154.2237 H   0  0  0  0  0  0  0  0  0  0  0  0
  152.9285  129.4809  153.0479 H   0  0  0  0  0  0  0  0  0  0  0  0
  155.7907  128.9149  153.3588 H   0  0  0  0  0  0  0  0  0  0  0  0
  157.2544  131.7307  156.3209 H   0  0  0  0  0  0  0  0  0  0  0  0
  154.9685  132.1349  157.0955 H   0  0  0  0  0  0  0  0  0  0  0  0
  1  2  1  0  0  0  0
  1 33  1  0  0  0  0
  1 34  1  0  0  0  0
  1 35  1  0  0  0  0
  2 31  1  0  0  0  0
  2  3  2  0  0  0  0
  3  4  1  0  0  0  0
  3 36  1  0  0  0  0
  4  5  1  0  0  0  0
  4 13  1  0  0  0  0
  5 12  1  0  0  0  0
  5  6  1  0  0  0  0
  5 37  1  0  0  0  0
  6  7  1  0  0  0  0
  6 38  1  0  0  0  0
  6 39  1  0  0  0  0
  7  8  1  0  0  0  0
  7  9  1  0  0  0  0
  7 40  1  0  0  0  0
  8 41  1  0  0  0  0
  9 10  1  0  0  0  0
  9 12  1  0  0  0  0
  9 42  1  0  0  0  0
 10 11  1  0  0  0  0
 10 43  1  0  0  0  0
 10 44  1  0  0  0  0
 11 45  1  0  0  0  0
 13 14  2  0  0  0  0
 13 15  1  0  0  0  0
 15 16  1  0  0  0  0
 15 31  1  0  0  0  0
 16 17  1  0  0  0  0
 16 46  1  0  0  0  0
 16 47  1  0  0  0  0
 17 18  2  0  0  0  0
 17 19  1  0  0  0  0
 19 30  1  0  0  0  0
 19 20  1  0  0  0  0
 20 21  1  0  0  0  0
 20 48  1  0  0  0  0
 20 49  1  0  0  0  0
 21 22  1  0  0  0  0
 21 50  1  0  0  0  0
 21 51  1  0  0  0  0
 22 30  2  0  0  0  0
 22 23  1  0  0  0  0
 23 24  2  0  0  0  0
 23 52  1  0  0  0  0
 24 25  1  0  0  0  0
 24 28  1  0  0  0  0
 25 26  2  0  0  0  0
 25 27  1  0  0  0  0
 28 29  2  0  0  0  0
 28 53  1  0  0  0  0
 29 30  1  0  0  0  0
 29 54  1  0  0  0  0
 31 32  2  0  0  0  0
M  CHG  1  25   1
M  CHG  1  27  -1
M  END
> <s_m_source_file>
AV-unprocessed.smi

> <i_m_source_file_index>
112

> <i_lp_mmshare_version>
43012

> <i_f3d_flags>
0

> <s_epik_input>
W09IXVtDSDJdW0NAQEhdKE8xKVtDQEhdKFtPSF0pW0NIMl1bQ0BIXTFuKFtjSF1jMltDSDNdKWMoPU8pbihjMj1PKVtDSDJdQyg9TylOKFtDSDJdW0NIMl0zKWMoYzM0KVtjSF1bY0hdYyhbY0hdNClbTitdKD1PKVtPLV0=

> <s_epik_cmdline>
J2VwaWtfcHl0aG9uJywgJy1waCcsICc3LjAnLCAnLXRuJywgJzgnLCAnLW1hJywgJzIwMCcsICctbWV0YWxfYmluZGluZycsICctaW1hZScsICc8aW5maWxlLm1hZT4nLCAnLW9tYWUnLCAnPG91dGZpbGUubWFlPic=

> <r_lp_tautomer_probability>
1

> <r_epik_Ionization_Penalty>
2.5696e-07

> <r_epik_Ionization_Penalty_Charging>
1.04886e-08

> <r_epik_Ionization_Penalty_Neutral>
2.46472e-07

> <r_epik_State_Penalty>
-0

> <r_epik_Charging_Adjusted_Penalty>
1.04886e-08

> <i_epik_Tot_Q>
0

> <i_epik_Tot_abs_Q>
2

> <r_epik_Metal_State_Penalty>
-0

> <b_epik_Metal_Only>
0

> <s_epik_Chemistry_Notes>
This compound contains an acetal/aminal-like group ( X-CH(R)-Y where X, Y are N, S, or O) that may be acid/base labile, releasing an aldehyde.

> <s_lp_Force_Field>
OPLS_2005

> <r_lp_Energy>
61.0713

> <b_lp_Chiralities_Consistent>
1

> <s_lp_Variant>
AV-unprocessed.smi:112-4

> <Gold.Version>
5.8.1

> <Gold.Id.Protein>
6NUR|6NUR_protein|mol2

> <Gold.PLP.Fitness>
53.0827

> <Gold.PLP.PLP>
-41.3186

> <Gold.PLP.part.hbond>
-3.9379

> <Gold.PLP.part.metal>
0.0000

> <Gold.PLP.part.buried>
-2.9063

> <Gold.PLP.part.nonpolar>
-35.5328

> <Gold.PLP.part.repulsive>
1.6997

> <Gold.PLP.ligand.clash>
0.0000

> <Gold.PLP.ligand.torsion>
1.1505

> <Gold.PLP.Chemscore.Hbond>
3.7440

> <Gold.PLP.Chemscore.CHOScore>
0.9147

> <Gold.PLP.Chemscore.Metal>
0.0000

> <Gold.Chemscore.Hbonds>
donor molecule, donor type, donor heavy atom, donor atom, acceptor molecule, acceptor atom, score
      L1  H     8    41       P1 10747  1.00
      L1  H    11    45       P1  7921  0.76
      P1  H  6896  6907       L1    18  0.68
      P1  H  6896  6908       L1    32  0.72
      L1  C     3    36       P1  7948  0.72

> <Gold.PLP.Chemscore.Internal.Correction>
0.0892

> <Gold.Rescore>
     Score         DG    S(hbond)    S(metal)    S(lipo)     H(rot)  DE(clash)    DE(int)     intcor
     14.30     -18.35       3.57        0.00      80.16       3.29       0.19       3.86       ----

> <Gold.Chemscore.Fitness>
14.3047

> <Gold.Chemscore.DG>
-18.3550

> <Gold.Chemscore.ZeroCoef>
-5.4800

> <Gold.Chemscore.Hbond>
3.5697

> <Gold.Chemscore.Metal>
0.0000

> <Gold.Chemscore.Lipo>
80.1602

> <Gold.Chemscore.Internal_Hbond>
0.0000

> <Gold.Chemscore.DEClash>
0.1942

> <Gold.Chemscore.DEInternal>
3.8561

> <Gold.Chemscore.Rot>
3.2916

> <Gold.Chemscore.Internal.Correction>
   9.000000E+99

> <Gold.Chemscore.Hbonds>
donor molecule, donor type, donor heavy atom, donor atom, acceptor molecule, acceptor atom, score
      L1  H     8    41       P1 10747  0.98
      L1  H    11    45       P1  7921  0.75
      P1  H  6896  6907       L1    18  0.65
      P1  H  6896  6908       L1    32  0.72

> <Gold.Chemscore.Hbond.Weighted>
-11.9227

> <Gold.Chemscore.Metal.Weighted>
-0.0000

> <Gold.Chemscore.Lipo.Weighted>
-9.3787

> <Gold.Chemscore.Internal_Hbond.Weighted>
0.0000

> <Gold.Chemscore.DEClash.Weighted>
0.1942

> <Gold.Chemscore.DEInternal.Weighted>
3.8561

> <Gold.Chemscore.Rot.Weighted>
8.4265

> <Gold.Chemscore.Internal.Correction.Weighted>
   9.000000E+99

> <Gold.Protein.RotatedTorsions>
[ 6907 6896 6895 6894 ] final  149.32 input  -60.11 | X-H torsion
[ 7974 7965 7964 7962 ] final  -67.74 input  175.53 | X-H torsion
[ 8008 7997 7996 7995 ] final -127.93 input   59.86 | X-H torsion
[ 10167 10162 10161 10158 ] final    0.38 input  -65.29 | X-H torsion
[ 10718 10713 10712 10709 ] final   33.56 input   66.30 | X-H torsion
[ 10763 10752 10751 10750 ] final  -18.92 input  -60.55 | X-H torsion
[ 11005 11000 10999 10996 ] final  138.53 input  -57.11 | X-H torsion

> <Gold.Protein.ActiveResidues>
 VAL166  LYS551  ARG553  GLY616  TRP617  ASP618  TYR619  PRO620  LYS621  CYS622 
 ASP623  PHE694  ASN695  SER759  ASP760  ASP761  ALA762  ILE779  LEU786  VAL792 
 PHE793  MET794  SER795  GLU796  ALA797  LYS798  CYS799  TRP800  GLU811  SER814 

> <Gold.Protein.RotatedAtoms>
  152.1297  133.4400  159.4714 H   0  0  0  0  0  0  0  0  0  0  0  0  # atno 6907 bound_to 6896
  150.6877  134.2436  159.4491 H   0  0  0  0  0  0  0  0  0  0  0  0  # atno 6908 bound_to 6896
  152.0319  134.9762  160.0623 H   0  0  0  0  0  0  0  0  0  0  0  0  # atno 6909 bound_to 6896
  145.7254  140.9020  143.0608 H   0  0  0  0  0  0  0  0  0  0  0  0  # atno 7974 bound_to 7965
  155.2543  140.0433  157.2990 H   0  0  0  0  0  0  0  0  0  0  0  0  # atno 8008 bound_to 7997
  154.5749  140.2384  155.8106 H   0  0  0  0  0  0  0  0  0  0  0  0  # atno 8009 bound_to 7997
  156.2151  140.2987  155.9828 H   0  0  0  0  0  0  0  0  0  0  0  0  # atno 8010 bound_to 7997
  140.6731  143.6993  150.7965 H   0  0  0  0  0  0  0  0  0  0  0  0  # atno 10167 bound_to 10162
  157.2993  130.7342  149.6657 H   0  0  0  0  0  0  0  0  0  0  0  0  # atno 10718 bound_to 10713
  153.5967  135.7000  153.5401 H   0  0  0  0  0  0  0  0  0  0  0  0  # atno 10763 bound_to 10752
  153.3131  135.4095  155.1353 H   0  0  0  0  0  0  0  0  0  0  0  0  # atno 10764 bound_to 10752
  154.8590  135.3677  154.5501 H   0  0  0  0  0  0  0  0  0  0  0  0  # atno 10765 bound_to 10752
  140.0190  134.9405  157.0435 H   0  0  0  0  0  0  0  0  0  0  0  0  # atno 11005 bound_to 11000
  144.6906  139.9258  143.7470 LP  0  0  0  0  0  0  0  0  0  0  0  0  # atno 17320 bound_to 7965
  146.0587  139.3582  143.0594 LP  0  0  0  0  0  0  0  0  0  0  0  0  # atno 17321 bound_to 7965
  140.0681  143.5088  152.2594 LP  0  0  0  0  0  0  0  0  0  0  0  0  # atno 17342 bound_to 10162
  139.6009  144.7582  151.3174 LP  0  0  0  0  0  0  0  0  0  0  0  0  # atno 17343 bound_to 10162
  155.9671  130.4285  150.4790 LP  0  0  0  0  0  0  0  0  0  0  0  0  # atno 17370 bound_to 10713
  157.2767  131.0598  151.2224 LP  0  0  0  0  0  0  0  0  0  0  0  0  # atno 17371 bound_to 10713
  140.4420  134.1671  155.7174 LP  0  0  0  0  0  0  0  0  0  0  0  0  # atno 17394 bound_to 11000
  141.1761  133.8510  157.1414 LP  0  0  0  0  0  0  0  0  0  0  0  0  # atno 17395 bound_to 11000

$$$$
