AV-unprocessed.smi:2895|AV-procd|sdf|11134|dock5
  -GOLD-   2272016 13D 1   1.00000     0.00000
 Structure written by MMmdl.
 54 57  0  0  0  0  0  0  0  0  3 V2000
  149.9503  138.9802  154.4818 O   0  0  0  0  0  0  0  0  0  0  0  0
  149.3690  139.1082  155.5600 C   0  0  0  0  0  0  0  0  0  0  0  0
  148.2615  138.4078  155.8592 N   0  0  0  0  0  0  0  0  0  0  0  0
  147.6125  137.4451  154.9761 C   0  0  0  0  0  0  0  0  0  0  0  0
  148.1084  136.0125  155.2330 C   0  0  0  0  0  0  0  0  0  0  0  0
  146.9982  134.9897  155.0864 C   0  0  0  0  0  0  0  0  0  0  0  0
  146.5944  134.2109  156.1934 C   0  0  0  0  0  0  0  0  0  0  0  0
  145.5569  133.2700  156.0313 C   0  0  0  0  0  0  0  0  0  0  0  0
  144.9634  133.1240  154.8262 N   0  3  0  0  0  0  0  0  0  0  0  0
  145.3190  133.8489  153.7426 C   0  0  0  0  0  0  0  0  0  0  0  0
  146.3499  134.8056  153.8451 C   0  0  0  0  0  0  0  0  0  0  0  0
  149.8217  139.9096  156.5572 N   0  0  0  0  0  0  0  0  0  0  0  0
  149.0161  140.4510  157.6630 C   0  0  0  0  0  0  0  0  0  0  0  0
  148.8326  141.9719  157.4686 C   0  0  0  0  0  0  0  0  0  0  0  0
  150.1360  142.6900  157.3339 N   0  3  0  0  0  0  0  0  0  0  0  0
  150.8310  142.9079  158.6436 C   0  0  2  0  0  0  0  0  0  0  0  0
  150.2410  144.1072  159.4355 C   0  0  0  0  0  0  0  0  0  0  0  0
  151.4678  144.9739  159.7593 C   0  0  1  0  0  0  0  0  0  0  0  0
  152.3649  144.2464  160.7747 C   0  0  0  0  0  0  0  0  0  0  0  0
  152.9859  143.1237  159.9256 C   0  0  0  0  0  0  0  0  0  0  0  0
  152.3270  143.3280  158.5469 C   0  0  2  0  0  0  0  0  0  0  0  0
  152.2645  144.8491  158.4690 C   0  0  0  0  0  0  0  0  0  0  0  0
  150.9685  142.0570  156.2693 C   0  0  0  0  0  0  0  0  0  0  0  0
  151.1432  140.5437  156.4998 C   0  0  0  0  0  0  0  0  0  0  0  0
  147.8501  138.5383  156.7721 H   0  0  0  0  0  0  0  0  0  0  0  0
  146.5291  137.5035  155.0955 H   0  0  0  0  0  0  0  0  0  0  0  0
  147.8263  137.7332  153.9463 H   0  0  0  0  0  0  0  0  0  0  0  0
  148.9162  135.7665  154.5424 H   0  0  0  0  0  0  0  0  0  0  0  0
  148.5277  135.9294  156.2366 H   0  0  0  0  0  0  0  0  0  0  0  0
  147.0715  134.3338  157.1552 H   0  0  0  0  0  0  0  0  0  0  0  0
  145.1862  132.6357  156.8234 H   0  0  0  0  0  0  0  0  0  0  0  0
  144.7718  133.6437  152.8340 H   0  0  0  0  0  0  0  0  0  0  0  0
  146.6362  135.3895  152.9822 H   0  0  0  0  0  0  0  0  0  0  0  0
  148.0344  139.9880  157.7610 H   0  0  0  0  0  0  0  0  0  0  0  0
  149.5245  140.2440  158.6051 H   0  0  0  0  0  0  0  0  0  0  0  0
  148.2610  142.1442  156.5555 H   0  0  0  0  0  0  0  0  0  0  0  0
  148.2212  142.3762  158.2735 H   0  0  0  0  0  0  0  0  0  0  0  0
  150.7492  141.9950  159.2339 H   0  0  0  0  0  0  0  0  0  0  0  0
  149.5530  144.6988  158.8304 H   0  0  0  0  0  0  0  0  0  0  0  0
  149.7057  143.7907  160.3316 H   0  0  0  0  0  0  0  0  0  0  0  0
  151.2172  145.9949  160.0488 H   0  0  0  0  0  0  0  0  0  0  0  0
  153.1399  144.9110  161.1586 H   0  0  0  0  0  0  0  0  0  0  0  0
  151.7991  143.8630  161.6247 H   0  0  0  0  0  0  0  0  0  0  0  0
  154.0671  143.2519  159.8592 H   0  0  0  0  0  0  0  0  0  0  0  0
  152.7963  142.1324  160.3392 H   0  0  0  0  0  0  0  0  0  0  0  0
  152.9157  142.8638  157.7600 H   0  0  0  0  0  0  0  0  0  0  0  0
  151.7314  145.2164  157.5904 H   0  0  0  0  0  0  0  0  0  0  0  0
  153.2450  145.3265  158.5189 H   0  0  0  0  0  0  0  0  0  0  0  0
  150.4556  142.2074  155.3182 H   0  0  0  0  0  0  0  0  0  0  0  0
  151.9332  142.5388  156.1398 H   0  0  0  0  0  0  0  0  0  0  0  0
  151.6749  140.3559  157.4332 H   0  0  0  0  0  0  0  0  0  0  0  0
  151.7766  140.1242  155.7170 H   0  0  0  0  0  0  0  0  0  0  0  0
  149.9155  143.6175  156.9997 H   0  0  0  0  0  0  0  0  0  0  0  0
  144.2146  132.4375  154.7306 H   0  0  0  0  0  0  0  0  0  0  0  0
  1  2  2  0  0  0  0
  2  3  1  0  0  0  0
  2 12  1  0  0  0  0
  3  4  1  0  0  0  0
  3 25  1  0  0  0  0
  4  5  1  0  0  0  0
  4 26  1  0  0  0  0
  4 27  1  0  0  0  0
  5  6  1  0  0  0  0
  5 28  1  0  0  0  0
  5 29  1  0  0  0  0
  6 11  1  0  0  0  0
  6  7  2  0  0  0  0
  7  8  1  0  0  0  0
  7 30  1  0  0  0  0
  8  9  2  0  0  0  0
  8 31  1  0  0  0  0
  9 10  1  0  0  0  0
  9 54  1  0  0  0  0
 10 11  2  0  0  0  0
 10 32  1  0  0  0  0
 11 33  1  0  0  0  0
 12 24  1  0  0  0  0
 12 13  1  0  0  0  0
 13 14  1  0  0  0  0
 13 34  1  0  0  0  0
 13 35  1  0  0  0  0
 14 15  1  0  0  0  0
 14 36  1  0  0  0  0
 14 37  1  0  0  0  0
 15 16  1  0  0  0  0
 15 23  1  0  0  0  0
 15 53  1  0  0  0  0
 16 21  1  0  0  0  0
 16 17  1  0  0  0  0
 16 38  1  0  0  0  0
 17 18  1  0  0  0  0
 17 39  1  0  0  0  0
 17 40  1  0  0  0  0
 18 22  1  0  0  0  0
 18 19  1  0  0  0  0
 18 41  1  0  0  0  0
 19 20  1  0  0  0  0
 19 42  1  0  0  0  0
 19 43  1  0  0  0  0
 20 21  1  0  0  0  0
 20 44  1  0  0  0  0
 20 45  1  0  0  0  0
 21 22  1  0  0  0  0
 21 46  1  0  0  0  0
 22 47  1  0  0  0  0
 22 48  1  0  0  0  0
 23 24  1  0  0  0  0
 23 49  1  0  0  0  0
 23 50  1  0  0  0  0
 24 51  1  0  0  0  0
 24 52  1  0  0  0  0
M  CHG  1   9   1
M  CHG  1  15   1
M  END
> <s_m_source_file>
AV-unprocessed.smi

> <i_m_source_file_index>
2895

> <i_lp_mmshare_version>
43012

> <i_f3d_flags>
0

> <s_epik_input>
W0NIMl0xW0NIMl1bQ0BASF0oW0NIMl0yKVtDQEBIXShbQ0gyXVtDQEhdMTIpTihbQ0gyXVtDSDJdMylbQ0gyXVtDSDJdTjNDKD1PKVtOSF1bQ0gyXVtDSDJdYzRbY0hdW2NIXW5bY0hdW2NIXTQ=

> <s_epik_cmdline>
J2VwaWtfcHl0aG9uJywgJy1waCcsICc3LjAnLCAnLXRuJywgJzgnLCAnLW1hJywgJzIwMCcsICctbWV0YWxfYmluZGluZycsICctaW1hZScsICc8aW5maWxlLm1hZT4nLCAnLW9tYWUnLCAnPG91dGZpbGUubWFlPic=

> <r_epik_Ionization_Penalty>
1.44916

> <r_epik_Ionization_Penalty_Charging>
1.44913

> <r_epik_Ionization_Penalty_Neutral>
2.64641e-05

> <r_epik_State_Penalty>
1.53218

> <r_epik_Charging_Adjusted_Penalty>
2.98131

> <i_epik_Tot_Q>
2

> <i_epik_Tot_abs_Q>
2

> <r_epik_Metal_State_Penalty>
1.58241

> <b_epik_Metal_Only>
0

> <s_lp_Force_Field>
OPLS_2005

> <r_lp_Energy>
108.082

> <b_lp_Chiralities_Consistent>
1

> <s_lp_Variant>
AV-unprocessed.smi:2895-7

> <Gold.Version>
5.8.1

> <Gold.Id.Protein>
6NUR|6NUR_protein|mol2

> <Gold.PLP.Fitness>
47.8787

> <Gold.PLP.PLP>
-37.8118

> <Gold.PLP.part.hbond>
-2.0000

> <Gold.PLP.part.metal>
0.0000

> <Gold.PLP.part.buried>
-7.2129

> <Gold.PLP.part.nonpolar>
-28.6739

> <Gold.PLP.part.repulsive>
0.1744

> <Gold.PLP.ligand.clash>
0.0000

> <Gold.PLP.ligand.torsion>
0.9963

> <Gold.PLP.Chemscore.Hbond>
3.9840

> <Gold.PLP.Chemscore.CHOScore>
0.0000

> <Gold.PLP.Chemscore.Metal>
0.0000

> <Gold.Chemscore.Hbonds>
donor molecule, donor type, donor heavy atom, donor atom, acceptor molecule, acceptor atom, score
      L1  H     9    54       P1 10957  2.00
      L1  H    15    53       P1  8028  1.89

> <Gold.PLP.Chemscore.Internal.Correction>
0.1075

> <Gold.Rescore>
     Score         DG    S(hbond)    S(metal)    S(lipo)     H(rot)  DE(clash)    DE(int)     intcor
     19.70     -21.07       1.94        0.00     109.65       1.46       0.14       1.23       ----

> <Gold.Chemscore.Fitness>
19.6997

> <Gold.Chemscore.DG>
-21.0701

> <Gold.Chemscore.ZeroCoef>
-5.4800

> <Gold.Chemscore.Hbond>
1.9437

> <Gold.Chemscore.Metal>
0.0000

> <Gold.Chemscore.Lipo>
109.6458

> <Gold.Chemscore.Internal_Hbond>
0.0000

> <Gold.Chemscore.DEClash>
0.1368

> <Gold.Chemscore.DEInternal>
1.2336

> <Gold.Chemscore.Rot>
1.4572

> <Gold.Chemscore.Internal.Correction>
   9.000000E+99

> <Gold.Chemscore.Hbonds>
donor molecule, donor type, donor heavy atom, donor atom, acceptor molecule, acceptor atom, score
      L1  H     9    54       P1 10957  0.92
      L1  H    15    53       P1  8028  0.85

> <Gold.Chemscore.Hbond.Weighted>
-6.4921

> <Gold.Chemscore.Metal.Weighted>
-0.0000

> <Gold.Chemscore.Lipo.Weighted>
-12.8286

> <Gold.Chemscore.Internal_Hbond.Weighted>
0.0000

> <Gold.Chemscore.DEClash.Weighted>
0.1368

> <Gold.Chemscore.DEInternal.Weighted>
1.2336

> <Gold.Chemscore.Rot.Weighted>
3.7305

> <Gold.Chemscore.Internal.Correction.Weighted>
   9.000000E+99

> <Gold.Protein.RotatedTorsions>
[ 6907 6896 6895 6894 ] final  162.06 input  -60.11 | X-H torsion
[ 7974 7965 7964 7962 ] final   79.05 input  175.53 | X-H torsion
[ 8008 7997 7996 7995 ] final   73.08 input   59.86 | X-H torsion
[ 10167 10162 10161 10158 ] final  -18.74 input  -65.29 | X-H torsion
[ 10718 10713 10712 10709 ] final  115.28 input   66.30 | X-H torsion
[ 10763 10752 10751 10750 ] final   59.59 input  -60.55 | X-H torsion
[ 11005 11000 10999 10996 ] final   26.75 input  -57.11 | X-H torsion

> <Gold.Protein.ActiveResidues>
 VAL166  LYS551  ARG553  GLY616  TRP617  ASP618  TYR619  PRO620  LYS621  CYS622 
 ASP623  PHE694  ASN695  SER759  ASP760  ASP761  ALA762  ILE779  LEU786  VAL792 
 PHE793  MET794  SER795  GLU796  ALA797  LYS798  CYS799  TRP800  GLU811  SER814 

> <Gold.Protein.RotatedAtoms>
  151.9462  133.3652  159.3983 H   0  0  0  0  0  0  0  0  0  0  0  0  # atno 6907 bound_to 6896
  150.6989  134.4387  159.5291 H   0  0  0  0  0  0  0  0  0  0  0  0  # atno 6908 bound_to 6896
  152.2053  134.8551  160.0554 H   0  0  0  0  0  0  0  0  0  0  0  0  # atno 6909 bound_to 6896
  145.6692  139.2492  143.1878 H   0  0  0  0  0  0  0  0  0  0  0  0  # atno 7974 bound_to 7965
  155.7784  140.3482  155.5284 H   0  0  0  0  0  0  0  0  0  0  0  0  # atno 8008 bound_to 7997
  155.8753  140.0993  157.1543 H   0  0  0  0  0  0  0  0  0  0  0  0  # atno 8009 bound_to 7997
  154.4020  140.1333  156.4116 H   0  0  0  0  0  0  0  0  0  0  0  0  # atno 8010 bound_to 7997
  140.7262  143.4887  151.0020 H   0  0  0  0  0  0  0  0  0  0  0  0  # atno 10167 bound_to 10162
  157.6231  131.1010  150.7307 H   0  0  0  0  0  0  0  0  0  0  0  0  # atno 10718 bound_to 10713
  152.9898  135.5566  154.5738 H   0  0  0  0  0  0  0  0  0  0  0  0  # atno 10763 bound_to 10752
  154.5133  135.2803  155.1326 H   0  0  0  0  0  0  0  0  0  0  0  0  # atno 10764 bound_to 10752
  154.2709  135.6363  153.5363 H   0  0  0  0  0  0  0  0  0  0  0  0  # atno 10765 bound_to 10752
  140.3337  134.2410  155.7699 H   0  0  0  0  0  0  0  0  0  0  0  0  # atno 11005 bound_to 11000
  146.1060  140.7486  142.9526 LP  0  0  0  0  0  0  0  0  0  0  0  0  # atno 17320 bound_to 7965
  144.7063  140.3863  143.7116 LP  0  0  0  0  0  0  0  0  0  0  0  0  # atno 17321 bound_to 7965
  139.8590  143.7339  152.3174 LP  0  0  0  0  0  0  0  0  0  0  0  0  # atno 17342 bound_to 10162
  139.7548  144.7524  151.0452 LP  0  0  0  0  0  0  0  0  0  0  0  0  # atno 17343 bound_to 10162
  156.7660  130.4814  149.5427 LP  0  0  0  0  0  0  0  0  0  0  0  0  # atno 17370 bound_to 10713
  156.1388  130.6230  151.0438 LP  0  0  0  0  0  0  0  0  0  0  0  0  # atno 17371 bound_to 10713
  141.2057  133.7854  157.0219 LP  0  0  0  0  0  0  0  0  0  0  0  0  # atno 17394 bound_to 11000
  140.0839  134.9632  157.1669 LP  0  0  0  0  0  0  0  0  0  0  0  0  # atno 17395 bound_to 11000

$$$$
