AV-unprocessed.smi:2119|AV-procd|sdf|8635|dock1
  -GOLD-   2272011383D 1   1.00000     0.00000
 Structure written by MMmdl.
 48 50  0  0  0  0  0  0  0  0  2 V2000
  144.5421  136.9288  152.0922 O   0  0  0  0  0  0  0  0  0  0  0  0
  145.7209  136.5803  152.0303 C   0  0  0  0  0  0  0  0  0  0  0  0
  146.7446  137.3852  152.3468 N   0  0  0  0  0  0  0  0  0  0  0  0
  146.6144  138.7618  152.8094 C   0  0  0  0  0  0  0  0  0  0  0  0
  147.2627  139.0268  154.1991 C   0  0  1  0  0  0  0  0  0  0  0  0
  148.8169  138.9538  154.1980 C   0  0  2  0  0  0  0  0  0  0  0  0
  149.4565  138.2955  155.4133 C   0  0  0  0  0  0  0  0  0  0  0  0
  150.8738  138.8695  155.4347 C   0  0  0  0  0  0  0  0  0  0  0  0
  150.8429  140.0408  154.6273 O   0  0  0  0  0  0  0  0  0  0  0  0
  149.5026  140.3219  154.2574 C   0  0  0  0  0  0  0  0  0  0  0  0
  146.8148  140.3299  154.7768 N   0  3  0  0  0  0  0  0  0  0  0  0
  146.7671  141.4794  153.8377 C   0  0  0  0  0  0  0  0  0  0  0  0
  146.4737  142.7748  154.6122 C   0  0  0  0  0  0  0  0  0  0  0  0
  145.2487  142.6363  155.3226 O   0  0  0  0  0  0  0  0  0  0  0  0
  145.2984  141.5841  156.2791 C   0  0  0  0  0  0  0  0  0  0  0  0
  145.5621  140.2462  155.5672 C   0  0  0  0  0  0  0  0  0  0  0  0
  146.1589  135.3728  151.6365 N   0  0  0  0  0  0  0  0  0  0  0  0
  145.3969  134.2333  151.2629 C   0  0  0  0  0  0  0  0  0  0  0  0
  145.8898  133.1705  150.4677 C   0  0  0  0  0  0  0  0  0  0  0  0
  145.0258  132.1062  150.1457 C   0  0  0  0  0  0  0  0  0  0  0  0
  143.7018  132.1456  150.6240 C   0  0  0  0  0  0  0  0  0  0  0  0
  143.2154  133.1578  151.3725 N   0  0  0  0  0  0  0  0  0  0  0  0
  144.0488  134.1754  151.6760 C   0  0  0  0  0  0  0  0  0  0  0  0
  147.6818  137.0197  152.2602 H   0  0  0  0  0  0  0  0  0  0  0  0
  147.0764  139.3938  152.0510 H   0  0  0  0  0  0  0  0  0  0  0  0
  145.5547  139.0189  152.8158 H   0  0  0  0  0  0  0  0  0  0  0  0
  146.9169  138.2559  154.8890 H   0  0  0  0  0  0  0  0  0  0  0  0
  149.1649  138.4309  153.3062 H   0  0  0  0  0  0  0  0  0  0  0  0
  148.9305  138.5869  156.3238 H   0  0  0  0  0  0  0  0  0  0  0  0
  149.4628  137.2070  155.3605 H   0  0  0  0  0  0  0  0  0  0  0  0
  151.1957  139.1055  156.4495 H   0  0  0  0  0  0  0  0  0  0  0  0
  151.5899  138.1670  155.0074 H   0  0  0  0  0  0  0  0  0  0  0  0
  149.4659  140.8574  153.3084 H   0  0  0  0  0  0  0  0  0  0  0  0
  149.0483  140.9530  155.0233 H   0  0  0  0  0  0  0  0  0  0  0  0
  147.7130  141.5806  153.3064 H   0  0  0  0  0  0  0  0  0  0  0  0
  145.9893  141.3261  153.0887 H   0  0  0  0  0  0  0  0  0  0  0  0
  147.2858  143.0095  155.3023 H   0  0  0  0  0  0  0  0  0  0  0  0
  146.3892  143.6143  153.9220 H   0  0  0  0  0  0  0  0  0  0  0  0
  146.0715  141.7889  157.0216 H   0  0  0  0  0  0  0  0  0  0  0  0
  144.3480  141.5455  156.8119 H   0  0  0  0  0  0  0  0  0  0  0  0
  144.7207  140.0035  154.9178 H   0  0  0  0  0  0  0  0  0  0  0  0
  145.6376  139.4489  156.3075 H   0  0  0  0  0  0  0  0  0  0  0  0
  147.1595  135.2681  151.5526 H   0  0  0  0  0  0  0  0  0  0  0  0
  146.8995  133.1564  150.0880 H   0  0  0  0  0  0  0  0  0  0  0  0
  145.3694  131.2803  149.5404 H   0  0  0  0  0  0  0  0  0  0  0  0
  143.0133  131.3459  150.3939 H   0  0  0  0  0  0  0  0  0  0  0  0
  143.6243  134.9697  152.2728 H   0  0  0  0  0  0  0  0  0  0  0  0
  147.5268  140.5650  155.4536 H   0  0  0  0  0  0  0  0  0  0  0  0
  1  2  2  0  0  0  0
  2  3  1  0  0  0  0
  2 17  1  0  0  0  0
  3  4  1  0  0  0  0
  3 24  1  0  0  0  0
  4  5  1  0  0  0  0
  4 25  1  0  0  0  0
  4 26  1  0  0  0  0
  5  6  1  0  0  0  0
  5 11  1  0  0  0  0
  5 27  1  0  0  0  0
  6 10  1  0  0  0  0
  6  7  1  0  0  0  0
  6 28  1  0  0  0  0
  7  8  1  0  0  0  0
  7 29  1  0  0  0  0
  7 30  1  0  0  0  0
  8  9  1  0  0  0  0
  8 31  1  0  0  0  0
  8 32  1  0  0  0  0
  9 10  1  0  0  0  0
 10 33  1  0  0  0  0
 10 34  1  0  0  0  0
 11 16  1  0  0  0  0
 11 12  1  0  0  0  0
 11 48  1  0  0  0  0
 12 13  1  0  0  0  0
 12 35  1  0  0  0  0
 12 36  1  0  0  0  0
 13 14  1  0  0  0  0
 13 37  1  0  0  0  0
 13 38  1  0  0  0  0
 14 15  1  0  0  0  0
 15 16  1  0  0  0  0
 15 39  1  0  0  0  0
 15 40  1  0  0  0  0
 16 41  1  0  0  0  0
 16 42  1  0  0  0  0
 17 18  1  0  0  0  0
 17 43  1  0  0  0  0
 18 23  1  0  0  0  0
 18 19  2  0  0  0  0
 19 20  1  0  0  0  0
 19 44  1  0  0  0  0
 20 21  2  0  0  0  0
 20 45  1  0  0  0  0
 21 22  1  0  0  0  0
 21 46  1  0  0  0  0
 22 23  2  0  0  0  0
 23 47  1  0  0  0  0
M  CHG  1  11   1
M  END
> <s_m_source_file>
AV-unprocessed.smi

> <i_m_source_file_index>
2119

> <i_lp_mmshare_version>
43012

> <i_f3d_flags>
0

> <s_epik_input>
W2NIXTFuW2NIXVtjSF1bY0hdYzFbTkhdQyg9TylbTkhdW0NIMl1bQ0BIXShbQ0BASF0yW0NIMl1bQ0gyXU9bQ0gyXTIpTjNbQ0gyXVtDSDJdT1tDSDJdW0NIMl0z

> <s_epik_cmdline>
J2VwaWtfcHl0aG9uJywgJy1waCcsICc3LjAnLCAnLXRuJywgJzgnLCAnLW1hJywgJzIwMCcsICctbWV0YWxfYmluZGluZycsICctaW1hZScsICc8aW5maWxlLm1hZT4nLCAnLW9tYWUnLCAnPG91dGZpbGUubWFlPic=

> <r_epik_Ionization_Penalty>
0.987463

> <r_epik_Ionization_Penalty_Charging>
0.98326

> <r_epik_Ionization_Penalty_Neutral>
0.00420251

> <r_epik_State_Penalty>
1.01721

> <r_epik_Charging_Adjusted_Penalty>
2.00047

> <i_epik_Tot_Q>
1

> <i_epik_Tot_abs_Q>
1

> <r_epik_Metal_State_Penalty>
1.01439

> <b_epik_Metal_Only>
0

> <s_lp_Force_Field>
OPLS_2005

> <r_lp_Energy>
39.9972

> <b_lp_Chiralities_Consistent>
1

> <s_lp_Variant>
AV-unprocessed.smi:2119-6

> <Gold.Version>
5.8.1

> <Gold.Id.Protein>
6NUR|6NUR_protein|mol2

> <Gold.PLP.Fitness>
43.1976

> <Gold.PLP.PLP>
-35.2759

> <Gold.PLP.part.hbond>
-2.9534

> <Gold.PLP.part.metal>
0.0000

> <Gold.PLP.part.buried>
-5.1828

> <Gold.PLP.part.nonpolar>
-29.9456

> <Gold.PLP.part.repulsive>
2.8426

> <Gold.PLP.ligand.clash>
0.4547

> <Gold.PLP.ligand.torsion>
1.8383

> <Gold.PLP.Chemscore.Hbond>
2.8873

> <Gold.PLP.Chemscore.CHOScore>
0.9856

> <Gold.PLP.Chemscore.Metal>
0.0000

> <Gold.Chemscore.Hbonds>
donor molecule, donor type, donor heavy atom, donor atom, acceptor molecule, acceptor atom, score
      L1  H     3    24       P1  7948  1.00
      L1  H    17    43       P1  7948  0.90
      P1  H  7989  7998       L1     9  1.00
      L1  C    21    46       P1 10952  0.96

> <Gold.PLP.Chemscore.Internal.Correction>
0.4343

> <Gold.Rescore>
     Score         DG    S(hbond)    S(metal)    S(lipo)     H(rot)  DE(clash)    DE(int)     intcor
     16.13     -20.09       2.65        0.00      86.50       1.70       0.49       3.47       ----

> <Gold.Chemscore.Fitness>
16.1301

> <Gold.Chemscore.DG>
-20.0924

> <Gold.Chemscore.ZeroCoef>
-5.4800

> <Gold.Chemscore.Hbond>
2.6494

> <Gold.Chemscore.Metal>
0.0000

> <Gold.Chemscore.Lipo>
86.5028

> <Gold.Chemscore.Internal_Hbond>
0.0000

> <Gold.Chemscore.DEClash>
0.4892

> <Gold.Chemscore.DEInternal>
3.4732

> <Gold.Chemscore.Rot>
1.7021

> <Gold.Chemscore.Internal.Correction>
   9.000000E+99

> <Gold.Chemscore.Hbonds>
donor molecule, donor type, donor heavy atom, donor atom, acceptor molecule, acceptor atom, score
      L1  H     3    24       P1  7948  0.93
      L1  H    17    43       P1  7948  0.79
      P1  H  7989  7998       L1     9  0.25

> <Gold.Chemscore.Hbond.Weighted>
-8.8491

> <Gold.Chemscore.Metal.Weighted>
-0.0000

> <Gold.Chemscore.Lipo.Weighted>
-10.1208

> <Gold.Chemscore.Internal_Hbond.Weighted>
0.0000

> <Gold.Chemscore.DEClash.Weighted>
0.4892

> <Gold.Chemscore.DEInternal.Weighted>
3.4732

> <Gold.Chemscore.Rot.Weighted>
4.3575

> <Gold.Chemscore.Internal.Correction.Weighted>
   9.000000E+99

> <Gold.Protein.RotatedTorsions>
[ 6907 6896 6895 6894 ] final   56.06 input  -60.11 | X-H torsion
[ 7974 7965 7964 7962 ] final  178.14 input  175.53 | X-H torsion
[ 8008 7997 7996 7995 ] final -160.11 input   59.86 | X-H torsion
[ 10167 10162 10161 10158 ] final    6.86 input  -65.29 | X-H torsion
[ 10718 10713 10712 10709 ] final  -28.61 input   66.30 | X-H torsion
[ 10763 10752 10751 10750 ] final   73.72 input  -60.55 | X-H torsion
[ 11005 11000 10999 10996 ] final   44.95 input  -57.11 | X-H torsion

> <Gold.Protein.ActiveResidues>
 VAL166  LYS551  ARG553  GLY616  TRP617  ASP618  TYR619  PRO620  LYS621  CYS622 
 ASP623  PHE694  ASN695  SER759  ASP760  ASP761  ALA762  ILE779  LEU786  VAL792 
 PHE793  MET794  SER795  GLU796  ALA797  LYS798  CYS799  TRP800  GLU811  SER814 

> <Gold.Protein.RotatedAtoms>
  152.3600  134.6886  160.0209 H   0  0  0  0  0  0  0  0  0  0  0  0  # atno 6907 bound_to 6896
  151.7212  133.3309  159.3324 H   0  0  0  0  0  0  0  0  0  0  0  0  # atno 6908 bound_to 6896
  150.7598  134.6380  159.6266 H   0  0  0  0  0  0  0  0  0  0  0  0  # atno 6909 bound_to 6896
  144.7160  140.0353  143.6438 H   0  0  0  0  0  0  0  0  0  0  0  0  # atno 7974 bound_to 7965
  155.7726  140.0854  157.2100 H   0  0  0  0  0  0  0  0  0  0  0  0  # atno 8008 bound_to 7997
  154.3995  140.1522  156.3017 H   0  0  0  0  0  0  0  0  0  0  0  0  # atno 8009 bound_to 7997
  155.8732  140.3424  155.5838 H   0  0  0  0  0  0  0  0  0  0  0  0  # atno 8010 bound_to 7997
  140.6404  143.7788  150.7420 H   0  0  0  0  0  0  0  0  0  0  0  0  # atno 10167 bound_to 10162
  156.4230  130.4430  149.7170 H   0  0  0  0  0  0  0  0  0  0  0  0  # atno 10718 bound_to 10713
  153.0540  135.5052  154.7936 H   0  0  0  0  0  0  0  0  0  0  0  0  # atno 10763 bound_to 10752
  154.6776  135.2963  154.9659 H   0  0  0  0  0  0  0  0  0  0  0  0  # atno 10764 bound_to 10752
  154.0456  135.6711  153.4847 H   0  0  0  0  0  0  0  0  0  0  0  0  # atno 10765 bound_to 10752
  140.1504  134.4468  155.8385 H   0  0  0  0  0  0  0  0  0  0  0  0  # atno 11005 bound_to 11000
  146.0069  139.3137  143.0894 LP  0  0  0  0  0  0  0  0  0  0  0  0  # atno 17320 bound_to 7965
  145.8728  140.9410  143.0642 LP  0  0  0  0  0  0  0  0  0  0  0  0  # atno 17321 bound_to 7965
  140.1418  143.4434  152.2189 LP  0  0  0  0  0  0  0  0  0  0  0  0  # atno 17342 bound_to 10162
  139.5613  144.7407  151.4147 LP  0  0  0  0  0  0  0  0  0  0  0  0  # atno 17343 bound_to 10162
  156.4103  130.7719  151.2731 LP  0  0  0  0  0  0  0  0  0  0  0  0  # atno 17370 bound_to 10713
  157.7508  131.0213  150.3745 LP  0  0  0  0  0  0  0  0  0  0  0  0  # atno 17371 bound_to 10713
  141.2198  133.6870  156.7412 LP  0  0  0  0  0  0  0  0  0  0  0  0  # atno 17394 bound_to 11000
  140.2611  134.8466  157.3759 LP  0  0  0  0  0  0  0  0  0  0  0  0  # atno 17395 bound_to 11000

$$$$
