AV-unprocessed.smi:230|AV-procd|sdf|1763|dock6
  -GOLD-   2262020293D 1   1.00000     0.00000
 Structure written by MMmdl.
 56 59  0  0  0  0  0  0  0  0  1 V2000
  141.6654  135.3987  153.4434 C   0  0  0  0  0  0  0  0  0  0  0  0
  143.0609  135.9080  153.0573 C   0  0  0  0  0  0  0  0  0  0  0  0
  143.7340  135.1094  151.9100 C   0  0  2  0  0  0  0  0  0  0  0  0
  143.3782  133.6083  152.0045 C   0  0  0  0  0  0  0  0  0  0  0  0
  144.0643  132.8465  151.0143 O   0  0  0  0  0  0  0  0  0  0  0  0
  145.4888  132.9493  151.0467 C   0  0  0  0  0  0  0  0  0  0  0  0
  146.0736  132.3095  152.3243 C   0  0  0  0  0  0  0  0  0  0  0  0
  145.9861  132.1726  149.8177 C   0  0  0  0  0  0  0  0  0  0  0  0
  145.8712  134.4365  150.9153 C   0  0  0  0  0  0  0  0  0  0  0  0
  145.1950  135.2532  151.9174 N   0  0  0  0  0  0  0  0  0  0  0  0
  145.6932  136.5110  151.9007 C   0  0  0  0  0  0  0  0  0  0  0  0
  145.7536  137.2104  150.7361 N   0  0  0  0  0  0  0  0  0  0  0  0
  146.2574  138.4484  150.7278 C   0  0  0  0  0  0  0  0  0  0  0  0
  146.7481  139.1577  151.7470 N   0  0  0  0  0  0  0  0  0  0  0  0
  146.6938  138.4524  152.9137 C   0  0  0  0  0  0  0  0  0  0  0  0
  146.1903  137.1322  153.0757 C   0  0  0  0  0  0  0  0  0  0  0  0
  146.2992  136.7373  154.4026 N   0  0  0  0  0  0  0  0  0  0  0  0
  146.8325  137.7711  154.9952 C   0  0  0  0  0  0  0  0  0  0  0  0
  147.0954  138.8478  154.1776 N   0  0  0  0  0  0  0  0  0  0  0  0
  147.6787  140.1206  154.5730 C   0  0  0  0  0  0  0  0  0  0  0  0
  149.2263  140.1084  154.6369 C   0  0  0  0  0  0  0  0  0  0  0  0
  149.7090  140.7888  153.4908 O   0  0  0  0  0  0  0  0  0  0  0  0
  149.7191  140.8577  155.8912 C   0  0  0  0  0  0  0  0  0  0  0  0
  151.2405  140.7266  156.0864 C   0  0  0  0  0  0  0  0  0  0  0  0
  151.6096  139.3535  156.1258 O   0  0  0  0  0  0  0  0  0  0  0  0
  151.3265  138.6730  154.9094 C   0  0  0  0  0  0  0  0  0  0  0  0
  149.8113  138.6790  154.6387 C   0  0  0  0  0  0  0  0  0  0  0  0
  141.2075  136.0576  154.1813 H   0  0  0  0  0  0  0  0  0  0  0  0
  141.7043  134.4017  153.8816 H   0  0  0  0  0  0  0  0  0  0  0  0
  141.0055  135.3638  152.5762 H   0  0  0  0  0  0  0  0  0  0  0  0
  142.9495  136.9552  152.7768 H   0  0  0  0  0  0  0  0  0  0  0  0
  143.7050  135.9023  153.9374 H   0  0  0  0  0  0  0  0  0  0  0  0
  143.3650  135.4863  150.9547 H   0  0  0  0  0  0  0  0  0  0  0  0
  143.5891  133.2160  152.9994 H   0  0  0  0  0  0  0  0  0  0  0  0
  142.3114  133.4602  151.8400 H   0  0  0  0  0  0  0  0  0  0  0  0
  147.1632  132.2923  152.2868 H   0  0  0  0  0  0  0  0  0  0  0  0
  145.7320  131.2804  152.4397 H   0  0  0  0  0  0  0  0  0  0  0  0
  145.7985  132.8528  153.2280 H   0  0  0  0  0  0  0  0  0  0  0  0
  147.0726  132.2137  149.7345 H   0  0  0  0  0  0  0  0  0  0  0  0
  145.5686  132.5805  148.8964 H   0  0  0  0  0  0  0  0  0  0  0  0
  145.6971  131.1225  149.8715 H   0  0  0  0  0  0  0  0  0  0  0  0
  146.9534  134.5492  151.0027 H   0  0  0  0  0  0  0  0  0  0  0  0
  145.5954  134.8026  149.9247 H   0  0  0  0  0  0  0  0  0  0  0  0
  146.2690  138.9411  149.7667 H   0  0  0  0  0  0  0  0  0  0  0  0
  147.0450  137.7804  156.0545 H   0  0  0  0  0  0  0  0  0  0  0  0
  147.3335  140.8852  153.8755 H   0  0  0  0  0  0  0  0  0  0  0  0
  147.2672  140.3923  155.5458 H   0  0  0  0  0  0  0  0  0  0  0  0
  149.7904  140.1665  152.7843 H   0  0  0  0  0  0  0  0  0  0  0  0
  149.4368  141.9103  155.8447 H   0  0  0  0  0  0  0  0  0  0  0  0
  149.2239  140.4483  156.7729 H   0  0  0  0  0  0  0  0  0  0  0  0
  151.7858  141.2391  155.2925 H   0  0  0  0  0  0  0  0  0  0  0  0
  151.5371  141.1961  157.0245 H   0  0  0  0  0  0  0  0  0  0  0  0
  151.8751  139.1324  154.0857 H   0  0  0  0  0  0  0  0  0  0  0  0
  151.6850  137.6469  154.9910 H   0  0  0  0  0  0  0  0  0  0  0  0
  149.3191  138.0910  155.4144 H   0  0  0  0  0  0  0  0  0  0  0  0
  149.6073  138.1723  153.6947 H   0  0  0  0  0  0  0  0  0  0  0  0
  1  2  1  0  0  0  0
  1 28  1  0  0  0  0
  1 29  1  0  0  0  0
  1 30  1  0  0  0  0
  2  3  1  0  0  0  0
  2 31  1  0  0  0  0
  2 32  1  0  0  0  0
  3 10  1  0  0  0  0
  3  4  1  0  0  0  0
  3 33  1  0  0  0  0
  4  5  1  0  0  0  0
  4 34  1  0  0  0  0
  4 35  1  0  0  0  0
  5  6  1  0  0  0  0
  6  7  1  0  0  0  0
  6  8  1  0  0  0  0
  6  9  1  0  0  0  0
  7 36  1  0  0  0  0
  7 37  1  0  0  0  0
  7 38  1  0  0  0  0
  8 39  1  0  0  0  0
  8 40  1  0  0  0  0
  8 41  1  0  0  0  0
  9 10  1  0  0  0  0
  9 42  1  0  0  0  0
  9 43  1  0  0  0  0
 10 11  1  0  0  0  0
 11 16  1  0  0  0  0
 11 12  2  0  0  0  0
 12 13  1  0  0  0  0
 13 14  2  0  0  0  0
 13 44  1  0  0  0  0
 14 15  1  0  0  0  0
 15 19  1  0  0  0  0
 15 16  2  0  0  0  0
 16 17  1  0  0  0  0
 17 18  2  0  0  0  0
 18 19  1  0  0  0  0
 18 45  1  0  0  0  0
 19 20  1  0  0  0  0
 20 21  1  0  0  0  0
 20 46  1  0  0  0  0
 20 47  1  0  0  0  0
 21 27  1  0  0  0  0
 21 22  1  0  0  0  0
 21 23  1  0  0  0  0
 22 48  1  0  0  0  0
 23 24  1  0  0  0  0
 23 49  1  0  0  0  0
 23 50  1  0  0  0  0
 24 25  1  0  0  0  0
 24 51  1  0  0  0  0
 24 52  1  0  0  0  0
 25 26  1  0  0  0  0
 26 27  1  0  0  0  0
 26 53  1  0  0  0  0
 26 54  1  0  0  0  0
 27 55  1  0  0  0  0
 27 56  1  0  0  0  0
M  END
> <s_m_source_file>
AV-unprocessed.smi

> <i_m_source_file_index>
230

> <i_lp_mmshare_version>
43012

> <i_f3d_flags>
0

> <s_epik_input>
W0NIM11DMShbQ0gzXSlPW0NIMl1bQ0BASF0oW0NIMl1bQ0gzXSlOKFtDSDJdMSljKG5bY0hdbjIpYyhjMjMpbltjSF1uM1tDSDJdQzQoW09IXSlbQ0gyXVtDSDJdT1tDSDJdW0NIMl00

> <s_epik_cmdline>
J2VwaWtfcHl0aG9uJywgJy1waCcsICc3LjAnLCAnLXRuJywgJzgnLCAnLW1hJywgJzIwMCcsICctbWV0YWxfYmluZGluZycsICctaW1hZScsICc8aW5maWxlLm1hZT4nLCAnLW9tYWUnLCAnPG91dGZpbGUubWFlPic=

> <r_lp_tautomer_probability>
1

> <r_epik_Ionization_Penalty>
0.000120535

> <r_epik_Ionization_Penalty_Charging>
0

> <r_epik_Ionization_Penalty_Neutral>
0.000120535

> <r_epik_State_Penalty>
-0

> <r_epik_Charging_Adjusted_Penalty>
0

> <i_epik_Tot_Q>
0

> <i_epik_Tot_abs_Q>
0

> <r_epik_Metal_State_Penalty>
-0

> <b_epik_Metal_Only>
0

> <s_lp_Force_Field>
OPLS_2005

> <r_lp_Energy>
33.8878

> <b_lp_Chiralities_Consistent>
1

> <s_lp_Variant>
AV-unprocessed.smi:230-1

> <Gold.Version>
5.8.1

> <Gold.Id.Protein>
6NUR|6NUR_protein|mol2

> <Gold.PLP.Fitness>
40.4890

> <Gold.PLP.PLP>
-38.1666

> <Gold.PLP.part.hbond>
-1.8714

> <Gold.PLP.part.metal>
0.0000

> <Gold.PLP.part.buried>
-1.5934

> <Gold.PLP.part.nonpolar>
-39.4821

> <Gold.PLP.part.repulsive>
6.4278

> <Gold.PLP.ligand.clash>
0.0000

> <Gold.PLP.ligand.torsion>
1.8184

> <Gold.PLP.Chemscore.Hbond>
1.8662

> <Gold.PLP.Chemscore.CHOScore>
0.0669

> <Gold.PLP.Chemscore.Metal>
0.0000

> <Gold.Chemscore.Hbonds>
donor molecule, donor type, donor heavy atom, donor atom, acceptor molecule, acceptor atom, score
      L1  H    22    48       P1  7957  0.83
      P1  H  7989  7998       L1    22  0.11
      P1  H  8011  8017       L1    22  0.75
      L1  C    13    44       P1 10171  0.12

> <Gold.PLP.Chemscore.Internal.Correction>
0.1601

> <Gold.Rescore>
     Score         DG    S(hbond)    S(metal)    S(lipo)     H(rot)  DE(clash)    DE(int)     intcor
      8.50     -15.20       1.30        0.00      94.43       2.21       4.28       2.42       ----

> <Gold.Chemscore.Fitness>
8.4978

> <Gold.Chemscore.DG>
-15.2005

> <Gold.Chemscore.ZeroCoef>
-5.4800

> <Gold.Chemscore.Hbond>
1.2970

> <Gold.Chemscore.Metal>
0.0000

> <Gold.Chemscore.Lipo>
94.4280

> <Gold.Chemscore.Internal_Hbond>
0.0000

> <Gold.Chemscore.DEClash>
4.2807

> <Gold.Chemscore.DEInternal>
2.4220

> <Gold.Chemscore.Rot>
2.2107

> <Gold.Chemscore.Internal.Correction>
   9.000000E+99

> <Gold.Chemscore.Hbonds>
donor molecule, donor type, donor heavy atom, donor atom, acceptor molecule, acceptor atom, score
      L1  H    22    48       P1  7957  0.81
      P1  H  8011  8017       L1    22  0.09

> <Gold.Chemscore.Hbond.Weighted>
-4.3319

> <Gold.Chemscore.Metal.Weighted>
-0.0000

> <Gold.Chemscore.Lipo.Weighted>
-11.0481

> <Gold.Chemscore.Internal_Hbond.Weighted>
0.0000

> <Gold.Chemscore.DEClash.Weighted>
4.2807

> <Gold.Chemscore.DEInternal.Weighted>
2.4220

> <Gold.Chemscore.Rot.Weighted>
5.6595

> <Gold.Chemscore.Internal.Correction.Weighted>
   9.000000E+99

> <Gold.Protein.RotatedTorsions>
[ 6907 6896 6895 6894 ] final -131.10 input  -60.11 | X-H torsion
[ 7974 7965 7964 7962 ] final   39.79 input  175.53 | X-H torsion
[ 8008 7997 7996 7995 ] final  130.32 input   59.86 | X-H torsion
[ 10167 10162 10161 10158 ] final   66.65 input  -65.29 | X-H torsion
[ 10718 10713 10712 10709 ] final  169.18 input   66.30 | X-H torsion
[ 10763 10752 10751 10750 ] final   -9.24 input  -60.55 | X-H torsion
[ 11005 11000 10999 10996 ] final  -85.37 input  -57.11 | X-H torsion

> <Gold.Protein.ActiveResidues>
 VAL166  LYS551  ARG553  GLY616  TRP617  ASP618  TYR619  PRO620  LYS621  CYS622 
 ASP623  PHE694  ASN695  SER759  ASP760  ASP761  ALA762  ILE779  LEU786  VAL792 
 PHE793  MET794  SER795  GLU796  ALA797  LYS798  CYS799  TRP800  GLU811  SER814 

> <Gold.Protein.RotatedAtoms>
  150.9472  133.6590  159.2778 H   0  0  0  0  0  0  0  0  0  0  0  0  # atno 6907 bound_to 6896
  151.3959  135.0962  159.9550 H   0  0  0  0  0  0  0  0  0  0  0  0  # atno 6908 bound_to 6896
  152.5094  133.8976  159.7480 H   0  0  0  0  0  0  0  0  0  0  0  0  # atno 6909 bound_to 6896
  146.0957  139.5610  142.9447 H   0  0  0  0  0  0  0  0  0  0  0  0  # atno 7974 bound_to 7965
  156.2952  140.2599  156.2742 H   0  0  0  0  0  0  0  0  0  0  0  0  # atno 8008 bound_to 7997
  154.9665  140.0391  157.2233 H   0  0  0  0  0  0  0  0  0  0  0  0  # atno 8009 bound_to 7997
  154.7898  140.2810  155.6004 H   0  0  0  0  0  0  0  0  0  0  0  0  # atno 8010 bound_to 7997
  140.0981  144.4928  150.7055 H   0  0  0  0  0  0  0  0  0  0  0  0  # atno 10167 bound_to 10162
  157.0263  131.0246  151.2759 H   0  0  0  0  0  0  0  0  0  0  0  0  # atno 10718 bound_to 10713
  153.4520  135.7015  153.6103 H   0  0  0  0  0  0  0  0  0  0  0  0  # atno 10763 bound_to 10752
  153.4434  135.3775  155.2241 H   0  0  0  0  0  0  0  0  0  0  0  0  # atno 10764 bound_to 10752
  154.8728  135.3979  154.3933 H   0  0  0  0  0  0  0  0  0  0  0  0  # atno 10765 bound_to 10752
  141.1642  133.7396  156.9005 H   0  0  0  0  0  0  0  0  0  0  0  0  # atno 11005 bound_to 11000
  145.5954  141.0363  143.2047 LP  0  0  0  0  0  0  0  0  0  0  0  0  # atno 17320 bound_to 7965
  144.7393  139.7494  143.7317 LP  0  0  0  0  0  0  0  0  0  0  0  0  # atno 17321 bound_to 7965
  140.6992  143.2424  151.4912 LP  0  0  0  0  0  0  0  0  0  0  0  0  # atno 17342 bound_to 10162
  139.5686  144.1982  152.1803 LP  0  0  0  0  0  0  0  0  0  0  0  0  # atno 17343 bound_to 10162
  157.5211  130.7999  149.7811 LP  0  0  0  0  0  0  0  0  0  0  0  0  # atno 17370 bound_to 10713
  156.0085  130.3844  150.2347 LP  0  0  0  0  0  0  0  0  0  0  0  0  # atno 17371 bound_to 10713
  140.1586  134.9181  157.2685 LP  0  0  0  0  0  0  0  0  0  0  0  0  # atno 17394 bound_to 11000
  140.2638  134.3540  155.7397 LP  0  0  0  0  0  0  0  0  0  0  0  0  # atno 17395 bound_to 11000

$$$$
