AV-unprocessed.smi:2029|AV-procd|sdf|8223|dock3
  -GOLD-   2272010493D 1   1.00000     0.00000
 Structure written by MMmdl.
 29 30  0  0  0  0  0  0  0  0  2 V2000
  149.5672  141.3577  153.8829 O   0  0  0  0  0  0  0  0  0  0  0  0
  148.5452  141.4104  154.5686 C   0  0  0  0  0  0  0  0  0  0  0  0
  148.5554  141.2642  155.9012 N   0  0  0  0  0  0  0  0  0  0  0  0
  149.7537  141.0180  156.6914 C   0  0  0  0  0  0  0  0  0  0  0  0
  150.8570  142.0224  156.3315 C   0  0  0  0  0  0  0  0  0  0  0  0
  151.3548  142.7882  157.5423 C   0  0  0  0  0  0  0  0  0  0  0  0
  152.1619  142.1861  158.5320 C   0  0  0  0  0  0  0  0  0  0  0  0
  152.5944  142.9569  159.6312 C   0  0  0  0  0  0  0  0  0  0  0  0
  152.2119  144.3116  159.7175 C   0  0  0  0  0  0  0  0  0  0  0  0
  151.4064  144.8624  158.7000 C   0  0  0  0  0  0  0  0  0  0  0  0
  151.0121  144.0914  157.6627 N   0  3  0  0  0  0  0  0  0  0  0  0
  147.1860  141.6398  153.9929 C   0  0  0  0  0  0  0  0  0  0  0  0
  146.4265  142.8671  154.4537 C   0  0  0  0  0  0  0  0  0  0  0  0
  145.9964  141.4994  154.9209 C   0  0  0  0  0  0  0  0  0  0  0  0
  147.6764  141.3200  156.3951 H   0  0  0  0  0  0  0  0  0  0  0  0
  149.5089  141.0976  157.7519 H   0  0  0  0  0  0  0  0  0  0  0  0
  150.0988  139.9979  156.5146 H   0  0  0  0  0  0  0  0  0  0  0  0
  151.6994  141.5051  155.8702 H   0  0  0  0  0  0  0  0  0  0  0  0
  150.4875  142.7320  155.5899 H   0  0  0  0  0  0  0  0  0  0  0  0
  152.4488  141.1475  158.4517 H   0  0  0  0  0  0  0  0  0  0  0  0
  153.2123  142.5143  160.3989 H   0  0  0  0  0  0  0  0  0  0  0  0
  152.5326  144.9188  160.5515 H   0  0  0  0  0  0  0  0  0  0  0  0
  151.0682  145.8882  158.6848 H   0  0  0  0  0  0  0  0  0  0  0  0
  147.0371  141.3343  152.9583 H   0  0  0  0  0  0  0  0  0  0  0  0
  146.8918  143.5226  155.1880 H   0  0  0  0  0  0  0  0  0  0  0  0
  145.8089  143.3718  153.7136 H   0  0  0  0  0  0  0  0  0  0  0  0
  145.0867  141.0784  154.4977 H   0  0  0  0  0  0  0  0  0  0  0  0
  146.1765  141.2480  155.9647 H   0  0  0  0  0  0  0  0  0  0  0  0
  150.4304  144.5115  156.9373 H   0  0  0  0  0  0  0  0  0  0  0  0
  1  2  2  0  0  0  0
  2  3  1  0  0  0  0
  2 12  1  0  0  0  0
  3  4  1  0  0  0  0
  3 15  1  0  0  0  0
  4  5  1  0  0  0  0
  4 16  1  0  0  0  0
  4 17  1  0  0  0  0
  5  6  1  0  0  0  0
  5 18  1  0  0  0  0
  5 19  1  0  0  0  0
  6 11  1  0  0  0  0
  6  7  2  0  0  0  0
  7  8  1  0  0  0  0
  7 20  1  0  0  0  0
  8  9  2  0  0  0  0
  8 21  1  0  0  0  0
  9 10  1  0  0  0  0
  9 22  1  0  0  0  0
 10 11  2  0  0  0  0
 10 23  1  0  0  0  0
 11 29  1  0  0  0  0
 12 14  1  0  0  0  0
 12 13  1  0  0  0  0
 12 24  1  0  0  0  0
 13 14  1  0  0  0  0
 13 25  1  0  0  0  0
 13 26  1  0  0  0  0
 14 27  1  0  0  0  0
 14 28  1  0  0  0  0
M  CHG  1  11   1
M  END
> <s_m_source_file>
AV-unprocessed.smi

> <i_m_source_file_index>
2029

> <i_lp_mmshare_version>
43012

> <i_f3d_flags>
0

> <s_epik_input>
W0NIMl0xW0NIMl1bQ0hdMUMoPU8pW05IXVtDSDJdW0NIMl1jMltjSF1bY0hdW2NIXVtjSF1uMg==

> <s_epik_cmdline>
J2VwaWtfcHl0aG9uJywgJy1waCcsICc3LjAnLCAnLXRuJywgJzgnLCAnLW1hJywgJzIwMCcsICctbWV0YWxfYmluZGluZycsICctaW1hZScsICc8aW5maWxlLm1hZT4nLCAnLW9tYWUnLCAnPG91dGZpbGUubWFlPic=

> <r_epik_Ionization_Penalty>
1.82741

> <r_epik_Ionization_Penalty_Charging>
1.82741

> <r_epik_Ionization_Penalty_Neutral>
2.2197e-08

> <r_epik_State_Penalty>
1.94311

> <r_epik_Charging_Adjusted_Penalty>
3.77052

> <i_epik_Tot_Q>
1

> <i_epik_Tot_abs_Q>
1

> <r_epik_Metal_State_Penalty>
1.96982

> <b_epik_Metal_Only>
0

> <s_lp_Force_Field>
OPLS_2005

> <r_lp_Energy>
10.9876

> <b_lp_Chiralities_Consistent>
1

> <s_lp_Variant>
AV-unprocessed.smi:2029-2

> <Gold.Version>
5.8.1

> <Gold.Id.Protein>
6NUR|6NUR_protein|mol2

> <Gold.PLP.Fitness>
43.9158

> <Gold.PLP.PLP>
-35.5534

> <Gold.PLP.part.hbond>
-3.0000

> <Gold.PLP.part.metal>
0.0000

> <Gold.PLP.part.buried>
-4.5564

> <Gold.PLP.part.nonpolar>
-29.3026

> <Gold.PLP.part.repulsive>
1.0941

> <Gold.PLP.ligand.clash>
0.0000

> <Gold.PLP.ligand.torsion>
0.6175

> <Gold.PLP.Chemscore.Hbond>
3.1736

> <Gold.PLP.Chemscore.CHOScore>
0.0000

> <Gold.PLP.Chemscore.Metal>
0.0000

> <Gold.Chemscore.Hbonds>
donor molecule, donor type, donor heavy atom, donor atom, acceptor molecule, acceptor atom, score
      L1  H    11    29       P1  8028  2.00
      P1  H  7989  7998       L1     1  0.19
      P1  H  8011  8017       L1     1  0.77

> <Gold.PLP.Chemscore.Internal.Correction>
0.0765

> <Gold.Rescore>
     Score         DG    S(hbond)    S(metal)    S(lipo)     H(rot)  DE(clash)    DE(int)     intcor
     16.01     -17.99       1.85        0.00      88.79       1.58       0.01       1.97       ----

> <Gold.Chemscore.Fitness>
16.0137

> <Gold.Chemscore.DG>
-17.9884

> <Gold.Chemscore.ZeroCoef>
-5.4800

> <Gold.Chemscore.Hbond>
1.8468

> <Gold.Chemscore.Metal>
0.0000

> <Gold.Chemscore.Lipo>
88.7904

> <Gold.Chemscore.Internal_Hbond>
0.0000

> <Gold.Chemscore.DEClash>
0.0089

> <Gold.Chemscore.DEInternal>
1.9659

> <Gold.Chemscore.Rot>
1.5813

> <Gold.Chemscore.Internal.Correction>
   9.000000E+99

> <Gold.Chemscore.Hbonds>
donor molecule, donor type, donor heavy atom, donor atom, acceptor molecule, acceptor atom, score
      L1  H    11    29       P1  8028  0.83
      P1  H  7989  7998       L1     1  0.19
      P1  H  8011  8017       L1     1  0.77

> <Gold.Chemscore.Hbond.Weighted>
-6.1682

> <Gold.Chemscore.Metal.Weighted>
-0.0000

> <Gold.Chemscore.Lipo.Weighted>
-10.3885

> <Gold.Chemscore.Internal_Hbond.Weighted>
0.0000

> <Gold.Chemscore.DEClash.Weighted>
0.0089

> <Gold.Chemscore.DEInternal.Weighted>
1.9659

> <Gold.Chemscore.Rot.Weighted>
4.0482

> <Gold.Chemscore.Internal.Correction.Weighted>
   9.000000E+99

> <Gold.Protein.RotatedTorsions>
[ 6907 6896 6895 6894 ] final  -99.82 input  -60.11 | X-H torsion
[ 7974 7965 7964 7962 ] final   26.78 input  175.53 | X-H torsion
[ 8008 7997 7996 7995 ] final  -12.40 input   59.86 | X-H torsion
[ 10167 10162 10161 10158 ] final -155.10 input  -65.29 | X-H torsion
[ 10718 10713 10712 10709 ] final    4.85 input   66.30 | X-H torsion
[ 10763 10752 10751 10750 ] final  124.25 input  -60.55 | X-H torsion
[ 11005 11000 10999 10996 ] final  -92.05 input  -57.11 | X-H torsion

> <Gold.Protein.ActiveResidues>
 VAL166  LYS551  ARG553  GLY616  TRP617  ASP618  TYR619  PRO620  LYS621  CYS622 
 ASP623  PHE694  ASN695  SER759  ASP760  ASP761  ALA762  ILE779  LEU786  VAL792 
 PHE793  MET794  SER795  GLU796  ALA797  LYS798  CYS799  TRP800  GLU811  SER814 

> <Gold.Protein.RotatedAtoms>
  150.7093  134.0982  159.3955 H   0  0  0  0  0  0  0  0  0  0  0  0  # atno 6907 bound_to 6896
  151.8968  135.0392  160.0512 H   0  0  0  0  0  0  0  0  0  0  0  0  # atno 6908 bound_to 6896
  152.2447  133.5129  159.5327 H   0  0  0  0  0  0  0  0  0  0  0  0  # atno 6909 bound_to 6896
  146.1819  139.7281  142.8894 H   0  0  0  0  0  0  0  0  0  0  0  0  # atno 7974 bound_to 7965
  154.5381  140.2277  155.8688 H   0  0  0  0  0  0  0  0  0  0  0  0  # atno 8008 bound_to 7997
  156.1831  140.3095  155.9149 H   0  0  0  0  0  0  0  0  0  0  0  0  # atno 8009 bound_to 7997
  155.3314  140.0445  157.3033 H   0  0  0  0  0  0  0  0  0  0  0  0  # atno 8010 bound_to 7997
  139.6958  143.9344  152.2406 H   0  0  0  0  0  0  0  0  0  0  0  0  # atno 10167 bound_to 10162
  156.8987  130.5714  149.5648 H   0  0  0  0  0  0  0  0  0  0  0  0  # atno 10718 bound_to 10713
  153.6584  135.3350  155.3120 H   0  0  0  0  0  0  0  0  0  0  0  0  # atno 10763 bound_to 10752
  154.8521  135.4357  154.1830 H   0  0  0  0  0  0  0  0  0  0  0  0  # atno 10764 bound_to 10752
  153.2791  135.7007  153.7479 H   0  0  0  0  0  0  0  0  0  0  0  0  # atno 10765 bound_to 10752
  141.1531  133.7795  156.9966 H   0  0  0  0  0  0  0  0  0  0  0  0  # atno 11005 bound_to 11000
  145.4051  141.0390  143.3049 LP  0  0  0  0  0  0  0  0  0  0  0  0  # atno 17320 bound_to 7965
  144.8330  139.5597  143.6935 LP  0  0  0  0  0  0  0  0  0  0  0  0  # atno 17321 bound_to 7965
  139.9173  144.6821  150.8499 LP  0  0  0  0  0  0  0  0  0  0  0  0  # atno 17342 bound_to 10162
  140.7696  143.3400  151.2228 LP  0  0  0  0  0  0  0  0  0  0  0  0  # atno 17343 bound_to 10162
  156.0593  130.5648  150.9158 LP  0  0  0  0  0  0  0  0  0  0  0  0  # atno 17370 bound_to 10713
  157.6039  131.0940  150.8912 LP  0  0  0  0  0  0  0  0  0  0  0  0  # atno 17371 bound_to 10713
  140.0968  134.9559  157.1861 LP  0  0  0  0  0  0  0  0  0  0  0  0  # atno 17394 bound_to 11000
  140.3372  134.2744  155.7218 LP  0  0  0  0  0  0  0  0  0  0  0  0  # atno 17395 bound_to 11000

$$$$
