AV-unprocessed.smi:648|AV-procd|sdf|3171|dock1
  -GOLD-   22720 0 93D 1   1.00000     0.00000
 Structure written by MMmdl.
 46 47  0  0  0  0  0  0  0  0  2 V2000
  153.4928  138.5581  154.5402 C   0  0  0  0  0  0  0  0  0  0  0  0
  152.0441  138.7294  155.0205 C   0  0  1  0  0  0  0  0  0  0  0  0
  151.8328  140.1194  155.6508 C   0  0  0  0  0  0  0  0  0  0  0  0
  150.3962  140.3585  156.1737 C   0  0  0  0  0  0  0  0  0  0  0  0
  150.1679  139.6196  157.5122 C   0  0  0  0  0  0  0  0  0  0  0  0
  150.2355  141.8644  156.4764 C   0  0  0  0  0  0  0  0  0  0  0  0
  149.3508  139.9775  155.0823 C   0  0  0  0  0  0  0  0  0  0  0  0
  149.5602  138.6429  154.3023 C   0  0  1  0  0  0  0  0  0  0  0  0
  149.1338  137.4232  155.1649 C   0  0  0  0  0  0  0  0  0  0  0  0
  149.4477  136.1967  154.5327 O   0  0  0  0  0  0  0  0  0  0  0  0
  148.6343  138.6285  153.1314 N   0  3  0  0  0  0  0  0  0  0  0  0
  147.1807  138.8086  153.3552 C   0  0  0  0  0  0  0  0  0  0  0  0
  146.3928  138.4722  152.0809 C   0  0  0  0  0  0  0  0  0  0  0  0
  145.5838  137.2803  152.2449 N   0  0  0  0  0  0  0  0  0  0  0  0
  145.7265  136.0546  151.7382 C   0  0  0  0  0  0  0  0  0  0  0  0
  144.7826  135.2051  152.1191 N   0  0  0  0  0  0  0  0  0  0  0  0
  144.0420  136.0294  152.9183 C   0  0  0  0  0  0  0  0  0  0  0  0
  144.4805  137.2836  153.0292 N   0  0  0  0  0  0  0  0  0  0  0  0
  151.0478  138.5242  153.8637 C   0  0  0  0  0  0  0  0  0  0  0  0
  153.7479  139.2888  153.7719 H   0  0  0  0  0  0  0  0  0  0  0  0
  153.6533  137.5643  154.1214 H   0  0  0  0  0  0  0  0  0  0  0  0
  154.1959  138.6831  155.3642 H   0  0  0  0  0  0  0  0  0  0  0  0
  151.8782  137.9656  155.7784 H   0  0  0  0  0  0  0  0  0  0  0  0
  152.5485  140.2711  156.4603 H   0  0  0  0  0  0  0  0  0  0  0  0
  152.0727  140.8742  154.9001 H   0  0  0  0  0  0  0  0  0  0  0  0
  149.1199  139.6513  157.8120 H   0  0  0  0  0  0  0  0  0  0  0  0
  150.7446  140.0817  158.3144 H   0  0  0  0  0  0  0  0  0  0  0  0
  150.4801  138.5802  157.4942 H   0  0  0  0  0  0  0  0  0  0  0  0
  149.2392  142.0886  156.8598 H   0  0  0  0  0  0  0  0  0  0  0  0
  150.3875  142.4759  155.5861 H   0  0  0  0  0  0  0  0  0  0  0  0
  150.9564  142.2015  157.2222 H   0  0  0  0  0  0  0  0  0  0  0  0
  148.3472  140.0025  155.5094 H   0  0  0  0  0  0  0  0  0  0  0  0
  149.3577  140.7906  154.3580 H   0  0  0  0  0  0  0  0  0  0  0  0
  149.6223  137.3996  156.1321 H   0  0  0  0  0  0  0  0  0  0  0  0
  148.0602  137.4431  155.3577 H   0  0  0  0  0  0  0  0  0  0  0  0
  149.1096  136.2179  153.6498 H   0  0  0  0  0  0  0  0  0  0  0  0
  148.9303  139.3721  152.5145 H   0  0  0  0  0  0  0  0  0  0  0  0
  146.8343  138.1780  154.1724 H   0  0  0  0  0  0  0  0  0  0  0  0
  146.9800  139.8431  153.6356 H   0  0  0  0  0  0  0  0  0  0  0  0
  145.7386  139.3013  151.8075 H   0  0  0  0  0  0  0  0  0  0  0  0
  147.0722  138.3132  151.2421 H   0  0  0  0  0  0  0  0  0  0  0  0
  146.5353  135.7768  151.0781 H   0  0  0  0  0  0  0  0  0  0  0  0
  143.1538  135.6956  153.4340 H   0  0  0  0  0  0  0  0  0  0  0  0
  151.2844  139.2798  153.1151 H   0  0  0  0  0  0  0  0  0  0  0  0
  151.2263  137.5622  153.3821 H   0  0  0  0  0  0  0  0  0  0  0  0
  148.7731  137.7527  152.6480 H   0  0  0  0  0  0  0  0  0  0  0  0
  1  2  1  0  0  0  0
  1 20  1  0  0  0  0
  1 21  1  0  0  0  0
  1 22  1  0  0  0  0
  2 19  1  0  0  0  0
  2  3  1  0  0  0  0
  2 23  1  0  0  0  0
  3  4  1  0  0  0  0
  3 24  1  0  0  0  0
  3 25  1  0  0  0  0
  4  5  1  0  0  0  0
  4  6  1  0  0  0  0
  4  7  1  0  0  0  0
  5 26  1  0  0  0  0
  5 27  1  0  0  0  0
  5 28  1  0  0  0  0
  6 29  1  0  0  0  0
  6 30  1  0  0  0  0
  6 31  1  0  0  0  0
  7  8  1  0  0  0  0
  7 32  1  0  0  0  0
  7 33  1  0  0  0  0
  8  9  1  0  0  0  0
  8 11  1  0  0  0  0
  8 19  1  0  0  0  0
  9 10  1  0  0  0  0
  9 34  1  0  0  0  0
  9 35  1  0  0  0  0
 10 36  1  0  0  0  0
 11 12  1  0  0  0  0
 11 37  1  0  0  0  0
 11 46  1  0  0  0  0
 12 13  1  0  0  0  0
 12 38  1  0  0  0  0
 12 39  1  0  0  0  0
 13 14  1  0  0  0  0
 13 40  1  0  0  0  0
 13 41  1  0  0  0  0
 14 18  1  0  0  0  0
 14 15  1  0  0  0  0
 15 16  2  0  0  0  0
 15 42  1  0  0  0  0
 16 17  1  0  0  0  0
 17 18  2  0  0  0  0
 17 43  1  0  0  0  0
 19 44  1  0  0  0  0
 19 45  1  0  0  0  0
M  CHG  1  11   1
M  END
> <s_m_source_file>
AV-unprocessed.smi

> <i_m_source_file_index>
648

> <i_lp_mmshare_version>
43012

> <i_f3d_flags>
0

> <s_epik_input>
W0NIM11DMShbQ0gzXSlbQ0gyXVtDQEBIXShbQ0gzXSlbQ0gyXVtDQF0oW0NIMl0xKShbQ0gyXVtPSF0pW05IXVtDSDJdW0NIMl1uMltjSF1uW2NIXW4y

> <s_epik_cmdline>
J2VwaWtfcHl0aG9uJywgJy1waCcsICc3LjAnLCAnLXRuJywgJzgnLCAnLW1hJywgJzIwMCcsICctbWV0YWxfYmluZGluZycsICctaW1hZScsICc8aW5maWxlLm1hZT4nLCAnLW9tYWUnLCAnPG91dGZpbGUubWFlPic=

> <r_lp_tautomer_probability>
1

> <r_epik_Ionization_Penalty>
0.00942316

> <r_epik_Ionization_Penalty_Charging>
0.00942185

> <r_epik_Ionization_Penalty_Neutral>
1.31257e-06

> <r_epik_State_Penalty>
0.00715409

> <r_epik_Charging_Adjusted_Penalty>
0.0165759

> <i_epik_Tot_Q>
1

> <i_epik_Tot_abs_Q>
1

> <r_epik_Metal_State_Penalty>
0.00715563

> <b_epik_Metal_Only>
0

> <s_lp_Force_Field>
OPLS_2005

> <r_lp_Energy>
31.5534

> <b_lp_Chiralities_Consistent>
1

> <s_lp_Variant>
AV-unprocessed.smi:648-2

> <Gold.Version>
5.8.1

> <Gold.Id.Protein>
6NUR|6NUR_protein|mol2

> <Gold.PLP.Fitness>
47.3426

> <Gold.PLP.PLP>
-34.0610

> <Gold.PLP.part.hbond>
-2.9231

> <Gold.PLP.part.metal>
0.0000

> <Gold.PLP.part.buried>
-1.9550

> <Gold.PLP.part.nonpolar>
-31.1873

> <Gold.PLP.part.repulsive>
0.7366

> <Gold.PLP.ligand.clash>
0.0000

> <Gold.PLP.ligand.torsion>
0.5749

> <Gold.PLP.Chemscore.Hbond>
4.0000

> <Gold.PLP.Chemscore.CHOScore>
0.7889

> <Gold.PLP.Chemscore.Metal>
0.0000

> <Gold.Chemscore.Hbonds>
donor molecule, donor type, donor heavy atom, donor atom, acceptor molecule, acceptor atom, score
      L1  H    10    36       P1  7948  1.00
      L1  H    11    37       P1  7957  1.00
      L1  H    11    46       P1  7948  2.00
      L1  C    15    42       P1  7948  0.78

> <Gold.PLP.Chemscore.Internal.Correction>
0.0647

> <Gold.Rescore>
     Score         DG    S(hbond)    S(metal)    S(lipo)     H(rot)  DE(clash)    DE(int)     intcor
     15.70     -16.37       2.98        0.00      77.50       3.17       0.14       0.53       ----

> <Gold.Chemscore.Fitness>
15.7044

> <Gold.Chemscore.DG>
-16.3741

> <Gold.Chemscore.ZeroCoef>
-5.4800

> <Gold.Chemscore.Hbond>
2.9804

> <Gold.Chemscore.Metal>
0.0000

> <Gold.Chemscore.Lipo>
77.5006

> <Gold.Chemscore.Internal_Hbond>
0.0000

> <Gold.Chemscore.DEClash>
0.1417

> <Gold.Chemscore.DEInternal>
0.5280

> <Gold.Chemscore.Rot>
3.1750

> <Gold.Chemscore.Internal.Correction>
   9.000000E+99

> <Gold.Chemscore.Hbonds>
donor molecule, donor type, donor heavy atom, donor atom, acceptor molecule, acceptor atom, score
      L1  H    10    36       P1  7948  0.96
      L1  H    11    37       P1  7957  0.98
      L1  H    11    46       P1  7948  1.00

> <Gold.Chemscore.Hbond.Weighted>
-9.9544

> <Gold.Chemscore.Metal.Weighted>
-0.0000

> <Gold.Chemscore.Lipo.Weighted>
-9.0676

> <Gold.Chemscore.Internal_Hbond.Weighted>
0.0000

> <Gold.Chemscore.DEClash.Weighted>
0.1417

> <Gold.Chemscore.DEInternal.Weighted>
0.5280

> <Gold.Chemscore.Rot.Weighted>
8.1279

> <Gold.Chemscore.Internal.Correction.Weighted>
   9.000000E+99

> <Gold.Protein.RotatedTorsions>
[ 6907 6896 6895 6894 ] final   53.65 input  -60.11 | X-H torsion
[ 7974 7965 7964 7962 ] final  178.25 input  175.53 | X-H torsion
[ 8008 7997 7996 7995 ] final -176.97 input   59.86 | X-H torsion
[ 10167 10162 10161 10158 ] final  -98.73 input  -65.29 | X-H torsion
[ 10718 10713 10712 10709 ] final   41.20 input   66.30 | X-H torsion
[ 10763 10752 10751 10750 ] final   12.07 input  -60.55 | X-H torsion
[ 11005 11000 10999 10996 ] final  -91.17 input  -57.11 | X-H torsion

> <Gold.Protein.ActiveResidues>
 VAL166  LYS551  ARG553  GLY616  TRP617  ASP618  TYR619  PRO620  LYS621  CYS622 
 ASP623  PHE694  ASN695  SER759  ASP760  ASP761  ALA762  ILE779  LEU786  VAL792 
 PHE793  MET794  SER795  GLU796  ALA797  LYS798  CYS799  TRP800  GLU811  SER814 

> <Gold.Protein.RotatedAtoms>
  152.3359  134.7199  160.0276 H   0  0  0  0  0  0  0  0  0  0  0  0  # atno 6907 bound_to 6896
  151.7600  133.3327  159.3423 H   0  0  0  0  0  0  0  0  0  0  0  0  # atno 6908 bound_to 6896
  150.7450  134.6047  159.6099 H   0  0  0  0  0  0  0  0  0  0  0  0  # atno 6909 bound_to 6896
  144.7158  140.0369  143.6438 H   0  0  0  0  0  0  0  0  0  0  0  0  # atno 7974 bound_to 7965
  156.0013  140.1221  157.0544 H   0  0  0  0  0  0  0  0  0  0  0  0  # atno 8008 bound_to 7997
  154.4243  140.1106  156.5770 H   0  0  0  0  0  0  0  0  0  0  0  0  # atno 8009 bound_to 7997
  155.6208  140.3472  155.4653 H   0  0  0  0  0  0  0  0  0  0  0  0  # atno 8010 bound_to 7997
  140.2699  143.3351  152.0545 H   0  0  0  0  0  0  0  0  0  0  0  0  # atno 10167 bound_to 10162
  157.3908  130.7805  149.7268 H   0  0  0  0  0  0  0  0  0  0  0  0  # atno 10718 bound_to 10713
  153.1860  135.6835  153.8415 H   0  0  0  0  0  0  0  0  0  0  0  0  # atno 10763 bound_to 10752
  153.7731  135.3193  155.3356 H   0  0  0  0  0  0  0  0  0  0  0  0  # atno 10764 bound_to 10752
  154.8089  135.4730  154.0560 H   0  0  0  0  0  0  0  0  0  0  0  0  # atno 10765 bound_to 10752
  141.1550  133.7739  156.9842 H   0  0  0  0  0  0  0  0  0  0  0  0  # atno 11005 bound_to 11000
  146.0056  139.3127  143.0901 LP  0  0  0  0  0  0  0  0  0  0  0  0  # atno 17320 bound_to 7965
  145.8742  140.9402  143.0635 LP  0  0  0  0  0  0  0  0  0  0  0  0  # atno 17321 bound_to 7965
  139.4992  144.6663  151.6348 LP  0  0  0  0  0  0  0  0  0  0  0  0  # atno 17342 bound_to 10162
  140.5898  143.9799  150.6318 LP  0  0  0  0  0  0  0  0  0  0  0  0  # atno 17343 bound_to 10162
  155.9798  130.4036  150.3567 LP  0  0  0  0  0  0  0  0  0  0  0  0  # atno 17370 bound_to 10713
  157.1682  131.0362  151.2808 LP  0  0  0  0  0  0  0  0  0  0  0  0  # atno 17371 bound_to 10713
  140.1046  134.9515  157.1974 LP  0  0  0  0  0  0  0  0  0  0  0  0  # atno 17394 bound_to 11000
  140.3274  134.2848  155.7234 LP  0  0  0  0  0  0  0  0  0  0  0  0  # atno 17395 bound_to 11000

$$$$
