#       Name:                AV-unprocessed.smi:686
#       Creating user name   scv26
#       Creation time:       Fri Mar 27 00:32:40 2020


#       File generated by GOLD software.
#

@<TRIPOS>MOLECULE
AV-unprocessed.smi:686
    44    45     1
SMALL
NO_CHARGES


@<TRIPOS>ATOM
      1 ****         0.1615  -0.0550   3.2713 C.3            1 S1                 0.0000
      2 ****        -0.9453   0.0418   2.1994 C.3            1 S1                 0.0000
      3 ****        -1.4410  -1.3034   1.6690 C.3            1 S1                 0.0000
      4 ****        -2.2305  -0.9655   0.4633 N.4            1 S1                 1.0000
      5 ****        -2.4115  -2.0716  -0.5196 C.3            1 S1                 0.0000
      6 ****        -3.3781  -1.6592  -1.6459 C.3            1 S1                 0.0000
      7 ****        -2.9299  -3.3567   0.1546 C.3            1 S1                 0.0000
      8 ****        -1.6693   0.2946  -0.0938 C.3            1 S1                 0.0000
      9 ****        -0.6418   0.8438   0.9187 C.3            1 S1                 0.0000
     10 ****         0.7133   0.5823   0.4442 N.pl3          1 S1                -1.0000
     11 ****         1.4242   1.6381  -0.5610 S.o2           1 S1                 0.0000
     12 ****         0.8124   1.6410  -1.8997 O.2            1 S1                 0.0000
     13 ****         1.6541   2.9483   0.0696 O.2            1 S1                 0.0000
     14 ****         3.0850   0.8618  -0.7553 C.3            1 S1                 0.0000
     15 ****         3.9562   1.7215  -1.6273 C.2            1 S1                 0.0000
     16 ****         4.6472   2.9163  -1.2822 C.2            1 S1                 0.0000
     17 ****         5.2759   3.2679  -2.4414 C.2            1 S1                 0.0000
     18 ****         5.0078   2.3665  -3.4196 O.3            1 S1                 0.0000
     19 ****         4.1670   1.3809  -2.8895 N.2            1 S1                 0.0000
     20 ****         1.0388  -0.5985   2.9163 H              1 S1                 0.0000
     21 ****        -0.2067  -0.5858   4.1494 H              1 S1                 0.0000
     22 ****         0.4898   0.9307   3.6055 H              1 S1                 0.0000
     23 ****        -1.7991   0.5289   2.6737 H              1 S1                 0.0000
     24 ****        -0.6029  -1.9551   1.4065 H              1 S1                 0.0000
     25 ****        -2.0503  -1.8278   2.4061 H              1 S1                 0.0000
     26 ****        -1.4390  -2.2914  -0.9635 H              1 S1                 0.0000
     27 ****        -3.5253  -2.4766  -2.3526 H              1 S1                 0.0000
     28 ****        -3.0058  -0.8104  -2.2189 H              1 S1                 0.0000
     29 ****        -4.3565  -1.3881  -1.2478 H              1 S1                 0.0000
     30 ****        -3.1103  -4.1386  -0.5836 H              1 S1                 0.0000
     31 ****        -3.8682  -3.1775   0.6809 H              1 S1                 0.0000
     32 ****        -2.2146  -3.7615   0.8707 H              1 S1                 0.0000
     33 ****        -1.2253   0.1371  -1.0777 H              1 S1                 0.0000
     34 ****        -2.4883   1.0020  -0.2270 H              1 S1                 0.0000
     35 ****        -0.8103   1.9054   1.1017 H              1 S1                 0.0000
     36 ****         3.5254   0.7451   0.2344 H              1 S1                 0.0000
     37 ****         2.9509  -0.1336  -1.1791 H              1 S1                 0.0000
     38 ****         4.6698   3.4355  -0.3357 H              1 S1                 0.0000
     39 ****         5.9195   4.0904  -2.7165 H              1 S1                 0.0000
     40 ****        -3.1500  -0.7237   0.8033 H              1 S1                 0.0000
     41 ****         1.1996  -0.2412   0.7364 LP             1 S1                 0.0000
     42 ****         5.8592   1.9495  -3.7379 LP             1 S1                 0.0000
     43 ****         4.5537   2.8228  -4.1849 LP             1 S1                 0.0000
     44 ****         3.8003   0.5823  -3.3667 LP             1 S1                 0.0000
@<TRIPOS>BOND
    1    1    2 1     
    2    1   20 1     
    3    1   21 1     
    4    1   22 1     
    5    2    9 1     
    6    2    3 1     
    7    2   23 1     
    8    3    4 1     
    9    3   24 1     
   10    3   25 1     
   11    4    5 1     
   12    4    8 1     
   13    4   40 1     
   14    5    6 1     
   15    5    7 1     
   16    5   26 1     
   17    6   27 1     
   18    6   28 1     
   19    6   29 1     
   20    7   30 1     
   21    7   31 1     
   22    7   32 1     
   23    8    9 1     
   24    8   33 1     
   25    8   34 1     
   26    9   10 1     
   27    9   35 1     
   28   10   11 1     
   29   11   12 2     
   30   11   13 2     
   31   11   14 1     
   32   14   15 1     
   33   14   36 1     
   34   14   37 1     
   35   15   19 2     
   36   15   16 1     
   37   16   17 2     
   38   16   38 1     
   39   17   18 1     
   40   17   39 1     
   41   18   19 1     
   42   10   41 1     
   43   18   42 1     
   44   18   43 1     
   45   19   44 1     
@<TRIPOS>SUBSTRUCTURE
      1 S1             1
@<TRIPOS>SET
LONE_PAIRS      STATIC     ATOMS    <user>   **** ""
6 41 12 13 42 43 44
DONOR_HYDROGENS      STATIC     ATOMS    <user>   **** ""
1 40
ATOM$BLUE        STATIC     ATOMS    COLORGROUP SYSTEM
6 41 12 13 42 43 44
ATOM$RED        STATIC     ATOMS    COLORGROUP SYSTEM
1 40
