AV-unprocessed.smi:2997|AV-procd|sdf|11414|dock6
  -GOLD-   2272016333D 1   1.00000     0.00000
 Structure written by MMmdl.
 39 41  0  0  0  0  0  0  0  0  2 V2000
  152.7933  143.6101  162.0675 C   0  0  0  0  0  0  0  0  0  0  0  0
  152.5194  142.8884  160.7589 C   0  0  0  0  0  0  0  0  0  0  0  0
  152.9020  141.5327  160.6434 C   0  0  0  0  0  0  0  0  0  0  0  0
  152.6409  140.9009  159.4332 C   0  0  0  0  0  0  0  0  0  0  0  0
  152.8915  139.5939  159.0096 N   0  3  0  0  0  0  0  0  0  0  0  0
  152.4525  139.4390  157.7297 C   0  0  0  0  0  0  0  0  0  0  0  0
  151.9269  140.6288  157.3304 N   0  0  0  0  0  0  0  0  0  0  0  0
  151.3131  141.0072  156.0508 C   0  0  0  0  0  0  0  0  0  0  0  0
  150.3634  139.9254  155.5021 C   0  0  2  0  0  0  0  0  0  0  0  0
  150.3438  139.9894  154.0880 O   0  0  0  0  0  0  0  0  0  0  0  0
  148.9342  140.0815  156.0549 C   0  0  0  0  0  0  0  0  0  0  0  0
  148.0485  140.7548  155.1213 N   0  0  0  0  0  0  0  0  0  0  0  0
  147.6462  142.0739  155.1247 C   0  0  0  0  0  0  0  0  0  0  0  0
  146.8094  142.2464  154.0596 C   0  0  0  0  0  0  0  0  0  0  0  0
  146.7624  140.9594  153.4548 C   0  0  0  0  0  0  0  0  0  0  0  0
  147.5042  140.0686  154.0931 N   0  0  0  0  0  0  0  0  0  0  0  0
  152.0210  141.5698  158.3601 C   0  0  0  0  0  0  0  0  0  0  0  0
  151.6345  142.9041  158.4575 C   0  0  0  0  0  0  0  0  0  0  0  0
  151.8930  143.5649  159.6799 C   0  0  0  0  0  0  0  0  0  0  0  0
  151.4865  145.0225  159.8153 C   0  0  0  0  0  0  0  0  0  0  0  0
  153.2962  142.9604  162.7844 H   0  0  0  0  0  0  0  0  0  0  0  0
  151.8610  143.9477  162.5210 H   0  0  0  0  0  0  0  0  0  0  0  0
  153.4320  144.4775  161.9003 H   0  0  0  0  0  0  0  0  0  0  0  0
  153.3777  141.0111  161.4609 H   0  0  0  0  0  0  0  0  0  0  0  0
  152.5059  138.5355  157.1395 H   0  0  0  0  0  0  0  0  0  0  0  0
  150.7923  141.9564  156.1833 H   0  0  0  0  0  0  0  0  0  0  0  0
  152.1216  141.1950  155.3429 H   0  0  0  0  0  0  0  0  0  0  0  0
  150.7430  138.9419  155.7819 H   0  0  0  0  0  0  0  0  0  0  0  0
  149.9925  139.1764  153.7565 H   0  0  0  0  0  0  0  0  0  0  0  0
  148.5089  139.1013  156.2733 H   0  0  0  0  0  0  0  0  0  0  0  0
  148.9454  140.6324  156.9971 H   0  0  0  0  0  0  0  0  0  0  0  0
  147.9837  142.7710  155.8772 H   0  0  0  0  0  0  0  0  0  0  0  0
  146.3075  143.1538  153.7576 H   0  0  0  0  0  0  0  0  0  0  0  0
  146.2148  140.6478  152.5776 H   0  0  0  0  0  0  0  0  0  0  0  0
  151.1577  143.4176  157.6359 H   0  0  0  0  0  0  0  0  0  0  0  0
  150.9935  145.3849  158.9127 H   0  0  0  0  0  0  0  0  0  0  0  0
  152.3618  145.6479  159.9912 H   0  0  0  0  0  0  0  0  0  0  0  0
  150.7940  145.1523  160.6471 H   0  0  0  0  0  0  0  0  0  0  0  0
  153.3274  138.8591  159.5522 H   0  0  0  0  0  0  0  0  0  0  0  0
  1  2  1  0  0  0  0
  1 21  1  0  0  0  0
  1 22  1  0  0  0  0
  1 23  1  0  0  0  0
  2 19  1  0  0  0  0
  2  3  2  0  0  0  0
  3  4  1  0  0  0  0
  3 24  1  0  0  0  0
  4 17  2  0  0  0  0
  4  5  1  0  0  0  0
  5  6  2  0  0  0  0
  5 39  1  0  0  0  0
  6  7  1  0  0  0  0
  6 25  1  0  0  0  0
  7  8  1  0  0  0  0
  7 17  1  0  0  0  0
  8  9  1  0  0  0  0
  8 26  1  0  0  0  0
  8 27  1  0  0  0  0
  9 10  1  0  0  0  0
  9 11  1  0  0  0  0
  9 28  1  0  0  0  0
 10 29  1  0  0  0  0
 11 12  1  0  0  0  0
 11 30  1  0  0  0  0
 11 31  1  0  0  0  0
 12 16  1  0  0  0  0
 12 13  1  0  0  0  0
 13 14  2  0  0  0  0
 13 32  1  0  0  0  0
 14 15  1  0  0  0  0
 14 33  1  0  0  0  0
 15 16  2  0  0  0  0
 15 34  1  0  0  0  0
 17 18  1  0  0  0  0
 18 19  2  0  0  0  0
 18 35  1  0  0  0  0
 19 20  1  0  0  0  0
 20 36  1  0  0  0  0
 20 37  1  0  0  0  0
 20 38  1  0  0  0  0
M  CHG  1   5   1
M  END
> <s_m_source_file>
AV-unprocessed.smi

> <i_m_source_file_index>
2997

> <i_lp_mmshare_version>
43012

> <i_f3d_flags>
0

> <s_epik_input>
W0NIM11jKFtjSF0xKWMoW0NIM10pW2NIXWMoYzEyKW4oW2NIXW4yKVtDSDJdW0NASF0oW09IXSlbQ0gyXW4zW2NIXVtjSF1bY0hdbjM=

> <s_epik_cmdline>
J2VwaWtfcHl0aG9uJywgJy1waCcsICc3LjAnLCAnLXRuJywgJzgnLCAnLW1hJywgJzIwMCcsICctbWV0YWxfYmluZGluZycsICctaW1hZScsICc8aW5maWxlLm1hZT4nLCAnLW9tYWUnLCAnPG91dGZpbGUubWFlPic=

> <r_lp_tautomer_probability>
1

> <r_epik_Ionization_Penalty>
1.09215

> <r_epik_Ionization_Penalty_Charging>
1.09214

> <r_epik_Ionization_Penalty_Neutral>
1.42327e-05

> <r_epik_State_Penalty>
1.14852

> <r_epik_Charging_Adjusted_Penalty>
2.24066

> <i_epik_Tot_Q>
1

> <i_epik_Tot_abs_Q>
1

> <r_epik_Metal_State_Penalty>
1.23686

> <b_epik_Metal_Only>
0

> <s_lp_Force_Field>
OPLS_2005

> <r_lp_Energy>
13.1956

> <b_lp_Chiralities_Consistent>
1

> <s_lp_Variant>
AV-unprocessed.smi:2997-3

> <Gold.Version>
5.8.1

> <Gold.Id.Protein>
6NUR|6NUR_protein|mol2

> <Gold.PLP.Fitness>
48.2612

> <Gold.PLP.PLP>
-42.3599

> <Gold.PLP.part.hbond>
-2.0000

> <Gold.PLP.part.metal>
0.0000

> <Gold.PLP.part.buried>
-4.5817

> <Gold.PLP.part.nonpolar>
-36.7650

> <Gold.PLP.part.repulsive>
0.2267

> <Gold.PLP.ligand.clash>
0.0000

> <Gold.PLP.ligand.torsion>
1.3733

> <Gold.PLP.Chemscore.Hbond>
1.0000

> <Gold.PLP.Chemscore.CHOScore>
1.8789

> <Gold.PLP.Chemscore.Metal>
0.0000

> <Gold.Chemscore.Hbonds>
donor molecule, donor type, donor heavy atom, donor atom, acceptor molecule, acceptor atom, score
      P1  H  7989  7998       L1    10  1.00
      L1  C    13    32       P1  8028  0.99
      L1  C    15    34       P1 10175  0.89

> <Gold.PLP.Chemscore.Internal.Correction>
0.0112

> <Gold.Rescore>
     Score         DG    S(hbond)    S(metal)    S(lipo)     H(rot)  DE(clash)    DE(int)     intcor
     14.18     -17.02       0.98        0.00     118.92       2.21       0.02       2.82       ----

> <Gold.Chemscore.Fitness>
14.1843

> <Gold.Chemscore.DG>
-17.0183

> <Gold.Chemscore.ZeroCoef>
-5.4800

> <Gold.Chemscore.Hbond>
0.9849

> <Gold.Chemscore.Metal>
0.0000

> <Gold.Chemscore.Lipo>
118.9196

> <Gold.Chemscore.Internal_Hbond>
0.0000

> <Gold.Chemscore.DEClash>
0.0159

> <Gold.Chemscore.DEInternal>
2.8180

> <Gold.Chemscore.Rot>
2.2129

> <Gold.Chemscore.Internal.Correction>
   9.000000E+99

> <Gold.Chemscore.Hbonds>
donor molecule, donor type, donor heavy atom, donor atom, acceptor molecule, acceptor atom, score
      P1  H  7989  7998       L1    10  0.83

> <Gold.Chemscore.Hbond.Weighted>
-3.2896

> <Gold.Chemscore.Metal.Weighted>
-0.0000

> <Gold.Chemscore.Lipo.Weighted>
-13.9136

> <Gold.Chemscore.Internal_Hbond.Weighted>
0.0000

> <Gold.Chemscore.DEClash.Weighted>
0.0159

> <Gold.Chemscore.DEInternal.Weighted>
2.8180

> <Gold.Chemscore.Rot.Weighted>
5.6649

> <Gold.Chemscore.Internal.Correction.Weighted>
   9.000000E+99

> <Gold.Protein.RotatedTorsions>
[ 6907 6896 6895 6894 ] final   80.96 input  -60.11 | X-H torsion
[ 7974 7965 7964 7962 ] final  -35.30 input  175.53 | X-H torsion
[ 8008 7997 7996 7995 ] final  139.09 input   59.86 | X-H torsion
[ 10167 10162 10161 10158 ] final  -11.33 input  -65.29 | X-H torsion
[ 10718 10713 10712 10709 ] final  105.11 input   66.30 | X-H torsion
[ 10763 10752 10751 10750 ] final   29.95 input  -60.55 | X-H torsion
[ 11005 11000 10999 10996 ] final  -14.31 input  -57.11 | X-H torsion

> <Gold.Protein.ActiveResidues>
 VAL166  LYS551  ARG553  GLY616  TRP617  ASP618  TYR619  PRO620  LYS621  CYS622 
 ASP623  PHE694  ASN695  SER759  ASP760  ASP761  ALA762  ILE779  LEU786  VAL792 
 PHE793  MET794  SER795  GLU796  ALA797  LYS798  CYS799  TRP800  GLU811  SER814 

> <Gold.Protein.RotatedAtoms>
  152.5252  134.3278  159.9171 H   0  0  0  0  0  0  0  0  0  0  0  0  # atno 6907 bound_to 6896
  151.3227  133.4027  159.2663 H   0  0  0  0  0  0  0  0  0  0  0  0  # atno 6908 bound_to 6896
  150.9946  134.9290  159.7976 H   0  0  0  0  0  0  0  0  0  0  0  0  # atno 6909 bound_to 6896
  146.0758  140.6142  142.8931 H   0  0  0  0  0  0  0  0  0  0  0  0  # atno 7974 bound_to 7965
  156.2992  140.2376  156.4181 H   0  0  0  0  0  0  0  0  0  0  0  0  # atno 8008 bound_to 7997
  154.8380  140.0430  157.1542 H   0  0  0  0  0  0  0  0  0  0  0  0  # atno 8009 bound_to 7997
  154.9134  140.2993  155.5258 H   0  0  0  0  0  0  0  0  0  0  0  0  # atno 8010 bound_to 7997
  140.7136  143.5651  150.9153 H   0  0  0  0  0  0  0  0  0  0  0  0  # atno 10167 bound_to 10162
  157.6717  131.0820  150.5807 H   0  0  0  0  0  0  0  0  0  0  0  0  # atno 10718 bound_to 10713
  153.0400  135.6476  154.0970 H   0  0  0  0  0  0  0  0  0  0  0  0  # atno 10763 bound_to 10752
  154.0678  135.2883  155.3315 H   0  0  0  0  0  0  0  0  0  0  0  0  # atno 10764 bound_to 10752
  154.6614  135.5390  153.8088 H   0  0  0  0  0  0  0  0  0  0  0  0  # atno 10765 bound_to 10752
  140.7851  133.8332  155.9327 H   0  0  0  0  0  0  0  0  0  0  0  0  # atno 11005 bound_to 11000
  144.7260  140.4527  143.6972 LP  0  0  0  0  0  0  0  0  0  0  0  0  # atno 17320 bound_to 7965
  145.6309  139.1536  143.2970 LP  0  0  0  0  0  0  0  0  0  0  0  0  # atno 17321 bound_to 7965
  139.9376  143.6419  152.3061 LP  0  0  0  0  0  0  0  0  0  0  0  0  # atno 17342 bound_to 10162
  139.6892  144.7648  151.1468 LP  0  0  0  0  0  0  0  0  0  0  0  0  # atno 17343 bound_to 10162
  156.6108  130.4379  149.5860 LP  0  0  0  0  0  0  0  0  0  0  0  0  # atno 17370 bound_to 10713
  156.2432  130.6863  151.1575 LP  0  0  0  0  0  0  0  0  0  0  0  0  # atno 17371 bound_to 10713
  140.9445  134.1858  157.4774 LP  0  0  0  0  0  0  0  0  0  0  0  0  # atno 17394 bound_to 11000
  139.8738  134.9885  156.5414 LP  0  0  0  0  0  0  0  0  0  0  0  0  # atno 17395 bound_to 11000

$$$$
