AV-unprocessed.smi:1813|AV-procd|sdf|7341|dock2
  -GOLD-   22720 9 03D 1   1.00000     0.00000
 Structure written by MMmdl.
 40 41  0  0  0  0  0  0  0  0  2 V2000
  146.5207  134.8736  153.8206 C   0  0  0  0  0  0  0  0  0  0  0  0
  146.7649  136.1701  153.2065 N   0  0  0  0  0  0  0  0  0  0  0  0
  145.8168  137.0935  152.9938 C   0  0  0  0  0  0  0  0  0  0  0  0
  144.6336  136.9274  153.2930 O   0  0  0  0  0  0  0  0  0  0  0  0
  146.2751  138.3934  152.3247 C   0  0  0  0  0  0  0  0  0  0  0  0
  146.9420  139.3282  153.2673 N   0  3  2  0  0  0  0  0  0  0  0  0
  147.1037  140.6899  152.6965 C   0  0  0  0  0  0  0  0  0  0  0  0
  147.6610  141.6684  153.7440 C   0  0  0  0  0  0  0  0  0  0  0  0
  148.9928  141.1642  154.3215 C   0  0  1  0  0  0  0  0  0  0  0  0
  149.4576  142.0728  155.3657 N   0  0  0  0  0  0  0  0  0  0  0  0
  150.4141  141.7901  156.2623 C   0  0  0  0  0  0  0  0  0  0  0  0
  150.9994  140.7077  156.3083 O   0  0  0  0  0  0  0  0  0  0  0  0
  150.6377  142.8315  157.0831 N   0  0  0  0  0  0  0  0  0  0  0  0
  151.5743  142.9249  158.1460 C   0  0  0  0  0  0  0  0  0  0  0  0
  152.2366  141.8828  158.6618 N   0  0  0  0  0  0  0  0  0  0  0  0
  153.0934  142.2661  159.6966 C   0  0  0  0  0  0  0  0  0  0  0  0
  153.0709  143.6136  159.9574 C   0  0  0  0  0  0  0  0  0  0  0  0
  151.9655  144.4599  158.9077 S   0  0  0  0  0  0  0  0  0  0  0  0
  148.8085  139.7381  154.8721 C   0  0  0  0  0  0  0  0  0  0  0  0
  148.2281  138.8023  153.7988 C   0  0  0  0  0  0  0  0  0  0  0  0
  147.4460  134.2988  153.8559 H   0  0  0  0  0  0  0  0  0  0  0  0
  145.7879  134.3029  153.2487 H   0  0  0  0  0  0  0  0  0  0  0  0
  146.1532  134.9902  154.8408 H   0  0  0  0  0  0  0  0  0  0  0  0
  147.7129  136.3746  152.9245 H   0  0  0  0  0  0  0  0  0  0  0  0
  146.9332  138.1799  151.4804 H   0  0  0  0  0  0  0  0  0  0  0  0
  145.3803  138.8623  151.9130 H   0  0  0  0  0  0  0  0  0  0  0  0
  147.7653  140.6467  151.8298 H   0  0  0  0  0  0  0  0  0  0  0  0
  146.1403  141.0584  152.3427 H   0  0  0  0  0  0  0  0  0  0  0  0
  147.7976  142.6516  153.2923 H   0  0  0  0  0  0  0  0  0  0  0  0
  146.9315  141.7947  154.5457 H   0  0  0  0  0  0  0  0  0  0  0  0
  149.7277  141.1419  153.5141 H   0  0  0  0  0  0  0  0  0  0  0  0
  149.0284  142.9860  155.4009 H   0  0  0  0  0  0  0  0  0  0  0  0
  150.0781  143.6566  156.9264 H   0  0  0  0  0  0  0  0  0  0  0  0
  153.6853  141.5122  160.1944 H   0  0  0  0  0  0  0  0  0  0  0  0
  153.6357  144.1573  160.7000 H   0  0  0  0  0  0  0  0  0  0  0  0
  149.7620  139.3423  155.2238 H   0  0  0  0  0  0  0  0  0  0  0  0
  148.1430  139.7553  155.7365 H   0  0  0  0  0  0  0  0  0  0  0  0
  148.0804  137.8119  154.2307 H   0  0  0  0  0  0  0  0  0  0  0  0
  148.9407  138.6853  152.9808 H   0  0  0  0  0  0  0  0  0  0  0  0
  146.3158  139.4231  154.0544 H   0  0  0  0  0  0  0  0  0  0  0  0
  1  2  1  0  0  0  0
  1 21  1  0  0  0  0
  1 22  1  0  0  0  0
  1 23  1  0  0  0  0
  2  3  1  0  0  0  0
  2 24  1  0  0  0  0
  3  4  2  0  0  0  0
  3  5  1  0  0  0  0
  5  6  1  0  0  0  0
  5 25  1  0  0  0  0
  5 26  1  0  0  0  0
  6 20  1  0  0  0  0
  6  7  1  0  0  0  0
  6 40  1  0  0  0  0
  7  8  1  0  0  0  0
  7 27  1  0  0  0  0
  7 28  1  0  0  0  0
  8  9  1  0  0  0  0
  8 29  1  0  0  0  0
  8 30  1  0  0  0  0
  9 10  1  0  0  0  0
  9 19  1  0  0  0  0
  9 31  1  0  0  0  0
 10 11  1  0  0  0  0
 10 32  1  0  0  0  0
 11 12  2  0  0  0  0
 11 13  1  0  0  0  0
 13 14  1  0  0  0  0
 13 33  1  0  0  0  0
 14 18  1  0  0  0  0
 14 15  2  0  0  0  0
 15 16  1  0  0  0  0
 16 17  2  0  0  0  0
 16 34  1  0  0  0  0
 17 18  1  0  0  0  0
 17 35  1  0  0  0  0
 19 20  1  0  0  0  0
 19 36  1  0  0  0  0
 19 37  1  0  0  0  0
 20 38  1  0  0  0  0
 20 39  1  0  0  0  0
M  CHG  1   6   1
M  END
> <s_m_source_file>
AV-unprocessed.smi

> <i_m_source_file_index>
1813

> <i_lp_mmshare_version>
43012

> <i_f3d_flags>
0

> <s_epik_input>
W0NIM11bTkhdQyg9TylbQ0gyXU4xW0NIMl1bQ0gyXVtDSF0oW0NIMl1bQ0gyXTEpW05IXUMoPU8pW05IXWMybltjSF1bY0hdczI=

> <s_epik_cmdline>
J2VwaWtfcHl0aG9uJywgJy1waCcsICc3LjAnLCAnLXRuJywgJzgnLCAnLW1hJywgJzIwMCcsICctbWV0YWxfYmluZGluZycsICctaW1hZScsICc8aW5maWxlLm1hZT4nLCAnLW9tYWUnLCAnPG91dGZpbGUubWFlPic=

> <r_lp_tautomer_probability>
0.999

> <r_epik_Ionization_Penalty>
0.862509

> <r_epik_Ionization_Penalty_Charging>
0.862349

> <r_epik_Ionization_Penalty_Neutral>
0.000159522

> <r_epik_State_Penalty>
0.898939

> <r_epik_Charging_Adjusted_Penalty>
1.76129

> <i_epik_Tot_Q>
1

> <i_epik_Tot_abs_Q>
1

> <r_epik_Metal_State_Penalty>
0.936827

> <b_epik_Metal_Only>
0

> <s_lp_Force_Field>
OPLS_2005

> <r_lp_Energy>
11.8372

> <b_lp_Chiralities_Consistent>
1

> <s_lp_Variant>
AV-unprocessed.smi:1813-2

> <Gold.Version>
5.8.1

> <Gold.Id.Protein>
6NUR|6NUR_protein|mol2

> <Gold.PLP.Fitness>
43.9518

> <Gold.PLP.PLP>
-36.0607

> <Gold.PLP.part.hbond>
-3.0000

> <Gold.PLP.part.metal>
0.0000

> <Gold.PLP.part.buried>
-4.4402

> <Gold.PLP.part.nonpolar>
-29.4492

> <Gold.PLP.part.repulsive>
0.3732

> <Gold.PLP.ligand.clash>
0.0000

> <Gold.PLP.ligand.torsion>
0.5454

> <Gold.PLP.Chemscore.Hbond>
2.9760

> <Gold.PLP.Chemscore.CHOScore>
0.0000

> <Gold.PLP.Chemscore.Metal>
0.0000

> <Gold.Chemscore.Hbonds>
donor molecule, donor type, donor heavy atom, donor atom, acceptor molecule, acceptor atom, score
      L1  H     2    24       P1  7948  1.00
      L1  H    10    32       P1  8028  1.00
      L1  H    13    33       P1  8028  0.98

> <Gold.PLP.Chemscore.Internal.Correction>
0.0539

> <Gold.Rescore>
     Score         DG    S(hbond)    S(metal)    S(lipo)     H(rot)  DE(clash)    DE(int)     intcor
     17.18     -20.52       2.94        0.00      83.78       1.79       0.15       3.18       ----

> <Gold.Chemscore.Fitness>
17.1792

> <Gold.Chemscore.DG>
-20.5183

> <Gold.Chemscore.ZeroCoef>
-5.4800

> <Gold.Chemscore.Hbond>
2.9369

> <Gold.Chemscore.Metal>
0.0000

> <Gold.Chemscore.Lipo>
83.7765

> <Gold.Chemscore.Internal_Hbond>
0.0000

> <Gold.Chemscore.DEClash>
0.1550

> <Gold.Chemscore.DEInternal>
3.1842

> <Gold.Chemscore.Rot>
1.7862

> <Gold.Chemscore.Internal.Correction>
   9.000000E+99

> <Gold.Chemscore.Hbonds>
donor molecule, donor type, donor heavy atom, donor atom, acceptor molecule, acceptor atom, score
      L1  H     2    24       P1  7948  0.94
      L1  H    10    32       P1  8028  0.99
      L1  H    13    33       P1  8028  0.87

> <Gold.Chemscore.Hbond.Weighted>
-9.8091

> <Gold.Chemscore.Metal.Weighted>
-0.0000

> <Gold.Chemscore.Lipo.Weighted>
-9.8018

> <Gold.Chemscore.Internal_Hbond.Weighted>
0.0000

> <Gold.Chemscore.DEClash.Weighted>
0.1550

> <Gold.Chemscore.DEInternal.Weighted>
3.1842

> <Gold.Chemscore.Rot.Weighted>
4.5726

> <Gold.Chemscore.Internal.Correction.Weighted>
   9.000000E+99

> <Gold.Protein.RotatedTorsions>
[ 6907 6896 6895 6894 ] final  174.84 input  -60.11 | X-H torsion
[ 7974 7965 7964 7962 ] final   39.03 input  175.53 | X-H torsion
[ 8008 7997 7996 7995 ] final  121.91 input   59.86 | X-H torsion
[ 10167 10162 10161 10158 ] final  168.89 input  -65.29 | X-H torsion
[ 10718 10713 10712 10709 ] final  -95.04 input   66.30 | X-H torsion
[ 10763 10752 10751 10750 ] final  -40.31 input  -60.55 | X-H torsion
[ 11005 11000 10999 10996 ] final  -69.12 input  -57.11 | X-H torsion

> <Gold.Protein.ActiveResidues>
 VAL166  LYS551  ARG553  GLY616  TRP617  ASP618  TYR619  PRO620  LYS621  CYS622 
 ASP623  PHE694  ASN695  SER759  ASP760  ASP761  ALA762  ILE779  LEU786  VAL792 
 PHE793  MET794  SER795  GLU796  ALA797  LYS798  CYS799  TRP800  GLU811  SER814 

> <Gold.Protein.RotatedAtoms>
  151.7458  133.3324  159.3377 H   0  0  0  0  0  0  0  0  0  0  0  0  # atno 6907 bound_to 6896
  150.7555  134.6237  159.6159 H   0  0  0  0  0  0  0  0  0  0  0  0  # atno 6908 bound_to 6896
  152.3501  134.7019  160.0290 H   0  0  0  0  0  0  0  0  0  0  0  0  # atno 6909 bound_to 6896
  146.1016  139.5700  142.9410 H   0  0  0  0  0  0  0  0  0  0  0  0  # atno 7974 bound_to 7965
  156.2706  140.2797  156.1384 H   0  0  0  0  0  0  0  0  0  0  0  0  # atno 8008 bound_to 7997
  155.0979  140.0389  157.2706 H   0  0  0  0  0  0  0  0  0  0  0  0  # atno 8009 bound_to 7997
  154.6838  140.2614  155.6887 H   0  0  0  0  0  0  0  0  0  0  0  0  # atno 8010 bound_to 7997
  139.4978  144.3766  151.9667 H   0  0  0  0  0  0  0  0  0  0  0  0  # atno 10167 bound_to 10162
  156.0036  130.5092  150.6016 H   0  0  0  0  0  0  0  0  0  0  0  0  # atno 10718 bound_to 10713
  153.9439  135.6758  153.4744 H   0  0  0  0  0  0  0  0  0  0  0  0  # atno 10763 bound_to 10752
  153.0918  135.4871  154.8701 H   0  0  0  0  0  0  0  0  0  0  0  0  # atno 10764 bound_to 10752
  154.7362  135.3150  154.8765 H   0  0  0  0  0  0  0  0  0  0  0  0  # atno 10765 bound_to 10752
  141.1547  133.6757  156.6551 H   0  0  0  0  0  0  0  0  0  0  0  0  # atno 11005 bound_to 11000
  145.5843  141.0378  143.2105 LP  0  0  0  0  0  0  0  0  0  0  0  0  # atno 17320 bound_to 7965
  144.7437  139.7378  143.7300 LP  0  0  0  0  0  0  0  0  0  0  0  0  # atno 17321 bound_to 7965
  140.3202  144.3436  150.6011 LP  0  0  0  0  0  0  0  0  0  0  0  0  # atno 17342 bound_to 10162
  140.5728  143.2179  151.7568 LP  0  0  0  0  0  0  0  0  0  0  0  0  # atno 17343 bound_to 10162
  157.3864  131.0789  151.1432 LP  0  0  0  0  0  0  0  0  0  0  0  0  # atno 17370 bound_to 10713
  157.2138  130.6450  149.5784 LP  0  0  0  0  0  0  0  0  0  0  0  0  # atno 17371 bound_to 10713
  140.3290  134.7944  157.4312 LP  0  0  0  0  0  0  0  0  0  0  0  0  # atno 17394 bound_to 11000
  140.1032  134.5444  155.8333 LP  0  0  0  0  0  0  0  0  0  0  0  0  # atno 17395 bound_to 11000

$$$$
