AV-unprocessed.smi:1046|AV-procd|sdf|4559|dock4
  -GOLD-   22720 2593D 1   1.00000     0.00000
 Structure written by MMmdl.
 54 56  0  0  0  0  0  0  0  0  3 V2000
  152.7551  143.2915  160.7626 C   0  0  0  0  0  0  0  0  0  0  0  0
  152.3019  142.5058  159.5437 C   0  0  0  0  0  0  0  0  0  0  0  0
  151.3986  143.1170  158.6451 C   0  0  0  0  0  0  0  0  0  0  0  0
  151.0054  142.3748  157.5377 C   0  0  0  0  0  0  0  0  0  0  0  0
  150.1444  142.6903  156.4844 N   0  3  0  0  0  0  0  0  0  0  0  0
  150.0713  141.6363  155.6254 C   0  0  0  0  0  0  0  0  0  0  0  0
  150.8715  140.6508  156.1151 N   0  0  0  0  0  0  0  0  0  0  0  0
  151.1479  139.3110  155.5769 C   0  0  0  0  0  0  0  0  0  0  0  0
  150.0990  138.8581  154.5415 C   0  0  1  0  0  0  0  0  0  0  0  0
  150.4333  137.5945  154.0024 O   0  0  0  0  0  0  0  0  0  0  0  0
  148.6322  138.8215  155.0268 C   0  0  0  0  0  0  0  0  0  0  0  0
  147.6020  138.7477  153.9801 N   0  0  0  0  0  0  0  0  0  0  0  0
  146.2208  138.7358  154.4789 C   0  0  0  0  0  0  0  0  0  0  0  0
  145.7520  140.0929  155.0480 C   0  0  0  0  0  0  0  0  0  0  0  0
  145.9198  141.1697  154.0393 N   0  3  0  0  0  0  0  0  0  0  0  0
  145.4275  142.4840  154.5236 C   0  0  0  0  0  0  0  0  0  0  0  0
  145.6687  143.6158  153.5101 C   0  0  0  0  0  0  0  0  0  0  0  0
  144.4472  144.2495  153.1949 O   0  0  0  0  0  0  0  0  0  0  0  0
  147.3201  141.2031  153.5431 C   0  0  0  0  0  0  0  0  0  0  0  0
  147.7176  139.8204  152.9918 C   0  0  0  0  0  0  0  0  0  0  0  0
  151.4758  141.0673  157.3079 C   0  0  0  0  0  0  0  0  0  0  0  0
  152.3661  140.4507  158.1842 C   0  0  0  0  0  0  0  0  0  0  0  0
  152.7812  141.1901  159.3146 C   0  0  0  0  0  0  0  0  0  0  0  0
  153.7579  140.5445  160.2827 C   0  0  0  0  0  0  0  0  0  0  0  0
  152.2357  144.2472  160.8365 H   0  0  0  0  0  0  0  0  0  0  0  0
  153.8246  143.4955  160.7079 H   0  0  0  0  0  0  0  0  0  0  0  0
  152.5542  142.7345  161.6779 H   0  0  0  0  0  0  0  0  0  0  0  0
  151.0320  144.1193  158.8112 H   0  0  0  0  0  0  0  0  0  0  0  0
  149.4838  141.5914  154.7197 H   0  0  0  0  0  0  0  0  0  0  0  0
  152.1533  139.3080  155.1569 H   0  0  0  0  0  0  0  0  0  0  0  0
  151.1563  138.6232  156.4232 H   0  0  0  0  0  0  0  0  0  0  0  0
  150.1363  139.5600  153.7074 H   0  0  0  0  0  0  0  0  0  0  0  0
  149.7864  137.3627  153.3538 H   0  0  0  0  0  0  0  0  0  0  0  0
  148.5095  138.0056  155.7380 H   0  0  0  0  0  0  0  0  0  0  0  0
  148.4793  139.7274  155.6154 H   0  0  0  0  0  0  0  0  0  0  0  0
  145.5565  138.4550  153.6603 H   0  0  0  0  0  0  0  0  0  0  0  0
  146.0849  137.9678  155.2356 H   0  0  0  0  0  0  0  0  0  0  0  0
  144.6999  140.0184  155.3254 H   0  0  0  0  0  0  0  0  0  0  0  0
  146.2952  140.3492  155.9580 H   0  0  0  0  0  0  0  0  0  0  0  0
  144.3565  142.4253  154.7246 H   0  0  0  0  0  0  0  0  0  0  0  0
  145.9028  142.7208  155.4766 H   0  0  0  0  0  0  0  0  0  0  0  0
  146.3362  144.3610  153.9436 H   0  0  0  0  0  0  0  0  0  0  0  0
  146.1460  143.2598  152.5980 H   0  0  0  0  0  0  0  0  0  0  0  0
  143.8598  143.6069  152.8255 H   0  0  0  0  0  0  0  0  0  0  0  0
  147.4215  141.9419  152.7491 H   0  0  0  0  0  0  0  0  0  0  0  0
  147.9943  141.5072  154.3452 H   0  0  0  0  0  0  0  0  0  0  0  0
  148.7348  139.8551  152.5998 H   0  0  0  0  0  0  0  0  0  0  0  0
  147.0825  139.5859  152.1363 H   0  0  0  0  0  0  0  0  0  0  0  0
  152.7367  139.4518  158.0077 H   0  0  0  0  0  0  0  0  0  0  0  0
  154.0655  139.5562  159.9397 H   0  0  0  0  0  0  0  0  0  0  0  0
  153.3013  140.4295  161.2660 H   0  0  0  0  0  0  0  0  0  0  0  0
  154.6558  141.1540  160.3860 H   0  0  0  0  0  0  0  0  0  0  0  0
  145.3332  140.9162  153.2568 H   0  0  0  0  0  0  0  0  0  0  0  0
  149.6429  143.5603  156.3585 H   0  0  0  0  0  0  0  0  0  0  0  0
  1  2  1  0  0  0  0
  1 25  1  0  0  0  0
  1 26  1  0  0  0  0
  1 27  1  0  0  0  0
  2 23  1  0  0  0  0
  2  3  2  0  0  0  0
  3  4  1  0  0  0  0
  3 28  1  0  0  0  0
  4 21  2  0  0  0  0
  4  5  1  0  0  0  0
  5  6  2  0  0  0  0
  5 54  1  0  0  0  0
  6  7  1  0  0  0  0
  6 29  1  0  0  0  0
  7  8  1  0  0  0  0
  7 21  1  0  0  0  0
  8  9  1  0  0  0  0
  8 30  1  0  0  0  0
  8 31  1  0  0  0  0
  9 10  1  0  0  0  0
  9 11  1  0  0  0  0
  9 32  1  0  0  0  0
 10 33  1  0  0  0  0
 11 12  1  0  0  0  0
 11 34  1  0  0  0  0
 11 35  1  0  0  0  0
 12 20  1  0  0  0  0
 12 13  1  0  0  0  0
 13 14  1  0  0  0  0
 13 36  1  0  0  0  0
 13 37  1  0  0  0  0
 14 15  1  0  0  0  0
 14 38  1  0  0  0  0
 14 39  1  0  0  0  0
 15 16  1  0  0  0  0
 15 19  1  0  0  0  0
 15 53  1  0  0  0  0
 16 17  1  0  0  0  0
 16 40  1  0  0  0  0
 16 41  1  0  0  0  0
 17 18  1  0  0  0  0
 17 42  1  0  0  0  0
 17 43  1  0  0  0  0
 18 44  1  0  0  0  0
 19 20  1  0  0  0  0
 19 45  1  0  0  0  0
 19 46  1  0  0  0  0
 20 47  1  0  0  0  0
 20 48  1  0  0  0  0
 21 22  1  0  0  0  0
 22 23  2  0  0  0  0
 22 49  1  0  0  0  0
 23 24  1  0  0  0  0
 24 50  1  0  0  0  0
 24 51  1  0  0  0  0
 24 52  1  0  0  0  0
M  CHG  1   5   1
M  CHG  1  15   1
M  END
> <s_m_source_file>
AV-unprocessed.smi

> <i_m_source_file_index>
1046

> <i_lp_mmshare_version>
43012

> <i_f3d_flags>
0

> <s_epik_input>
W0NIM11jKFtjSF0xKWMoW0NIM10pW2NIXWMoYzEyKW4oW2NIXW4yKVtDSDJdW0NASF0oW09IXSlbQ0gyXU4zW0NIMl1bQ0gyXU4oW0NIMl1bQ0gyXTMpW0NIMl1bQ0gyXVtPSF0=

> <s_epik_cmdline>
J2VwaWtfcHl0aG9uJywgJy1waCcsICc3LjAnLCAnLXRuJywgJzgnLCAnLW1hJywgJzIwMCcsICctbWV0YWxfYmluZGluZycsICctaW1hZScsICc8aW5maWxlLm1hZT4nLCAnLW9tYWUnLCAnPG91dGZpbGUubWFlPic=

> <r_epik_Ionization_Penalty>
1.37806

> <r_epik_Ionization_Penalty_Charging>
1.32954

> <r_epik_Ionization_Penalty_Neutral>
0.0485178

> <r_epik_State_Penalty>
2.26587

> <r_epik_Charging_Adjusted_Penalty>
3.59541

> <i_epik_Tot_Q>
2

> <i_epik_Tot_abs_Q>
2

> <r_epik_Metal_State_Penalty>
6.27317

> <b_epik_Metal_Only>
0

> <s_lp_Force_Field>
OPLS_2005

> <r_lp_Energy>
47.9713

> <b_lp_Chiralities_Consistent>
1

> <s_lp_Variant>
AV-unprocessed.smi:1046-12

> <Gold.Version>
5.8.1

> <Gold.Id.Protein>
6NUR|6NUR_protein|mol2

> <Gold.PLP.Fitness>
64.5344

> <Gold.PLP.PLP>
-47.9496

> <Gold.PLP.part.hbond>
-4.9784

> <Gold.PLP.part.metal>
0.0000

> <Gold.PLP.part.buried>
-3.7506

> <Gold.PLP.part.nonpolar>
-39.7181

> <Gold.PLP.part.repulsive>
0.2411

> <Gold.PLP.ligand.clash>
0.0000

> <Gold.PLP.ligand.torsion>
0.7366

> <Gold.PLP.Chemscore.Hbond>
5.9920

> <Gold.PLP.Chemscore.CHOScore>
0.0000

> <Gold.PLP.Chemscore.Metal>
0.0000

> <Gold.Chemscore.Hbonds>
donor molecule, donor type, donor heavy atom, donor atom, acceptor molecule, acceptor atom, score
      L1  H     5    54       P1  8028  2.00
      L1  H    10    33       P1  7948  1.00
      L1  H    15    53       P1 10175  2.00
      L1  H    18    44       P1 10174  1.00

> <Gold.PLP.Chemscore.Internal.Correction>
0.0819

> <Gold.Rescore>
     Score         DG    S(hbond)    S(metal)    S(lipo)     H(rot)  DE(clash)    DE(int)     intcor
     21.56     -22.48       3.59        0.00     114.72       3.29       0.15       0.77       ----

> <Gold.Chemscore.Fitness>
21.5599

> <Gold.Chemscore.DG>
-22.4811

> <Gold.Chemscore.ZeroCoef>
-5.4800

> <Gold.Chemscore.Hbond>
3.5928

> <Gold.Chemscore.Metal>
0.0000

> <Gold.Chemscore.Lipo>
114.7247

> <Gold.Chemscore.Internal_Hbond>
0.0000

> <Gold.Chemscore.DEClash>
0.1491

> <Gold.Chemscore.DEInternal>
0.7721

> <Gold.Chemscore.Rot>
3.2896

> <Gold.Chemscore.Internal.Correction>
   9.000000E+99

> <Gold.Chemscore.Hbonds>
donor molecule, donor type, donor heavy atom, donor atom, acceptor molecule, acceptor atom, score
      L1  H     5    54       P1  8028  0.95
      L1  H    10    33       P1  7948  0.56
      L1  H    15    53       P1 10175  0.58
      L1  H    18    44       P1 10174  0.50

> <Gold.Chemscore.Hbond.Weighted>
-11.9998

> <Gold.Chemscore.Metal.Weighted>
-0.0000

> <Gold.Chemscore.Lipo.Weighted>
-13.4228

> <Gold.Chemscore.Internal_Hbond.Weighted>
0.0000

> <Gold.Chemscore.DEClash.Weighted>
0.1491

> <Gold.Chemscore.DEInternal.Weighted>
0.7721

> <Gold.Chemscore.Rot.Weighted>
8.4215

> <Gold.Chemscore.Internal.Correction.Weighted>
   9.000000E+99

> <Gold.Protein.RotatedTorsions>
[ 6907 6896 6895 6894 ] final  -54.80 input  -60.11 | X-H torsion
[ 7974 7965 7964 7962 ] final   13.08 input  175.53 | X-H torsion
[ 8008 7997 7996 7995 ] final   27.96 input   59.86 | X-H torsion
[ 10167 10162 10161 10158 ] final   36.49 input  -65.29 | X-H torsion
[ 10718 10713 10712 10709 ] final  130.87 input   66.30 | X-H torsion
[ 10763 10752 10751 10750 ] final   -3.48 input  -60.55 | X-H torsion
[ 11005 11000 10999 10996 ] final  164.94 input  -57.11 | X-H torsion

> <Gold.Protein.ActiveResidues>
 VAL166  LYS551  ARG553  GLY616  TRP617  ASP618  TYR619  PRO620  LYS621  CYS622 
 ASP623  PHE694  ASN695  SER759  ASP760  ASP761  ALA762  ILE779  LEU786  VAL792 
 PHE793  MET794  SER795  GLU796  ALA797  LYS798  CYS799  TRP800  GLU811  SER814 

> <Gold.Protein.RotatedAtoms>
  150.8306  134.7558  159.6850 H   0  0  0  0  0  0  0  0  0  0  0  0  # atno 6907 bound_to 6896
  152.4411  134.5585  159.9897 H   0  0  0  0  0  0  0  0  0  0  0  0  # atno 6908 bound_to 6896
  151.5747  133.3348  159.3032 H   0  0  0  0  0  0  0  0  0  0  0  0  # atno 6909 bound_to 6896
  146.2337  139.9241  142.8506 H   0  0  0  0  0  0  0  0  0  0  0  0  # atno 7974 bound_to 7965
  155.0511  140.3180  155.4691 H   0  0  0  0  0  0  0  0  0  0  0  0  # atno 8008 bound_to 7997
  156.2834  140.2146  156.5581 H   0  0  0  0  0  0  0  0  0  0  0  0  # atno 8009 bound_to 7997
  154.7209  140.0489  157.0626 H   0  0  0  0  0  0  0  0  0  0  0  0  # atno 8010 bound_to 7997
  140.4123  144.1575  150.6140 H   0  0  0  0  0  0  0  0  0  0  0  0  # atno 10167 bound_to 10162
  157.5021  131.1094  150.9412 H   0  0  0  0  0  0  0  0  0  0  0  0  # atno 10718 bound_to 10713
  153.3720  135.6995  153.6631 H   0  0  0  0  0  0  0  0  0  0  0  0  # atno 10763 bound_to 10752
  153.5277  135.3599  155.2662 H   0  0  0  0  0  0  0  0  0  0  0  0  # atno 10764 bound_to 10752
  154.8682  135.4173  154.2999 H   0  0  0  0  0  0  0  0  0  0  0  0  # atno 10765 bound_to 10752
  140.2510  134.7977  157.3502 H   0  0  0  0  0  0  0  0  0  0  0  0  # atno 11005 bound_to 11000
  145.2108  140.9894  143.4102 LP  0  0  0  0  0  0  0  0  0  0  0  0  # atno 17320 bound_to 7965
  144.9693  139.3897  143.6317 LP  0  0  0  0  0  0  0  0  0  0  0  0  # atno 17321 bound_to 7965
  140.4624  143.2443  151.9201 LP  0  0  0  0  0  0  0  0  0  0  0  0  # atno 17342 bound_to 10162
  139.4782  144.5453  151.8467 LP  0  0  0  0  0  0  0  0  0  0  0  0  # atno 17343 bound_to 10162
  157.0079  130.5625  149.5318 LP  0  0  0  0  0  0  0  0  0  0  0  0  # atno 17370 bound_to 10713
  156.0236  130.5330  150.8343 LP  0  0  0  0  0  0  0  0  0  0  0  0  # atno 17371 bound_to 10713
  140.1558  134.4792  155.7929 LP  0  0  0  0  0  0  0  0  0  0  0  0  # atno 17394 bound_to 11000
  141.2201  133.6881  156.7458 LP  0  0  0  0  0  0  0  0  0  0  0  0  # atno 17395 bound_to 11000

$$$$
