AV-unprocessed.smi:1640|AV-procd|sdf|6555|dock5
  -GOLD-   22720 7243D 1   1.00000     0.00000
 Structure written by MMmdl.
 46 47  0  0  0  0  0  0  0  0  2 V2000
  147.9035  134.3095  163.2994 C   0  0  0  0  0  0  0  0  0  0  0  0
  147.9565  135.4253  162.2421 C   0  0  0  0  0  0  0  0  0  0  0  0
  147.3606  136.7245  162.8051 C   0  0  0  0  0  0  0  0  0  0  0  0
  147.2513  135.0254  160.9304 C   0  0  0  0  0  0  0  0  0  0  0  0
  148.1765  135.0222  159.7011 C   0  0  0  0  0  0  0  0  0  0  0  0
  148.6552  136.7307  159.1947 S   0  0  0  0  0  0  0  0  0  0  0  0
  148.1425  136.9264  157.8288 O   0  0  0  0  0  0  0  0  0  0  0  0
  148.1277  137.6156  160.2461 O   0  0  0  0  0  0  0  0  0  0  0  0
  150.2708  136.6133  159.2409 N   0  5  0  0  0  0  0  0  0  0  0  0
  151.0678  137.8205  159.3636 C   0  0  0  0  0  0  0  0  0  0  0  0
  151.7333  138.1963  158.0307 C   0  0  0  0  0  0  0  0  0  0  0  0
  151.5680  137.3202  156.9305 C   0  0  0  0  0  0  0  0  0  0  0  0
  152.1483  137.6401  155.6901 C   0  0  0  0  0  0  0  0  0  0  0  0
  152.8811  138.8333  155.5863 C   0  0  0  0  0  0  0  0  0  0  0  0
  153.0565  139.6822  156.6175 N   0  0  0  0  0  0  0  0  0  0  0  0
  152.5036  139.3878  157.8214 C   0  0  0  0  0  0  0  0  0  0  0  0
  152.7644  140.3206  158.8488 N   0  0  0  0  0  0  0  0  0  0  0  0
  154.1249  140.2509  159.3660 C   0  0  0  0  0  0  0  0  0  0  0  0
  154.2457  141.1185  160.6300 C   0  0  0  0  0  0  0  0  0  0  0  0
  153.8422  142.4535  160.3337 O   0  0  0  0  0  0  0  0  0  0  0  0
  152.4875  142.5187  159.8949 C   0  0  0  0  0  0  0  0  0  0  0  0
  152.3204  141.6887  158.6103 C   0  0  0  0  0  0  0  0  0  0  0  0
  146.8747  134.0296  163.5276 H   0  0  0  0  0  0  0  0  0  0  0  0
  148.3743  134.6292  164.2293 H   0  0  0  0  0  0  0  0  0  0  0  0
  148.4278  133.4138  162.9675 H   0  0  0  0  0  0  0  0  0  0  0  0
  149.0048  135.6233  162.0152 H   0  0  0  0  0  0  0  0  0  0  0  0
  146.3091  136.5978  163.0648 H   0  0  0  0  0  0  0  0  0  0  0  0
  147.4290  137.5362  162.0804 H   0  0  0  0  0  0  0  0  0  0  0  0
  147.8897  137.0438  163.7035 H   0  0  0  0  0  0  0  0  0  0  0  0
  146.7889  134.0443  161.0457 H   0  0  0  0  0  0  0  0  0  0  0  0
  146.4342  135.7234  160.7466 H   0  0  0  0  0  0  0  0  0  0  0  0
  149.0952  134.4836  159.9325 H   0  0  0  0  0  0  0  0  0  0  0  0
  147.7191  134.5349  158.8409 H   0  0  0  0  0  0  0  0  0  0  0  0
  150.4676  138.6622  159.7102 H   0  0  0  0  0  0  0  0  0  0  0  0
  151.8617  137.7128  160.1034 H   0  0  0  0  0  0  0  0  0  0  0  0
  151.0015  136.4021  157.0131 H   0  0  0  0  0  0  0  0  0  0  0  0
  152.0326  136.9851  154.8395 H   0  0  0  0  0  0  0  0  0  0  0  0
  153.3409  139.1142  154.6504 H   0  0  0  0  0  0  0  0  0  0  0  0
  154.3925  139.2190  159.5942 H   0  0  0  0  0  0  0  0  0  0  0  0
  154.8210  140.6012  158.6029 H   0  0  0  0  0  0  0  0  0  0  0  0
  153.6347  140.7136  161.4382 H   0  0  0  0  0  0  0  0  0  0  0  0
  155.2768  141.1268  160.9834 H   0  0  0  0  0  0  0  0  0  0  0  0
  151.8224  142.1569  160.6807 H   0  0  0  0  0  0  0  0  0  0  0  0
  152.2235  143.5595  159.7071 H   0  0  0  0  0  0  0  0  0  0  0  0
  152.9059  142.1350  157.8053 H   0  0  0  0  0  0  0  0  0  0  0  0
  151.2767  141.6888  158.2939 H   0  0  0  0  0  0  0  0  0  0  0  0
  1  2  1  0  0  0  0
  1 23  1  0  0  0  0
  1 24  1  0  0  0  0
  1 25  1  0  0  0  0
  2  3  1  0  0  0  0
  2  4  1  0  0  0  0
  2 26  1  0  0  0  0
  3 27  1  0  0  0  0
  3 28  1  0  0  0  0
  3 29  1  0  0  0  0
  4  5  1  0  0  0  0
  4 30  1  0  0  0  0
  4 31  1  0  0  0  0
  5  6  1  0  0  0  0
  5 32  1  0  0  0  0
  5 33  1  0  0  0  0
  6  7  2  0  0  0  0
  6  8  2  0  0  0  0
  6  9  1  0  0  0  0
  9 10  1  0  0  0  0
 10 11  1  0  0  0  0
 10 34  1  0  0  0  0
 10 35  1  0  0  0  0
 11 16  1  0  0  0  0
 11 12  2  0  0  0  0
 12 13  1  0  0  0  0
 12 36  1  0  0  0  0
 13 14  2  0  0  0  0
 13 37  1  0  0  0  0
 14 15  1  0  0  0  0
 14 38  1  0  0  0  0
 15 16  2  0  0  0  0
 16 17  1  0  0  0  0
 17 22  1  0  0  0  0
 17 18  1  0  0  0  0
 18 19  1  0  0  0  0
 18 39  1  0  0  0  0
 18 40  1  0  0  0  0
 19 20  1  0  0  0  0
 19 41  1  0  0  0  0
 19 42  1  0  0  0  0
 20 21  1  0  0  0  0
 21 22  1  0  0  0  0
 21 43  1  0  0  0  0
 21 44  1  0  0  0  0
 22 45  1  0  0  0  0
 22 46  1  0  0  0  0
M  CHG  1   9  -1
M  END
> <s_m_source_file>
AV-unprocessed.smi

> <i_m_source_file_index>
1640

> <i_lp_mmshare_version>
43012

> <i_f3d_flags>
0

> <s_epik_input>
W0NIM11bQ0hdKFtDSDNdKVtDSDJdW0NIMl1TKD1PKSg9TylbTkhdW0NIMl1jMVtjSF1bY0hdW2NIXW5jMU4yW0NIMl1bQ0gyXU9bQ0gyXVtDSDJdMg==

> <s_epik_cmdline>
J2VwaWtfcHl0aG9uJywgJy1waCcsICc3LjAnLCAnLXRuJywgJzgnLCAnLW1hJywgJzIwMCcsICctbWV0YWxfYmluZGluZycsICctaW1hZScsICc8aW5maWxlLm1hZT4nLCAnLW9tYWUnLCAnPG91dGZpbGUubWFlPic=

> <r_lp_tautomer_probability>
1

> <r_epik_Ionization_Penalty>
6.15599

> <r_epik_Ionization_Penalty_Charging>
6.0779

> <r_epik_Ionization_Penalty_Neutral>
0.078089

> <r_epik_State_Penalty>
6.0833

> <r_epik_Charging_Adjusted_Penalty>
12.1612

> <i_epik_Tot_Q>
-1

> <i_epik_Tot_abs_Q>
1

> <r_epik_Metal_State_Penalty>
2.0323

> <b_epik_Metal_Only>
1

> <s_lp_Force_Field>
OPLS_2005

> <r_lp_Energy>
20.5141

> <b_lp_Chiralities_Consistent>
1

> <s_lp_Variant>
AV-unprocessed.smi:1640-2

> <Gold.Version>
5.8.1

> <Gold.Id.Protein>
6NUR|6NUR_protein|mol2

> <Gold.PLP.Fitness>
45.9464

> <Gold.PLP.PLP>
-36.6100

> <Gold.PLP.part.hbond>
-4.0000

> <Gold.PLP.part.metal>
0.0000

> <Gold.PLP.part.buried>
-4.7419

> <Gold.PLP.part.nonpolar>
-28.8466

> <Gold.PLP.part.repulsive>
0.0000

> <Gold.PLP.ligand.clash>
0.2769

> <Gold.PLP.ligand.torsion>
1.7331

> <Gold.PLP.Chemscore.Hbond>
3.9440

> <Gold.PLP.Chemscore.CHOScore>
0.0000

> <Gold.PLP.Chemscore.Metal>
0.0000

> <Gold.Chemscore.Hbonds>
donor molecule, donor type, donor heavy atom, donor atom, acceptor molecule, acceptor atom, score
      P1  H  6896  6909       L1     9  2.00
      P1  H  6931  6943       L1     8  0.48
      P1  H  6934  6947       L1     8  0.56
      P1  H  7997  8009       L1    15  0.60

> <Gold.PLP.Chemscore.Internal.Correction>
1.2476

> <Gold.Rescore>
     Score         DG    S(hbond)    S(metal)    S(lipo)     H(rot)  DE(clash)    DE(int)     intcor
     17.70     -20.61       2.46        0.00      96.96       1.73       0.21       2.69       ----

> <Gold.Chemscore.Fitness>
17.7029

> <Gold.Chemscore.DG>
-20.6122

> <Gold.Chemscore.ZeroCoef>
-5.4800

> <Gold.Chemscore.Hbond>
2.4635

> <Gold.Chemscore.Metal>
0.0000

> <Gold.Chemscore.Lipo>
96.9649

> <Gold.Chemscore.Internal_Hbond>
0.0000

> <Gold.Chemscore.DEClash>
0.2145

> <Gold.Chemscore.DEInternal>
2.6948

> <Gold.Chemscore.Rot>
1.7347

> <Gold.Chemscore.Internal.Correction>
   9.000000E+99

> <Gold.Chemscore.Hbonds>
donor molecule, donor type, donor heavy atom, donor atom, acceptor molecule, acceptor atom, score
      P1  H  6896  6909       L1     9  0.80
      P1  H  6931  6943       L1     8  0.47
      P1  H  6934  6947       L1     8  0.56
      P1  H  7997  8009       L1    15  0.38

> <Gold.Chemscore.Hbond.Weighted>
-8.2282

> <Gold.Chemscore.Metal.Weighted>
-0.0000

> <Gold.Chemscore.Lipo.Weighted>
-11.3449

> <Gold.Chemscore.Internal_Hbond.Weighted>
0.0000

> <Gold.Chemscore.DEClash.Weighted>
0.2145

> <Gold.Chemscore.DEInternal.Weighted>
2.6948

> <Gold.Chemscore.Rot.Weighted>
4.4409

> <Gold.Chemscore.Internal.Correction.Weighted>
   9.000000E+99

> <Gold.Protein.RotatedTorsions>
[ 6907 6896 6895 6894 ] final   68.59 input  -60.11 | X-H torsion
[ 7974 7965 7964 7962 ] final    3.77 input  175.53 | X-H torsion
[ 8008 7997 7996 7995 ] final -178.49 input   59.86 | X-H torsion
[ 10167 10162 10161 10158 ] final   -3.32 input  -65.29 | X-H torsion
[ 10718 10713 10712 10709 ] final  128.70 input   66.30 | X-H torsion
[ 10763 10752 10751 10750 ] final  -26.44 input  -60.55 | X-H torsion
[ 11005 11000 10999 10996 ] final  105.94 input  -57.11 | X-H torsion

> <Gold.Protein.ActiveResidues>
 VAL166  LYS551  ARG553  GLY616  TRP617  ASP618  TYR619  PRO620  LYS621  CYS622 
 ASP623  PHE694  ASN695  SER759  ASP760  ASP761  ALA762  ILE779  LEU786  VAL792 
 PHE793  MET794  SER795  GLU796  ALA797  LYS798  CYS799  TRP800  GLU811  SER814 

> <Gold.Protein.RotatedAtoms>
  152.4630  134.5140  159.9762 H   0  0  0  0  0  0  0  0  0  0  0  0  # atno 6907 bound_to 6896
  151.5184  133.3465  159.2905 H   0  0  0  0  0  0  0  0  0  0  0  0  # atno 6908 bound_to 6896
  150.8602  134.7981  159.7139 H   0  0  0  0  0  0  0  0  0  0  0  0  # atno 6909 bound_to 6896
  146.2445  140.0635  142.8367 H   0  0  0  0  0  0  0  0  0  0  0  0  # atno 7974 bound_to 7965
  156.0195  140.1258  157.0372 H   0  0  0  0  0  0  0  0  0  0  0  0  # atno 8008 bound_to 7997
  154.4306  140.1071  156.6013 H   0  0  0  0  0  0  0  0  0  0  0  0  # atno 8009 bound_to 7997
  155.5965  140.3470  155.4583 H   0  0  0  0  0  0  0  0  0  0  0  0  # atno 8010 bound_to 7997
  140.6885  143.6553  150.8314 H   0  0  0  0  0  0  0  0  0  0  0  0  # atno 10167 bound_to 10162
  157.5221  131.1098  150.9137 H   0  0  0  0  0  0  0  0  0  0  0  0  # atno 10718 bound_to 10713
  153.7160  135.6948  153.5025 H   0  0  0  0  0  0  0  0  0  0  0  0  # atno 10763 bound_to 10752
  153.2238  135.4361  155.0518 H   0  0  0  0  0  0  0  0  0  0  0  0  # atno 10764 bound_to 10752
  154.8299  135.3467  154.6695 H   0  0  0  0  0  0  0  0  0  0  0  0  # atno 10765 bound_to 10752
  139.8808  134.9353  156.5591 H   0  0  0  0  0  0  0  0  0  0  0  0  # atno 11005 bound_to 11000
  145.0879  140.9264  143.4787 LP  0  0  0  0  0  0  0  0  0  0  0  0  # atno 17320 bound_to 7965
  145.0802  139.2966  143.5787 LP  0  0  0  0  0  0  0  0  0  0  0  0  # atno 17321 bound_to 7965
  140.0263  143.5489  152.2779 LP  0  0  0  0  0  0  0  0  0  0  0  0  # atno 17342 bound_to 10162
  139.6266  144.7638  151.2625 LP  0  0  0  0  0  0  0  0  0  0  0  0  # atno 17343 bound_to 10162
  156.9745  130.5503  149.5292 LP  0  0  0  0  0  0  0  0  0  0  0  0  # atno 17370 bound_to 10713
  156.0361  130.5448  150.8657 LP  0  0  0  0  0  0  0  0  0  0  0  0  # atno 17371 bound_to 10713
  140.8183  133.8374  155.8872 LP  0  0  0  0  0  0  0  0  0  0  0  0  # atno 17394 bound_to 11000
  140.9442  134.1861  157.4775 LP  0  0  0  0  0  0  0  0  0  0  0  0  # atno 17395 bound_to 11000

$$$$
