AV-unprocessed.smi:358|AV-procd|sdf|2417|dock5
  -GOLD-   2262022353D 1   1.00000     0.00000
 Structure written by MMmdl.
 37 39  0  0  0  0  0  0  0  0  1 V2000
  152.7043  138.4089  155.7743 N   0  0  0  0  0  0  0  0  0  0  0  0
  151.5881  139.0203  155.3712 C   0  0  0  0  0  0  0  0  0  0  0  0
  151.6050  140.1367  154.8558 O   0  0  0  0  0  0  0  0  0  0  0  0
  150.2723  138.2640  155.5830 C   0  0  0  0  0  0  0  0  0  0  0  0
  149.2889  139.0588  156.3100 N   0  0  0  0  0  0  0  0  0  0  0  0
  148.8948  138.9622  157.5967 C   0  0  0  0  0  0  0  0  0  0  0  0
  149.5446  137.7639  158.7089 S   0  0  0  0  0  0  0  0  0  0  0  0
  147.9969  136.8575  158.9950 C   0  0  0  0  0  0  0  0  0  0  0  0
  147.7598  136.4729  160.4564 C   0  0  0  0  0  0  0  0  0  0  0  0
  147.5416  137.3357  161.3076 O   0  0  0  0  0  0  0  0  0  0  0  0
  147.7931  135.1599  160.7280 N   0  0  0  0  0  0  0  0  0  0  0  0
  147.5918  134.5721  162.0127 C   0  0  0  0  0  0  0  0  0  0  0  0
  146.2922  133.8334  162.2500 C   0  0  0  0  0  0  0  0  0  0  0  0
  146.5212  135.1702  162.8999 C   0  0  0  0  0  0  0  0  0  0  0  0
  147.9798  139.8681  157.9493 N   0  0  0  0  0  0  0  0  0  0  0  0
  147.7494  140.6184  156.8176 N   0  0  0  0  0  0  0  0  0  0  0  0
  148.5333  140.0887  155.8757 C   0  0  0  0  0  0  0  0  0  0  0  0
  148.6205  140.6206  154.4803 C   0  0  0  0  0  0  0  0  0  0  0  0
  147.9247  141.9053  154.0869 C   0  0  0  0  0  0  0  0  0  0  0  0
  147.4242  140.5887  153.5545 C   0  0  0  0  0  0  0  0  0  0  0  0
  153.5962  138.8672  155.6539 H   0  0  0  0  0  0  0  0  0  0  0  0
  152.6560  137.4926  156.1954 H   0  0  0  0  0  0  0  0  0  0  0  0
  149.8615  137.9784  154.6144 H   0  0  0  0  0  0  0  0  0  0  0  0
  150.4507  137.3371  156.1296 H   0  0  0  0  0  0  0  0  0  0  0  0
  147.1620  137.4726  158.6586 H   0  0  0  0  0  0  0  0  0  0  0  0
  148.0035  135.9586  158.3771 H   0  0  0  0  0  0  0  0  0  0  0  0
  147.9772  134.5260  159.9640 H   0  0  0  0  0  0  0  0  0  0  0  0
  148.4665  134.1694  162.5215 H   0  0  0  0  0  0  0  0  0  0  0  0
  145.5745  133.7891  161.4330 H   0  0  0  0  0  0  0  0  0  0  0  0
  146.3252  132.9525  162.8880 H   0  0  0  0  0  0  0  0  0  0  0  0
  146.7085  135.1829  163.9716 H   0  0  0  0  0  0  0  0  0  0  0  0
  145.9575  136.0186  162.5162 H   0  0  0  0  0  0  0  0  0  0  0  0
  149.6018  140.4225  154.0537 H   0  0  0  0  0  0  0  0  0  0  0  0
  147.3134  142.4047  154.8361 H   0  0  0  0  0  0  0  0  0  0  0  0
  148.4428  142.5640  153.3930 H   0  0  0  0  0  0  0  0  0  0  0  0
  147.6076  140.3662  152.5054 H   0  0  0  0  0  0  0  0  0  0  0  0
  146.4812  140.2190  153.9522 H   0  0  0  0  0  0  0  0  0  0  0  0
  1  2  1  0  0  0  0
  1 21  1  0  0  0  0
  1 22  1  0  0  0  0
  2  3  2  0  0  0  0
  2  4  1  0  0  0  0
  4  5  1  0  0  0  0
  4 23  1  0  0  0  0
  4 24  1  0  0  0  0
  5 17  1  0  0  0  0
  5  6  1  0  0  0  0
  6  7  1  0  0  0  0
  6 15  2  0  0  0  0
  7  8  1  0  0  0  0
  8  9  1  0  0  0  0
  8 25  1  0  0  0  0
  8 26  1  0  0  0  0
  9 10  2  0  0  0  0
  9 11  1  0  0  0  0
 11 12  1  0  0  0  0
 11 27  1  0  0  0  0
 12 14  1  0  0  0  0
 12 13  1  0  0  0  0
 12 28  1  0  0  0  0
 13 14  1  0  0  0  0
 13 29  1  0  0  0  0
 13 30  1  0  0  0  0
 14 31  1  0  0  0  0
 14 32  1  0  0  0  0
 15 16  1  0  0  0  0
 16 17  2  0  0  0  0
 17 18  1  0  0  0  0
 18 20  1  0  0  0  0
 18 19  1  0  0  0  0
 18 33  1  0  0  0  0
 19 20  1  0  0  0  0
 19 34  1  0  0  0  0
 19 35  1  0  0  0  0
 20 36  1  0  0  0  0
 20 37  1  0  0  0  0
M  END
> <s_m_source_file>
AV-unprocessed.smi

> <i_m_source_file_index>
358

> <i_lp_mmshare_version>
43012

> <i_f3d_flags>
0

> <s_epik_input>
W0NIMl0xW0NIMl1bQ0hdMWMybm5jKG4yW0NIMl1DKD1PKVtOSDJdKVNbQ0gyXUMoPU8pW05IXVtDSF0zW0NIMl1bQ0gyXTM=

> <s_epik_cmdline>
J2VwaWtfcHl0aG9uJywgJy1waCcsICc3LjAnLCAnLXRuJywgJzgnLCAnLW1hJywgJzIwMCcsICctbWV0YWxfYmluZGluZycsICctaW1hZScsICc8aW5maWxlLm1hZT4nLCAnLW9tYWUnLCAnPG91dGZpbGUubWFlPic=

> <r_lp_tautomer_probability>
1

> <r_epik_Ionization_Penalty>
5.83215e-07

> <r_epik_Ionization_Penalty_Charging>
0

> <r_epik_Ionization_Penalty_Neutral>
5.83215e-07

> <r_epik_State_Penalty>
-0

> <r_epik_Charging_Adjusted_Penalty>
0

> <i_epik_Tot_Q>
0

> <i_epik_Tot_abs_Q>
0

> <r_epik_Metal_State_Penalty>
-0

> <b_epik_Metal_Only>
0

> <s_lp_Force_Field>
OPLS_2005

> <r_lp_Energy>
18.9456

> <b_lp_Chiralities_Consistent>
1

> <s_lp_Variant>
AV-unprocessed.smi:358-1

> <Gold.Version>
5.8.1

> <Gold.Id.Protein>
6NUR|6NUR_protein|mol2

> <Gold.PLP.Fitness>
40.1476

> <Gold.PLP.PLP>
-33.1813

> <Gold.PLP.part.hbond>
-3.6921

> <Gold.PLP.part.metal>
0.0000

> <Gold.PLP.part.buried>
-4.8248

> <Gold.PLP.part.nonpolar>
-24.8476

> <Gold.PLP.part.repulsive>
0.3487

> <Gold.PLP.ligand.clash>
0.0000

> <Gold.PLP.ligand.torsion>
0.9041

> <Gold.PLP.Chemscore.Hbond>
2.8400

> <Gold.PLP.Chemscore.CHOScore>
0.0000

> <Gold.PLP.Chemscore.Metal>
0.0000

> <Gold.Chemscore.Hbonds>
donor molecule, donor type, donor heavy atom, donor atom, acceptor molecule, acceptor atom, score
      P1  H  6931  6943       L1    10  0.85
      P1  H  6934  6947       L1    10  0.88
      P1  H  7989  7998       L1     3  1.00

> <Gold.PLP.Chemscore.Internal.Correction>
0.2545

> <Gold.Rescore>
     Score         DG    S(hbond)    S(metal)    S(lipo)     H(rot)  DE(clash)    DE(int)     intcor
     11.09     -12.73       2.73        0.00      56.30       3.30       0.00       1.64       ----

> <Gold.Chemscore.Fitness>
11.0890

> <Gold.Chemscore.DG>
-12.7341

> <Gold.Chemscore.ZeroCoef>
-5.4800

> <Gold.Chemscore.Hbond>
2.7276

> <Gold.Chemscore.Metal>
0.0000

> <Gold.Chemscore.Lipo>
56.3048

> <Gold.Chemscore.Internal_Hbond>
0.0000

> <Gold.Chemscore.DEClash>
0.0048

> <Gold.Chemscore.DEInternal>
1.6404

> <Gold.Chemscore.Rot>
3.2984

> <Gold.Chemscore.Internal.Correction>
   9.000000E+99

> <Gold.Chemscore.Hbonds>
donor molecule, donor type, donor heavy atom, donor atom, acceptor molecule, acceptor atom, score
      P1  H  6931  6943       L1    10  0.79
      P1  H  6934  6947       L1    10  0.86
      P1  H  7989  7998       L1     3  0.90

> <Gold.Chemscore.Hbond.Weighted>
-9.1103

> <Gold.Chemscore.Metal.Weighted>
-0.0000

> <Gold.Chemscore.Lipo.Weighted>
-6.5877

> <Gold.Chemscore.Internal_Hbond.Weighted>
0.0000

> <Gold.Chemscore.DEClash.Weighted>
0.0048

> <Gold.Chemscore.DEInternal.Weighted>
1.6404

> <Gold.Chemscore.Rot.Weighted>
8.4438

> <Gold.Chemscore.Internal.Correction.Weighted>
   9.000000E+99

> <Gold.Protein.RotatedTorsions>
[ 6907 6896 6895 6894 ] final  -16.99 input  -60.11 | X-H torsion
[ 7974 7965 7964 7962 ] final -118.52 input  175.53 | X-H torsion
[ 8008 7997 7996 7995 ] final -145.95 input   59.86 | X-H torsion
[ 10167 10162 10161 10158 ] final  -25.11 input  -65.29 | X-H torsion
[ 10718 10713 10712 10709 ] final -169.81 input   66.30 | X-H torsion
[ 10763 10752 10751 10750 ] final -102.89 input  -60.55 | X-H torsion
[ 11005 11000 10999 10996 ] final  102.92 input  -57.11 | X-H torsion

> <Gold.Protein.ActiveResidues>
 VAL166  LYS551  ARG553  GLY616  TRP617  ASP618  TYR619  PRO620  LYS621  CYS622 
 ASP623  PHE694  ASN695  SER759  ASP760  ASP761  ALA762  ILE779  LEU786  VAL792 
 PHE793  MET794  SER795  GLU796  ALA797  LYS798  CYS799  TRP800  GLU811  SER814 

> <Gold.Protein.RotatedAtoms>
  151.3001  135.0766  159.9235 H   0  0  0  0  0  0  0  0  0  0  0  0  # atno 6907 bound_to 6896
  152.5299  133.9842  159.7831 H   0  0  0  0  0  0  0  0  0  0  0  0  # atno 6908 bound_to 6896
  151.0127  133.5899  159.2711 H   0  0  0  0  0  0  0  0  0  0  0  0  # atno 6909 bound_to 6896
  145.0729  140.8371  143.4085 H   0  0  0  0  0  0  0  0  0  0  0  0  # atno 7974 bound_to 7965
  155.5515  140.0617  157.2849 H   0  0  0  0  0  0  0  0  0  0  0  0  # atno 8008 bound_to 7997
  154.4419  140.1901  156.0736 H   0  0  0  0  0  0  0  0  0  0  0  0  # atno 8009 bound_to 7997
  156.0513  140.3284  155.7358 H   0  0  0  0  0  0  0  0  0  0  0  0  # atno 8010 bound_to 7997
  140.7287  143.4294  151.0826 H   0  0  0  0  0  0  0  0  0  0  0  0  # atno 10167 bound_to 10162
  156.7171  130.9255  151.3094 H   0  0  0  0  0  0  0  0  0  0  0  0  # atno 10718 bound_to 10713
  154.7767  135.4844  153.9759 H   0  0  0  0  0  0  0  0  0  0  0  0  # atno 10763 bound_to 10752
  153.1438  135.6778  153.8993 H   0  0  0  0  0  0  0  0  0  0  0  0  # atno 10764 bound_to 10752
  153.8659  135.3149  155.3418 H   0  0  0  0  0  0  0  0  0  0  0  0  # atno 10765 bound_to 10752
  139.8780  134.9243  156.5131 H   0  0  0  0  0  0  0  0  0  0  0  0  # atno 11005 bound_to 11000
  145.1271  139.2656  143.5558 LP  0  0  0  0  0  0  0  0  0  0  0  0  # atno 17320 bound_to 7965
  146.3529  140.0911  142.8612 LP  0  0  0  0  0  0  0  0  0  0  0  0  # atno 17321 bound_to 7965
  139.7949  143.8166  152.3156 LP  0  0  0  0  0  0  0  0  0  0  0  0  # atno 17342 bound_to 10162
  139.8163  144.7315  150.9631 LP  0  0  0  0  0  0  0  0  0  0  0  0  # atno 17343 bound_to 10162
  157.6913  130.9236  150.0522 LP  0  0  0  0  0  0  0  0  0  0  0  0  # atno 17370 bound_to 10713
  156.1620  130.3644  149.9285 LP  0  0  0  0  0  0  0  0  0  0  0  0  # atno 17371 bound_to 10713
  140.8505  133.8135  155.9164 LP  0  0  0  0  0  0  0  0  0  0  0  0  # atno 17394 bound_to 11000
  140.9148  134.2215  157.4963 LP  0  0  0  0  0  0  0  0  0  0  0  0  # atno 17395 bound_to 11000

$$$$
