#       Name:                AV-unprocessed.smi:3117
#       Creating user name   scv26
#       Creation time:       Fri Mar 27 17:26:35 2020


#       File generated by GOLD software.
#

@<TRIPOS>MOLECULE
AV-unprocessed.smi:3117
    40    40     1
SMALL
NO_CHARGES


@<TRIPOS>ATOM
      1 ****        -1.2612  -1.0551   1.6451 C.3            1 S1                 0.0000
      2 ****        -0.7400  -0.2469   0.4429 C.3            1 S1                 0.0000
      3 ****         0.7392  -0.2235   0.4904 N.4            1 S1                 1.0000
      4 ****         1.3421   1.1273   0.4669 C.3            1 S1                 0.0000
      5 ****         2.8846   1.0809   0.4404 C.3            1 S1                 0.0000
      6 ****         3.4583   2.5047   0.3472 C.3            1 S1                 0.0000
      7 ****         3.4718   0.3482   1.6608 C.3            1 S1                 0.0000
      8 ****         3.2875   0.3993  -0.7319 O.3            1 S1                 0.0000
      9 ****        -1.2340  -0.8025  -0.9204 C.3            1 S1                 0.0000
     10 ****        -0.7941   0.0617  -2.1182 C.3            1 S1                 0.0000
     11 ****        -2.6804  -0.9834  -0.9425 N.pl3          1 S1                 0.0000
     12 ****        -3.3944  -2.1530  -1.1058 C.2            1 S1                 0.0000
     13 ****        -4.7210  -1.8326  -1.0562 C.2            1 S1                 0.0000
     14 ****        -4.7216  -0.4235  -0.8608 C.2            1 S1                 0.0000
     15 ****        -3.5006   0.0815  -0.7929 N.2            1 S1                 0.0000
     16 ****        -2.3484  -1.0205   1.7176 H              1 S1                 0.0000
     17 ****        -0.8679  -0.6589   2.5819 H              1 S1                 0.0000
     18 ****        -0.9653  -2.1025   1.5774 H              1 S1                 0.0000
     19 ****        -1.1139   0.7722   0.5590 H              1 S1                 0.0000
     20 ****         1.0385  -0.6831   1.3382 H              1 S1                 0.0000
     21 ****         0.9721   1.6680  -0.4054 H              1 S1                 0.0000
     22 ****         1.0017   1.6776   1.3454 H              1 S1                 0.0000
     23 ****         3.1894   3.0961   1.2232 H              1 S1                 0.0000
     24 ****         3.0825   3.0305  -0.5315 H              1 S1                 0.0000
     25 ****         4.5471   2.4933   0.2820 H              1 S1                 0.0000
     26 ****         3.1751   0.8343   2.5908 H              1 S1                 0.0000
     27 ****         4.5621   0.3392   1.6302 H              1 S1                 0.0000
     28 ****         3.1411  -0.6896   1.7113 H              1 S1                 0.0000
     29 ****         4.2313   0.4214  -0.7848 H              1 S1                 0.0000
     30 ****        -0.7958  -1.7929  -1.0556 H              1 S1                 0.0000
     31 ****         0.2913   0.0908  -2.2153 H              1 S1                 0.0000
     32 ****        -1.1467   1.0890  -2.0220 H              1 S1                 0.0000
     33 ****        -1.1888  -0.3374  -3.0531 H              1 S1                 0.0000
     34 ****        -2.9057  -3.1066  -1.2409 H              1 S1                 0.0000
     35 ****        -5.5633  -2.5024  -1.1471 H              1 S1                 0.0000
     36 ****        -5.5663   0.2430  -0.7665 H              1 S1                 0.0000
     37 ****         1.0945  -0.7458  -0.2980 H              1 S1                 0.0000
     38 ****         2.8946   0.8483  -1.5345 LP             1 S1                 0.0000
     39 ****         2.9744  -0.5496  -0.6942 LP             1 S1                 0.0000
     40 ****        -3.2417   1.0383  -0.6604 LP             1 S1                 0.0000
@<TRIPOS>BOND
    1    1    2 1     
    2    1   16 1     
    3    1   17 1     
    4    1   18 1     
    5    2    3 1     
    6    2    9 1     
    7    2   19 1     
    8    3    4 1     
    9    3   20 1     
   10    3   37 1     
   11    4    5 1     
   12    4   21 1     
   13    4   22 1     
   14    5    6 1     
   15    5    7 1     
   16    5    8 1     
   17    6   23 1     
   18    6   24 1     
   19    6   25 1     
   20    7   26 1     
   21    7   27 1     
   22    7   28 1     
   23    8   29 1     
   24    9   10 1     
   25    9   11 1     
   26    9   30 1     
   27   10   31 1     
   28   10   32 1     
   29   10   33 1     
   30   11   15 1     
   31   11   12 1     
   32   12   13 2     
   33   12   34 1     
   34   13   14 1     
   35   13   35 1     
   36   14   15 2     
   37   14   36 1     
   38    8   38 1     
   39    8   39 1     
   40   15   40 1     
@<TRIPOS>SUBSTRUCTURE
      1 S1             1
@<TRIPOS>SET
LONE_PAIRS      STATIC     ATOMS    <user>   **** ""
3 38 39 40
DONOR_HYDROGENS      STATIC     ATOMS    <user>   **** ""
3 20 37 29
ATOM$BLUE        STATIC     ATOMS    COLORGROUP SYSTEM
3 38 39 40
ATOM$RED        STATIC     ATOMS    COLORGROUP SYSTEM
3 20 37 29
