AV-unprocessed.smi:522|AV-procd|sdf|2801|dock9
  -GOLD-   2262023273D 1   1.00000     0.00000
 Structure written by MMmdl.
 41 42  0  0  0  0  0  0  0  0  1 V2000
  149.9152  138.4894  154.6584 C   0  0  0  0  0  0  0  0  0  0  0  0
  150.9478  139.4577  154.6006 O   0  0  0  0  0  0  0  0  0  0  0  0
  151.5654  139.6574  155.8621 C   0  0  0  0  0  0  0  0  0  0  0  0
  150.6712  140.5241  156.7588 C   0  0  0  0  0  0  0  0  0  0  0  0
  151.3412  140.9043  157.9939 N   0  0  0  0  0  0  0  0  0  0  0  0
  151.8073  140.0992  158.9808 C   0  0  0  0  0  0  0  0  0  0  0  0
  151.6579  138.3397  158.8937 S   0  0  0  0  0  0  0  0  0  0  0  0
  149.8458  138.1758  158.8773 C   0  0  0  0  0  0  0  0  0  0  0  0
  149.4167  136.7261  158.6397 C   0  0  0  0  0  0  0  0  0  0  0  0
  150.0558  136.0707  157.8159 O   0  0  0  0  0  0  0  0  0  0  0  0
  148.2568  136.2122  159.4194 C   0  0  0  0  0  0  0  0  0  0  0  0
  147.6570  136.9982  160.4509 C   0  0  0  0  0  0  0  0  0  0  0  0
  147.1630  137.6451  161.2743 N   0  0  0  0  0  0  0  0  0  0  0  0
  147.7143  134.9864  159.1895 C   0  0  0  0  0  0  0  0  0  0  0  0
  146.5298  134.4657  159.9895 C   0  0  0  0  0  0  0  0  0  0  0  0
  148.1444  134.0781  158.2361 N   0  0  0  0  0  0  0  0  0  0  0  0
  152.3920  140.7259  160.0036 N   0  0  0  0  0  0  0  0  0  0  0  0
  152.2761  142.0571  159.6575 C   0  0  0  0  0  0  0  0  0  0  0  0
  152.6930  143.2235  160.3377 C   0  0  0  0  0  0  0  0  0  0  0  0
  152.4605  144.4970  159.7782 C   0  0  0  0  0  0  0  0  0  0  0  0
  151.8110  144.6220  158.5329 C   0  0  0  0  0  0  0  0  0  0  0  0
  151.3887  143.4719  157.8386 C   0  0  0  0  0  0  0  0  0  0  0  0
  151.6222  142.2035  158.4026 C   0  0  0  0  0  0  0  0  0  0  0  0
  149.4577  138.3771  153.6770 H   0  0  0  0  0  0  0  0  0  0  0  0
  149.1338  138.7867  155.3586 H   0  0  0  0  0  0  0  0  0  0  0  0
  150.3047  137.5160  154.9596 H   0  0  0  0  0  0  0  0  0  0  0  0
  151.7456  138.6956  156.3444 H   0  0  0  0  0  0  0  0  0  0  0  0
  152.5350  140.1402  155.7291 H   0  0  0  0  0  0  0  0  0  0  0  0
  150.3451  141.4159  156.2245 H   0  0  0  0  0  0  0  0  0  0  0  0
  149.7634  139.9769  157.0146 H   0  0  0  0  0  0  0  0  0  0  0  0
  149.4529  138.5135  159.8363 H   0  0  0  0  0  0  0  0  0  0  0  0
  149.4155  138.8266  158.1162 H   0  0  0  0  0  0  0  0  0  0  0  0
  146.7804  134.4138  161.0496 H   0  0  0  0  0  0  0  0  0  0  0  0
  146.2271  133.4670  159.6710 H   0  0  0  0  0  0  0  0  0  0  0  0
  145.6703  135.1267  159.8719 H   0  0  0  0  0  0  0  0  0  0  0  0
  148.9222  134.2732  157.6220 H   0  0  0  0  0  0  0  0  0  0  0  0
  147.6858  133.1861  158.1093 H   0  0  0  0  0  0  0  0  0  0  0  0
  153.1918  143.1384  161.2917 H   0  0  0  0  0  0  0  0  0  0  0  0
  152.7823  145.3822  160.3069 H   0  0  0  0  0  0  0  0  0  0  0  0
  151.6370  145.6013  158.1115 H   0  0  0  0  0  0  0  0  0  0  0  0
  150.8903  143.5636  156.8849 H   0  0  0  0  0  0  0  0  0  0  0  0
  1  2  1  0  0  0  0
  1 24  1  0  0  0  0
  1 25  1  0  0  0  0
  1 26  1  0  0  0  0
  2  3  1  0  0  0  0
  3  4  1  0  0  0  0
  3 27  1  0  0  0  0
  3 28  1  0  0  0  0
  4  5  1  0  0  0  0
  4 29  1  0  0  0  0
  4 30  1  0  0  0  0
  5 23  1  0  0  0  0
  5  6  1  0  0  0  0
  6  7  1  0  0  0  0
  6 17  2  0  0  0  0
  7  8  1  0  0  0  0
  8  9  1  0  0  0  0
  8 31  1  0  0  0  0
  8 32  1  0  0  0  0
  9 10  2  0  0  0  0
  9 11  1  0  0  0  0
 11 12  1  0  0  0  0
 11 14  2  0  0  0  0
 12 13  3  0  0  0  0
 14 15  1  0  0  0  0
 14 16  1  0  0  0  0
 15 33  1  0  0  0  0
 15 34  1  0  0  0  0
 15 35  1  0  0  0  0
 16 36  1  0  0  0  0
 16 37  1  0  0  0  0
 17 18  1  0  0  0  0
 18 23  2  0  0  0  0
 18 19  1  0  0  0  0
 19 20  2  0  0  0  0
 19 38  1  0  0  0  0
 20 21  1  0  0  0  0
 20 39  1  0  0  0  0
 21 22  2  0  0  0  0
 21 40  1  0  0  0  0
 22 23  1  0  0  0  0
 22 41  1  0  0  0  0
M  END
> <s_m_source_file>
AV-unprocessed.smi

> <i_m_source_file_index>
522

> <i_lp_mmshare_version>
43012

> <i_f3d_flags>
0

> <s_epik_input>
W2NIXTFbY0hdW2NIXVtjSF1jKGMxMiluKFtDSDJdW0NIMl1PW0NIM10pYyhuMilTW0NIMl1DKD1PKS9DKEMjTik9QygvW0NIM10pW05IMl0=

> <s_epik_cmdline>
J2VwaWtfcHl0aG9uJywgJy1waCcsICc3LjAnLCAnLXRuJywgJzgnLCAnLW1hJywgJzIwMCcsICctbWV0YWxfYmluZGluZycsICctaW1hZScsICc8aW5maWxlLm1hZT4nLCAnLW9tYWUnLCAnPG91dGZpbGUubWFlPic=

> <r_lp_tautomer_probability>
0.5

> <r_epik_Ionization_Penalty>
0.0129021

> <r_epik_Ionization_Penalty_Charging>
0

> <r_epik_Ionization_Penalty_Neutral>
0.0129021

> <r_epik_State_Penalty>
0.42069

> <r_epik_Charging_Adjusted_Penalty>
0.42069

> <i_epik_Tot_Q>
0

> <i_epik_Tot_abs_Q>
0

> <r_epik_Metal_State_Penalty>
0.41068

> <b_epik_Metal_Only>
0

> <s_lp_Force_Field>
OPLS_2005

> <r_lp_Energy>
14.5632

> <b_lp_Chiralities_Consistent>
1

> <s_lp_Variant>
AV-unprocessed.smi:522-1

> <Gold.Version>
5.8.1

> <Gold.Id.Protein>
6NUR|6NUR_protein|mol2

> <Gold.PLP.Fitness>
52.4452

> <Gold.PLP.PLP>
-44.7592

> <Gold.PLP.part.hbond>
-3.0327

> <Gold.PLP.part.metal>
0.0000

> <Gold.PLP.part.buried>
-5.5205

> <Gold.PLP.part.nonpolar>
-35.8405

> <Gold.PLP.part.repulsive>
0.2019

> <Gold.PLP.ligand.clash>
0.0000

> <Gold.PLP.ligand.torsion>
0.4045

> <Gold.PLP.Chemscore.Hbond>
2.8080

> <Gold.PLP.Chemscore.CHOScore>
0.0000

> <Gold.PLP.Chemscore.Metal>
0.0000

> <Gold.Chemscore.Hbonds>
donor molecule, donor type, donor heavy atom, donor atom, acceptor molecule, acceptor atom, score
      P1  H  6931  6943       L1    13  0.29
      P1  H  6934  6947       L1    13  0.71
      P1  H  7989  7998       L1     2  1.00

> <Gold.PLP.Chemscore.Internal.Correction>
0.0711

> <Gold.Rescore>
     Score         DG    S(hbond)    S(metal)    S(lipo)     H(rot)  DE(clash)    DE(int)     intcor
     18.56     -19.14       2.27        0.00     102.89       2.33       0.11       0.47       ----

> <Gold.Chemscore.Fitness>
18.5604

> <Gold.Chemscore.DG>
-19.1449

> <Gold.Chemscore.ZeroCoef>
-5.4800

> <Gold.Chemscore.Hbond>
2.2715

> <Gold.Chemscore.Metal>
0.0000

> <Gold.Chemscore.Lipo>
102.8883

> <Gold.Chemscore.Internal_Hbond>
0.0000

> <Gold.Chemscore.DEClash>
0.1124

> <Gold.Chemscore.DEInternal>
0.4721

> <Gold.Chemscore.Rot>
2.3280

> <Gold.Chemscore.Internal.Correction>
   9.000000E+99

> <Gold.Chemscore.Hbonds>
donor molecule, donor type, donor heavy atom, donor atom, acceptor molecule, acceptor atom, score
      P1  H  6931  6943       L1    13  0.01
      P1  H  6934  6947       L1    13  0.56
      P1  H  7989  7998       L1     2  0.50

> <Gold.Chemscore.Hbond.Weighted>
-7.5868

> <Gold.Chemscore.Metal.Weighted>
-0.0000

> <Gold.Chemscore.Lipo.Weighted>
-12.0379

> <Gold.Chemscore.Internal_Hbond.Weighted>
0.0000

> <Gold.Chemscore.DEClash.Weighted>
0.1124

> <Gold.Chemscore.DEInternal.Weighted>
0.4721

> <Gold.Chemscore.Rot.Weighted>
5.9598

> <Gold.Chemscore.Internal.Correction.Weighted>
   9.000000E+99

> <Gold.Protein.RotatedTorsions>
[ 6907 6896 6895 6894 ] final  -34.26 input  -60.11 | X-H torsion
[ 7974 7965 7964 7962 ] final  -41.26 input  175.53 | X-H torsion
[ 8008 7997 7996 7995 ] final -122.37 input   59.86 | X-H torsion
[ 10167 10162 10161 10158 ] final   25.37 input  -65.29 | X-H torsion
[ 10718 10713 10712 10709 ] final  170.99 input   66.30 | X-H torsion
[ 10763 10752 10751 10750 ] final  172.71 input  -60.55 | X-H torsion
[ 11005 11000 10999 10996 ] final  104.24 input  -57.11 | X-H torsion

> <Gold.Protein.ActiveResidues>
 VAL166  LYS551  ARG553  GLY616  TRP617  ASP618  TYR619  PRO620  LYS621  CYS622 
 ASP623  PHE694  ASN695  SER759  ASP760  ASP761  ALA762  ILE779  LEU786  VAL792 
 PHE793  MET794  SER795  GLU796  ALA797  LYS798  CYS799  TRP800  GLU811  SER814 

> <Gold.Protein.RotatedAtoms>
  151.0549  134.9698  159.8230 H   0  0  0  0  0  0  0  0  0  0  0  0  # atno 6907 bound_to 6896
  152.5386  134.2490  159.8901 H   0  0  0  0  0  0  0  0  0  0  0  0  # atno 6908 bound_to 6896
  151.2507  133.4308  159.2645 H   0  0  0  0  0  0  0  0  0  0  0  0  # atno 6909 bound_to 6896
  146.0228  140.6829  142.9170 H   0  0  0  0  0  0  0  0  0  0  0  0  # atno 7974 bound_to 7965
  155.1631  140.0406  157.2847 H   0  0  0  0  0  0  0  0  0  0  0  0  # atno 8008 bound_to 7997
  154.6322  140.2527  155.7393 H   0  0  0  0  0  0  0  0  0  0  0  0  # atno 8009 bound_to 7997
  156.2490  140.2873  156.0679 H   0  0  0  0  0  0  0  0  0  0  0  0  # atno 8010 bound_to 7997
  140.5112  144.0157  150.6373 H   0  0  0  0  0  0  0  0  0  0  0  0  # atno 10167 bound_to 10162
  157.0001  131.0173  151.2833 H   0  0  0  0  0  0  0  0  0  0  0  0  # atno 10718 bound_to 10713
  154.4299  135.2759  155.1919 H   0  0  0  0  0  0  0  0  0  0  0  0  # atno 10763 bound_to 10752
  154.3829  135.6083  153.5804 H   0  0  0  0  0  0  0  0  0  0  0  0  # atno 10764 bound_to 10752
  152.9836  135.5885  154.4609 H   0  0  0  0  0  0  0  0  0  0  0  0  # atno 10765 bound_to 10752
  139.8790  134.9293  156.5331 H   0  0  0  0  0  0  0  0  0  0  0  0  # atno 11005 bound_to 11000
  144.6997  140.3596  143.7166 LP  0  0  0  0  0  0  0  0  0  0  0  0  # atno 17320 bound_to 7965
  145.7166  139.1698  143.2508 LP  0  0  0  0  0  0  0  0  0  0  0  0  # atno 17321 bound_to 7965
  140.3480  143.2979  152.0517 LP  0  0  0  0  0  0  0  0  0  0  0  0  # atno 17342 bound_to 10162
  139.4896  144.6394  151.6908 LP  0  0  0  0  0  0  0  0  0  0  0  0  # atno 17343 bound_to 10162
  157.5396  130.8111  149.8013 LP  0  0  0  0  0  0  0  0  0  0  0  0  # atno 17370 bound_to 10713
  156.0174  130.3808  150.2067 LP  0  0  0  0  0  0  0  0  0  0  0  0  # atno 17371 bound_to 10713
  140.8366  133.8237  155.9034 LP  0  0  0  0  0  0  0  0  0  0  0  0  # atno 17394 bound_to 11000
  140.9278  134.2060  157.4884 LP  0  0  0  0  0  0  0  0  0  0  0  0  # atno 17395 bound_to 11000

$$$$
