AV-unprocessed.smi:1971|AV-procd|sdf|7968|dock5
  -GOLD-   2272010143D 1   1.00000     0.00000
 Structure written by MMmdl.
 43 44  0  0  0  0  0  0  0  0  3 V2000
  152.0934  144.4995  158.0264 C   0  0  0  0  0  0  0  0  0  0  0  0
  150.8570  143.8008  158.6096 C   0  0  0  0  0  0  0  0  0  0  0  0
  150.1289  142.9934  157.5995 N   0  3  0  0  0  0  0  0  0  0  0  0
  149.1981  142.0193  158.2199 C   0  0  0  0  0  0  0  0  0  0  0  0
  148.4320  141.2396  157.1314 C   0  0  0  0  0  0  0  0  0  0  0  0
  149.3456  140.4916  156.2560 N   0  0  0  0  0  0  0  0  0  0  0  0
  150.0794  139.3730  156.8911 C   0  0  2  0  0  0  0  0  0  0  0  0
  151.2808  138.9541  156.0095 C   0  0  0  0  0  0  0  0  0  0  0  0
  149.1551  138.1569  157.1580 C   0  0  0  0  0  0  0  0  0  0  0  0
  148.7081  138.1108  158.5452 N   0  0  0  0  0  0  0  0  0  0  0  0
  148.0327  137.1001  159.1071 C   0  0  0  0  0  0  0  0  0  0  0  0
  147.7523  136.1026  158.4385 O   0  0  0  0  0  0  0  0  0  0  0  0
  147.7231  137.3096  160.4066 N   0  5  0  0  0  0  0  0  0  0  0  0
  147.2685  136.2956  161.1608 C   0  0  0  0  0  0  0  0  0  0  0  0
  146.7722  135.1667  160.6415 N   0  0  0  0  0  0  0  0  0  0  0  0
  146.3527  134.2488  161.6061 C   0  0  0  0  0  0  0  0  0  0  0  0
  146.5252  134.6927  162.8902 C   0  0  0  0  0  0  0  0  0  0  0  0
  147.2228  136.2869  162.9264 S   0  0  0  0  0  0  0  0  0  0  0  0
  150.1956  141.4993  155.6042 C   0  0  0  0  0  0  0  0  0  0  0  0
  151.0208  142.3126  156.6260 C   0  0  0  0  0  0  0  0  0  0  0  0
  152.5543  145.1466  158.7730 H   0  0  0  0  0  0  0  0  0  0  0  0
  151.8283  145.1212  157.1708 H   0  0  0  0  0  0  0  0  0  0  0  0
  152.8532  143.7877  157.7045 H   0  0  0  0  0  0  0  0  0  0  0  0
  151.1331  143.1758  159.4602 H   0  0  0  0  0  0  0  0  0  0  0  0
  150.1893  144.5716  158.9969 H   0  0  0  0  0  0  0  0  0  0  0  0
  149.7414  141.3446  158.8829 H   0  0  0  0  0  0  0  0  0  0  0  0
  148.4811  142.5556  158.8426 H   0  0  0  0  0  0  0  0  0  0  0  0
  147.6793  140.5897  157.5734 H   0  0  0  0  0  0  0  0  0  0  0  0
  147.8626  141.9424  156.5212 H   0  0  0  0  0  0  0  0  0  0  0  0
  150.4706  139.6953  157.8551 H   0  0  0  0  0  0  0  0  0  0  0  0
  151.7949  138.0812  156.4109 H   0  0  0  0  0  0  0  0  0  0  0  0
  152.0416  139.7302  155.9446 H   0  0  0  0  0  0  0  0  0  0  0  0
  150.9615  138.7050  154.9970 H   0  0  0  0  0  0  0  0  0  0  0  0
  148.2520  138.2076  156.5508 H   0  0  0  0  0  0  0  0  0  0  0  0
  149.6663  137.2252  156.9105 H   0  0  0  0  0  0  0  0  0  0  0  0
  148.9224  138.9082  159.1257 H   0  0  0  0  0  0  0  0  0  0  0  0
  145.9409  133.3024  161.2882 H   0  0  0  0  0  0  0  0  0  0  0  0
  146.2845  134.1841  163.8114 H   0  0  0  0  0  0  0  0  0  0  0  0
  150.8479  141.0485  154.8590 H   0  0  0  0  0  0  0  0  0  0  0  0
  149.5557  142.1786  155.0392 H   0  0  0  0  0  0  0  0  0  0  0  0
  151.6060  143.0550  156.0848 H   0  0  0  0  0  0  0  0  0  0  0  0
  151.7377  141.6784  157.1482 H   0  0  0  0  0  0  0  0  0  0  0  0
  149.5522  143.6331  157.0721 H   0  0  0  0  0  0  0  0  0  0  0  0
  1  2  1  0  0  0  0
  1 21  1  0  0  0  0
  1 22  1  0  0  0  0
  1 23  1  0  0  0  0
  2  3  1  0  0  0  0
  2 24  1  0  0  0  0
  2 25  1  0  0  0  0
  3 20  1  0  0  0  0
  3  4  1  0  0  0  0
  3 43  1  0  0  0  0
  4  5  1  0  0  0  0
  4 26  1  0  0  0  0
  4 27  1  0  0  0  0
  5  6  1  0  0  0  0
  5 28  1  0  0  0  0
  5 29  1  0  0  0  0
  6  7  1  0  0  0  0
  6 19  1  0  0  0  0
  7  8  1  0  0  0  0
  7  9  1  0  0  0  0
  7 30  1  0  0  0  0
  8 31  1  0  0  0  0
  8 32  1  0  0  0  0
  8 33  1  0  0  0  0
  9 10  1  0  0  0  0
  9 34  1  0  0  0  0
  9 35  1  0  0  0  0
 10 11  1  0  0  0  0
 10 36  1  0  0  0  0
 11 12  2  0  0  0  0
 11 13  1  0  0  0  0
 13 14  1  0  0  0  0
 14 18  1  0  0  0  0
 14 15  2  0  0  0  0
 15 16  1  0  0  0  0
 16 17  2  0  0  0  0
 16 37  1  0  0  0  0
 17 18  1  0  0  0  0
 17 38  1  0  0  0  0
 19 20  1  0  0  0  0
 19 39  1  0  0  0  0
 19 40  1  0  0  0  0
 20 41  1  0  0  0  0
 20 42  1  0  0  0  0
M  CHG  1   3   1
M  CHG  1  13  -1
M  END
> <s_m_source_file>
AV-unprocessed.smi

> <i_m_source_file_index>
1971

> <i_lp_mmshare_version>
43012

> <i_f3d_flags>
0

> <s_epik_input>
W0NIM11bQ0gyXU4xW0NIMl1bQ0gyXU4oW0NIMl1bQ0gyXTEpW0NASF0oW0NIM10pW0NIMl1bTkhdQyg9TylbTkhdYzJuW2NIXVtjSF1zMg==

> <s_epik_cmdline>
J2VwaWtfcHl0aG9uJywgJy1waCcsICc3LjAnLCAnLXRuJywgJzgnLCAnLW1hJywgJzIwMCcsICctbWV0YWxfYmluZGluZycsICctaW1hZScsICc8aW5maWxlLm1hZT4nLCAnLW9tYWUnLCAnPG91dGZpbGUubWFlPic=

> <r_lp_tautomer_probability>
0.999

> <r_epik_Ionization_Penalty>
7.06996

> <r_epik_Ionization_Penalty_Charging>
5.92347

> <r_epik_Ionization_Penalty_Neutral>
1.14649

> <r_epik_State_Penalty>
6.04391

> <r_epik_Charging_Adjusted_Penalty>
11.9674

> <i_epik_Tot_Q>
0

> <i_epik_Tot_abs_Q>
2

> <r_epik_Metal_State_Penalty>
2.01291

> <b_epik_Metal_Only>
1

> <s_lp_Force_Field>
OPLS_2005

> <r_lp_Energy>
13.2012

> <b_lp_Chiralities_Consistent>
1

> <s_lp_Variant>
AV-unprocessed.smi:1971-7

> <Gold.Version>
5.8.1

> <Gold.Id.Protein>
6NUR|6NUR_protein|mol2

> <Gold.PLP.Fitness>
48.8044

> <Gold.PLP.PLP>
-35.9760

> <Gold.PLP.part.hbond>
-3.0000

> <Gold.PLP.part.metal>
0.0000

> <Gold.PLP.part.buried>
-4.8750

> <Gold.PLP.part.nonpolar>
-30.0689

> <Gold.PLP.part.repulsive>
0.2390

> <Gold.PLP.ligand.clash>
0.0000

> <Gold.PLP.ligand.torsion>
1.1932

> <Gold.PLP.Chemscore.Hbond>
5.0400

> <Gold.PLP.Chemscore.CHOScore>
0.0000

> <Gold.PLP.Chemscore.Metal>
0.0000

> <Gold.Chemscore.Hbonds>
donor molecule, donor type, donor heavy atom, donor atom, acceptor molecule, acceptor atom, score
      L1  H     3    43       P1  8028  2.00
      P1  H  6931  6943       L1    13  0.75
      P1  H  6934  6947       L1    13  1.76

> <Gold.PLP.Chemscore.Internal.Correction>
0.0949

> <Gold.Rescore>
     Score         DG    S(hbond)    S(metal)    S(lipo)     H(rot)  DE(clash)    DE(int)     intcor
     14.29     -17.03       1.88        0.00      83.37       1.75       0.02       2.73       ----

> <Gold.Chemscore.Fitness>
14.2868

> <Gold.Chemscore.DG>
-17.0321

> <Gold.Chemscore.ZeroCoef>
-5.4800

> <Gold.Chemscore.Hbond>
1.8799

> <Gold.Chemscore.Metal>
0.0000

> <Gold.Chemscore.Lipo>
83.3716

> <Gold.Chemscore.Internal_Hbond>
0.0000

> <Gold.Chemscore.DEClash>
0.0197

> <Gold.Chemscore.DEInternal>
2.7256

> <Gold.Chemscore.Rot>
1.7505

> <Gold.Chemscore.Internal.Correction>
   9.000000E+99

> <Gold.Chemscore.Hbonds>
donor molecule, donor type, donor heavy atom, donor atom, acceptor molecule, acceptor atom, score
      L1  H     3    43       P1  8028  0.88
      P1  H  6931  6943       L1    13  0.09
      P1  H  6934  6947       L1    13  0.78

> <Gold.Chemscore.Hbond.Weighted>
-6.2790

> <Gold.Chemscore.Metal.Weighted>
-0.0000

> <Gold.Chemscore.Lipo.Weighted>
-9.7545

> <Gold.Chemscore.Internal_Hbond.Weighted>
0.0000

> <Gold.Chemscore.DEClash.Weighted>
0.0197

> <Gold.Chemscore.DEInternal.Weighted>
2.7256

> <Gold.Chemscore.Rot.Weighted>
4.4813

> <Gold.Chemscore.Internal.Correction.Weighted>
   9.000000E+99

> <Gold.Protein.RotatedTorsions>
[ 6907 6896 6895 6894 ] final   15.90 input  -60.11 | X-H torsion
[ 7974 7965 7964 7962 ] final  137.14 input  175.53 | X-H torsion
[ 8008 7997 7996 7995 ] final -106.12 input   59.86 | X-H torsion
[ 10167 10162 10161 10158 ] final -149.08 input  -65.29 | X-H torsion
[ 10718 10713 10712 10709 ] final -176.64 input   66.30 | X-H torsion
[ 10763 10752 10751 10750 ] final  152.56 input  -60.55 | X-H torsion
[ 11005 11000 10999 10996 ] final  -99.88 input  -57.11 | X-H torsion

> <Gold.Protein.ActiveResidues>
 VAL166  LYS551  ARG553  GLY616  TRP617  ASP618  TYR619  PRO620  LYS621  CYS622 
 ASP623  PHE694  ASN695  SER759  ASP760  ASP761  ALA762  ILE779  LEU786  VAL792 
 PHE793  MET794  SER795  GLU796  ALA797  LYS798  CYS799  TRP800  GLU811  SER814 

> <Gold.Protein.RotatedAtoms>
  151.8253  135.0638  160.0429 H   0  0  0  0  0  0  0  0  0  0  0  0  # atno 6907 bound_to 6896
  152.2920  133.5566  159.5572 H   0  0  0  0  0  0  0  0  0  0  0  0  # atno 6908 bound_to 6896
  150.7234  134.0330  159.3782 H   0  0  0  0  0  0  0  0  0  0  0  0  # atno 6909 bound_to 6896
  144.9496  139.4834  143.5532 H   0  0  0  0  0  0  0  0  0  0  0  0  # atno 7974 bound_to 7965
  154.9098  140.0410  157.1940 H   0  0  0  0  0  0  0  0  0  0  0  0  # atno 8008 bound_to 7997
  154.8360  140.2906  155.5670 H   0  0  0  0  0  0  0  0  0  0  0  0  # atno 8009 bound_to 7997
  156.2989  140.2492  156.3293 H   0  0  0  0  0  0  0  0  0  0  0  0  # atno 8010 bound_to 7997
  139.7475  143.8569  152.2578 H   0  0  0  0  0  0  0  0  0  0  0  0  # atno 10167 bound_to 10162
  156.8176  130.9608  151.3113 H   0  0  0  0  0  0  0  0  0  0  0  0  # atno 10718 bound_to 10713
  154.1221  135.2832  155.3206 H   0  0  0  0  0  0  0  0  0  0  0  0  # atno 10763 bound_to 10752
  154.6416  135.5400  153.7799 H   0  0  0  0  0  0  0  0  0  0  0  0  # atno 10764 bound_to 10752
  153.0309  135.6487  154.1374 H   0  0  0  0  0  0  0  0  0  0  0  0  # atno 10765 bound_to 10752
  141.1292  133.8356  157.1030 H   0  0  0  0  0  0  0  0  0  0  0  0  # atno 11005 bound_to 11000
  146.3316  139.8573  142.8862 LP  0  0  0  0  0  0  0  0  0  0  0  0  # atno 17320 bound_to 7965
  145.2864  141.0154  143.3688 LP  0  0  0  0  0  0  0  0  0  0  0  0  # atno 17321 bound_to 7965
  139.8537  144.7151  150.9183 LP  0  0  0  0  0  0  0  0  0  0  0  0  # atno 17342 bound_to 10162
  140.7794  143.3877  151.1365 LP  0  0  0  0  0  0  0  0  0  0  0  0  # atno 17343 bound_to 10162
  157.6473  130.8855  149.9564 LP  0  0  0  0  0  0  0  0  0  0  0  0  # atno 17370 bound_to 10713
  156.1007  130.3656  150.0223 LP  0  0  0  0  0  0  0  0  0  0  0  0  # atno 17371 bound_to 10713
  140.0322  134.9896  157.0802 LP  0  0  0  0  0  0  0  0  0  0  0  0  # atno 17394 bound_to 11000
  140.4267  134.1823  155.7166 LP  0  0  0  0  0  0  0  0  0  0  0  0  # atno 17395 bound_to 11000

$$$$
