#       Name:                AV-unprocessed.smi:1830
#       Creating user name   scv26
#       Creation time:       Fri Mar 27 09:12:42 2020


#       File generated by GOLD software.
#

@<TRIPOS>MOLECULE
AV-unprocessed.smi:1830
    59    62     1
SMALL
NO_CHARGES


@<TRIPOS>ATOM
      1 ****         0.1895   1.9154  -1.7108 O.2            1 S1                 0.0000
      2 ****        -0.2508   0.7836  -1.9112 C.2            1 S1                 0.0000
      3 ****         0.5180  -0.3134  -1.9564 N.am           1 S1                 0.0000
      4 ****         1.9646  -0.3343  -1.7651 C.3            1 S1                 0.0000
      5 ****         2.3453  -0.4661  -0.2791 C.3            1 S1                 0.0000
      6 ****         3.8631  -0.7059  -0.0965 C.3            1 S1                 0.0000
      7 ****         4.1625  -0.7106   1.3473 N.4            1 S1                 1.0000
      8 ****         5.5529  -0.9439   1.7740 C.3            1 S1                 0.0000
      9 ****         5.6477  -0.3036   3.1739 C.3            1 S1                 0.0000
     10 ****         4.3060   0.4191   3.3953 C.3            1 S1                 0.0000
     11 ****         3.7462   0.5417   1.9819 C.3            1 S1                 0.0000
     12 ****         2.2314   0.7081   1.8112 C.3            1 S1                 0.0000
     13 ****         1.9608   0.7299   0.4093 O.3            1 S1                 0.0000
     14 ****        -1.5460   0.4759  -2.0896 N.am           1 S1                 0.0000
     15 ****        -2.6711   1.3421  -1.9941 C.ar           1 S1                 0.0000
     16 ****        -2.6046   2.6911  -2.4208 C.ar           1 S1                 0.0000
     17 ****        -3.7599   3.4897  -2.3665 C.ar           1 S1                 0.0000
     18 ****        -4.9500   2.9055  -1.9023 C.ar           1 S1                 0.0000
     19 ****        -5.0336   1.6194  -1.5074 N.ar           1 S1                 0.0000
     20 ****        -3.9246   0.8401  -1.5402 C.ar           1 S1                 0.0000
     21 ****        -4.0701  -0.4956  -1.0997 N.3            1 S1                 0.0000
     22 ****        -5.3967  -1.0799  -0.9321 C.3            1 S1                 0.0000
     23 ****        -5.1702  -2.3409  -0.1035 C.3            1 S1                 0.0000
     24 ****        -4.0406  -1.9171   0.8303 C.3            1 S1                 0.0000
     25 ****        -3.1983  -0.9669  -0.0275 C.3            1 S1                 0.0000
     26 ****         0.0684  -1.2006  -2.1295 H              1 S1                 0.0000
     27 ****         2.3510  -1.1903  -2.3187 H              1 S1                 0.0000
     28 ****         2.4274   0.5505  -2.2058 H              1 S1                 0.0000
     29 ****         1.7992  -1.3075   0.1519 H              1 S1                 0.0000
     30 ****         4.1576  -1.6600  -0.5349 H              1 S1                 0.0000
     31 ****         4.4407   0.0751  -0.5941 H              1 S1                 0.0000
     32 ****         5.7856  -2.0090   1.7834 H              1 S1                 0.0000
     33 ****         6.2426  -0.4501   1.0878 H              1 S1                 0.0000
     34 ****         5.8208  -1.0504   3.9493 H              1 S1                 0.0000
     35 ****         6.4782   0.4026   3.2072 H              1 S1                 0.0000
     36 ****         3.6484  -0.1981   4.0092 H              1 S1                 0.0000
     37 ****         4.4202   1.3845   3.8893 H              1 S1                 0.0000
     38 ****         4.2528   1.3715   1.4836 H              1 S1                 0.0000
     39 ****         1.6805  -0.1012   2.2930 H              1 S1                 0.0000
     40 ****         1.8951   1.6446   2.2565 H              1 S1                 0.0000
     41 ****        -1.7642  -0.5068  -2.1665 H              1 S1                 0.0000
     42 ****        -1.6932   3.1192  -2.8088 H              1 S1                 0.0000
     43 ****        -3.7362   4.5212  -2.6851 H              1 S1                 0.0000
     44 ****        -5.8607   3.4837  -1.8521 H              1 S1                 0.0000
     45 ****        -6.0533  -0.4008  -0.3864 H              1 S1                 0.0000
     46 ****        -5.8576  -1.3040  -1.8946 H              1 S1                 0.0000
     47 ****        -6.0651  -2.6680   0.4266 H              1 S1                 0.0000
     48 ****        -4.8369  -3.1567  -0.7465 H              1 S1                 0.0000
     49 ****        -4.4547  -1.3737   1.6808 H              1 S1                 0.0000
     50 ****        -3.4675  -2.7601   1.2168 H              1 S1                 0.0000
     51 ****        -2.3623  -1.5098  -0.4685 H              1 S1                 0.0000
     52 ****        -2.7946  -0.1456   0.5664 H              1 S1                 0.0000
     53 ****         3.6074  -1.4422   1.7680 H              1 S1                 0.0000
     54 ****         1.1700   2.0529  -1.5709 LP             1 S1                 0.0000
     55 ****        -0.4334   2.6974  -1.6879 LP             1 S1                 0.0000
     56 ****         0.9781   0.8639   0.2812 LP             1 S1                 0.0000
     57 ****         2.4574   1.4982   0.0055 LP             1 S1                 0.0000
     58 ****        -5.9054   1.2436  -1.1932 LP             1 S1                 0.0000
     59 ****        -3.7317  -0.8540  -1.9698 LP             1 S1                 0.0000
@<TRIPOS>BOND
    1    1    2 2     
    2    2    3 am    
    3    2   14 am    
    4    3    4 1     
    5    3   26 1     
    6    4    5 1     
    7    4   27 1     
    8    4   28 1     
    9    5   13 1     
   10    5    6 1     
   11    5   29 1     
   12    6    7 1     
   13    6   30 1     
   14    6   31 1     
   15    7   11 1     
   16    7    8 1     
   17    7   53 1     
   18    8    9 1     
   19    8   32 1     
   20    8   33 1     
   21    9   10 1     
   22    9   34 1     
   23    9   35 1     
   24   10   11 1     
   25   10   36 1     
   26   10   37 1     
   27   11   12 1     
   28   11   38 1     
   29   12   13 1     
   30   12   39 1     
   31   12   40 1     
   32   14   15 1     
   33   14   41 1     
   34   15   20 ar    
   35   15   16 ar    
   36   16   17 ar    
   37   16   42 1     
   38   17   18 ar    
   39   17   43 1     
   40   18   19 ar    
   41   18   44 1     
   42   19   20 ar    
   43   20   21 1     
   44   21   25 1     
   45   21   22 1     
   46   22   23 1     
   47   22   45 1     
   48   22   46 1     
   49   23   24 1     
   50   23   47 1     
   51   23   48 1     
   52   24   25 1     
   53   24   49 1     
   54   24   50 1     
   55   25   51 1     
   56   25   52 1     
   57    1   54 1     
   58    1   55 1     
   59   13   56 1     
   60   13   57 1     
   61   19   58 1     
   62   21   59 1     
@<TRIPOS>SUBSTRUCTURE
      1 S1             1
@<TRIPOS>SET
LONE_PAIRS      STATIC     ATOMS    <user>   **** ""
6 54 55 56 57 58 59
DONOR_HYDROGENS      STATIC     ATOMS    <user>   **** ""
3 26 53 41
ATOM$BLUE        STATIC     ATOMS    COLORGROUP SYSTEM
6 54 55 56 57 58 59
ATOM$RED        STATIC     ATOMS    COLORGROUP SYSTEM
3 26 53 41
