AV-unprocessed.smi:3239|AV-procd|sdf|12380|dock4
  -GOLD-   2272018243D 1   1.00000     0.00000
 Structure written by MMmdl.
 35 35  0  0  0  0  0  0  0  0  1 V2000
  152.1407  145.2226  160.4462 C   0  0  0  0  0  0  0  0  0  0  0  0
  152.2579  144.0216  160.2592 C   0  0  0  0  0  0  0  0  0  0  0  0
  152.3811  142.5724  160.0286 C   0  0  0  0  0  0  0  0  0  0  0  0
  151.6991  142.1372  158.8151 N   0  0  0  0  0  0  0  0  0  0  0  0
  152.0223  141.0541  158.0880 C   0  0  0  0  0  0  0  0  0  0  0  0
  152.9386  140.2860  158.3823 O   0  0  0  0  0  0  0  0  0  0  0  0
  151.1405  140.7801  156.9040 C   0  0  0  0  0  0  0  0  0  0  0  0
  149.8339  141.3100  156.8098 C   0  0  0  0  0  0  0  0  0  0  0  0
  149.0643  141.0352  155.6628 C   0  0  0  0  0  0  0  0  0  0  0  0
  149.6253  140.2447  154.6387 C   0  0  0  0  0  0  0  0  0  0  0  0
  148.8523  139.9806  153.4980 N   0  0  0  0  0  0  0  0  0  0  0  0
  147.3936  140.0296  153.5203 C   0  0  1  0  0  0  0  0  0  0  0  0
  146.8077  139.5308  152.1874 C   0  0  0  0  0  0  0  0  0  0  0  0
  146.8607  139.2148  154.7094 C   0  0  0  0  0  0  0  0  0  0  0  0
  145.4556  139.3815  154.8045 O   0  0  0  0  0  0  0  0  0  0  0  0
  145.0933  140.6126  155.4048 C   0  0  0  0  0  0  0  0  0  0  0  0
  150.8808  139.7448  154.7170 N   0  0  0  0  0  0  0  0  0  0  0  0
  151.6145  140.0109  155.8188 C   0  0  0  0  0  0  0  0  0  0  0  0
  152.0346  146.2714  160.6104 H   0  0  0  0  0  0  0  0  0  0  0  0
  153.4415  142.3353  159.9416 H   0  0  0  0  0  0  0  0  0  0  0  0
  152.0055  142.0444  160.9065 H   0  0  0  0  0  0  0  0  0  0  0  0
  150.9138  142.6944  158.5115 H   0  0  0  0  0  0  0  0  0  0  0  0
  149.4182  141.9220  157.5971 H   0  0  0  0  0  0  0  0  0  0  0  0
  148.0623  141.4290  155.5734 H   0  0  0  0  0  0  0  0  0  0  0  0
  149.3128  139.8648  152.6070 H   0  0  0  0  0  0  0  0  0  0  0  0
  147.0850  141.0642  153.6746 H   0  0  0  0  0  0  0  0  0  0  0  0
  145.7191  139.5896  152.1901 H   0  0  0  0  0  0  0  0  0  0  0  0
  147.0829  138.4931  151.9968 H   0  0  0  0  0  0  0  0  0  0  0  0
  147.1611  140.1271  151.3460 H   0  0  0  0  0  0  0  0  0  0  0  0
  147.1126  138.1590  154.5941 H   0  0  0  0  0  0  0  0  0  0  0  0
  147.3240  139.5623  155.6346 H   0  0  0  0  0  0  0  0  0  0  0  0
  144.0072  140.6917  155.4512 H   0  0  0  0  0  0  0  0  0  0  0  0
  145.4678  141.4586  154.8272 H   0  0  0  0  0  0  0  0  0  0  0  0
  145.4798  140.6838  156.4222 H   0  0  0  0  0  0  0  0  0  0  0  0
  152.6091  139.5892  155.8296 H   0  0  0  0  0  0  0  0  0  0  0  0
  1  2  3  0  0  0  0
  1 19  1  0  0  0  0
  2  3  1  0  0  0  0
  3  4  1  0  0  0  0
  3 20  1  0  0  0  0
  3 21  1  0  0  0  0
  4  5  1  0  0  0  0
  4 22  1  0  0  0  0
  5  6  2  0  0  0  0
  5  7  1  0  0  0  0
  7 18  1  0  0  0  0
  7  8  2  0  0  0  0
  8  9  1  0  0  0  0
  8 23  1  0  0  0  0
  9 10  2  0  0  0  0
  9 24  1  0  0  0  0
 10 11  1  0  0  0  0
 10 17  1  0  0  0  0
 11 12  1  0  0  0  0
 11 25  1  0  0  0  0
 12 13  1  0  0  0  0
 12 14  1  0  0  0  0
 12 26  1  0  0  0  0
 13 27  1  0  0  0  0
 13 28  1  0  0  0  0
 13 29  1  0  0  0  0
 14 15  1  0  0  0  0
 14 30  1  0  0  0  0
 14 31  1  0  0  0  0
 15 16  1  0  0  0  0
 16 32  1  0  0  0  0
 16 33  1  0  0  0  0
 16 34  1  0  0  0  0
 17 18  2  0  0  0  0
 18 35  1  0  0  0  0
M  END
> <s_m_source_file>
AV-unprocessed.smi

> <i_m_source_file_index>
3239

> <i_lp_mmshare_version>
43012

> <i_f3d_flags>
0

> <s_epik_input>
W0NIXSNDW0NIMl1bTkhdQyg9TyljMVtjSF1bY0hdYyhuW2NIXTEpW05IXVtDQEhdKFtDSDNdKVtDSDJdT1tDSDNd

> <s_epik_cmdline>
J2VwaWtfcHl0aG9uJywgJy1waCcsICc3LjAnLCAnLXRuJywgJzgnLCAnLW1hJywgJzIwMCcsICctbWV0YWxfYmluZGluZycsICctaW1hZScsICc8aW5maWxlLm1hZT4nLCAnLW9tYWUnLCAnPG91dGZpbGUubWFlPic=

> <r_lp_tautomer_probability>
1

> <r_epik_Ionization_Penalty>
0.00321854

> <r_epik_Ionization_Penalty_Charging>
0

> <r_epik_Ionization_Penalty_Neutral>
0.00321854

> <r_epik_State_Penalty>
0.00226446

> <r_epik_Charging_Adjusted_Penalty>
0.00226446

> <i_epik_Tot_Q>
0

> <i_epik_Tot_abs_Q>
0

> <r_epik_Metal_State_Penalty>
-0

> <b_epik_Metal_Only>
0

> <s_lp_Force_Field>
OPLS_2005

> <r_lp_Energy>
6.06936

> <b_lp_Chiralities_Consistent>
1

> <s_lp_Variant>
AV-unprocessed.smi:3239-2

> <Gold.Version>
5.8.1

> <Gold.Id.Protein>
6NUR|6NUR_protein|mol2

> <Gold.PLP.Fitness>
40.5313

> <Gold.PLP.PLP>
-33.3409

> <Gold.PLP.part.hbond>
-2.9542

> <Gold.PLP.part.metal>
0.0000

> <Gold.PLP.part.buried>
-3.3366

> <Gold.PLP.part.nonpolar>
-27.3602

> <Gold.PLP.part.repulsive>
0.3532

> <Gold.PLP.ligand.clash>
0.0000

> <Gold.PLP.ligand.torsion>
0.7048

> <Gold.PLP.Chemscore.Hbond>
2.8320

> <Gold.PLP.Chemscore.CHOScore>
0.0000

> <Gold.PLP.Chemscore.Metal>
0.0000

> <Gold.Chemscore.Hbonds>
donor molecule, donor type, donor heavy atom, donor atom, acceptor molecule, acceptor atom, score
      L1  H    11    25       P1  7957  0.89
      P1  H  7989  7998       L1    17  0.85
      P1  H  7997  8009       L1     6  0.66

> <Gold.PLP.Chemscore.Internal.Correction>
0.1039

> <Gold.Rescore>
     Score         DG    S(hbond)    S(metal)    S(lipo)     H(rot)  DE(clash)    DE(int)     intcor
     16.63     -18.18       2.37        0.00      76.32       1.62       0.95       0.60       ----

> <Gold.Chemscore.Fitness>
16.6289

> <Gold.Chemscore.DG>
-18.1781

> <Gold.Chemscore.ZeroCoef>
-5.4800

> <Gold.Chemscore.Hbond>
2.3691

> <Gold.Chemscore.Metal>
0.0000

> <Gold.Chemscore.Lipo>
76.3245

> <Gold.Chemscore.Internal_Hbond>
0.0000

> <Gold.Chemscore.DEClash>
0.9503

> <Gold.Chemscore.DEInternal>
0.5989

> <Gold.Chemscore.Rot>
1.6190

> <Gold.Chemscore.Internal.Correction>
   9.000000E+99

> <Gold.Chemscore.Hbonds>
donor molecule, donor type, donor heavy atom, donor atom, acceptor molecule, acceptor atom, score
      L1  H    11    25       P1  7957  0.85
      P1  H  7989  7998       L1    17  0.05
      P1  H  7997  8009       L1     6  0.62

> <Gold.Chemscore.Hbond.Weighted>
-7.9128

> <Gold.Chemscore.Metal.Weighted>
-0.0000

> <Gold.Chemscore.Lipo.Weighted>
-8.9300

> <Gold.Chemscore.Internal_Hbond.Weighted>
0.0000

> <Gold.Chemscore.DEClash.Weighted>
0.9503

> <Gold.Chemscore.DEInternal.Weighted>
0.5989

> <Gold.Chemscore.Rot.Weighted>
4.1447

> <Gold.Chemscore.Internal.Correction.Weighted>
   9.000000E+99

> <Gold.Protein.RotatedTorsions>
[ 6907 6896 6895 6894 ] final   77.55 input  -60.11 | X-H torsion
[ 7974 7965 7964 7962 ] final   75.26 input  175.53 | X-H torsion
[ 8008 7997 7996 7995 ] final  157.80 input   59.86 | X-H torsion
[ 10167 10162 10161 10158 ] final  134.11 input  -65.29 | X-H torsion
[ 10718 10713 10712 10709 ] final    5.36 input   66.30 | X-H torsion
[ 10763 10752 10751 10750 ] final  178.37 input  -60.55 | X-H torsion
[ 11005 11000 10999 10996 ] final  -53.46 input  -57.11 | X-H torsion

> <Gold.Protein.ActiveResidues>
 VAL166  LYS551  ARG553  GLY616  TRP617  ASP618  TYR619  PRO620  LYS621  CYS622 
 ASP623  PHE694  ASN695  SER759  ASP760  ASP761  ALA762  ILE779  LEU786  VAL792 
 PHE793  MET794  SER795  GLU796  ALA797  LYS798  CYS799  TRP800  GLU811  SER814 

> <Gold.Protein.RotatedAtoms>
  152.5122  134.3800  159.9347 H   0  0  0  0  0  0  0  0  0  0  0  0  # atno 6907 bound_to 6896
  151.3757  133.3833  159.2712 H   0  0  0  0  0  0  0  0  0  0  0  0  # atno 6908 bound_to 6896
  150.9543  134.8959  159.7750 H   0  0  0  0  0  0  0  0  0  0  0  0  # atno 6909 bound_to 6896
  145.7178  139.2637  143.1613 H   0  0  0  0  0  0  0  0  0  0  0  0  # atno 7974 bound_to 7965
  156.2342  140.1875  156.7164 H   0  0  0  0  0  0  0  0  0  0  0  0  # atno 8008 bound_to 7997
  154.6076  140.0626  156.9479 H   0  0  0  0  0  0  0  0  0  0  0  0  # atno 8009 bound_to 7997
  155.2070  140.3297  155.4337 H   0  0  0  0  0  0  0  0  0  0  0  0  # atno 8010 bound_to 7997
  139.5269  144.6583  151.5093 H   0  0  0  0  0  0  0  0  0  0  0  0  # atno 10167 bound_to 10162
  156.9063  130.5740  149.5647 H   0  0  0  0  0  0  0  0  0  0  0  0  # atno 10718 bound_to 10713
  154.5067  135.2786  155.1376 H   0  0  0  0  0  0  0  0  0  0  0  0  # atno 10763 bound_to 10752
  154.2988  135.6252  153.5419 H   0  0  0  0  0  0  0  0  0  0  0  0  # atno 10764 bound_to 10752
  152.9911  135.5692  154.5523 H   0  0  0  0  0  0  0  0  0  0  0  0  # atno 10765 bound_to 10752
  141.0977  133.6622  156.4176 H   0  0  0  0  0  0  0  0  0  0  0  0  # atno 11005 bound_to 11000
  146.0653  140.7927  142.9714 LP  0  0  0  0  0  0  0  0  0  0  0  0  # atno 17320 bound_to 7965
  144.6924  140.3259  143.7224 LP  0  0  0  0  0  0  0  0  0  0  0  0  # atno 17321 bound_to 7965
  140.6419  143.8871  150.6700 LP  0  0  0  0  0  0  0  0  0  0  0  0  # atno 17342 bound_to 10162
  140.2209  143.3810  152.1644 LP  0  0  0  0  0  0  0  0  0  0  0  0  # atno 17343 bound_to 10162
  156.0557  130.5619  150.9087 LP  0  0  0  0  0  0  0  0  0  0  0  0  # atno 17370 bound_to 10713
  157.5995  131.0942  150.8984 LP  0  0  0  0  0  0  0  0  0  0  0  0  # atno 17371 bound_to 10713
  140.5099  134.6405  157.5280 LP  0  0  0  0  0  0  0  0  0  0  0  0  # atno 17394 bound_to 11000
  139.9819  134.7124  155.9845 LP  0  0  0  0  0  0  0  0  0  0  0  0  # atno 17395 bound_to 11000

$$$$
