AV-unprocessed.smi:2268|AV-procd|sdf|9151|dock9
  -GOLD-   2272012353D 1   1.00000     0.00000
 Structure written by MMmdl.
 37 38  0  0  0  0  0  0  0  0  1 V2000
  150.5324  145.2523  160.2122 C   0  0  0  0  0  0  0  0  0  0  0  0
  151.4682  144.0739  160.4223 C   0  0  0  0  0  0  0  0  0  0  0  0
  152.1668  143.9774  161.6453 C   0  0  0  0  0  0  0  0  0  0  0  0
  153.0329  142.8968  161.8922 C   0  0  0  0  0  0  0  0  0  0  0  0
  153.6959  142.8144  163.0699 F   0  0  0  0  0  0  0  0  0  0  0  0
  153.2050  141.9002  160.9160 C   0  0  0  0  0  0  0  0  0  0  0  0
  152.5144  141.9890  159.6933 C   0  0  0  0  0  0  0  0  0  0  0  0
  151.6483  143.0755  159.4277 C   0  0  0  0  0  0  0  0  0  0  0  0
  150.9097  143.1311  158.0905 C   0  0  1  0  0  0  0  0  0  0  0  0
  151.2008  144.3232  157.3865 O   0  0  0  0  0  0  0  0  0  0  0  0
  151.2911  141.9222  157.2057 C   0  0  0  0  0  0  0  0  0  0  0  0
  150.1504  141.4142  156.4231 N   0  0  0  0  0  0  0  0  0  0  0  0
  148.8708  141.7340  156.9074 C   0  0  0  0  0  0  0  0  0  0  0  0
  147.7972  141.3484  156.2996 N   0  0  0  0  0  0  0  0  0  0  0  0
  147.8935  140.5920  155.1282 C   0  0  0  0  0  0  0  0  0  0  0  0
  146.5725  140.1914  154.4956 C   0  0  0  0  0  0  0  0  0  0  0  0
  149.1025  140.2474  154.6067 C   0  0  0  0  0  0  0  0  0  0  0  0
  149.2683  139.4241  153.3355 C   0  0  0  0  0  0  0  0  0  0  0  0
  150.3338  140.6791  155.2884 C   0  0  0  0  0  0  0  0  0  0  0  0
  151.4591  140.4001  154.8707 O   0  0  0  0  0  0  0  0  0  0  0  0
  150.4293  145.8451  161.1216 H   0  0  0  0  0  0  0  0  0  0  0  0
  149.5378  144.9083  159.9291 H   0  0  0  0  0  0  0  0  0  0  0  0
  150.9128  145.9077  159.4285 H   0  0  0  0  0  0  0  0  0  0  0  0
  152.0386  144.7339  162.4059 H   0  0  0  0  0  0  0  0  0  0  0  0
  153.8650  141.0662  161.1043 H   0  0  0  0  0  0  0  0  0  0  0  0
  152.6528  141.2104  158.9576 H   0  0  0  0  0  0  0  0  0  0  0  0
  149.8351  143.1411  158.2667 H   0  0  0  0  0  0  0  0  0  0  0  0
  150.4669  144.5285  156.8277 H   0  0  0  0  0  0  0  0  0  0  0  0
  152.1473  142.1654  156.5736 H   0  0  0  0  0  0  0  0  0  0  0  0
  151.6546  141.1148  157.8450 H   0  0  0  0  0  0  0  0  0  0  0  0
  148.8507  142.3279  157.8227 H   0  0  0  0  0  0  0  0  0  0  0  0
  146.4971  140.5909  153.4840 H   0  0  0  0  0  0  0  0  0  0  0  0
  145.7257  140.5716  155.0684 H   0  0  0  0  0  0  0  0  0  0  0  0
  146.4850  139.1056  154.4503 H   0  0  0  0  0  0  0  0  0  0  0  0
  149.8139  138.5050  153.5521 H   0  0  0  0  0  0  0  0  0  0  0  0
  149.8354  139.9871  152.5937 H   0  0  0  0  0  0  0  0  0  0  0  0
  148.3211  139.1419  152.8790 H   0  0  0  0  0  0  0  0  0  0  0  0
  1  2  1  0  0  0  0
  1 21  1  0  0  0  0
  1 22  1  0  0  0  0
  1 23  1  0  0  0  0
  2  8  1  0  0  0  0
  2  3  2  0  0  0  0
  3  4  1  0  0  0  0
  3 24  1  0  0  0  0
  4  5  1  0  0  0  0
  4  6  2  0  0  0  0
  6  7  1  0  0  0  0
  6 25  1  0  0  0  0
  7  8  2  0  0  0  0
  7 26  1  0  0  0  0
  8  9  1  0  0  0  0
  9 10  1  0  0  0  0
  9 11  1  0  0  0  0
  9 27  1  0  0  0  0
 10 28  1  0  0  0  0
 11 12  1  0  0  0  0
 11 29  1  0  0  0  0
 11 30  1  0  0  0  0
 12 19  1  0  0  0  0
 12 13  1  0  0  0  0
 13 14  2  0  0  0  0
 13 31  1  0  0  0  0
 14 15  1  0  0  0  0
 15 16  1  0  0  0  0
 15 17  2  0  0  0  0
 16 32  1  0  0  0  0
 16 33  1  0  0  0  0
 16 34  1  0  0  0  0
 17 18  1  0  0  0  0
 17 19  1  0  0  0  0
 18 35  1  0  0  0  0
 18 36  1  0  0  0  0
 18 37  1  0  0  0  0
 19 20  2  0  0  0  0
M  END
> <s_m_source_file>
AV-unprocessed.smi

> <i_m_source_file_index>
2268

> <i_lp_mmshare_version>
43012

> <i_f3d_flags>
0

> <s_epik_input>
W0NIM11jMVtjSF1jKEYpW2NIXVtjSF1jMVtDQEhdKFtPSF0pW0NIMl1uMltjSF1uYyhbQ0gzXSljKFtDSDNdKWMyPU8=

> <s_epik_cmdline>
J2VwaWtfcHl0aG9uJywgJy1waCcsICc3LjAnLCAnLXRuJywgJzgnLCAnLW1hJywgJzIwMCcsICctbWV0YWxfYmluZGluZycsICctaW1hZScsICc8aW5maWxlLm1hZT4nLCAnLW9tYWUnLCAnPG91dGZpbGUubWFlPic=

> <r_lp_tautomer_probability>
1

> <r_epik_Ionization_Penalty>
5.07449e-05

> <r_epik_Ionization_Penalty_Charging>
7.56727e-08

> <r_epik_Ionization_Penalty_Neutral>
5.06692e-05

> <r_epik_State_Penalty>
-0

> <r_epik_Charging_Adjusted_Penalty>
7.56727e-08

> <i_epik_Tot_Q>
0

> <i_epik_Tot_abs_Q>
0

> <r_epik_Metal_State_Penalty>
-0

> <b_epik_Metal_Only>
0

> <s_lp_Force_Field>
OPLS_2005

> <r_lp_Energy>
20.6014

> <b_lp_Chiralities_Consistent>
1

> <s_lp_Variant>
AV-unprocessed.smi:2268-2

> <Gold.Version>
5.8.1

> <Gold.Id.Protein>
6NUR|6NUR_protein|mol2

> <Gold.PLP.Fitness>
48.2524

> <Gold.PLP.PLP>
-44.1900

> <Gold.PLP.part.hbond>
-2.0000

> <Gold.PLP.part.metal>
0.0000

> <Gold.PLP.part.buried>
-1.0472

> <Gold.PLP.part.nonpolar>
-40.0655

> <Gold.PLP.part.repulsive>
0.1510

> <Gold.PLP.ligand.clash>
0.3547

> <Gold.PLP.ligand.torsion>
0.7959

> <Gold.PLP.Chemscore.Hbond>
2.0000

> <Gold.PLP.Chemscore.CHOScore>
0.0000

> <Gold.PLP.Chemscore.Metal>
0.0000

> <Gold.Chemscore.Hbonds>
donor molecule, donor type, donor heavy atom, donor atom, acceptor molecule, acceptor atom, score
      L1  H    10    28       P1  8028  1.00
      P1  H  7989  7998       L1    20  0.81

> <Gold.PLP.Chemscore.Internal.Correction>
0.0089

> <Gold.Rescore>
     Score         DG    S(hbond)    S(metal)    S(lipo)     H(rot)  DE(clash)    DE(int)     intcor
     17.32     -19.64       1.92        0.00     109.65       1.98       1.50       0.82       ----

> <Gold.Chemscore.Fitness>
17.3184

> <Gold.Chemscore.DG>
-19.6396

> <Gold.Chemscore.ZeroCoef>
-5.4800

> <Gold.Chemscore.Hbond>
1.9176

> <Gold.Chemscore.Metal>
0.0000

> <Gold.Chemscore.Lipo>
109.6549

> <Gold.Chemscore.Internal_Hbond>
0.0000

> <Gold.Chemscore.DEClash>
1.4976

> <Gold.Chemscore.DEInternal>
0.8235

> <Gold.Chemscore.Rot>
1.9823

> <Gold.Chemscore.Internal.Correction>
   9.000000E+99

> <Gold.Chemscore.Hbonds>
donor molecule, donor type, donor heavy atom, donor atom, acceptor molecule, acceptor atom, score
      L1  H    10    28       P1  8028  0.90
      P1  H  7989  7998       L1    20  0.60

> <Gold.Chemscore.Hbond.Weighted>
-6.4047

> <Gold.Chemscore.Metal.Weighted>
-0.0000

> <Gold.Chemscore.Lipo.Weighted>
-12.8296

> <Gold.Chemscore.Internal_Hbond.Weighted>
0.0000

> <Gold.Chemscore.DEClash.Weighted>
1.4976

> <Gold.Chemscore.DEInternal.Weighted>
0.8235

> <Gold.Chemscore.Rot.Weighted>
5.0748

> <Gold.Chemscore.Internal.Correction.Weighted>
   9.000000E+99

> <Gold.Protein.RotatedTorsions>
[ 6907 6896 6895 6894 ] final  125.67 input  -60.11 | X-H torsion
[ 7974 7965 7964 7962 ] final  -70.27 input  175.53 | X-H torsion
[ 8008 7997 7996 7995 ] final  154.88 input   59.86 | X-H torsion
[ 10167 10162 10161 10158 ] final   41.60 input  -65.29 | X-H torsion
[ 10718 10713 10712 10709 ] final   34.13 input   66.30 | X-H torsion
[ 10763 10752 10751 10750 ] final  102.58 input  -60.55 | X-H torsion
[ 11005 11000 10999 10996 ] final   -4.51 input  -57.11 | X-H torsion

> <Gold.Protein.ActiveResidues>
 VAL166  LYS551  ARG553  GLY616  TRP617  ASP618  TYR619  PRO620  LYS621  CYS622 
 ASP623  PHE694  ASN695  SER759  ASP760  ASP761  ALA762  ILE779  LEU786  VAL792 
 PHE793  MET794  SER795  GLU796  ALA797  LYS798  CYS799  TRP800  GLU811  SER814 

> <Gold.Protein.RotatedAtoms>
  152.3971  133.6763  159.6285 H   0  0  0  0  0  0  0  0  0  0  0  0  # atno 6907 bound_to 6896
  150.7868  133.8855  159.3307 H   0  0  0  0  0  0  0  0  0  0  0  0  # atno 6908 bound_to 6896
  151.6629  135.0988  160.0234 H   0  0  0  0  0  0  0  0  0  0  0  0  # atno 6909 bound_to 6896
  145.6931  140.9145  143.0771 H   0  0  0  0  0  0  0  0  0  0  0  0  # atno 7974 bound_to 7965
  156.2508  140.1954  156.6715 H   0  0  0  0  0  0  0  0  0  0  0  0  # atno 8008 bound_to 7997
  154.6389  140.0586  156.9847 H   0  0  0  0  0  0  0  0  0  0  0  0  # atno 8009 bound_to 7997
  155.1594  140.3258  155.4417 H   0  0  0  0  0  0  0  0  0  0  0  0  # atno 8010 bound_to 7997
  140.3628  144.2207  150.6137 H   0  0  0  0  0  0  0  0  0  0  0  0  # atno 10167 bound_to 10162
  157.3065  130.7377  149.6698 H   0  0  0  0  0  0  0  0  0  0  0  0  # atno 10718 bound_to 10713
  153.3415  135.4005  155.1575 H   0  0  0  0  0  0  0  0  0  0  0  0  # atno 10763 bound_to 10752
  154.8644  135.3634  154.5340 H   0  0  0  0  0  0  0  0  0  0  0  0  # atno 10764 bound_to 10752
  153.5785  135.7077  153.5533 H   0  0  0  0  0  0  0  0  0  0  0  0  # atno 10765 bound_to 10752
  140.6810  133.9153  155.8555 H   0  0  0  0  0  0  0  0  0  0  0  0  # atno 11005 bound_to 11000
  144.6991  139.8847  143.7449 LP  0  0  0  0  0  0  0  0  0  0  0  0  # atno 17320 bound_to 7965
  146.0864  139.3853  143.0432 LP  0  0  0  0  0  0  0  0  0  0  0  0  # atno 17321 bound_to 7965
  140.5111  143.2290  151.8534 LP  0  0  0  0  0  0  0  0  0  0  0  0  # atno 17342 bound_to 10162
  139.4812  144.4949  151.9137 LP  0  0  0  0  0  0  0  0  0  0  0  0  # atno 17343 bound_to 10162
  155.9675  130.4264  150.4698 LP  0  0  0  0  0  0  0  0  0  0  0  0  # atno 17370 bound_to 10713
  157.2688  131.0582  151.2273 LP  0  0  0  0  0  0  0  0  0  0  0  0  # atno 17371 bound_to 10713
  141.0317  134.0746  157.4006 LP  0  0  0  0  0  0  0  0  0  0  0  0  # atno 17394 bound_to 11000
  139.8952  135.0139  156.6988 LP  0  0  0  0  0  0  0  0  0  0  0  0  # atno 17395 bound_to 11000

$$$$
