#       Name:                AV-unprocessed.smi:365
#       Creating user name   scv26
#       Creation time:       Thu Mar 26 22:36:51 2020


#       File generated by GOLD software.
#

@<TRIPOS>MOLECULE
AV-unprocessed.smi:365
    61    62     1
SMALL
NO_CHARGES


@<TRIPOS>ATOM
      1 ****        -2.9280  -0.2362   0.2752 C.3            1 S1                 0.0000
      2 ****        -2.3651   0.0400   1.6839 C.3            1 S1                 0.0000
      3 ****        -2.7514  -0.9613   2.6840 N.am           1 S1                 0.0000
      4 ****        -2.7359  -2.3047   2.5867 C.2            1 S1                 0.0000
      5 ****        -2.3338  -2.9004   1.5867 O.2            1 S1                 0.0000
      6 ****        -3.2353  -3.0889   3.8236 C.3            1 S1                 0.0000
      7 ****        -2.2793  -2.8341   5.0076 C.3            1 S1                 0.0000
      8 ****        -3.2643  -4.6063   3.5307 C.3            1 S1                 0.0000
      9 ****        -4.6653  -2.6358   4.1899 C.3            1 S1                 0.0000
     10 ****        -0.8627   0.3554   1.6995 C.2            1 S1                 0.0000
     11 ****        -0.0345  -0.5351   1.8931 O.2            1 S1                 0.0000
     12 ****        -0.5238   1.6329   1.4673 N.am           1 S1                 0.0000
     13 ****         0.8435   2.1368   1.3906 C.3            1 S1                 0.0000
     14 ****         1.4866   1.9775   0.0205 C.ar           1 S1                 0.0000
     15 ****         2.8780   1.7955  -0.0940 C.ar           1 S1                 0.0000
     16 ****         3.4517   1.6673  -1.3736 C.ar           1 S1                 0.0000
     17 ****         2.6162   1.7299  -2.5186 C.ar           1 S1                 0.0000
     18 ****         3.1259   1.6044  -3.8327 N.3            1 S1                 0.0000
     19 ****         2.5653   2.5010  -4.8447 C.3            1 S1                 0.0000
     20 ****         2.9445   2.0314  -6.2593 C.3            1 S1                 0.0000
     21 ****         4.3564   1.8872  -6.3586 O.3            1 S1                 0.0000
     22 ****         4.8455   0.9008  -5.4577 C.3            1 S1                 0.0000
     23 ****         4.5492   1.3251  -4.0093 C.3            1 S1                 0.0000
     24 ****         1.2777   1.9079  -2.3991 N.ar           1 S1                 0.0000
     25 ****         0.7331   2.0295  -1.1709 C.ar           1 S1                 0.0000
     26 ****        -2.7840   0.6275  -0.3748 H              1 S1                 0.0000
     27 ****        -3.9982  -0.4419   0.3109 H              1 S1                 0.0000
     28 ****        -2.4373  -1.0816  -0.2069 H              1 S1                 0.0000
     29 ****        -2.8642   0.9462   2.0306 H              1 S1                 0.0000
     30 ****        -3.0827  -0.5854   3.5604 H              1 S1                 0.0000
     31 ****        -2.5796  -3.4061   5.8861 H              1 S1                 0.0000
     32 ****        -2.2626  -1.7831   5.2991 H              1 S1                 0.0000
     33 ****        -1.2559  -3.1241   4.7645 H              1 S1                 0.0000
     34 ****        -2.2709  -4.9919   3.2963 H              1 S1                 0.0000
     35 ****        -3.9189  -4.8425   2.6903 H              1 S1                 0.0000
     36 ****        -3.6306  -5.1668   4.3914 H              1 S1                 0.0000
     37 ****        -5.0597  -3.2170   5.0241 H              1 S1                 0.0000
     38 ****        -5.3516  -2.7637   3.3517 H              1 S1                 0.0000
     39 ****        -4.6995  -1.5872   4.4883 H              1 S1                 0.0000
     40 ****        -1.2658   2.3005   1.3149 H              1 S1                 0.0000
     41 ****         0.8256   3.1989   1.6355 H              1 S1                 0.0000
     42 ****         1.4633   1.6574   2.1506 H              1 S1                 0.0000
     43 ****         3.5028   1.7559   0.7862 H              1 S1                 0.0000
     44 ****         4.5202   1.5347  -1.4449 H              1 S1                 0.0000
     45 ****         1.4786   2.5552  -4.7799 H              1 S1                 0.0000
     46 ****         2.9463   3.5080  -4.6702 H              1 S1                 0.0000
     47 ****         2.4529   1.0873  -6.4998 H              1 S1                 0.0000
     48 ****         2.6105   2.7602  -6.9978 H              1 S1                 0.0000
     49 ****         4.3932  -0.0672  -5.6800 H              1 S1                 0.0000
     50 ****         5.9199   0.7894  -5.6032 H              1 S1                 0.0000
     51 ****         5.1250   2.2153  -3.7531 H              1 S1                 0.0000
     52 ****         4.8655   0.5222  -3.3432 H              1 S1                 0.0000
     53 ****        -0.3364   2.1796  -1.1472 H              1 S1                 0.0000
     54 ****        -1.9987  -2.3844   0.7983 LP             1 S1                 0.0000
     55 ****        -2.3424  -3.9001   1.5630 LP             1 S1                 0.0000
     56 ****        -0.3379  -1.4762   2.0424 LP             1 S1                 0.0000
     57 ****         0.9414  -0.3171   1.9009 LP             1 S1                 0.0000
     58 ****         2.7222   0.7124  -4.0362 LP             1 S1                 0.0000
     59 ****         4.7881   2.7638  -6.1460 LP             1 S1                 0.0000
     60 ****         4.5905   1.6183  -7.2929 LP             1 S1                 0.0000
     61 ****         0.6993   1.9487  -3.2139 LP             1 S1                 0.0000
@<TRIPOS>BOND
    1    1    2 1     
    2    1   26 1     
    3    1   27 1     
    4    1   28 1     
    5    2    3 1     
    6    2   10 1     
    7    2   29 1     
    8    3    4 am    
    9    3   30 1     
   10    4    5 2     
   11    4    6 1     
   12    6    7 1     
   13    6    8 1     
   14    6    9 1     
   15    7   31 1     
   16    7   32 1     
   17    7   33 1     
   18    8   34 1     
   19    8   35 1     
   20    8   36 1     
   21    9   37 1     
   22    9   38 1     
   23    9   39 1     
   24   10   11 2     
   25   10   12 am    
   26   12   13 1     
   27   12   40 1     
   28   13   14 1     
   29   13   41 1     
   30   13   42 1     
   31   14   25 ar    
   32   14   15 ar    
   33   15   16 ar    
   34   15   43 1     
   35   16   17 ar    
   36   16   44 1     
   37   17   18 1     
   38   17   24 ar    
   39   18   23 1     
   40   18   19 1     
   41   19   20 1     
   42   19   45 1     
   43   19   46 1     
   44   20   21 1     
   45   20   47 1     
   46   20   48 1     
   47   21   22 1     
   48   22   23 1     
   49   22   49 1     
   50   22   50 1     
   51   23   51 1     
   52   23   52 1     
   53   24   25 ar    
   54   25   53 1     
   55    5   54 1     
   56    5   55 1     
   57   11   56 1     
   58   11   57 1     
   59   18   58 1     
   60   21   59 1     
   61   21   60 1     
   62   24   61 1     
@<TRIPOS>SUBSTRUCTURE
      1 S1             1
@<TRIPOS>SET
LONE_PAIRS      STATIC     ATOMS    <user>   **** ""
8 54 55 56 57 58 59 60 61
DONOR_HYDROGENS      STATIC     ATOMS    <user>   **** ""
2 30 40
ATOM$BLUE        STATIC     ATOMS    COLORGROUP SYSTEM
8 54 55 56 57 58 59 60 61
ATOM$RED        STATIC     ATOMS    COLORGROUP SYSTEM
2 30 40
