AV-unprocessed.smi:1239|AV-procd|sdf|5193|dock8
  -GOLD-   22720 4273D 1   1.00000     0.00000
 Structure written by MMmdl.
 48 49  0  0  0  0  0  0  0  0  4 V2000
  150.1611  133.5449  155.5158 C   0  0  0  0  0  0  0  0  0  0  0  0
  149.9046  134.7694  154.6012 C   0  0  2  0  0  0  0  0  0  0  0  0
  150.0301  136.1417  155.3208 C   0  0  0  0  0  0  0  0  0  0  0  0
  151.1454  136.9234  154.7841 N   0  5  0  0  0  0  0  0  0  0  0  0
  151.7220  137.9882  155.4036 C   0  0  0  0  0  0  0  0  0  0  0  0
  152.9129  138.1290  155.7040 O   0  0  0  0  0  0  0  0  0  0  0  0
  150.8213  138.9364  155.7172 N   0  0  0  0  0  0  0  0  0  0  0  0
  151.0212  140.2042  156.3270 C   0  0  0  0  0  0  0  0  0  0  0  0
  151.9206  140.2763  157.4100 C   0  0  0  0  0  0  0  0  0  0  0  0
  152.1342  141.5067  158.0645 C   0  0  0  0  0  0  0  0  0  0  0  0
  151.4354  142.6625  157.6372 C   0  0  0  0  0  0  0  0  0  0  0  0
  151.5922  143.9284  158.2422 N   0  0  0  0  0  0  0  0  0  0  0  0
  152.8278  144.6777  158.0427 C   0  0  0  0  0  0  0  0  0  0  0  0
  150.4861  144.5176  158.9853 C   0  0  0  0  0  0  0  0  0  0  0  0
  150.5712  142.5400  156.6001 N   0  3  0  0  0  0  0  0  0  0  0  0
  150.3375  141.3822  155.9452 C   0  0  0  0  0  0  0  0  0  0  0  0
  148.6056  134.6827  153.8641 N   0  3  0  0  0  0  0  0  0  0  0  0
  148.4357  133.4184  153.1053 C   0  0  0  0  0  0  0  0  0  0  0  0
  147.1733  133.4894  152.2291 C   0  0  0  0  0  0  0  0  0  0  0  0
  146.0372  133.7665  153.0390 O   0  0  0  0  0  0  0  0  0  0  0  0
  146.1529  135.0146  153.7120 C   0  0  0  0  0  0  0  0  0  0  0  0
  147.3731  134.9811  154.6458 C   0  0  0  0  0  0  0  0  0  0  0  0
  151.1750  133.5457  155.9202 H   0  0  0  0  0  0  0  0  0  0  0  0
  150.0537  132.6148  154.9575 H   0  0  0  0  0  0  0  0  0  0  0  0
  149.4755  133.4998  156.3637 H   0  0  0  0  0  0  0  0  0  0  0  0
  150.6884  134.7584  153.8423 H   0  0  0  0  0  0  0  0  0  0  0  0
  149.0845  136.6778  155.2243 H   0  0  0  0  0  0  0  0  0  0  0  0
  150.1494  135.9701  156.3905 H   0  0  0  0  0  0  0  0  0  0  0  0
  149.8604  138.6939  155.5246 H   0  0  0  0  0  0  0  0  0  0  0  0
  152.4501  139.3936  157.7385 H   0  0  0  0  0  0  0  0  0  0  0  0
  152.8318  141.5404  158.8878 H   0  0  0  0  0  0  0  0  0  0  0  0
  152.9823  144.8869  156.9835 H   0  0  0  0  0  0  0  0  0  0  0  0
  153.6831  144.1118  158.4133 H   0  0  0  0  0  0  0  0  0  0  0  0
  152.8044  145.6306  158.5721 H   0  0  0  0  0  0  0  0  0  0  0  0
  150.2135  143.8866  159.8318 H   0  0  0  0  0  0  0  0  0  0  0  0
  149.6132  144.6365  158.3426 H   0  0  0  0  0  0  0  0  0  0  0  0
  150.7497  145.5009  159.3755 H   0  0  0  0  0  0  0  0  0  0  0  0
  149.6035  141.4467  155.1562 H   0  0  0  0  0  0  0  0  0  0  0  0
  149.3036  133.2409  152.4691 H   0  0  0  0  0  0  0  0  0  0  0  0
  148.3667  132.5789  153.7984 H   0  0  0  0  0  0  0  0  0  0  0  0
  147.2784  134.2543  151.4581 H   0  0  0  0  0  0  0  0  0  0  0  0
  147.0186  132.5403  151.7159 H   0  0  0  0  0  0  0  0  0  0  0  0
  146.2358  135.8283  152.9896 H   0  0  0  0  0  0  0  0  0  0  0  0
  145.2440  135.1904  154.2876 H   0  0  0  0  0  0  0  0  0  0  0  0
  147.2165  134.2199  155.4111 H   0  0  0  0  0  0  0  0  0  0  0  0
  147.4634  135.9389  155.1589 H   0  0  0  0  0  0  0  0  0  0  0  0
  150.0613  143.3700  156.2977 H   0  0  0  0  0  0  0  0  0  0  0  0
  148.6689  135.4041  153.1595 H   0  0  0  0  0  0  0  0  0  0  0  0
  1  2  1  0  0  0  0
  1 23  1  0  0  0  0
  1 24  1  0  0  0  0
  1 25  1  0  0  0  0
  2  3  1  0  0  0  0
  2 17  1  0  0  0  0
  2 26  1  0  0  0  0
  3  4  1  0  0  0  0
  3 27  1  0  0  0  0
  3 28  1  0  0  0  0
  4  5  1  0  0  0  0
  5  6  2  0  0  0  0
  5  7  1  0  0  0  0
  7  8  1  0  0  0  0
  7 29  1  0  0  0  0
  8 16  1  0  0  0  0
  8  9  2  0  0  0  0
  9 10  1  0  0  0  0
  9 30  1  0  0  0  0
 10 11  2  0  0  0  0
 10 31  1  0  0  0  0
 11 12  1  0  0  0  0
 11 15  1  0  0  0  0
 12 13  1  0  0  0  0
 12 14  1  0  0  0  0
 13 32  1  0  0  0  0
 13 33  1  0  0  0  0
 13 34  1  0  0  0  0
 14 35  1  0  0  0  0
 14 36  1  0  0  0  0
 14 37  1  0  0  0  0
 15 16  2  0  0  0  0
 15 47  1  0  0  0  0
 16 38  1  0  0  0  0
 17 22  1  0  0  0  0
 17 18  1  0  0  0  0
 17 48  1  0  0  0  0
 18 19  1  0  0  0  0
 18 39  1  0  0  0  0
 18 40  1  0  0  0  0
 19 20  1  0  0  0  0
 19 41  1  0  0  0  0
 19 42  1  0  0  0  0
 20 21  1  0  0  0  0
 21 22  1  0  0  0  0
 21 43  1  0  0  0  0
 21 44  1  0  0  0  0
 22 45  1  0  0  0  0
 22 46  1  0  0  0  0
M  CHG  1   4  -1
M  CHG  1  15   1
M  CHG  1  17   1
M  END
> <s_m_source_file>
AV-unprocessed.smi

> <i_m_source_file_index>
1239

> <i_lp_mmshare_version>
43012

> <i_f3d_flags>
0

> <s_epik_input>
W0NIMl0xW0NIMl1PW0NIMl1bQ0gyXU4xW0NASF0oW0NIM10pW0NIMl1bTkhdQyg9TylbTkhdYzJbY0hdW2NIXWMoTihbQ0gzXSlbQ0gzXSluW2NIXTI=

> <s_epik_cmdline>
J2VwaWtfcHl0aG9uJywgJy1waCcsICc3LjAnLCAnLXRuJywgJzgnLCAnLW1hJywgJzIwMCcsICctbWV0YWxfYmluZGluZycsICctaW1hZScsICc8aW5maWxlLm1hZT4nLCAnLW9tYWUnLCAnPG91dGZpbGUubWFlPic=

> <r_lp_tautomer_probability>
0.999994

> <r_epik_Ionization_Penalty>
7.43905

> <r_epik_Ionization_Penalty_Charging>
7.43905

> <r_epik_Ionization_Penalty_Neutral>
3.43851e-06

> <r_epik_State_Penalty>
7.63789

> <r_epik_Charging_Adjusted_Penalty>
15.0769

> <i_epik_Tot_Q>
1

> <i_epik_Tot_abs_Q>
3

> <r_epik_Metal_State_Penalty>
3.83826

> <b_epik_Metal_Only>
1

> <s_lp_Force_Field>
OPLS_2005

> <r_lp_Energy>
24.2949

> <b_lp_Chiralities_Consistent>
1

> <s_lp_Variant>
AV-unprocessed.smi:1239-9

> <Gold.Version>
5.8.1

> <Gold.Id.Protein>
6NUR|6NUR_protein|mol2

> <Gold.PLP.Fitness>
51.5152

> <Gold.PLP.PLP>
-39.4686

> <Gold.PLP.part.hbond>
-3.2457

> <Gold.PLP.part.metal>
0.0000

> <Gold.PLP.part.buried>
-5.9829

> <Gold.PLP.part.nonpolar>
-30.7629

> <Gold.PLP.part.repulsive>
0.3773

> <Gold.PLP.ligand.clash>
0.0000

> <Gold.PLP.ligand.torsion>
3.1021

> <Gold.PLP.Chemscore.Hbond>
6.0000

> <Gold.PLP.Chemscore.CHOScore>
0.0000

> <Gold.PLP.Chemscore.Metal>
0.0000

> <Gold.Chemscore.Hbonds>
donor molecule, donor type, donor heavy atom, donor atom, acceptor molecule, acceptor atom, score
      L1  H    15    47       P1  8028  2.00
      L1  H    17    48       P1  7948  2.00
      P1  H 10752 10764       L1     4  0.90

> <Gold.PLP.Chemscore.Internal.Correction>
0.2508

> <Gold.Rescore>
     Score         DG    S(hbond)    S(metal)    S(lipo)     H(rot)  DE(clash)    DE(int)     intcor
     14.33     -19.00       2.37        0.00      80.43       1.48       0.27       4.41       ----

> <Gold.Chemscore.Fitness>
14.3261

> <Gold.Chemscore.DG>
-19.0031

> <Gold.Chemscore.ZeroCoef>
-5.4800

> <Gold.Chemscore.Hbond>
2.3682

> <Gold.Chemscore.Metal>
0.0000

> <Gold.Chemscore.Lipo>
80.4252

> <Gold.Chemscore.Internal_Hbond>
0.0000

> <Gold.Chemscore.DEClash>
0.2655

> <Gold.Chemscore.DEInternal>
4.4116

> <Gold.Chemscore.Rot>
1.4830

> <Gold.Chemscore.Internal.Correction>
   9.000000E+99

> <Gold.Chemscore.Hbonds>
donor molecule, donor type, donor heavy atom, donor atom, acceptor molecule, acceptor atom, score
      L1  H    15    47       P1  8028  1.00
      L1  H    17    48       P1  7948  0.83
      P1  H 10752 10764       L1     4  0.07

> <Gold.Chemscore.Hbond.Weighted>
-7.9098

> <Gold.Chemscore.Metal.Weighted>
-0.0000

> <Gold.Chemscore.Lipo.Weighted>
-9.4097

> <Gold.Chemscore.Internal_Hbond.Weighted>
0.0000

> <Gold.Chemscore.DEClash.Weighted>
0.2655

> <Gold.Chemscore.DEInternal.Weighted>
4.4116

> <Gold.Chemscore.Rot.Weighted>
3.7964

> <Gold.Chemscore.Internal.Correction.Weighted>
   9.000000E+99

> <Gold.Protein.RotatedTorsions>
[ 6907 6896 6895 6894 ] final  113.08 input  -60.11 | X-H torsion
[ 7974 7965 7964 7962 ] final  -22.05 input  175.53 | X-H torsion
[ 8008 7997 7996 7995 ] final   15.23 input   59.86 | X-H torsion
[ 10167 10162 10161 10158 ] final -161.55 input  -65.29 | X-H torsion
[ 10718 10713 10712 10709 ] final  -99.41 input   66.30 | X-H torsion
[ 10763 10752 10751 10750 ] final  -57.49 input  -60.55 | X-H torsion
[ 11005 11000 10999 10996 ] final  125.19 input  -57.11 | X-H torsion

> <Gold.Protein.ActiveResidues>
 VAL166  LYS551  ARG553  GLY616  TRP617  ASP618  TYR619  PRO620  LYS621  CYS622 
 ASP623  PHE694  ASN695  SER759  ASP760  ASP761  ALA762  ILE779  LEU786  VAL792 
 PHE793  MET794  SER795  GLU796  ALA797  LYS798  CYS799  TRP800  GLU811  SER814 

> <Gold.Protein.RotatedAtoms>
  152.4881  133.8425  159.7159 H   0  0  0  0  0  0  0  0  0  0  0  0  # atno 6907 bound_to 6896
  150.8985  133.7140  159.2892 H   0  0  0  0  0  0  0  0  0  0  0  0  # atno 6908 bound_to 6896
  151.4590  135.1040  159.9771 H   0  0  0  0  0  0  0  0  0  0  0  0  # atno 6909 bound_to 6896
  146.1698  140.4426  142.8537 H   0  0  0  0  0  0  0  0  0  0  0  0  # atno 7974 bound_to 7965
  154.8597  140.2942  155.5547 H   0  0  0  0  0  0  0  0  0  0  0  0  # atno 8008 bound_to 7997
  156.3019  140.2480  156.3501 H   0  0  0  0  0  0  0  0  0  0  0  0  # atno 8009 bound_to 7997
  154.8932  140.0394  157.1840 H   0  0  0  0  0  0  0  0  0  0  0  0  # atno 8010 bound_to 7997
  139.6457  144.0177  152.2125 H   0  0  0  0  0  0  0  0  0  0  0  0  # atno 10167 bound_to 10162
  156.0133  130.5281  150.6666 H   0  0  0  0  0  0  0  0  0  0  0  0  # atno 10718 bound_to 10713
  154.2233  135.6374  153.5151 H   0  0  0  0  0  0  0  0  0  0  0  0  # atno 10763 bound_to 10752
  152.9964  135.5502  154.6091 H   0  0  0  0  0  0  0  0  0  0  0  0  # atno 10764 bound_to 10752
  154.5556  135.2905  155.0942 H   0  0  0  0  0  0  0  0  0  0  0  0  # atno 10765 bound_to 10752
  139.9395  134.9637  156.8522 H   0  0  0  0  0  0  0  0  0  0  0  0  # atno 11005 bound_to 11000
  144.8145  140.6444  143.6393 LP  0  0  0  0  0  0  0  0  0  0  0  0  # atno 17320 bound_to 7965
  145.4371  139.1541  143.3990 LP  0  0  0  0  0  0  0  0  0  0  0  0  # atno 17321 bound_to 7965
  139.9878  144.6383  150.7842 LP  0  0  0  0  0  0  0  0  0  0  0  0  # atno 17342 bound_to 10162
  140.7513  143.2971  151.3177 LP  0  0  0  0  0  0  0  0  0  0  0  0  # atno 17343 bound_to 10162
  157.4397  131.0860  151.0956 LP  0  0  0  0  0  0  0  0  0  0  0  0  # atno 17370 bound_to 10713
  157.1503  130.6181  149.5580 LP  0  0  0  0  0  0  0  0  0  0  0  0  # atno 17371 bound_to 10713
  140.5990  134.0190  155.7529 LP  0  0  0  0  0  0  0  0  0  0  0  0  # atno 17394 bound_to 11000
  141.1023  133.9749  157.3058 LP  0  0  0  0  0  0  0  0  0  0  0  0  # atno 17395 bound_to 11000

$$$$
