#       Name:                AV-unprocessed.smi:2622
#       Creating user name   scv26
#       Creation time:       Fri Mar 27 14:23:21 2020


#       File generated by GOLD software.
#

@<TRIPOS>MOLECULE
AV-unprocessed.smi:2622
    34    35     1
SMALL
NO_CHARGES


@<TRIPOS>ATOM
      1 ****        -2.4931   3.0370   0.0048 O.co2          1 S1                 0.0000
      2 ****        -1.9092   1.9301   0.0051 C.2            1 S1                 0.0000
      3 ****        -2.5569   0.8600   0.0048 O.co2          1 S1                -1.0000
      4 ****        -0.3932   1.9173   0.0059 C.ar           1 S1                 0.0000
      5 ****         0.2970   3.1545   0.0048 C.ar           1 S1                 0.0000
      6 ****         1.7029   3.1789   0.0052 C.ar           1 S1                 0.0000
      7 ****         2.3876   1.9539   0.0071 C.ar           1 S1                 0.0000
      8 ****         1.7602   0.7625   0.0087 N.ar           1 S1                 0.0000
      9 ****         0.4035   0.7291   0.0082 C.ar           1 S1                 0.0000
     10 ****        -0.1628  -0.5571   0.0068 N.3            1 S1                 0.0000
     11 ****         0.0614  -1.3105  -1.2194 C.3            1 S1                 0.0000
     12 ****        -0.7584  -2.6117  -1.1874 C.3            1 S1                 0.0000
     13 ****        -0.4303  -3.3563  -0.0169 O.3            1 S1                 0.0000
     14 ****        -0.7257  -2.6345   1.1765 C.3            1 S1                 0.0000
     15 ****         0.0965  -1.3349   1.2108 C.3            1 S1                 0.0000
     16 ****        -0.2365   4.0938   0.0033 H              1 S1                 0.0000
     17 ****         2.2412   4.1149   0.0040 H              1 S1                 0.0000
     18 ****         3.4672   1.9284   0.0072 H              1 S1                 0.0000
     19 ****        -0.2245  -0.7071  -2.0818 H              1 S1                 0.0000
     20 ****         1.1225  -1.5423  -1.3209 H              1 S1                 0.0000
     21 ****        -1.8282  -2.3964  -1.2064 H              1 S1                 0.0000
     22 ****        -0.5390  -3.2163  -2.0674 H              1 S1                 0.0000
     23 ****        -1.7943  -2.4190   1.2287 H              1 S1                 0.0000
     24 ****        -0.4832  -3.2562   2.0381 H              1 S1                 0.0000
     25 ****         1.1595  -1.5700   1.2772 H              1 S1                 0.0000
     26 ****        -0.1637  -0.7484   2.0928 H              1 S1                 0.0000
     27 ****        -3.4924   3.0752   0.0043 LP             1 S1                 0.0000
     28 ****        -1.9604   3.8833   0.0051 LP             1 S1                 0.0000
     29 ****        -3.5567   0.8807   0.0043 LP             1 S1                 0.0000
     30 ****        -2.0749  -0.0162   0.0051 LP             1 S1                 0.0000
     31 ****         2.2874  -0.0872   0.0102 LP             1 S1                 0.0000
     32 ****        -1.1459  -0.3751   0.0260 LP             1 S1                 0.0000
     33 ****         0.5469  -3.5680  -0.0325 LP             1 S1                 0.0000
     34 ****        -0.9557  -4.2071  -0.0178 LP             1 S1                 0.0000
@<TRIPOS>BOND
    1    1    2 ar    
    2    2    3 ar    
    3    2    4 1     
    4    4    9 ar    
    5    4    5 ar    
    6    5    6 ar    
    7    5   16 1     
    8    6    7 ar    
    9    6   17 1     
   10    7    8 ar    
   11    7   18 1     
   12    8    9 ar    
   13    9   10 1     
   14   10   15 1     
   15   10   11 1     
   16   11   12 1     
   17   11   19 1     
   18   11   20 1     
   19   12   13 1     
   20   12   21 1     
   21   12   22 1     
   22   13   14 1     
   23   14   15 1     
   24   14   23 1     
   25   14   24 1     
   26   15   25 1     
   27   15   26 1     
   28    1   27 1     
   29    1   28 1     
   30    3   29 1     
   31    3   30 1     
   32    8   31 1     
   33   10   32 1     
   34   13   33 1     
   35   13   34 1     
@<TRIPOS>SUBSTRUCTURE
      1 S1             1
@<TRIPOS>SET
LONE_PAIRS      STATIC     ATOMS    <user>   **** ""
8 27 28 29 30 31 32 33 34
ATOM$BLUE        STATIC     ATOMS    COLORGROUP SYSTEM
8 27 28 29 30 31 32 33 34
