AV-unprocessed.smi:1824|AV-procd|sdf|7394|dock2
  -GOLD-   22720 9 63D 1   1.00000     0.00000
 Structure written by MMmdl.
 44 46  0  0  0  0  0  0  0  0  1 V2000
  148.8136  136.6985  156.1861 C   0  0  0  0  0  0  0  0  0  0  0  0
  149.5220  137.7789  155.3620 C   0  0  1  0  0  0  0  0  0  0  0  0
  149.5211  139.1465  156.0711 C   0  0  0  0  0  0  0  0  0  0  0  0
  150.2608  140.1545  155.3198 N   0  0  0  0  0  0  0  0  0  0  0  0
  150.2355  141.4446  156.0096 C   0  0  0  0  0  0  0  0  0  0  0  0
  151.3587  141.6595  157.0462 C   0  0  2  0  0  0  0  0  0  0  0  0
  150.7987  141.6365  158.3456 O   0  0  0  0  0  0  0  0  0  0  0  0
  152.0749  143.0098  156.8460 C   0  0  0  0  0  0  0  0  0  0  0  0
  152.5432  143.5819  158.0961 N   0  0  0  0  0  0  0  0  0  0  0  0
  152.2346  144.7906  158.6042 C   0  0  0  0  0  0  0  0  0  0  0  0
  152.7788  145.1169  159.7733 N   0  0  0  0  0  0  0  0  0  0  0  0
  153.5291  143.9888  160.0570 C   0  0  0  0  0  0  0  0  0  0  0  0
  154.3551  143.6907  161.1643 C   0  0  0  0  0  0  0  0  0  0  0  0
  155.0326  142.4558  161.2392 C   0  0  0  0  0  0  0  0  0  0  0  0
  155.8204  142.1869  162.3073 F   0  0  0  0  0  0  0  0  0  0  0  0
  154.8944  141.5015  160.2093 C   0  0  0  0  0  0  0  0  0  0  0  0
  155.5474  140.3180  160.2895 F   0  0  0  0  0  0  0  0  0  0  0  0
  154.0775  141.7763  159.0958 C   0  0  0  0  0  0  0  0  0  0  0  0
  153.4036  143.0094  159.0259 C   0  0  0  0  0  0  0  0  0  0  0  0
  151.6172  139.6670  155.0838 C   0  0  0  0  0  0  0  0  0  0  0  0
  151.6247  138.2979  154.3769 C   0  0  1  0  0  0  0  0  0  0  0  0
  153.0425  137.7435  154.2052 C   0  0  0  0  0  0  0  0  0  0  0  0
  150.8697  137.3687  155.1490 O   0  0  0  0  0  0  0  0  0  0  0  0
  147.7721  136.9646  156.3685 H   0  0  0  0  0  0  0  0  0  0  0  0
  149.2981  136.5583  157.1525 H   0  0  0  0  0  0  0  0  0  0  0  0
  148.8254  135.7408  155.6652 H   0  0  0  0  0  0  0  0  0  0  0  0
  149.0220  137.8671  154.3960 H   0  0  0  0  0  0  0  0  0  0  0  0
  148.4911  139.4759  156.2137 H   0  0  0  0  0  0  0  0  0  0  0  0
  149.9539  139.0387  157.0672 H   0  0  0  0  0  0  0  0  0  0  0  0
  150.3423  142.2205  155.2504 H   0  0  0  0  0  0  0  0  0  0  0  0
  149.2577  141.6193  156.4621 H   0  0  0  0  0  0  0  0  0  0  0  0
  152.0943  140.8578  156.9666 H   0  0  0  0  0  0  0  0  0  0  0  0
  151.2384  140.9679  158.8481 H   0  0  0  0  0  0  0  0  0  0  0  0
  152.9368  142.8857  156.1894 H   0  0  0  0  0  0  0  0  0  0  0  0
  151.4116  143.7263  156.3587 H   0  0  0  0  0  0  0  0  0  0  0  0
  151.5703  145.4683  158.0877 H   0  0  0  0  0  0  0  0  0  0  0  0
  154.4679  144.4135  161.9585 H   0  0  0  0  0  0  0  0  0  0  0  0
  153.9693  141.0479  158.3060 H   0  0  0  0  0  0  0  0  0  0  0  0
  152.1686  140.3777  154.4688 H   0  0  0  0  0  0  0  0  0  0  0  0
  152.1518  139.5910  156.0320 H   0  0  0  0  0  0  0  0  0  0  0  0
  151.1646  138.3936  153.3919 H   0  0  0  0  0  0  0  0  0  0  0  0
  153.6576  138.4174  153.6084 H   0  0  0  0  0  0  0  0  0  0  0  0
  153.0243  136.7768  153.7014 H   0  0  0  0  0  0  0  0  0  0  0  0
  153.5325  137.6074  155.1696 H   0  0  0  0  0  0  0  0  0  0  0  0
  1  2  1  0  0  0  0
  1 24  1  0  0  0  0
  1 25  1  0  0  0  0
  1 26  1  0  0  0  0
  2 23  1  0  0  0  0
  2  3  1  0  0  0  0
  2 27  1  0  0  0  0
  3  4  1  0  0  0  0
  3 28  1  0  0  0  0
  3 29  1  0  0  0  0
  4  5  1  0  0  0  0
  4 20  1  0  0  0  0
  5  6  1  0  0  0  0
  5 30  1  0  0  0  0
  5 31  1  0  0  0  0
  6  7  1  0  0  0  0
  6  8  1  0  0  0  0
  6 32  1  0  0  0  0
  7 33  1  0  0  0  0
  8  9  1  0  0  0  0
  8 34  1  0  0  0  0
  8 35  1  0  0  0  0
  9 19  1  0  0  0  0
  9 10  1  0  0  0  0
 10 11  2  0  0  0  0
 10 36  1  0  0  0  0
 11 12  1  0  0  0  0
 12 19  2  0  0  0  0
 12 13  1  0  0  0  0
 13 14  2  0  0  0  0
 13 37  1  0  0  0  0
 14 15  1  0  0  0  0
 14 16  1  0  0  0  0
 16 17  1  0  0  0  0
 16 18  2  0  0  0  0
 18 19  1  0  0  0  0
 18 38  1  0  0  0  0
 20 21  1  0  0  0  0
 20 39  1  0  0  0  0
 20 40  1  0  0  0  0
 21 22  1  0  0  0  0
 21 23  1  0  0  0  0
 21 41  1  0  0  0  0
 22 42  1  0  0  0  0
 22 43  1  0  0  0  0
 22 44  1  0  0  0  0
M  END
> <s_m_source_file>
AV-unprocessed.smi

> <i_m_source_file_index>
1824

> <i_lp_mmshare_version>
43012

> <i_f3d_flags>
0

> <s_epik_input>
W0NIM11bQ0BASF0xW0NIMl1OKFtDSDJdW0NASF0oTzEpW0NIM10pW0NIMl1bQ0BIXShbT0hdKVtDSDJdbihbY0hdbjIpYyhjMjMpW2NIXWMoRiljKEYpW2NIXTM=

> <s_epik_cmdline>
J2VwaWtfcHl0aG9uJywgJy1waCcsICc3LjAnLCAnLXRuJywgJzgnLCAnLW1hJywgJzIwMCcsICctbWV0YWxfYmluZGluZycsICctaW1hZScsICc8aW5maWxlLm1hZT4nLCAnLW9tYWUnLCAnPG91dGZpbGUubWFlPic=

> <r_epik_Ionization_Penalty>
0.273778

> <r_epik_Ionization_Penalty_Charging>
0

> <r_epik_Ionization_Penalty_Neutral>
0.273778

> <r_epik_State_Penalty>
0.246794

> <r_epik_Charging_Adjusted_Penalty>
0.246794

> <i_epik_Tot_Q>
0

> <i_epik_Tot_abs_Q>
0

> <r_epik_Metal_State_Penalty>
0.238234

> <b_epik_Metal_Only>
0

> <s_lp_Force_Field>
OPLS_2005

> <r_lp_Energy>
27.3836

> <b_lp_Chiralities_Consistent>
1

> <s_lp_Variant>
AV-unprocessed.smi:1824-2

> <Gold.Version>
5.8.1

> <Gold.Id.Protein>
6NUR|6NUR_protein|mol2

> <Gold.PLP.Fitness>
54.0928

> <Gold.PLP.PLP>
-53.9479

> <Gold.PLP.part.hbond>
-1.0000

> <Gold.PLP.part.metal>
0.0000

> <Gold.PLP.part.buried>
-1.6843

> <Gold.PLP.part.nonpolar>
-51.1657

> <Gold.PLP.part.repulsive>
0.3694

> <Gold.PLP.ligand.clash>
0.0000

> <Gold.PLP.ligand.torsion>
1.4369

> <Gold.PLP.Chemscore.Hbond>
0.0000

> <Gold.PLP.Chemscore.CHOScore>
0.9858

> <Gold.PLP.Chemscore.Metal>
0.0000

> <Gold.PLP.Chemscore.Internal.Correction>
0.0612

> <Gold.Rescore>
     Score         DG    S(hbond)    S(metal)    S(lipo)     H(rot)  DE(clash)    DE(int)     intcor
     11.93     -13.04       0.00        0.00     114.11       2.26       0.14       0.97       ----

> <Gold.Chemscore.Fitness>
11.9331

> <Gold.Chemscore.DG>
-13.0408

> <Gold.Chemscore.ZeroCoef>
-5.4800

> <Gold.Chemscore.Hbond>
0.0000

> <Gold.Chemscore.Metal>
0.0000

> <Gold.Chemscore.Lipo>
114.1134

> <Gold.Chemscore.Internal_Hbond>
0.0000

> <Gold.Chemscore.DEClash>
0.1412

> <Gold.Chemscore.DEInternal>
0.9665

> <Gold.Chemscore.Rot>
2.2619

> <Gold.Chemscore.Internal.Correction>
   9.000000E+99

> <Gold.Chemscore.Hbond.Weighted>
-0.0000

> <Gold.Chemscore.Metal.Weighted>
-0.0000

> <Gold.Chemscore.Lipo.Weighted>
-13.3513

> <Gold.Chemscore.Internal_Hbond.Weighted>
0.0000

> <Gold.Chemscore.DEClash.Weighted>
0.1412

> <Gold.Chemscore.DEInternal.Weighted>
0.9665

> <Gold.Chemscore.Rot.Weighted>
5.7904

> <Gold.Chemscore.Internal.Correction.Weighted>
   9.000000E+99

> <Gold.Protein.RotatedTorsions>
[ 6907 6896 6895 6894 ] final -101.82 input  -60.11 | X-H torsion
[ 7974 7965 7964 7962 ] final  -87.48 input  175.53 | X-H torsion
[ 8008 7997 7996 7995 ] final  -78.21 input   59.86 | X-H torsion
[ 10167 10162 10161 10158 ] final -118.23 input  -65.29 | X-H torsion
[ 10718 10713 10712 10709 ] final  116.88 input   66.30 | X-H torsion
[ 10763 10752 10751 10750 ] final   23.90 input  -60.55 | X-H torsion
[ 11005 11000 10999 10996 ] final -111.96 input  -57.11 | X-H torsion

> <Gold.Protein.ActiveResidues>
 VAL166  LYS551  ARG553  GLY616  TRP617  ASP618  TYR619  PRO620  LYS621  CYS622 
 ASP623  PHE694  ASN695  SER759  ASP760  ASP761  ALA762  ILE779  LEU786  VAL792 
 PHE793  MET794  SER795  GLU796  ALA797  LYS798  CYS799  TRP800  GLU811  SER814 

> <Gold.Protein.RotatedAtoms>
  150.7170  134.0676  159.3852 H   0  0  0  0  0  0  0  0  0  0  0  0  # atno 6907 bound_to 6896
  151.8658  135.0505  160.0483 H   0  0  0  0  0  0  0  0  0  0  0  0  # atno 6908 bound_to 6896
  152.2682  133.5322  159.5459 H   0  0  0  0  0  0  0  0  0  0  0  0  # atno 6909 bound_to 6896
  145.4659  140.9560  143.1943 H   0  0  0  0  0  0  0  0  0  0  0  0  # atno 7974 bound_to 7965
  154.5668  140.0698  156.8904 H   0  0  0  0  0  0  0  0  0  0  0  0  # atno 8008 bound_to 7997
  155.2708  140.3365  155.4247 H   0  0  0  0  0  0  0  0  0  0  0  0  # atno 8009 bound_to 7997
  156.2087  140.1750  156.7729 H   0  0  0  0  0  0  0  0  0  0  0  0  # atno 8010 bound_to 7997
  140.0597  143.4980  152.2038 H   0  0  0  0  0  0  0  0  0  0  0  0  # atno 10167 bound_to 10162
  157.6132  131.1030  150.7535 H   0  0  0  0  0  0  0  0  0  0  0  0  # atno 10718 bound_to 10713
  153.0804  135.6617  154.0057 H   0  0  0  0  0  0  0  0  0  0  0  0  # atno 10763 bound_to 10752
  153.9681  135.2967  155.3430 H   0  0  0  0  0  0  0  0  0  0  0  0  # atno 10764 bound_to 10752
  154.7202  135.5168  153.8871 H   0  0  0  0  0  0  0  0  0  0  0  0  # atno 10765 bound_to 10752
  141.0703  133.9390  157.2497 H   0  0  0  0  0  0  0  0  0  0  0  0  # atno 11005 bound_to 11000
  144.7974  139.6207  143.7086 LP  0  0  0  0  0  0  0  0  0  0  0  0  # atno 17320 bound_to 7965
  146.2424  139.6029  142.9482 LP  0  0  0  0  0  0  0  0  0  0  0  0  # atno 17321 bound_to 7965
  139.5901  144.7547  151.3421 LP  0  0  0  0  0  0  0  0  0  0  0  0  # atno 17342 bound_to 10162
  140.7178  143.7220  150.7689 LP  0  0  0  0  0  0  0  0  0  0  0  0  # atno 17343 bound_to 10162
  156.7908  130.4889  149.5385 LP  0  0  0  0  0  0  0  0  0  0  0  0  # atno 17370 bound_to 10713
  156.1244  130.6133  151.0241 LP  0  0  0  0  0  0  0  0  0  0  0  0  # atno 17371 bound_to 10713
  139.9517  135.0174  156.9013 LP  0  0  0  0  0  0  0  0  0  0  0  0  # atno 17394 bound_to 11000
  140.5687  134.0465  155.7423 LP  0  0  0  0  0  0  0  0  0  0  0  0  # atno 17395 bound_to 11000

$$$$
