AV-unprocessed.smi:292|AV-procd|sdf|2249|dock1
  -GOLD-   2262022133D 1   1.00000     0.00000
 Structure written by MMmdl.
 33 34  0  0  0  0  0  0  0  0  1 V2000
  151.0371  142.7344  157.7305 N   0  0  0  0  0  0  0  0  0  0  0  0
  150.4917  142.1385  156.9019 C   0  0  0  0  0  0  0  0  0  0  0  0
  149.8068  141.3903  155.8614 C   0  0  0  0  0  0  0  0  0  0  0  0
  150.4950  140.6374  154.9547 N   0  0  0  0  0  0  0  0  0  0  0  0
  149.4701  140.1798  154.2469 C   0  0  0  0  0  0  0  0  0  0  0  0
  148.2784  140.6101  154.6748 N   0  0  0  0  0  0  0  0  0  0  0  0
  146.9422  140.3551  154.1587 C   0  0  0  0  0  0  0  0  0  0  0  0
  146.7619  138.9323  153.6093 C   0  0  0  0  0  0  0  0  0  0  0  0
  147.6430  138.0958  153.8035 O   0  0  0  0  0  0  0  0  0  0  0  0
  145.6414  138.6670  152.9161 N   0  0  0  0  0  0  0  0  0  0  0  0
  145.2699  137.3803  152.3311 C   0  0  2  0  0  0  0  0  0  0  0  0
  145.5144  136.2310  153.3432 C   0  0  0  0  0  0  0  0  0  0  0  0
  145.7874  134.8383  152.7378 C   0  0  0  0  0  0  0  0  0  0  0  0
  144.7231  134.3235  151.7477 C   0  0  0  0  0  0  0  0  0  0  0  0
  144.3768  135.2505  150.5585 C   0  0  0  0  0  0  0  0  0  0  0  0
  145.4488  136.1711  150.1821 N   0  0  0  0  0  0  0  0  0  0  0  0
  145.9000  137.1873  150.9376 C   0  0  0  0  0  0  0  0  0  0  0  0
  146.7981  137.9309  150.5439 O   0  0  0  0  0  0  0  0  0  0  0  0
  148.4803  141.4115  155.7497 N   0  0  0  0  0  0  0  0  0  0  0  0
  149.5895  139.5261  153.3953 H   0  0  0  0  0  0  0  0  0  0  0  0
  146.2200  140.5211  154.9588 H   0  0  0  0  0  0  0  0  0  0  0  0
  146.7243  141.0812  153.3741 H   0  0  0  0  0  0  0  0  0  0  0  0
  144.9685  139.4126  152.8092 H   0  0  0  0  0  0  0  0  0  0  0  0
  144.1954  137.4311  152.1494 H   0  0  0  0  0  0  0  0  0  0  0  0
  146.3674  136.4829  153.9747 H   0  0  0  0  0  0  0  0  0  0  0  0
  144.6602  136.1687  154.0185 H   0  0  0  0  0  0  0  0  0  0  0  0
  146.7626  134.8413  152.2490 H   0  0  0  0  0  0  0  0  0  0  0  0
  145.8833  134.1182  153.5509 H   0  0  0  0  0  0  0  0  0  0  0  0
  145.0789  133.3726  151.3498 H   0  0  0  0  0  0  0  0  0  0  0  0
  143.8060  134.0872  152.2884 H   0  0  0  0  0  0  0  0  0  0  0  0
  144.1212  134.6450  149.6886 H   0  0  0  0  0  0  0  0  0  0  0  0
  143.4763  135.8237  150.7818 H   0  0  0  0  0  0  0  0  0  0  0  0
  145.8686  136.0369  149.2734 H   0  0  0  0  0  0  0  0  0  0  0  0
  1  2  3  0  0  0  0
  2  3  1  0  0  0  0
  3 19  2  0  0  0  0
  3  4  1  0  0  0  0
  4  5  2  0  0  0  0
  5  6  1  0  0  0  0
  5 20  1  0  0  0  0
  6  7  1  0  0  0  0
  6 19  1  0  0  0  0
  7  8  1  0  0  0  0
  7 21  1  0  0  0  0
  7 22  1  0  0  0  0
  8  9  2  0  0  0  0
  8 10  1  0  0  0  0
 10 11  1  0  0  0  0
 10 23  1  0  0  0  0
 11 17  1  0  0  0  0
 11 12  1  0  0  0  0
 11 24  1  0  0  0  0
 12 13  1  0  0  0  0
 12 25  1  0  0  0  0
 12 26  1  0  0  0  0
 13 14  1  0  0  0  0
 13 27  1  0  0  0  0
 13 28  1  0  0  0  0
 14 15  1  0  0  0  0
 14 29  1  0  0  0  0
 14 30  1  0  0  0  0
 15 16  1  0  0  0  0
 15 31  1  0  0  0  0
 15 32  1  0  0  0  0
 16 17  1  0  0  0  0
 16 33  1  0  0  0  0
 17 18  2  0  0  0  0
M  END
> <s_m_source_file>
AV-unprocessed.smi

> <i_m_source_file_index>
292

> <i_lp_mmshare_version>
43012

> <i_f3d_flags>
0

> <s_epik_input>
TiNDYzFuW2NIXW4objEpW0NIMl1DKD1PKVtOSF1bQ0BASF0yW0NIMl1bQ0gyXVtDSDJdW0NIMl1bTkhdQzI9Tw==

> <s_epik_cmdline>
J2VwaWtfcHl0aG9uJywgJy1waCcsICc3LjAnLCAnLXRuJywgJzgnLCAnLW1hJywgJzIwMCcsICctbWV0YWxfYmluZGluZycsICctaW1hZScsICc8aW5maWxlLm1hZT4nLCAnLW9tYWUnLCAnPG91dGZpbGUubWFlPic=

> <r_lp_tautomer_probability>
1

> <r_epik_Ionization_Penalty>
1.99744e-07

> <r_epik_Ionization_Penalty_Charging>
0

> <r_epik_Ionization_Penalty_Neutral>
1.99744e-07

> <r_epik_State_Penalty>
-0

> <r_epik_Charging_Adjusted_Penalty>
0

> <i_epik_Tot_Q>
0

> <i_epik_Tot_abs_Q>
0

> <r_epik_Metal_State_Penalty>
-0

> <b_epik_Metal_Only>
0

> <s_lp_Force_Field>
OPLS_2005

> <r_lp_Energy>
19.194

> <b_lp_Chiralities_Consistent>
1

> <s_lp_Variant>
AV-unprocessed.smi:292-1

> <Gold.Version>
5.8.1

> <Gold.Id.Protein>
6NUR|6NUR_protein|mol2

> <Gold.PLP.Fitness>
36.7574

> <Gold.PLP.PLP>
-24.0476

> <Gold.PLP.part.hbond>
-4.7217

> <Gold.PLP.part.metal>
0.0000

> <Gold.PLP.part.buried>
-0.5352

> <Gold.PLP.part.nonpolar>
-22.6691

> <Gold.PLP.part.repulsive>
3.1292

> <Gold.PLP.ligand.clash>
0.0000

> <Gold.PLP.ligand.torsion>
0.7058

> <Gold.PLP.Chemscore.Hbond>
3.6973

> <Gold.PLP.Chemscore.CHOScore>
0.9915

> <Gold.PLP.Chemscore.Metal>
0.0000

> <Gold.Chemscore.Hbonds>
donor molecule, donor type, donor heavy atom, donor atom, acceptor molecule, acceptor atom, score
      L1  H    10    23       P1 10175  1.00
      L1  H    16    33       P1  7921  0.97
      P1  H  7954  7966       L1    18  0.94
      P1  H  7989  7998       L1     4  0.74
      L1  C     5    20       P1  7957  0.99

> <Gold.PLP.Chemscore.Internal.Correction>
0.0550

> <Gold.Rescore>
     Score         DG    S(hbond)    S(metal)    S(lipo)     H(rot)  DE(clash)    DE(int)     intcor
      6.65     -12.05       2.70        0.00      25.89       2.14       2.29       3.10       ----

> <Gold.Chemscore.Fitness>
6.6548

> <Gold.Chemscore.DG>
-12.0463

> <Gold.Chemscore.ZeroCoef>
-5.4800

> <Gold.Chemscore.Hbond>
2.7028

> <Gold.Chemscore.Metal>
0.0000

> <Gold.Chemscore.Lipo>
25.8850

> <Gold.Chemscore.Internal_Hbond>
0.0000

> <Gold.Chemscore.DEClash>
2.2934

> <Gold.Chemscore.DEInternal>
3.0981

> <Gold.Chemscore.Rot>
2.1444

> <Gold.Chemscore.Internal.Correction>
   9.000000E+99

> <Gold.Chemscore.Hbonds>
donor molecule, donor type, donor heavy atom, donor atom, acceptor molecule, acceptor atom, score
      L1  H    10    23       P1 10175  1.00
      L1  H    16    33       P1  7921  0.86
      P1  H  7954  7966       L1    18  0.87
      P1  H  7989  7998       L1     4  0.11

> <Gold.Chemscore.Hbond.Weighted>
-9.0273

> <Gold.Chemscore.Metal.Weighted>
-0.0000

> <Gold.Chemscore.Lipo.Weighted>
-3.0285

> <Gold.Chemscore.Internal_Hbond.Weighted>
0.0000

> <Gold.Chemscore.DEClash.Weighted>
2.2934

> <Gold.Chemscore.DEInternal.Weighted>
3.0981

> <Gold.Chemscore.Rot.Weighted>
5.4896

> <Gold.Chemscore.Internal.Correction.Weighted>
   9.000000E+99

> <Gold.Protein.RotatedTorsions>
[ 6907 6896 6895 6894 ] final  114.86 input  -60.11 | X-H torsion
[ 7974 7965 7964 7962 ] final   -4.87 input  175.53 | X-H torsion
[ 8008 7997 7996 7995 ] final -135.70 input   59.86 | X-H torsion
[ 10167 10162 10161 10158 ] final -152.35 input  -65.29 | X-H torsion
[ 10718 10713 10712 10709 ] final  -47.21 input   66.30 | X-H torsion
[ 10763 10752 10751 10750 ] final   26.12 input  -60.55 | X-H torsion
[ 11005 11000 10999 10996 ] final  -50.39 input  -57.11 | X-H torsion

> <Gold.Protein.ActiveResidues>
 VAL166  LYS551  ARG553  GLY616  TRP617  ASP618  TYR619  PRO620  LYS621  CYS622 
 ASP623  PHE694  ASN695  SER759  ASP760  ASP761  ALA762  ILE779  LEU786  VAL792 
 PHE793  MET794  SER795  GLU796  ALA797  LYS798  CYS799  TRP800  GLU811  SER814 

> <Gold.Protein.RotatedAtoms>
  152.4777  133.8178  159.7037 H   0  0  0  0  0  0  0  0  0  0  0  0  # atno 6907 bound_to 6896
  150.8805  133.7370  159.2940 H   0  0  0  0  0  0  0  0  0  0  0  0  # atno 6908 bound_to 6896
  151.4875  135.1059  159.9846 H   0  0  0  0  0  0  0  0  0  0  0  0  # atno 6909 bound_to 6896
  146.2364  140.1935  142.8333 H   0  0  0  0  0  0  0  0  0  0  0  0  # atno 7974 bound_to 7965
  155.3830  140.0495  157.3043 H   0  0  0  0  0  0  0  0  0  0  0  0  # atno 8008 bound_to 7997
  154.5073  140.2179  155.9187 H   0  0  0  0  0  0  0  0  0  0  0  0  # atno 8009 bound_to 7997
  156.1541  140.3130  155.8702 H   0  0  0  0  0  0  0  0  0  0  0  0  # atno 8010 bound_to 7997
  139.7189  143.8988  152.2496 H   0  0  0  0  0  0  0  0  0  0  0  0  # atno 10167 bound_to 10162
  156.2106  130.4160  149.9119 H   0  0  0  0  0  0  0  0  0  0  0  0  # atno 10718 bound_to 10713
  153.0644  135.6567  154.0388 H   0  0  0  0  0  0  0  0  0  0  0  0  # atno 10763 bound_to 10752
  154.0048  135.2933  155.3400 H   0  0  0  0  0  0  0  0  0  0  0  0  # atno 10764 bound_to 10752
  154.6996  135.5250  153.8576 H   0  0  0  0  0  0  0  0  0  0  0  0  # atno 10765 bound_to 10752
  141.0813  133.6653  156.3723 H   0  0  0  0  0  0  0  0  0  0  0  0  # atno 11005 bound_to 11000
  144.9839  140.8484  143.5381 LP  0  0  0  0  0  0  0  0  0  0  0  0  # atno 17320 bound_to 7965
  145.1932  139.2290  143.5231 LP  0  0  0  0  0  0  0  0  0  0  0  0  # atno 17321 bound_to 7965
  139.8879  144.6982  150.8804 LP  0  0  0  0  0  0  0  0  0  0  0  0  # atno 17342 bound_to 10162
  140.7749  143.3610  151.1829 LP  0  0  0  0  0  0  0  0  0  0  0  0  # atno 17343 bound_to 10162
  156.6799  130.8854  151.3574 LP  0  0  0  0  0  0  0  0  0  0  0  0  # atno 17370 bound_to 10713
  157.7036  130.9360  150.0862 LP  0  0  0  0  0  0  0  0  0  0  0  0  # atno 17371 bound_to 10713
  140.5462  134.6072  157.5394 LP  0  0  0  0  0  0  0  0  0  0  0  0  # atno 17394 bound_to 11000
  139.9627  134.7425  156.0203 LP  0  0  0  0  0  0  0  0  0  0  0  0  # atno 17395 bound_to 11000

$$$$
