#       Name:                AV-unprocessed.smi:1325
#       Creating user name   scv26
#       Creation time:       Fri Mar 27 05:04:24 2020


#       File generated by GOLD software.
#

@<TRIPOS>MOLECULE
AV-unprocessed.smi:1325
    41    42     1
SMALL
NO_CHARGES


@<TRIPOS>ATOM
      1 ****        -3.5050   2.4594   0.6031 C.3            1 S1                 0.0000
      2 ****        -2.7854   1.1382   0.6444 C.2            1 S1                 0.0000
      3 ****        -1.4947   1.1778   0.5905 N.2            1 S1                 0.0000
      4 ****        -0.7376   0.0236   0.6169 N.am           1 S1                 0.0000
      5 ****         0.7100   0.2595   0.5454 C.3            1 S1                 0.0000
      6 ****         1.2797   0.0067  -0.8680 C.3            1 S1                 0.0000
      7 ****         0.9038   1.0805  -1.7085 O.3            1 S1                 0.0000
      8 ****         2.7916  -0.1564  -0.8247 C.ar           1 S1                 0.0000
      9 ****         3.6285   0.9557  -0.5828 C.ar           1 S1                 0.0000
     10 ****         5.0270   0.7955  -0.5361 C.ar           1 S1                 0.0000
     11 ****         5.5972  -0.4773  -0.7297 C.ar           1 S1                 0.0000
     12 ****         4.7679  -1.5901  -0.9681 C.ar           1 S1                 0.0000
     13 ****         3.3692  -1.4304  -1.0141 C.ar           1 S1                 0.0000
     14 ****        -1.2481  -1.2382   0.7005 C.2            1 S1                 0.0000
     15 ****        -0.5343  -2.2424   0.7164 O.2            1 S1                 0.0000
     16 ****        -2.7110  -1.2763   0.7652 C.2            1 S1                 0.0000
     17 ****        -3.2874  -2.5789   0.8550 C.1            1 S1                 0.0000
     18 ****        -3.7732  -3.6272   0.9278 N.1            1 S1                 0.0000
     19 ****        -3.4657  -0.1494   0.7406 C.2            1 S1                 0.0000
     20 ****        -4.9869  -0.1341   0.8042 C.3            1 S1                 0.0000
     21 ****        -4.1970   2.4978  -0.2380 H              1 S1                 0.0000
     22 ****        -2.8133   3.2966   0.4969 H              1 S1                 0.0000
     23 ****        -4.0756   2.6176   1.5182 H              1 S1                 0.0000
     24 ****         0.9617   1.2668   0.8839 H              1 S1                 0.0000
     25 ****         1.1994  -0.4064   1.2590 H              1 S1                 0.0000
     26 ****         0.8508  -0.9034  -1.2890 H              1 S1                 0.0000
     27 ****         1.1898   0.8853  -2.5877 H              1 S1                 0.0000
     28 ****         3.1996   1.9353  -0.4299 H              1 S1                 0.0000
     29 ****         5.6621   1.6493  -0.3510 H              1 S1                 0.0000
     30 ****         6.6696  -0.6000  -0.6938 H              1 S1                 0.0000
     31 ****         5.2046  -2.5670  -1.1147 H              1 S1                 0.0000
     32 ****         2.7419  -2.2912  -1.1945 H              1 S1                 0.0000
     33 ****        -5.4061  -1.1344   0.9073 H              1 S1                 0.0000
     34 ****        -5.4027   0.3038  -0.1038 H              1 S1                 0.0000
     35 ****        -5.3290   0.4520   1.6575 H              1 S1                 0.0000
     36 ****        -1.0346   2.0635   0.5284 LP             1 S1                 0.0000
     37 ****         1.3367   1.9246  -1.3921 LP             1 S1                 0.0000
     38 ****        -0.0902   1.1896  -1.6930 LP             1 S1                 0.0000
     39 ****         0.4601  -2.1497   0.6670 LP             1 S1                 0.0000
     40 ****        -0.9495  -3.1500   0.7787 LP             1 S1                 0.0000
     41 ****        -4.1929  -4.5327   0.9907 LP             1 S1                 0.0000
@<TRIPOS>BOND
    1    1    2 1     
    2    1   21 1     
    3    1   22 1     
    4    1   23 1     
    5    2   19 1     
    6    2    3 2     
    7    3    4 1     
    8    4    5 1     
    9    4   14 am    
   10    5    6 1     
   11    5   24 1     
   12    5   25 1     
   13    6    7 1     
   14    6    8 1     
   15    6   26 1     
   16    7   27 1     
   17    8   13 ar    
   18    8    9 ar    
   19    9   10 ar    
   20    9   28 1     
   21   10   11 ar    
   22   10   29 1     
   23   11   12 ar    
   24   11   30 1     
   25   12   13 ar    
   26   12   31 1     
   27   13   32 1     
   28   14   15 2     
   29   14   16 1     
   30   16   17 1     
   31   16   19 2     
   32   17   18 3     
   33   19   20 1     
   34   20   33 1     
   35   20   34 1     
   36   20   35 1     
   37    3   36 1     
   38    7   37 1     
   39    7   38 1     
   40   15   39 1     
   41   15   40 1     
   42   18   41 1     
@<TRIPOS>SUBSTRUCTURE
      1 S1             1
@<TRIPOS>SET
LONE_PAIRS      STATIC     ATOMS    <user>   **** ""
6 36 37 38 39 40 41
DONOR_HYDROGENS      STATIC     ATOMS    <user>   **** ""
1 27
ATOM$BLUE        STATIC     ATOMS    COLORGROUP SYSTEM
6 36 37 38 39 40 41
ATOM$RED        STATIC     ATOMS    COLORGROUP SYSTEM
1 27
