AV-unprocessed.smi:1622|AV-procd|sdf|6499|dock3
  -GOLD-   22720 7163D 1   1.00000     0.00000
 Structure written by MMmdl.
 40 41  0  0  0  0  0  0  0  0  3 V2000
  145.4966  137.0622  154.2604 C   0  0  0  0  0  0  0  0  0  0  0  0
  146.9048  136.4474  154.2839 C   0  0  0  0  0  0  0  0  0  0  0  0
  146.9555  134.9305  153.9531 C   0  0  2  0  0  0  0  0  0  0  0  0
  148.2124  134.2403  154.5391 C   0  0  0  0  0  0  0  0  0  0  0  0
  149.3664  135.1311  154.5464 N   0  0  0  0  0  0  0  0  0  0  0  0
  150.2448  135.2537  155.5495 C   0  0  0  0  0  0  0  0  0  0  0  0
  150.0993  134.5903  156.5785 O   0  0  0  0  0  0  0  0  0  0  0  0
  151.2376  136.1347  155.2944 N   0  5  0  0  0  0  0  0  0  0  0  0
  150.9436  137.4157  155.0165 C   0  0  0  0  0  0  0  0  0  0  0  0
  151.8840  138.3163  154.6973 N   0  0  0  0  0  0  0  0  0  0  0  0
  151.3663  139.5801  154.4523 N   0  0  0  0  0  0  0  0  0  0  0  0
  150.0399  139.6175  154.5998 C   0  0  0  0  0  0  0  0  0  0  0  0
  149.2421  140.8595  154.3951 C   0  0  0  0  0  0  0  0  0  0  0  0
  149.3134  138.0865  155.0581 S   0  0  0  0  0  0  0  0  0  0  0  0
  146.8291  134.6917  152.4852 N   0  3  0  0  0  0  0  0  0  0  0  0
  146.8772  133.2779  152.0534 C   0  0  0  0  0  0  0  0  0  0  0  0
  146.2654  133.2711  150.6574 C   0  0  0  0  0  0  0  0  0  0  0  0
  145.1519  134.3061  150.7656 C   0  0  0  0  0  0  0  0  0  0  0  0
  145.6303  135.2891  151.8433 C   0  0  0  0  0  0  0  0  0  0  0  0
  145.5355  138.1169  154.5333 H   0  0  0  0  0  0  0  0  0  0  0  0
  144.8302  136.5645  154.9647 H   0  0  0  0  0  0  0  0  0  0  0  0
  145.0477  137.0008  153.2689 H   0  0  0  0  0  0  0  0  0  0  0  0
  147.5347  136.9970  153.5839 H   0  0  0  0  0  0  0  0  0  0  0  0
  147.3528  136.6375  155.2586 H   0  0  0  0  0  0  0  0  0  0  0  0
  146.0870  134.4672  154.4247 H   0  0  0  0  0  0  0  0  0  0  0  0
  148.0434  133.9324  155.5711 H   0  0  0  0  0  0  0  0  0  0  0  0
  148.4404  133.3346  153.9747 H   0  0  0  0  0  0  0  0  0  0  0  0
  149.5197  135.6957  153.7237 H   0  0  0  0  0  0  0  0  0  0  0  0
  149.5277  141.6124  155.1300 H   0  0  0  0  0  0  0  0  0  0  0  0
  148.1778  140.6502  154.5044 H   0  0  0  0  0  0  0  0  0  0  0  0
  149.4188  141.2579  153.3958 H   0  0  0  0  0  0  0  0  0  0  0  0
  147.8940  132.8839  152.0529 H   0  0  0  0  0  0  0  0  0  0  0  0
  146.2717  132.6659  152.7244 H   0  0  0  0  0  0  0  0  0  0  0  0
  147.0063  133.5977  149.9264 H   0  0  0  0  0  0  0  0  0  0  0  0
  145.9041  132.2873  150.3562 H   0  0  0  0  0  0  0  0  0  0  0  0
  144.9448  134.7948  149.8133 H   0  0  0  0  0  0  0  0  0  0  0  0
  144.2321  133.8209  151.0947 H   0  0  0  0  0  0  0  0  0  0  0  0
  144.8286  135.4574  152.5636 H   0  0  0  0  0  0  0  0  0  0  0  0
  145.8975  136.2542  151.4115 H   0  0  0  0  0  0  0  0  0  0  0  0
  147.6262  135.1340  152.0502 H   0  0  0  0  0  0  0  0  0  0  0  0
  1  2  1  0  0  0  0
  1 20  1  0  0  0  0
  1 21  1  0  0  0  0
  1 22  1  0  0  0  0
  2  3  1  0  0  0  0
  2 23  1  0  0  0  0
  2 24  1  0  0  0  0
  3  4  1  0  0  0  0
  3 15  1  0  0  0  0
  3 25  1  0  0  0  0
  4  5  1  0  0  0  0
  4 26  1  0  0  0  0
  4 27  1  0  0  0  0
  5  6  1  0  0  0  0
  5 28  1  0  0  0  0
  6  7  2  0  0  0  0
  6  8  1  0  0  0  0
  8  9  1  0  0  0  0
  9 14  1  0  0  0  0
  9 10  2  0  0  0  0
 10 11  1  0  0  0  0
 11 12  2  0  0  0  0
 12 13  1  0  0  0  0
 12 14  1  0  0  0  0
 13 29  1  0  0  0  0
 13 30  1  0  0  0  0
 13 31  1  0  0  0  0
 15 19  1  0  0  0  0
 15 16  1  0  0  0  0
 15 40  1  0  0  0  0
 16 17  1  0  0  0  0
 16 32  1  0  0  0  0
 16 33  1  0  0  0  0
 17 18  1  0  0  0  0
 17 34  1  0  0  0  0
 17 35  1  0  0  0  0
 18 19  1  0  0  0  0
 18 36  1  0  0  0  0
 18 37  1  0  0  0  0
 19 38  1  0  0  0  0
 19 39  1  0  0  0  0
M  CHG  1   8  -1
M  CHG  1  15   1
M  END
> <s_m_source_file>
AV-unprocessed.smi

> <i_m_source_file_index>
1622

> <i_lp_mmshare_version>
43012

> <i_f3d_flags>
0

> <s_epik_input>
W0NIMl0xW0NIMl1bQ0gyXVtDSDJdTjFbQ0BIXShbQ0gyXVtDSDNdKVtDSDJdW05IXUMoPU8pW05IXWMybm5jKHMyKVtDSDNd

> <s_epik_cmdline>
J2VwaWtfcHl0aG9uJywgJy1waCcsICc3LjAnLCAnLXRuJywgJzgnLCAnLW1hJywgJzIwMCcsICctbWV0YWxfYmluZGluZycsICctaW1hZScsICc8aW5maWxlLm1hZT4nLCAnLW9tYWUnLCAnPG91dGZpbGUubWFlPic=

> <r_lp_tautomer_probability>
1

> <r_epik_Ionization_Penalty>
4.34497

> <r_epik_Ionization_Penalty_Charging>
4.23453

> <r_epik_Ionization_Penalty_Neutral>
0.110433

> <r_epik_State_Penalty>
4.23293

> <r_epik_Charging_Adjusted_Penalty>
8.46746

> <i_epik_Tot_Q>
0

> <i_epik_Tot_abs_Q>
2

> <r_epik_Metal_State_Penalty>
0.701092

> <b_epik_Metal_Only>
1

> <s_lp_Force_Field>
OPLS_2005

> <r_lp_Energy>
26.4527

> <b_lp_Chiralities_Consistent>
1

> <s_lp_Variant>
AV-unprocessed.smi:1622-3

> <Gold.Version>
5.8.1

> <Gold.Id.Protein>
6NUR|6NUR_protein|mol2

> <Gold.PLP.Fitness>
43.6891

> <Gold.PLP.PLP>
-27.9099

> <Gold.PLP.part.hbond>
-4.0000

> <Gold.PLP.part.metal>
0.0000

> <Gold.PLP.part.buried>
-3.5082

> <Gold.PLP.part.nonpolar>
-20.3673

> <Gold.PLP.part.repulsive>
0.3999

> <Gold.PLP.ligand.clash>
0.0028

> <Gold.PLP.ligand.torsion>
1.2503

> <Gold.PLP.Chemscore.Hbond>
6.0000

> <Gold.PLP.Chemscore.CHOScore>
0.0000

> <Gold.PLP.Chemscore.Metal>
0.0000

> <Gold.Chemscore.Hbonds>
donor molecule, donor type, donor heavy atom, donor atom, acceptor molecule, acceptor atom, score
      L1  H     5    28       P1  7948  0.99
      L1  H    15    40       P1  7948  2.00
      P1  H  7989  7998       L1    11  1.00
      P1  H 10752 10764       L1     8  2.00

> <Gold.PLP.Chemscore.Internal.Correction>
0.2826

> <Gold.Rescore>
     Score         DG    S(hbond)    S(metal)    S(lipo)     H(rot)  DE(clash)    DE(int)     intcor
     16.46     -17.95       3.45        0.00      46.16       1.73       0.00       1.49       ----

> <Gold.Chemscore.Fitness>
16.4584

> <Gold.Chemscore.DG>
-17.9522

> <Gold.Chemscore.ZeroCoef>
-5.4800

> <Gold.Chemscore.Hbond>
3.4468

> <Gold.Chemscore.Metal>
0.0000

> <Gold.Chemscore.Lipo>
46.1617

> <Gold.Chemscore.Internal_Hbond>
0.0000

> <Gold.Chemscore.DEClash>
0.0015

> <Gold.Chemscore.DEInternal>
1.4923

> <Gold.Chemscore.Rot>
1.7348

> <Gold.Chemscore.Internal.Correction>
   9.000000E+99

> <Gold.Chemscore.Hbonds>
donor molecule, donor type, donor heavy atom, donor atom, acceptor molecule, acceptor atom, score
      L1  H     5    28       P1  7948  0.28
      L1  H    15    40       P1  7948  0.94
      P1  H  7989  7998       L1    11  0.39
      P1  H 10752 10764       L1     8  0.84

> <Gold.Chemscore.Hbond.Weighted>
-11.5124

> <Gold.Chemscore.Metal.Weighted>
-0.0000

> <Gold.Chemscore.Lipo.Weighted>
-5.4009

> <Gold.Chemscore.Internal_Hbond.Weighted>
0.0000

> <Gold.Chemscore.DEClash.Weighted>
0.0015

> <Gold.Chemscore.DEInternal.Weighted>
1.4923

> <Gold.Chemscore.Rot.Weighted>
4.4411

> <Gold.Chemscore.Internal.Correction.Weighted>
   9.000000E+99

> <Gold.Protein.RotatedTorsions>
[ 6907 6896 6895 6894 ] final  -43.02 input  -60.11 | X-H torsion
[ 7974 7965 7964 7962 ] final  -65.82 input  175.53 | X-H torsion
[ 8008 7997 7996 7995 ] final  -56.24 input   59.86 | X-H torsion
[ 10167 10162 10161 10158 ] final   70.28 input  -65.29 | X-H torsion
[ 10718 10713 10712 10709 ] final    2.23 input   66.30 | X-H torsion
[ 10763 10752 10751 10750 ] final  -59.14 input  -60.55 | X-H torsion
[ 11005 11000 10999 10996 ] final -118.49 input  -57.11 | X-H torsion

> <Gold.Protein.ActiveResidues>
 VAL166  LYS551  ARG553  GLY616  TRP617  ASP618  TYR619  PRO620  LYS621  CYS622 
 ASP623  PHE694  ASN695  SER759  ASP760  ASP761  ALA762  ILE779  LEU786  VAL792 
 PHE793  MET794  SER795  GLU796  ALA797  LYS798  CYS799  TRP800  GLU811  SER814 

> <Gold.Protein.RotatedAtoms>
  150.9487  134.8889  159.7657 H   0  0  0  0  0  0  0  0  0  0  0  0  # atno 6907 bound_to 6896
  152.5110  134.3838  159.9370 H   0  0  0  0  0  0  0  0  0  0  0  0  # atno 6908 bound_to 6896
  151.3855  133.3766  159.2749 H   0  0  0  0  0  0  0  0  0  0  0  0  # atno 6909 bound_to 6896
  145.7494  140.8915  143.0487 H   0  0  0  0  0  0  0  0  0  0  0  0  # atno 7974 bound_to 7965
  154.4223  140.1134  156.5606 H   0  0  0  0  0  0  0  0  0  0  0  0  # atno 8008 bound_to 7997
  155.6315  140.3495  155.4665 H   0  0  0  0  0  0  0  0  0  0  0  0  # atno 8009 bound_to 7997
  155.9944  140.1186  157.0597 H   0  0  0  0  0  0  0  0  0  0  0  0  # atno 8010 bound_to 7997
  140.0587  144.5251  150.7310 H   0  0  0  0  0  0  0  0  0  0  0  0  # atno 10167 bound_to 10162
  156.8600  130.5583  149.5663 H   0  0  0  0  0  0  0  0  0  0  0  0  # atno 10718 bound_to 10713
  154.2491  135.6329  153.5234 H   0  0  0  0  0  0  0  0  0  0  0  0  # atno 10763 bound_to 10752
  152.9915  135.5560  154.5827 H   0  0  0  0  0  0  0  0  0  0  0  0  # atno 10764 bound_to 10752
  154.5350  135.2891  155.1121 H   0  0  0  0  0  0  0  0  0  0  0  0  # atno 10765 bound_to 10752
  141.0282  134.0022  157.3183 H   0  0  0  0  0  0  0  0  0  0  0  0  # atno 11005 bound_to 11000
  144.6853  139.9571  143.7479 LP  0  0  0  0  0  0  0  0  0  0  0  0  # atno 17320 bound_to 7965
  146.0371  139.3387  143.0720 LP  0  0  0  0  0  0  0  0  0  0  0  0  # atno 17321 bound_to 7965
  140.7182  143.2564  151.4364 LP  0  0  0  0  0  0  0  0  0  0  0  0  # atno 17342 bound_to 10162
  139.5907  144.1504  152.2085 LP  0  0  0  0  0  0  0  0  0  0  0  0  # atno 17343 bound_to 10162
  156.0782  130.5799  150.9513 LP  0  0  0  0  0  0  0  0  0  0  0  0  # atno 17370 bound_to 10713
  157.6255  131.0926  150.8541 LP  0  0  0  0  0  0  0  0  0  0  0  0  # atno 17371 bound_to 10713
  139.9190  135.0199  156.7991 LP  0  0  0  0  0  0  0  0  0  0  0  0  # atno 17394 bound_to 11000
  140.6454  133.9780  155.7728 LP  0  0  0  0  0  0  0  0  0  0  0  0  # atno 17395 bound_to 11000

$$$$
