AV-unprocessed.smi:1484|AV-procd|sdf|5997|dock2
  -GOLD-   22720 6 93D 1   1.00000     0.00000
 Structure written by MMmdl.
 38 39  0  0  0  0  0  0  0  0  1 V2000
  153.2202  141.2145  160.0461 C   0  0  0  0  0  0  0  0  0  0  0  0
  152.5503  142.2057  159.0842 C   0  0  2  0  0  0  0  0  0  0  0  0
  153.2800  143.5625  159.0753 C   0  0  0  0  0  0  0  0  0  0  0  0
  152.6097  144.5587  158.1160 C   0  0  0  0  0  0  0  0  0  0  0  0
  151.1197  144.7447  158.4515 C   0  0  0  0  0  0  0  0  0  0  0  0
  150.3596  143.4049  158.4836 C   0  0  1  0  0  0  0  0  0  0  0  0
  150.2249  142.8683  157.1303 N   0  0  0  0  0  0  0  0  0  0  0  0
  149.5557  141.7552  156.7947 C   0  0  0  0  0  0  0  0  0  0  0  0
  148.9725  141.0450  157.6152 O   0  0  0  0  0  0  0  0  0  0  0  0
  149.5743  141.3885  155.3036 C   0  0  0  0  0  0  0  0  0  0  0  0
  150.1414  140.0597  155.0331 N   0  0  0  0  0  0  0  0  0  0  0  0
  151.5277  140.0255  155.0318 N   0  0  0  0  0  0  0  0  0  0  0  0
  152.1451  138.9125  154.8207 C   0  0  0  0  0  0  0  0  0  0  0  0
  153.5183  138.9227  154.8312 O   0  0  0  0  0  0  0  0  0  0  0  0
  151.4164  137.6868  154.5782 C   0  0  0  0  0  0  0  0  0  0  0  0
  150.0662  137.7311  154.5768 C   0  0  0  0  0  0  0  0  0  0  0  0
  149.3341  138.9767  154.8142 C   0  0  0  0  0  0  0  0  0  0  0  0
  148.1053  139.0457  154.8186 O   0  0  0  0  0  0  0  0  0  0  0  0
  151.0577  142.3985  159.4249 C   0  0  0  0  0  0  0  0  0  0  0  0
  153.7777  138.0215  154.7175 H   0  0  0  0  0  0  0  0  0  0  0  0
  153.1938  141.5790  161.0735 H   0  0  0  0  0  0  0  0  0  0  0  0
  154.2643  141.0507  159.7771 H   0  0  0  0  0  0  0  0  0  0  0  0
  152.7190  140.2463  160.0230 H   0  0  0  0  0  0  0  0  0  0  0  0
  152.6180  141.7798  158.0821 H   0  0  0  0  0  0  0  0  0  0  0  0
  153.2921  143.9817  160.0824 H   0  0  0  0  0  0  0  0  0  0  0  0
  154.3225  143.4240  158.7868 H   0  0  0  0  0  0  0  0  0  0  0  0
  153.1221  145.5199  158.1644 H   0  0  0  0  0  0  0  0  0  0  0  0
  152.7169  144.2059  157.0895 H   0  0  0  0  0  0  0  0  0  0  0  0
  151.0339  145.2263  159.4266 H   0  0  0  0  0  0  0  0  0  0  0  0
  150.6562  145.4255  157.7366 H   0  0  0  0  0  0  0  0  0  0  0  0
  149.3572  143.6017  158.8681 H   0  0  0  0  0  0  0  0  0  0  0  0
  150.6791  143.3858  156.3917 H   0  0  0  0  0  0  0  0  0  0  0  0
  148.5609  141.4497  154.9022 H   0  0  0  0  0  0  0  0  0  0  0  0
  150.1440  142.1550  154.7750 H   0  0  0  0  0  0  0  0  0  0  0  0
  151.9469  136.7625  154.4031 H   0  0  0  0  0  0  0  0  0  0  0  0
  149.5090  136.8237  154.3973 H   0  0  0  0  0  0  0  0  0  0  0  0
  150.5403  141.4386  159.4002 H   0  0  0  0  0  0  0  0  0  0  0  0
  150.9690  142.7581  160.4511 H   0  0  0  0  0  0  0  0  0  0  0  0
  1  2  1  0  0  0  0
  1 21  1  0  0  0  0
  1 22  1  0  0  0  0
  1 23  1  0  0  0  0
  2 19  1  0  0  0  0
  2  3  1  0  0  0  0
  2 24  1  0  0  0  0
  3  4  1  0  0  0  0
  3 25  1  0  0  0  0
  3 26  1  0  0  0  0
  4  5  1  0  0  0  0
  4 27  1  0  0  0  0
  4 28  1  0  0  0  0
  5  6  1  0  0  0  0
  5 29  1  0  0  0  0
  5 30  1  0  0  0  0
  6  7  1  0  0  0  0
  6 19  1  0  0  0  0
  6 31  1  0  0  0  0
  7  8  1  0  0  0  0
  7 32  1  0  0  0  0
  8  9  2  0  0  0  0
  8 10  1  0  0  0  0
 10 33  1  0  0  0  0
 10 34  1  0  0  0  0
 10 11  1  0  0  0  0
 11 12  1  0  0  0  0
 11 17  1  0  0  0  0
 12 13  2  0  0  0  0
 13 14  1  0  0  0  0
 13 15  1  0  0  0  0
 14 20  1  0  0  0  0
 15 35  1  0  0  0  0
 15 16  2  0  0  0  0
 16 36  1  0  0  0  0
 16 17  1  0  0  0  0
 17 18  2  0  0  0  0
 19 37  1  0  0  0  0
 19 38  1  0  0  0  0
M  END
> <s_m_source_file>
AV-unprocessed.smi

> <i_m_source_file_index>
1484

> <i_lp_mmshare_version>
43012

> <i_f3d_flags>
0

> <s_epik_input>
W0NIM11bQ0BASF0xW0NIMl1bQ0gyXVtDSDJdW0NASF0oW0NIMl0xKVtOSF1DKD1PKVtDSDJdbjJbbkhdYyg9TylbY0hdW2NIXWMyPU8=

> <s_epik_cmdline>
J2VwaWtfcHl0aG9uJywgJy1waCcsICc3LjAnLCAnLXRuJywgJzgnLCAnLW1hJywgJzIwMCcsICctbWV0YWxfYmluZGluZycsICctaW1hZScsICc8aW5maWxlLm1hZT4nLCAnLW9tYWUnLCAnPG91dGZpbGUubWFlPic=

> <r_lp_tautomer_probability>
0.9996

> <r_epik_Ionization_Penalty>
2.10343

> <r_epik_Ionization_Penalty_Charging>
3.97871e-08

> <r_epik_Ionization_Penalty_Neutral>
2.10343

> <r_epik_State_Penalty>
1.67966

> <r_epik_Charging_Adjusted_Penalty>
1.67966

> <i_epik_Tot_Q>
0

> <i_epik_Tot_abs_Q>
0

> <r_epik_Metal_State_Penalty>
1.67966

> <b_epik_Metal_Only>
0

> <s_lp_Force_Field>
OPLS_2005

> <r_lp_Energy>
17.3635

> <b_lp_Chiralities_Consistent>
1

> <s_lp_Variant>
AV-unprocessed.smi:1484-5

> <Gold.Version>
5.8.1

> <Gold.Id.Protein>
6NUR|6NUR_protein|mol2

> <Gold.PLP.Fitness>
46.1837

> <Gold.PLP.PLP>
-41.2031

> <Gold.PLP.part.hbond>
-3.0000

> <Gold.PLP.part.metal>
0.0000

> <Gold.PLP.part.buried>
-4.1103

> <Gold.PLP.part.nonpolar>
-35.0245

> <Gold.PLP.part.repulsive>
0.1810

> <Gold.PLP.ligand.clash>
0.0000

> <Gold.PLP.ligand.torsion>
0.2977

> <Gold.PLP.Chemscore.Hbond>
1.8562

> <Gold.PLP.Chemscore.CHOScore>
0.0000

> <Gold.PLP.Chemscore.Metal>
0.0000

> <Gold.Chemscore.Hbonds>
donor molecule, donor type, donor heavy atom, donor atom, acceptor molecule, acceptor atom, score
      P1  H  7989  7998       L1    12  0.70
      P1  H  7997  8010       L1    14  1.00

> <Gold.PLP.Chemscore.Internal.Correction>
0.0075

> <Gold.Rescore>
     Score         DG    S(hbond)    S(metal)    S(lipo)     H(rot)  DE(clash)    DE(int)     intcor
     14.65     -15.14       1.18        0.00      97.95       2.24       0.10       0.40       ----

> <Gold.Chemscore.Fitness>
14.6465

> <Gold.Chemscore.DG>
-15.1445

> <Gold.Chemscore.ZeroCoef>
-5.4800

> <Gold.Chemscore.Hbond>
1.1808

> <Gold.Chemscore.Metal>
0.0000

> <Gold.Chemscore.Lipo>
97.9532

> <Gold.Chemscore.Internal_Hbond>
0.0000

> <Gold.Chemscore.DEClash>
0.0951

> <Gold.Chemscore.DEInternal>
0.4030

> <Gold.Chemscore.Rot>
2.2421

> <Gold.Chemscore.Internal.Correction>
   9.000000E+99

> <Gold.Chemscore.Hbonds>
donor molecule, donor type, donor heavy atom, donor atom, acceptor molecule, acceptor atom, score
      L1  H     7    32       P1  8028  0.02
      P1  H  7989  7998       L1    12  0.03
      P1  H  7997  8010       L1    14  0.96

> <Gold.Chemscore.Hbond.Weighted>
-3.9438

> <Gold.Chemscore.Metal.Weighted>
-0.0000

> <Gold.Chemscore.Lipo.Weighted>
-11.4605

> <Gold.Chemscore.Internal_Hbond.Weighted>
0.0000

> <Gold.Chemscore.DEClash.Weighted>
0.0951

> <Gold.Chemscore.DEInternal.Weighted>
0.4030

> <Gold.Chemscore.Rot.Weighted>
5.7398

> <Gold.Chemscore.Internal.Correction.Weighted>
   9.000000E+99

> <Gold.Protein.RotatedTorsions>
[ 6907 6896 6895 6894 ] final    9.00 input  -60.11 | X-H torsion
[ 7974 7965 7964 7962 ] final -162.22 input  175.53 | X-H torsion
[ 8008 7997 7996 7995 ] final  108.62 input   59.86 | X-H torsion
[ 10167 10162 10161 10158 ] final  -42.80 input  -65.29 | X-H torsion
[ 10718 10713 10712 10709 ] final   24.87 input   66.30 | X-H torsion
[ 10763 10752 10751 10750 ] final  104.66 input  -60.55 | X-H torsion
[ 11005 11000 10999 10996 ] final   44.91 input  -57.11 | X-H torsion

> <Gold.Protein.ActiveResidues>
 VAL166  LYS551  ARG553  GLY616  TRP617  ASP618  TYR619  PRO620  LYS621  CYS622 
 ASP623  PHE694  ASN695  SER759  ASP760  ASP761  ALA762  ILE779  LEU786  VAL792 
 PHE793  MET794  SER795  GLU796  ALA797  LYS798  CYS799  TRP800  GLU811  SER814 

> <Gold.Protein.RotatedAtoms>
  151.7151  135.0905  160.0274 H   0  0  0  0  0  0  0  0  0  0  0  0  # atno 6907 bound_to 6896
  152.3637  133.6325  159.6043 H   0  0  0  0  0  0  0  0  0  0  0  0  # atno 6908 bound_to 6896
  150.7623  133.9298  159.3465 H   0  0  0  0  0  0  0  0  0  0  0  0  # atno 6909 bound_to 6896
  144.7365  140.3285  143.6157 H   0  0  0  0  0  0  0  0  0  0  0  0  # atno 7974 bound_to 7965
  156.1917  140.3073  155.9345 H   0  0  0  0  0  0  0  0  0  0  0  0  # atno 8008 bound_to 7997
  155.3159  140.0453  157.3054 H   0  0  0  0  0  0  0  0  0  0  0  0  # atno 8009 bound_to 7997
  154.5460  140.2276  155.8572 H   0  0  0  0  0  0  0  0  0  0  0  0  # atno 8010 bound_to 7997
  140.6956  143.3017  151.3261 H   0  0  0  0  0  0  0  0  0  0  0  0  # atno 10167 bound_to 10162
  157.1856  130.6822  149.6130 H   0  0  0  0  0  0  0  0  0  0  0  0  # atno 10718 bound_to 10713
  153.3690  135.3935  155.1774 H   0  0  0  0  0  0  0  0  0  0  0  0  # atno 10763 bound_to 10752
  154.8691  135.3698  154.5002 H   0  0  0  0  0  0  0  0  0  0  0  0  # atno 10764 bound_to 10752
  153.5468  135.7083  153.5671 H   0  0  0  0  0  0  0  0  0  0  0  0  # atno 10765 bound_to 10752
  140.1508  134.4464  155.8383 H   0  0  0  0  0  0  0  0  0  0  0  0  # atno 11005 bound_to 11000
  145.7496  139.1789  143.2329 LP  0  0  0  0  0  0  0  0  0  0  0  0  # atno 17320 bound_to 7965
  146.1071  140.7474  142.9521 LP  0  0  0  0  0  0  0  0  0  0  0  0  # atno 17321 bound_to 7965
  139.6408  144.0543  152.2553 LP  0  0  0  0  0  0  0  0  0  0  0  0  # atno 17342 bound_to 10162
  140.0048  144.6267  150.7699 LP  0  0  0  0  0  0  0  0  0  0  0  0  # atno 17343 bound_to 10162
  155.9718  130.4632  150.6172 LP  0  0  0  0  0  0  0  0  0  0  0  0  # atno 17370 bound_to 10713
  157.3910  131.0795  151.1393 LP  0  0  0  0  0  0  0  0  0  0  0  0  # atno 17371 bound_to 10713
  141.2198  133.6871  156.7418 LP  0  0  0  0  0  0  0  0  0  0  0  0  # atno 17394 bound_to 11000
  140.2607  134.8469  157.3755 LP  0  0  0  0  0  0  0  0  0  0  0  0  # atno 17395 bound_to 11000

$$$$
