AV-unprocessed.smi:3255|AV-procd|sdf|12459|dock2
  -GOLD-   2272018353D 1   1.00000     0.00000
 Structure written by MMmdl.
 39 40  0  0  0  0  0  0  0  0  2 V2000
  148.4478  138.1716  156.0974 C   0  0  0  0  0  0  0  0  0  0  0  0
  148.5329  138.7540  154.6793 C   0  0  2  0  0  0  0  0  0  0  0  0
  147.9209  137.8121  153.7429 N   0  0  0  0  0  0  0  0  0  0  0  0
  146.6416  137.4125  153.7644 C   0  0  0  0  0  0  0  0  0  0  0  0
  145.8139  137.7842  154.5968 O   0  0  0  0  0  0  0  0  0  0  0  0
  146.3615  136.5796  152.7519 N   0  0  0  0  0  0  0  0  0  0  0  0
  145.0470  136.0049  152.4784 C   0  0  0  0  0  0  0  0  0  0  0  0
  144.8924  135.5713  151.0071 C   0  0  0  0  0  0  0  0  0  0  0  0
  145.2470  134.1666  150.7784 N   0  0  0  0  0  0  0  0  0  0  0  0
  144.4201  133.1596  150.3509 C   0  0  0  0  0  0  0  0  0  0  0  0
  145.1834  132.0218  150.3000 C   0  0  0  0  0  0  0  0  0  0  0  0
  146.4451  132.3840  150.6886 N   0  3  0  0  0  0  0  0  0  0  0  0
  146.4837  133.6901  150.9720 C   0  0  0  0  0  0  0  0  0  0  0  0
  149.9900  139.0577  154.2723 C   0  0  1  0  0  0  0  0  0  0  0  0
  150.7649  139.9560  155.2358 C   0  0  0  0  0  0  0  0  0  0  0  0
  152.2045  139.6516  154.8768 C   0  0  0  0  0  0  0  0  0  0  0  0
  152.1482  138.2088  154.3671 C   0  0  0  0  0  0  0  0  0  0  0  0
  150.7672  137.8688  154.2814 O   0  0  0  0  0  0  0  0  0  0  0  0
  148.8621  138.8627  156.8318 H   0  0  0  0  0  0  0  0  0  0  0  0
  148.9988  137.2338  156.1767 H   0  0  0  0  0  0  0  0  0  0  0  0
  147.4130  137.9757  156.3804 H   0  0  0  0  0  0  0  0  0  0  0  0
  147.9726  139.6906  154.6763 H   0  0  0  0  0  0  0  0  0  0  0  0
  148.5191  137.4479  153.0159 H   0  0  0  0  0  0  0  0  0  0  0  0
  147.1088  136.3300  152.1202 H   0  0  0  0  0  0  0  0  0  0  0  0
  144.9327  135.1317  153.1211 H   0  0  0  0  0  0  0  0  0  0  0  0
  144.2513  136.6946  152.7652 H   0  0  0  0  0  0  0  0  0  0  0  0
  143.8675  135.7251  150.6668 H   0  0  0  0  0  0  0  0  0  0  0  0
  145.5329  136.1794  150.3672 H   0  0  0  0  0  0  0  0  0  0  0  0
  143.3747  133.3202  150.1303 H   0  0  0  0  0  0  0  0  0  0  0  0
  144.9293  131.0084  150.0250 H   0  0  0  0  0  0  0  0  0  0  0  0
  147.3411  134.2459  151.3071 H   0  0  0  0  0  0  0  0  0  0  0  0
  150.0229  139.4883  153.2695 H   0  0  0  0  0  0  0  0  0  0  0  0
  150.5173  141.0117  155.1256 H   0  0  0  0  0  0  0  0  0  0  0  0
  150.5698  139.6639  156.2687 H   0  0  0  0  0  0  0  0  0  0  0  0
  152.5404  140.3147  154.0786 H   0  0  0  0  0  0  0  0  0  0  0  0
  152.8798  139.7740  155.7241 H   0  0  0  0  0  0  0  0  0  0  0  0
  152.6178  138.1228  153.3867 H   0  0  0  0  0  0  0  0  0  0  0  0
  152.6516  137.5197  155.0456 H   0  0  0  0  0  0  0  0  0  0  0  0
  147.2356  131.7555  150.7566 H   0  0  0  0  0  0  0  0  0  0  0  0
  1  2  1  0  0  0  0
  1 19  1  0  0  0  0
  1 20  1  0  0  0  0
  1 21  1  0  0  0  0
  2  3  1  0  0  0  0
  2 14  1  0  0  0  0
  2 22  1  0  0  0  0
  3  4  1  0  0  0  0
  3 23  1  0  0  0  0
  4  5  2  0  0  0  0
  4  6  1  0  0  0  0
  6  7  1  0  0  0  0
  6 24  1  0  0  0  0
  7  8  1  0  0  0  0
  7 25  1  0  0  0  0
  7 26  1  0  0  0  0
  8  9  1  0  0  0  0
  8 27  1  0  0  0  0
  8 28  1  0  0  0  0
  9 13  1  0  0  0  0
  9 10  1  0  0  0  0
 10 11  2  0  0  0  0
 10 29  1  0  0  0  0
 11 12  1  0  0  0  0
 11 30  1  0  0  0  0
 12 13  2  0  0  0  0
 12 39  1  0  0  0  0
 13 31  1  0  0  0  0
 14 18  1  0  0  0  0
 14 15  1  0  0  0  0
 14 32  1  0  0  0  0
 15 16  1  0  0  0  0
 15 33  1  0  0  0  0
 15 34  1  0  0  0  0
 16 17  1  0  0  0  0
 16 35  1  0  0  0  0
 16 36  1  0  0  0  0
 17 18  1  0  0  0  0
 17 37  1  0  0  0  0
 17 38  1  0  0  0  0
M  CHG  1  12   1
M  END
> <s_m_source_file>
AV-unprocessed.smi

> <i_m_source_file_index>
3255

> <i_lp_mmshare_version>
43012

> <i_f3d_flags>
0

> <s_epik_input>
TzFbQ0gyXVtDSDJdW0NIMl1bQ0BIXTFbQ0BIXShbQ0gzXSlbTkhdQyg9TylbTkhdW0NIMl1bQ0gyXW4yW2NIXVtjSF1uW2NIXTI=

> <s_epik_cmdline>
J2VwaWtfcHl0aG9uJywgJy1waCcsICc3LjAnLCAnLXRuJywgJzgnLCAnLW1hJywgJzIwMCcsICctbWV0YWxfYmluZGluZycsICctaW1hZScsICc8aW5maWxlLm1hZT4nLCAnLW9tYWUnLCAnPG91dGZpbGUubWFlPic=

> <r_lp_tautomer_probability>
1

> <r_epik_Ionization_Penalty>
0.256241

> <r_epik_Ionization_Penalty_Charging>
0

> <r_epik_Ionization_Penalty_Neutral>
0.256241

> <r_epik_State_Penalty>
0.247735

> <r_epik_Charging_Adjusted_Penalty>
0.247735

> <i_epik_Tot_Q>
1

> <i_epik_Tot_abs_Q>
1

> <r_epik_Metal_State_Penalty>
0.537184

> <b_epik_Metal_Only>
0

> <s_lp_Force_Field>
OPLS_2005

> <r_lp_Energy>
17.3031

> <b_lp_Chiralities_Consistent>
1

> <s_lp_Variant>
AV-unprocessed.smi:3255-3

> <Gold.Version>
5.8.1

> <Gold.Id.Protein>
6NUR|6NUR_protein|mol2

> <Gold.PLP.Fitness>
44.4417

> <Gold.PLP.PLP>
-31.4151

> <Gold.PLP.part.hbond>
-3.0000

> <Gold.PLP.part.metal>
0.0000

> <Gold.PLP.part.buried>
-2.9484

> <Gold.PLP.part.nonpolar>
-25.1109

> <Gold.PLP.part.repulsive>
0.4094

> <Gold.PLP.ligand.clash>
0.0000

> <Gold.PLP.ligand.torsion>
0.4128

> <Gold.PLP.Chemscore.Hbond>
2.9673

> <Gold.PLP.Chemscore.CHOScore>
1.6235

> <Gold.PLP.Chemscore.Metal>
0.0000

> <Gold.Chemscore.Hbonds>
donor molecule, donor type, donor heavy atom, donor atom, acceptor molecule, acceptor atom, score
      L1  H     3    23       P1  7948  1.00
      L1  H     6    24       P1  7948  0.96
      L1  H    12    39       P1 10747  1.00
      L1  C    10    29       P1 10186  0.64
      L1  C    13    31       P1  7948  0.79

> <Gold.PLP.Chemscore.Internal.Correction>
0.0800

> <Gold.Rescore>
     Score         DG    S(hbond)    S(metal)    S(lipo)     H(rot)  DE(clash)    DE(int)     intcor
     15.31     -16.88       2.87        0.00      64.95       2.26       0.11       1.45       ----

> <Gold.Chemscore.Fitness>
15.3092

> <Gold.Chemscore.DG>
-16.8768

> <Gold.Chemscore.ZeroCoef>
-5.4800

> <Gold.Chemscore.Hbond>
2.8723

> <Gold.Chemscore.Metal>
0.0000

> <Gold.Chemscore.Lipo>
64.9498

> <Gold.Chemscore.Internal_Hbond>
0.0000

> <Gold.Chemscore.DEClash>
0.1135

> <Gold.Chemscore.DEInternal>
1.4540

> <Gold.Chemscore.Rot>
2.2640

> <Gold.Chemscore.Internal.Correction>
   9.000000E+99

> <Gold.Chemscore.Hbonds>
donor molecule, donor type, donor heavy atom, donor atom, acceptor molecule, acceptor atom, score
      L1  H     3    23       P1  7948  0.97
      L1  H     6    24       P1  7948  0.92
      L1  H    12    39       P1 10747  0.94

> <Gold.Chemscore.Hbond.Weighted>
-9.5934

> <Gold.Chemscore.Metal.Weighted>
-0.0000

> <Gold.Chemscore.Lipo.Weighted>
-7.5991

> <Gold.Chemscore.Internal_Hbond.Weighted>
0.0000

> <Gold.Chemscore.DEClash.Weighted>
0.1135

> <Gold.Chemscore.DEInternal.Weighted>
1.4540

> <Gold.Chemscore.Rot.Weighted>
5.7958

> <Gold.Chemscore.Internal.Correction.Weighted>
   9.000000E+99

> <Gold.Protein.RotatedTorsions>
[ 6907 6896 6895 6894 ] final   -5.27 input  -60.11 | X-H torsion
[ 7974 7965 7964 7962 ] final -160.32 input  175.53 | X-H torsion
[ 8008 7997 7996 7995 ] final -158.78 input   59.86 | X-H torsion
[ 10167 10162 10161 10158 ] final   45.81 input  -65.29 | X-H torsion
[ 10718 10713 10712 10709 ] final -134.00 input   66.30 | X-H torsion
[ 10763 10752 10751 10750 ] final   37.25 input  -60.55 | X-H torsion
[ 11005 11000 10999 10996 ] final -101.69 input  -57.11 | X-H torsion

> <Gold.Protein.ActiveResidues>
 VAL166  LYS551  ARG553  GLY616  TRP617  ASP618  TYR619  PRO620  LYS621  CYS622 
 ASP623  PHE694  ASN695  SER759  ASP760  ASP761  ALA762  ILE779  LEU786  VAL792 
 PHE793  MET794  SER795  GLU796  ALA797  LYS798  CYS799  TRP800  GLU811  SER814 

> <Gold.Protein.RotatedAtoms>
  151.4843  135.1054  159.9785 H   0  0  0  0  0  0  0  0  0  0  0  0  # atno 6907 bound_to 6896
  152.4767  133.8151  159.7034 H   0  0  0  0  0  0  0  0  0  0  0  0  # atno 6908 bound_to 6896
  150.8809  133.7311  159.2958 H   0  0  0  0  0  0  0  0  0  0  0  0  # atno 6909 bound_to 6896
  144.7431  140.3559  143.6106 H   0  0  0  0  0  0  0  0  0  0  0  0  # atno 7974 bound_to 7965
  155.7527  140.0829  157.2193 H   0  0  0  0  0  0  0  0  0  0  0  0  # atno 8008 bound_to 7997
  154.4010  140.1557  156.2799 H   0  0  0  0  0  0  0  0  0  0  0  0  # atno 8009 bound_to 7997
  155.8915  140.3415  155.5962 H   0  0  0  0  0  0  0  0  0  0  0  0  # atno 8010 bound_to 7997
  140.3203  144.2713  150.6184 H   0  0  0  0  0  0  0  0  0  0  0  0  # atno 10167 bound_to 10162
  156.2508  130.7152  151.1050 H   0  0  0  0  0  0  0  0  0  0  0  0  # atno 10718 bound_to 10713
  153.0045  135.6283  154.2115 H   0  0  0  0  0  0  0  0  0  0  0  0  # atno 10763 bound_to 10752
  154.1858  135.2811  155.3039 H   0  0  0  0  0  0  0  0  0  0  0  0  # atno 10764 bound_to 10752
  154.5799  135.5650  153.7234 H   0  0  0  0  0  0  0  0  0  0  0  0  # atno 10765 bound_to 10752
  141.1220  133.8498  157.1265 H   0  0  0  0  0  0  0  0  0  0  0  0  # atno 11005 bound_to 11000
  145.7228  139.1714  143.2475 LP  0  0  0  0  0  0  0  0  0  0  0  0  # atno 17320 bound_to 7965
  146.1265  140.7242  142.9433 LP  0  0  0  0  0  0  0  0  0  0  0  0  # atno 17321 bound_to 7965
  140.5489  143.2210  151.7960 LP  0  0  0  0  0  0  0  0  0  0  0  0  # atno 17342 bound_to 10162
  139.4875  144.4503  151.9662 LP  0  0  0  0  0  0  0  0  0  0  0  0  # atno 17343 bound_to 10162
  157.7214  131.0679  150.6121 LP  0  0  0  0  0  0  0  0  0  0  0  0  # atno 17370 bound_to 10713
  156.6200  130.4403  149.5826 LP  0  0  0  0  0  0  0  0  0  0  0  0  # atno 17371 bound_to 10713
  140.0185  134.9956  157.0544 LP  0  0  0  0  0  0  0  0  0  0  0  0  # atno 17394 bound_to 11000
  140.4479  134.1613  155.7179 LP  0  0  0  0  0  0  0  0  0  0  0  0  # atno 17395 bound_to 11000

$$$$
