AV-unprocessed.smi:1039|AV-procd|sdf|4522|dock10
  -GOLD-   22720 2543D 1   1.00000     0.00000
 Structure written by MMmdl.
 40 41  0  0  0  0  0  0  0  0  1 V2000
  148.8358  141.2328  154.0647 C   0  0  0  0  0  0  0  0  0  0  0  0
  149.2032  140.0004  154.9022 C   0  0  0  0  0  0  0  0  0  0  0  0
  149.1686  140.3070  156.4152 C   0  0  0  0  0  0  0  0  0  0  0  0
  149.6414  139.0968  157.2409 C   0  0  0  0  0  0  0  0  0  0  0  0
  150.9934  138.7174  156.7950 N   0  0  0  0  0  0  0  0  0  0  0  0
  152.1520  138.9902  157.4464 C   0  0  0  0  0  0  0  0  0  0  0  0
  153.2650  138.7242  156.9906 O   0  0  0  0  0  0  0  0  0  0  0  0
  151.9918  139.5357  158.6617 N   0  0  0  0  0  0  0  0  0  0  0  0
  153.0729  139.9497  159.5469 C   0  0  0  0  0  0  0  0  0  0  0  0
  153.3937  141.4470  159.3917 C   0  0  0  0  0  0  0  0  0  0  0  0
  153.1364  142.2514  160.6329 C   0  0  0  0  0  0  0  0  0  0  0  0
  153.5281  141.8684  161.8443 N   0  0  0  0  0  0  0  0  0  0  0  0
  153.1221  142.8931  162.6908 C   0  0  0  0  0  0  0  0  0  0  0  0
  152.4894  143.8659  161.9562 C   0  0  0  0  0  0  0  0  0  0  0  0
  152.4957  143.4387  160.6330 N   0  0  0  0  0  0  0  0  0  0  0  0
  151.9261  144.1475  159.4973 C   0  0  0  0  0  0  0  0  0  0  0  0
  151.4625  145.3406  159.8710 F   0  0  0  0  0  0  0  0  0  0  0  0
  152.8453  144.3061  158.5461 F   0  0  0  0  0  0  0  0  0  0  0  0
  150.9793  138.2490  155.4039 C   0  0  0  0  0  0  0  0  0  0  0  0
  150.5712  139.4168  154.4874 C   0  0  0  0  0  0  0  0  0  0  0  0
  149.5518  142.0415  154.2145 H   0  0  0  0  0  0  0  0  0  0  0  0
  147.8480  141.6088  154.3323 H   0  0  0  0  0  0  0  0  0  0  0  0
  148.8212  140.9939  153.0010 H   0  0  0  0  0  0  0  0  0  0  0  0
  148.4501  139.2355  154.7076 H   0  0  0  0  0  0  0  0  0  0  0  0
  149.8066  141.1643  156.6350 H   0  0  0  0  0  0  0  0  0  0  0  0
  148.1592  140.5885  156.7168 H   0  0  0  0  0  0  0  0  0  0  0  0
  149.5738  139.3333  158.3026 H   0  0  0  0  0  0  0  0  0  0  0  0
  148.9642  138.2549  157.0892 H   0  0  0  0  0  0  0  0  0  0  0  0
  151.0494  139.7057  158.9818 H   0  0  0  0  0  0  0  0  0  0  0  0
  152.8226  139.7278  160.5854 H   0  0  0  0  0  0  0  0  0  0  0  0
  153.9564  139.3596  159.2990 H   0  0  0  0  0  0  0  0  0  0  0  0
  154.4328  141.5629  159.0861 H   0  0  0  0  0  0  0  0  0  0  0  0
  152.7973  141.8645  158.5799 H   0  0  0  0  0  0  0  0  0  0  0  0
  153.3157  142.8527  163.7524 H   0  0  0  0  0  0  0  0  0  0  0  0
  152.0440  144.8012  162.2619 H   0  0  0  0  0  0  0  0  0  0  0  0
  151.0888  143.5857  159.0831 H   0  0  0  0  0  0  0  0  0  0  0  0
  151.9418  137.8435  155.0888 H   0  0  0  0  0  0  0  0  0  0  0  0
  150.2676  137.4283  155.3055 H   0  0  0  0  0  0  0  0  0  0  0  0
  150.5344  139.0783  153.4515 H   0  0  0  0  0  0  0  0  0  0  0  0
  151.3350  140.1947  154.5316 H   0  0  0  0  0  0  0  0  0  0  0  0
  1  2  1  0  0  0  0
  1 21  1  0  0  0  0
  1 22  1  0  0  0  0
  1 23  1  0  0  0  0
  2 20  1  0  0  0  0
  2  3  1  0  0  0  0
  2 24  1  0  0  0  0
  3  4  1  0  0  0  0
  3 25  1  0  0  0  0
  3 26  1  0  0  0  0
  4  5  1  0  0  0  0
  4 27  1  0  0  0  0
  4 28  1  0  0  0  0
  5  6  1  0  0  0  0
  5 19  1  0  0  0  0
  6  7  2  0  0  0  0
  6  8  1  0  0  0  0
  8  9  1  0  0  0  0
  8 29  1  0  0  0  0
  9 10  1  0  0  0  0
  9 30  1  0  0  0  0
  9 31  1  0  0  0  0
 10 11  1  0  0  0  0
 10 32  1  0  0  0  0
 10 33  1  0  0  0  0
 11 15  1  0  0  0  0
 11 12  2  0  0  0  0
 12 13  1  0  0  0  0
 13 14  2  0  0  0  0
 13 34  1  0  0  0  0
 14 15  1  0  0  0  0
 14 35  1  0  0  0  0
 15 16  1  0  0  0  0
 16 17  1  0  0  0  0
 16 18  1  0  0  0  0
 16 36  1  0  0  0  0
 19 20  1  0  0  0  0
 19 37  1  0  0  0  0
 19 38  1  0  0  0  0
 20 39  1  0  0  0  0
 20 40  1  0  0  0  0
M  END
> <s_m_source_file>
AV-unprocessed.smi

> <i_m_source_file_index>
1039

> <i_lp_mmshare_version>
43012

> <i_f3d_flags>
0

> <s_epik_input>
W0NIM11bQ0hdMVtDSDJdW0NIMl1OKFtDSDJdW0NIMl0xKUMoPU8pW05IXVtDSDJdW0NIMl1jMm5bY0hdW2NIXW4yW0NIXShGKUY=

> <s_epik_cmdline>
J2VwaWtfcHl0aG9uJywgJy1waCcsICc3LjAnLCAnLXRuJywgJzgnLCAnLW1hJywgJzIwMCcsICctbWV0YWxfYmluZGluZycsICctaW1hZScsICc8aW5maWxlLm1hZT4nLCAnLW9tYWUnLCAnPG91dGZpbGUubWFlPic=

> <r_lp_tautomer_probability>
1

> <r_epik_Ionization_Penalty>
0.101783

> <r_epik_Ionization_Penalty_Charging>
0.101715

> <r_epik_Ionization_Penalty_Neutral>
6.87123e-05

> <r_epik_State_Penalty>
0.091697

> <r_epik_Charging_Adjusted_Penalty>
0.193412

> <i_epik_Tot_Q>
0

> <i_epik_Tot_abs_Q>
0

> <r_epik_Metal_State_Penalty>
0.0781553

> <b_epik_Metal_Only>
0

> <s_lp_Force_Field>
OPLS_2005

> <r_lp_Energy>
33.8957

> <b_lp_Chiralities_Consistent>
1

> <s_lp_Variant>
AV-unprocessed.smi:1039-1

> <Gold.Version>
5.8.1

> <Gold.Id.Protein>
6NUR|6NUR_protein|mol2

> <Gold.PLP.Fitness>
49.5712

> <Gold.PLP.PLP>
-48.1104

> <Gold.PLP.part.hbond>
-1.0000

> <Gold.PLP.part.metal>
0.0000

> <Gold.PLP.part.buried>
-5.0986

> <Gold.PLP.part.nonpolar>
-40.8716

> <Gold.PLP.part.repulsive>
0.1274

> <Gold.PLP.ligand.clash>
0.0000

> <Gold.PLP.ligand.torsion>
0.7958

> <Gold.PLP.Chemscore.Hbond>
1.0000

> <Gold.PLP.Chemscore.CHOScore>
0.0000

> <Gold.PLP.Chemscore.Metal>
0.0000

> <Gold.Chemscore.Hbonds>
donor molecule, donor type, donor heavy atom, donor atom, acceptor molecule, acceptor atom, score
      P1  H  7997  8009       L1     7  1.00

> <Gold.PLP.Chemscore.Internal.Correction>
0.0523

> <Gold.Rescore>
     Score         DG    S(hbond)    S(metal)    S(lipo)     H(rot)  DE(clash)    DE(int)     intcor
     14.23     -14.92       0.98        0.00      86.85       1.56       0.04       0.65       ----

> <Gold.Chemscore.Fitness>
14.2332

> <Gold.Chemscore.DG>
-14.9199

> <Gold.Chemscore.ZeroCoef>
-5.4800

> <Gold.Chemscore.Hbond>
0.9818

> <Gold.Chemscore.Metal>
0.0000

> <Gold.Chemscore.Lipo>
86.8473

> <Gold.Chemscore.Internal_Hbond>
0.0000

> <Gold.Chemscore.DEClash>
0.0405

> <Gold.Chemscore.DEInternal>
0.6462

> <Gold.Chemscore.Rot>
1.5626

> <Gold.Chemscore.Internal.Correction>
   9.000000E+99

> <Gold.Chemscore.Hbonds>
donor molecule, donor type, donor heavy atom, donor atom, acceptor molecule, acceptor atom, score
      P1  H  7997  8009       L1     7  0.95

> <Gold.Chemscore.Hbond.Weighted>
-3.2791

> <Gold.Chemscore.Metal.Weighted>
-0.0000

> <Gold.Chemscore.Lipo.Weighted>
-10.1611

> <Gold.Chemscore.Internal_Hbond.Weighted>
0.0000

> <Gold.Chemscore.DEClash.Weighted>
0.0405

> <Gold.Chemscore.DEInternal.Weighted>
0.6462

> <Gold.Chemscore.Rot.Weighted>
4.0004

> <Gold.Chemscore.Internal.Correction.Weighted>
   9.000000E+99

> <Gold.Protein.RotatedTorsions>
[ 6907 6896 6895 6894 ] final -107.49 input  -60.11 | X-H torsion
[ 7974 7965 7964 7962 ] final  109.63 input  175.53 | X-H torsion
[ 8008 7997 7996 7995 ] final  169.63 input   59.86 | X-H torsion
[ 10167 10162 10161 10158 ] final   56.75 input  -65.29 | X-H torsion
[ 10718 10713 10712 10709 ] final -159.65 input   66.30 | X-H torsion
[ 10763 10752 10751 10750 ] final -123.86 input  -60.55 | X-H torsion
[ 11005 11000 10999 10996 ] final   87.94 input  -57.11 | X-H torsion

> <Gold.Protein.ActiveResidues>
 VAL166  LYS551  ARG553  GLY616  TRP617  ASP618  TYR619  PRO620  LYS621  CYS622 
 ASP623  PHE694  ASN695  SER759  ASP760  ASP761  ALA762  ILE779  LEU786  VAL792 
 PHE793  MET794  SER795  GLU796  ALA797  LYS798  CYS799  TRP800  GLU811  SER814 

> <Gold.Protein.RotatedAtoms>
  150.7447  133.9818  159.3578 H   0  0  0  0  0  0  0  0  0  0  0  0  # atno 6907 bound_to 6896
  151.7760  135.0772  160.0376 H   0  0  0  0  0  0  0  0  0  0  0  0  # atno 6908 bound_to 6896
  152.3307  133.5918  159.5843 H   0  0  0  0  0  0  0  0  0  0  0  0  # atno 6909 bound_to 6896
  145.2653  139.2687  143.3995 H   0  0  0  0  0  0  0  0  0  0  0  0  # atno 7974 bound_to 7965
  156.1440  140.1559  156.8876 H   0  0  0  0  0  0  0  0  0  0  0  0  # atno 8008 bound_to 7997
  154.5012  140.0825  156.7839 H   0  0  0  0  0  0  0  0  0  0  0  0  # atno 8009 bound_to 7997
  155.4024  140.3415  155.4260 H   0  0  0  0  0  0  0  0  0  0  0  0  # atno 8010 bound_to 7997
  140.2053  144.3945  150.6511 H   0  0  0  0  0  0  0  0  0  0  0  0  # atno 10167 bound_to 10162
  156.5711  130.8688  151.2838 H   0  0  0  0  0  0  0  0  0  0  0  0  # atno 10718 bound_to 10713
  154.8714  135.4083  154.3013 H   0  0  0  0  0  0  0  0  0  0  0  0  # atno 10763 bound_to 10752
  153.3872  135.7013  153.6527 H   0  0  0  0  0  0  0  0  0  0  0  0  # atno 10764 bound_to 10752
  153.5325  135.3664  155.2653 H   0  0  0  0  0  0  0  0  0  0  0  0  # atno 10765 bound_to 10752
  139.8908  134.8455  156.2930 H   0  0  0  0  0  0  0  0  0  0  0  0  # atno 11005 bound_to 11000
  146.3263  140.3082  142.8625 LP  0  0  0  0  0  0  0  0  0  0  0  0  # atno 17320 bound_to 7965
  144.9382  140.8049  143.5647 LP  0  0  0  0  0  0  0  0  0  0  0  0  # atno 17321 bound_to 7965
  140.6361  143.2195  151.6391 LP  0  0  0  0  0  0  0  0  0  0  0  0  # atno 17342 bound_to 10162
  139.5201  144.3234  152.0891 LP  0  0  0  0  0  0  0  0  0  0  0  0  # atno 17343 bound_to 10162
  157.7348  130.9752  150.2047 LP  0  0  0  0  0  0  0  0  0  0  0  0  # atno 17370 bound_to 10713
  156.2714  130.3722  149.8028 LP  0  0  0  0  0  0  0  0  0  0  0  0  # atno 17371 bound_to 10713
  140.9964  133.7178  156.0892 LP  0  0  0  0  0  0  0  0  0  0  0  0  # atno 17394 bound_to 11000
  140.7557  134.3995  157.5534 LP  0  0  0  0  0  0  0  0  0  0  0  0  # atno 17395 bound_to 11000

$$$$
