AV-unprocessed.smi:45|AV-procd|sdf|407|dock3
  -GOLD-   2262016263D 1   1.00000     0.00000
 Structure written by MMmdl.
 60 63  0  0  0  0  0  0  0  0  1 V2000
  145.6690  132.7708  161.9194 C   0  0  0  0  0  0  0  0  0  0  0  0
  146.5013  133.9171  162.0191 O   0  0  0  0  0  0  0  0  0  0  0  0
  147.0978  134.3915  160.8692 C   0  0  0  0  0  0  0  0  0  0  0  0
  147.0292  133.7300  159.6171 C   0  0  0  0  0  0  0  0  0  0  0  0
  147.6719  134.2671  158.4864 C   0  0  0  0  0  0  0  0  0  0  0  0
  148.3890  135.4750  158.5861 C   0  0  0  0  0  0  0  0  0  0  0  0
  149.1264  136.0250  157.3769 C   0  0  0  0  0  0  0  0  0  0  0  0
  149.9547  137.1869  157.6756 N   0  0  0  0  0  0  0  0  0  0  0  0
  150.3421  137.9578  156.5678 C   0  0  0  0  0  0  0  0  0  0  0  0
  149.3603  138.6075  155.8996 N   0  0  0  0  0  0  0  0  0  0  0  0
  149.7047  139.3914  154.8726 C   0  0  0  0  0  0  0  0  0  0  0  0
  148.6707  140.0640  154.2227 N   0  0  0  0  0  0  0  0  0  0  0  0
  148.6488  141.5190  154.1229 C   0  0  0  0  0  0  0  0  0  0  0  0
  147.1743  141.9141  154.0709 C   0  0  0  0  0  0  0  0  0  0  0  0
  146.5192  140.7003  153.4252 C   0  0  0  0  0  0  0  0  0  0  0  0
  147.3358  139.5191  153.9699 C   0  0  1  0  0  0  0  0  0  0  0  0
  147.3418  138.3127  153.0074 C   0  0  0  0  0  0  0  0  0  0  0  0
  147.7084  138.7298  151.7094 O   0  0  0  0  0  0  0  0  0  0  0  0
  150.9507  139.5789  154.4267 N   0  0  0  0  0  0  0  0  0  0  0  0
  151.9454  138.9402  155.0769 C   0  0  0  0  0  0  0  0  0  0  0  0
  151.7044  138.1064  156.1927 C   0  0  0  0  0  0  0  0  0  0  0  0
  152.8399  137.4367  156.9188 C   0  0  0  0  0  0  0  0  0  0  0  0
  152.6511  136.7971  157.9539 O   0  0  0  0  0  0  0  0  0  0  0  0
  154.0551  137.6423  156.3862 N   0  0  0  0  0  0  0  0  0  0  0  0
  155.3117  137.1856  156.9666 C   0  0  0  0  0  0  0  0  0  0  0  0
  156.4298  137.1274  155.9410 C   0  0  0  0  0  0  0  0  0  0  0  0
  156.7151  135.9237  155.4329 N   0  0  0  0  0  0  0  0  0  0  0  0
  157.7173  135.8639  154.5294 C   0  0  0  0  0  0  0  0  0  0  0  0
  158.4255  137.0152  154.1301 C   0  0  0  0  0  0  0  0  0  0  0  0
  158.0304  138.2289  154.7278 C   0  0  0  0  0  0  0  0  0  0  0  0
  157.0313  138.2819  155.6350 N   0  0  0  0  0  0  0  0  0  0  0  0
  148.4556  136.1438  159.8238 C   0  0  0  0  0  0  0  0  0  0  0  0
  147.8173  135.6047  160.9573 C   0  0  0  0  0  0  0  0  0  0  0  0
  147.9363  136.4395  162.4646 Cl  0  0  0  0  0  0  0  0  0  0  0  0
  146.9213  139.2172  154.9330 H   0  0  0  0  0  0  0  0  0  0  0  0
  145.2873  132.5171  162.9082 H   0  0  0  0  0  0  0  0  0  0  0  0
  146.2237  131.9075  161.5491 H   0  0  0  0  0  0  0  0  0  0  0  0
  144.8101  132.9542  161.2722 H   0  0  0  0  0  0  0  0  0  0  0  0
  146.4922  132.8030  159.4980 H   0  0  0  0  0  0  0  0  0  0  0  0
  147.6233  133.7417  157.5437 H   0  0  0  0  0  0  0  0  0  0  0  0
  149.7696  135.2406  156.9776 H   0  0  0  0  0  0  0  0  0  0  0  0
  148.4177  136.2734  156.5858 H   0  0  0  0  0  0  0  0  0  0  0  0
  149.6128  137.7352  158.4526 H   0  0  0  0  0  0  0  0  0  0  0  0
  149.1520  141.9975  154.9642 H   0  0  0  0  0  0  0  0  0  0  0  0
  149.1616  141.8147  153.2070 H   0  0  0  0  0  0  0  0  0  0  0  0
  146.7897  142.0444  155.0833 H   0  0  0  0  0  0  0  0  0  0  0  0
  147.0014  142.8389  153.5202 H   0  0  0  0  0  0  0  0  0  0  0  0
  145.4560  140.6197  153.6534 H   0  0  0  0  0  0  0  0  0  0  0  0
  146.6245  140.7698  152.3414 H   0  0  0  0  0  0  0  0  0  0  0  0
  148.0364  137.5446  153.3489 H   0  0  0  0  0  0  0  0  0  0  0  0
  146.3608  137.8447  152.9404 H   0  0  0  0  0  0  0  0  0  0  0  0
  148.3481  139.4212  151.7859 H   0  0  0  0  0  0  0  0  0  0  0  0
  152.9447  139.1117  154.7042 H   0  0  0  0  0  0  0  0  0  0  0  0
  154.1217  138.1989  155.5466 H   0  0  0  0  0  0  0  0  0  0  0  0
  155.6073  137.8193  157.8051 H   0  0  0  0  0  0  0  0  0  0  0  0
  155.1520  136.1908  157.3844 H   0  0  0  0  0  0  0  0  0  0  0  0
  157.9512  134.8934  154.1176 H   0  0  0  0  0  0  0  0  0  0  0  0
  159.2237  136.9704  153.4044 H   0  0  0  0  0  0  0  0  0  0  0  0
  158.5170  139.1598  154.4769 H   0  0  0  0  0  0  0  0  0  0  0  0
  149.0143  137.0644  159.9111 H   0  0  0  0  0  0  0  0  0  0  0  0
  1  2  1  0  0  0  0
  1 36  1  0  0  0  0
  1 37  1  0  0  0  0
  1 38  1  0  0  0  0
  2  3  1  0  0  0  0
  3 33  1  0  0  0  0
  3  4  2  0  0  0  0
  4  5  1  0  0  0  0
  4 39  1  0  0  0  0
  5  6  2  0  0  0  0
  5 40  1  0  0  0  0
  6  7  1  0  0  0  0
  6 32  1  0  0  0  0
  7  8  1  0  0  0  0
  7 41  1  0  0  0  0
  7 42  1  0  0  0  0
  8  9  1  0  0  0  0
  8 43  1  0  0  0  0
  9 21  1  0  0  0  0
  9 10  2  0  0  0  0
 10 11  1  0  0  0  0
 11 12  1  0  0  0  0
 11 19  2  0  0  0  0
 12 16  1  0  0  0  0
 12 13  1  0  0  0  0
 13 14  1  0  0  0  0
 13 44  1  0  0  0  0
 13 45  1  0  0  0  0
 14 15  1  0  0  0  0
 14 46  1  0  0  0  0
 14 47  1  0  0  0  0
 15 16  1  0  0  0  0
 15 48  1  0  0  0  0
 15 49  1  0  0  0  0
 16 35  1  0  0  0  0
 16 17  1  0  0  0  0
 17 18  1  0  0  0  0
 17 50  1  0  0  0  0
 17 51  1  0  0  0  0
 18 52  1  0  0  0  0
 19 20  1  0  0  0  0
 20 21  2  0  0  0  0
 20 53  1  0  0  0  0
 21 22  1  0  0  0  0
 22 23  2  0  0  0  0
 22 24  1  0  0  0  0
 24 25  1  0  0  0  0
 24 54  1  0  0  0  0
 25 26  1  0  0  0  0
 25 55  1  0  0  0  0
 25 56  1  0  0  0  0
 26 31  1  0  0  0  0
 26 27  2  0  0  0  0
 27 28  1  0  0  0  0
 28 29  2  0  0  0  0
 28 57  1  0  0  0  0
 29 30  1  0  0  0  0
 29 58  1  0  0  0  0
 30 31  2  0  0  0  0
 30 59  1  0  0  0  0
 32 33  2  0  0  0  0
 32 60  1  0  0  0  0
 33 34  1  0  0  0  0
M  END
> <s_m_source_file>
AV-unprocessed.smi

> <i_m_source_file_index>
45

> <i_lp_mmshare_version>
43012

> <i_f3d_flags>
0

> <s_epik_input>
W0NIM11PYzFbY0hdW2NIXWMoW2NIXWMxQ2wpW0NIMl1bTkhdYzJuYyhOM1tDSDJdW0NIMl1bQ0gyXVtDQEhdM1tDSDJdW09IXSluW2NIXWMyQyg9TylbTkhdW0NIMl1jNG5bY0hdW2NIXVtjSF1uNA==

> <s_epik_cmdline>
J2VwaWtfcHl0aG9uJywgJy1waCcsICc3LjAnLCAnLXRuJywgJzgnLCAnLW1hJywgJzIwMCcsICctbWV0YWxfYmluZGluZycsICctaW1hZScsICc8aW5maWxlLm1hZT4nLCAnLW9tYWUnLCAnPG91dGZpbGUubWFlPic=

> <r_lp_tautomer_probability>
1

> <r_epik_Ionization_Penalty>
0.0522664

> <r_epik_Ionization_Penalty_Charging>
0

> <r_epik_Ionization_Penalty_Neutral>
0.0522664

> <r_epik_State_Penalty>
0.0369431

> <r_epik_Charging_Adjusted_Penalty>
0.0369431

> <i_epik_Tot_Q>
0

> <i_epik_Tot_abs_Q>
0

> <r_epik_Metal_State_Penalty>
0.0404664

> <b_epik_Metal_Only>
0

> <s_epik_Chemistry_Notes>
This compound contains an electron-poor aromatic ring that is susceptible to covalent hydrolysis at low pH, typically resulting in measured values for nitrogen ring protonation that are around two units higher than predicted values.

> <s_lp_Force_Field>
OPLS_2005

> <r_lp_Energy>
30.7934

> <b_lp_Chiralities_Consistent>
1

> <s_lp_Variant>
AV-unprocessed.smi:45-1

> <Gold.Version>
5.8.1

> <Gold.Id.Protein>
6NUR|6NUR_protein|mol2

> <Gold.PLP.Fitness>
55.5339

> <Gold.PLP.PLP>
-45.6003

> <Gold.PLP.part.hbond>
-5.4992

> <Gold.PLP.part.metal>
0.0000

> <Gold.PLP.part.buried>
-0.2332

> <Gold.PLP.part.nonpolar>
-39.6279

> <Gold.PLP.part.repulsive>
0.7443

> <Gold.PLP.ligand.clash>
0.0000

> <Gold.PLP.ligand.torsion>
1.4629

> <Gold.PLP.Chemscore.Hbond>
4.0912

> <Gold.PLP.Chemscore.CHOScore>
0.0000

> <Gold.PLP.Chemscore.Metal>
0.0000

> <Gold.Chemscore.Hbonds>
donor molecule, donor type, donor heavy atom, donor atom, acceptor molecule, acceptor atom, score
      L1  H    18    52       P1  7957  0.81
      P1  H  7954  7966       L1    18  0.84
      P1  H  7989  7998       L1    19  1.00
      P1  H  7997  8010       L1    31  0.42
      P1  H 10752 10764       L1    27  0.96

> <Gold.PLP.Chemscore.Internal.Correction>
0.5857

> <Gold.Rescore>
     Score         DG    S(hbond)    S(metal)    S(lipo)     H(rot)  DE(clash)    DE(int)     intcor
     15.06     -18.00       2.07        0.00     116.95       3.16       0.18       2.77       ----

> <Gold.Chemscore.Fitness>
15.0564

> <Gold.Chemscore.DG>
-18.0010

> <Gold.Chemscore.ZeroCoef>
-5.4800

> <Gold.Chemscore.Hbond>
2.0720

> <Gold.Chemscore.Metal>
0.0000

> <Gold.Chemscore.Lipo>
116.9469

> <Gold.Chemscore.Internal_Hbond>
0.0000

> <Gold.Chemscore.DEClash>
0.1766

> <Gold.Chemscore.DEInternal>
2.7680

> <Gold.Chemscore.Rot>
3.1571

> <Gold.Chemscore.Internal.Correction>
   9.000000E+99

> <Gold.Chemscore.Hbonds>
donor molecule, donor type, donor heavy atom, donor atom, acceptor molecule, acceptor atom, score
      L1  H    18    52       P1  7957  0.76
      P1  H  7954  7966       L1    18  0.27
      P1  H  7989  7998       L1    19  0.70
      P1  H  7997  8010       L1    31  0.37
      P1  H 10752 10764       L1    27  0.24

> <Gold.Chemscore.Hbond.Weighted>
-6.9204

> <Gold.Chemscore.Metal.Weighted>
-0.0000

> <Gold.Chemscore.Lipo.Weighted>
-13.6828

> <Gold.Chemscore.Internal_Hbond.Weighted>
0.0000

> <Gold.Chemscore.DEClash.Weighted>
0.1766

> <Gold.Chemscore.DEInternal.Weighted>
2.7680

> <Gold.Chemscore.Rot.Weighted>
8.0822

> <Gold.Chemscore.Internal.Correction.Weighted>
   9.000000E+99

> <Gold.Protein.RotatedTorsions>
[ 6907 6896 6895 6894 ] final  -11.35 input  -60.11 | X-H torsion
[ 7974 7965 7964 7962 ] final -126.95 input  175.53 | X-H torsion
[ 8008 7997 7996 7995 ] final -122.48 input   59.86 | X-H torsion
[ 10167 10162 10161 10158 ] final  164.42 input  -65.29 | X-H torsion
[ 10718 10713 10712 10709 ] final   -7.79 input   66.30 | X-H torsion
[ 10763 10752 10751 10750 ] final   94.83 input  -60.55 | X-H torsion
[ 11005 11000 10999 10996 ] final -153.99 input  -57.11 | X-H torsion

> <Gold.Protein.ActiveResidues>
 VAL166  LYS551  ARG553  GLY616  TRP617  ASP618  TYR619  PRO620  LYS621  CYS622 
 ASP623  PHE694  ASN695  SER759  ASP760  ASP761  ALA762  ILE779  LEU786  VAL792 
 PHE793  MET794  SER795  GLU796  ALA797  LYS798  CYS799  TRP800  GLU811  SER814 

> <Gold.Protein.RotatedAtoms>
  151.3876  135.0950  159.9515 H   0  0  0  0  0  0  0  0  0  0  0  0  # atno 6907 bound_to 6896
  152.5089  133.9011  159.7452 H   0  0  0  0  0  0  0  0  0  0  0  0  # atno 6908 bound_to 6896
  150.9458  133.6549  159.2810 H   0  0  0  0  0  0  0  0  0  0  0  0  # atno 6909 bound_to 6896
  144.9820  140.7649  143.4606 H   0  0  0  0  0  0  0  0  0  0  0  0  # atno 7974 bound_to 7965
  155.1649  140.0407  157.2850 H   0  0  0  0  0  0  0  0  0  0  0  0  # atno 8008 bound_to 7997
  154.6310  140.2524  155.7407 H   0  0  0  0  0  0  0  0  0  0  0  0  # atno 8009 bound_to 7997
  156.2484  140.2875  156.0661 H   0  0  0  0  0  0  0  0  0  0  0  0  # atno 8010 bound_to 7997
  139.4889  144.4237  151.9156 H   0  0  0  0  0  0  0  0  0  0  0  0  # atno 10167 bound_to 10162
  156.7121  130.5125  149.5889 H   0  0  0  0  0  0  0  0  0  0  0  0  # atno 10718 bound_to 10713
  153.2461  135.4276  155.0749 H   0  0  0  0  0  0  0  0  0  0  0  0  # atno 10763 bound_to 10752
  154.8362  135.3414  154.6579 H   0  0  0  0  0  0  0  0  0  0  0  0  # atno 10764 bound_to 10752
  153.7001  135.7029  153.5122 H   0  0  0  0  0  0  0  0  0  0  0  0  # atno 10765 bound_to 10752
  140.7021  134.3925  157.5208 H   0  0  0  0  0  0  0  0  0  0  0  0  # atno 11005 bound_to 11000
  145.2407  139.2074  143.4994 LP  0  0  0  0  0  0  0  0  0  0  0  0  # atno 17320 bound_to 7965
  146.3410  140.2302  142.8593 LP  0  0  0  0  0  0  0  0  0  0  0  0  # atno 17321 bound_to 7965
  140.3682  144.2889  150.5923 LP  0  0  0  0  0  0  0  0  0  0  0  0  # atno 17342 bound_to 10162
  140.5343  143.2236  151.8189 LP  0  0  0  0  0  0  0  0  0  0  0  0  # atno 17343 bound_to 10162
  156.1654  130.6401  151.0771 LP  0  0  0  0  0  0  0  0  0  0  0  0  # atno 17370 bound_to 10713
  157.6932  131.0803  150.7047 LP  0  0  0  0  0  0  0  0  0  0  0  0  # atno 17371 bound_to 10713
  139.8894  134.8832  156.2424 LP  0  0  0  0  0  0  0  0  0  0  0  0  # atno 17394 bound_to 11000
  141.0155  133.7071  156.1181 LP  0  0  0  0  0  0  0  0  0  0  0  0  # atno 17395 bound_to 11000

$$$$
