AV-unprocessed.smi:256|AV-procd|sdf|1959|dock3
  -GOLD-   2262021103D 1   1.00000     0.00000
 Structure written by MMmdl.
 62 65  0  0  0  0  0  0  0  0  2 V2000
  144.4285  135.4332  150.4713 C   0  0  0  0  0  0  0  0  0  0  0  0
  144.3448  135.7305  151.9751 C   0  0  0  0  0  0  0  0  0  0  0  0
  143.6018  134.6425  152.7958 C   0  0  2  0  0  0  0  0  0  0  0  0
  143.1457  135.1315  154.1915 C   0  0  0  0  0  0  0  0  0  0  0  0
  144.2797  135.2571  155.1070 N   0  0  0  0  0  0  0  0  0  0  0  0
  144.8534  136.4828  155.2636 C   0  0  0  0  0  0  0  0  0  0  0  0
  144.3532  137.5012  154.5155 N   0  0  0  0  0  0  0  0  0  0  0  0
  144.8633  138.7317  154.6045 C   0  0  0  0  0  0  0  0  0  0  0  0
  145.8656  139.1626  155.3687 N   0  0  0  0  0  0  0  0  0  0  0  0
  146.3791  138.1524  156.1255 C   0  0  0  0  0  0  0  0  0  0  0  0
  145.9370  136.7966  156.1421 C   0  0  0  0  0  0  0  0  0  0  0  0
  146.7158  136.0730  157.0406 N   0  0  0  0  0  0  0  0  0  0  0  0
  147.5521  136.9454  157.5303 C   0  0  0  0  0  0  0  0  0  0  0  0
  147.4286  138.2179  157.0248 N   0  0  0  0  0  0  0  0  0  0  0  0
  148.2302  139.3800  157.3780 C   0  0  0  0  0  0  0  0  0  0  0  0
  149.6595  139.3660  156.7808 C   0  0  0  0  0  0  0  0  0  0  0  0
  150.4155  138.3911  157.4784 O   0  0  0  0  0  0  0  0  0  0  0  0
  149.6123  138.9692  155.2916 C   0  0  0  0  0  0  0  0  0  0  0  0
  150.9847  139.1093  154.6097 C   0  0  0  0  0  0  0  0  0  0  0  0
  151.4744  140.4345  154.7740 O   0  0  0  0  0  0  0  0  0  0  0  0
  151.6984  140.7723  156.1374 C   0  0  0  0  0  0  0  0  0  0  0  0
  150.3740  140.7280  156.9204 C   0  0  0  0  0  0  0  0  0  0  0  0
  145.0502  134.0296  155.2637 C   0  0  0  0  0  0  0  0  0  0  0  0
  145.5223  133.4972  153.8981 C   0  0  0  0  0  0  0  0  0  0  0  0
  144.3865  133.3745  152.9457 N   0  3  2  0  0  0  0  0  0  0  0  0
  144.7817  132.6852  151.6868 C   0  0  0  0  0  0  0  0  0  0  0  0
  143.6277  132.5411  150.6749 C   0  0  0  0  0  0  0  0  0  0  0  0
  144.0108  131.7919  149.5287 O   0  0  0  0  0  0  0  0  0  0  0  0
  145.2869  132.1299  149.0076 C   0  0  0  0  0  0  0  0  0  0  0  0
  145.0444  136.1781  149.9671 H   0  0  0  0  0  0  0  0  0  0  0  0
  143.4477  135.4545  149.9972 H   0  0  0  0  0  0  0  0  0  0  0  0
  144.8736  134.4555  150.2852 H   0  0  0  0  0  0  0  0  0  0  0  0
  145.3689  135.8285  152.3319 H   0  0  0  0  0  0  0  0  0  0  0  0
  143.8829  136.7068  152.1193 H   0  0  0  0  0  0  0  0  0  0  0  0
  142.6871  134.3999  152.2558 H   0  0  0  0  0  0  0  0  0  0  0  0
  142.5579  136.0448  154.1136 H   0  0  0  0  0  0  0  0  0  0  0  0
  142.4653  134.3943  154.6196 H   0  0  0  0  0  0  0  0  0  0  0  0
  144.4038  139.4768  153.9719 H   0  0  0  0  0  0  0  0  0  0  0  0
  148.2942  136.6809  158.2697 H   0  0  0  0  0  0  0  0  0  0  0  0
  147.6951  140.2746  157.0562 H   0  0  0  0  0  0  0  0  0  0  0  0
  148.2808  139.4345  158.4662 H   0  0  0  0  0  0  0  0  0  0  0  0
  150.4643  137.6112  156.9471 H   0  0  0  0  0  0  0  0  0  0  0  0
  149.2410  137.9496  155.1788 H   0  0  0  0  0  0  0  0  0  0  0  0
  148.9017  139.6112  154.7693 H   0  0  0  0  0  0  0  0  0  0  0  0
  151.7003  138.3910  155.0123 H   0  0  0  0  0  0  0  0  0  0  0  0
  150.8938  138.8984  153.5442 H   0  0  0  0  0  0  0  0  0  0  0  0
  152.4363  140.0984  156.5750 H   0  0  0  0  0  0  0  0  0  0  0  0
  152.1229  141.7754  156.1834 H   0  0  0  0  0  0  0  0  0  0  0  0
  149.7214  141.5155  156.5418 H   0  0  0  0  0  0  0  0  0  0  0  0
  150.5636  140.9639  157.9680 H   0  0  0  0  0  0  0  0  0  0  0  0
  145.8811  134.1551  155.9565 H   0  0  0  0  0  0  0  0  0  0  0  0
  144.3971  133.2896  155.7276 H   0  0  0  0  0  0  0  0  0  0  0  0
  146.2848  134.1477  153.4701 H   0  0  0  0  0  0  0  0  0  0  0  0
  145.9910  132.5229  154.0412 H   0  0  0  0  0  0  0  0  0  0  0  0
  145.6251  133.1970  151.2240 H   0  0  0  0  0  0  0  0  0  0  0  0
  145.1549  131.6925  151.9381 H   0  0  0  0  0  0  0  0  0  0  0  0
  142.7787  132.0418  151.1413 H   0  0  0  0  0  0  0  0  0  0  0  0
  143.2598  133.5239  150.3771 H   0  0  0  0  0  0  0  0  0  0  0  0
  145.4707  131.5549  148.1001 H   0  0  0  0  0  0  0  0  0  0  0  0
  146.0869  131.8982  149.7105 H   0  0  0  0  0  0  0  0  0  0  0  0
  145.3418  133.1879  148.7483 H   0  0  0  0  0  0  0  0  0  0  0  0
  143.7465  132.7355  153.3955 H   0  0  0  0  0  0  0  0  0  0  0  0
  1  2  1  0  0  0  0
  1 30  1  0  0  0  0
  1 31  1  0  0  0  0
  1 32  1  0  0  0  0
  2  3  1  0  0  0  0
  2 33  1  0  0  0  0
  2 34  1  0  0  0  0
  3 25  1  0  0  0  0
  3  4  1  0  0  0  0
  3 35  1  0  0  0  0
  4  5  1  0  0  0  0
  4 36  1  0  0  0  0
  4 37  1  0  0  0  0
  5  6  1  0  0  0  0
  5 23  1  0  0  0  0
  6 11  1  0  0  0  0
  6  7  2  0  0  0  0
  7  8  1  0  0  0  0
  8  9  2  0  0  0  0
  8 38  1  0  0  0  0
  9 10  1  0  0  0  0
 10 14  1  0  0  0  0
 10 11  2  0  0  0  0
 11 12  1  0  0  0  0
 12 13  2  0  0  0  0
 13 14  1  0  0  0  0
 13 39  1  0  0  0  0
 14 15  1  0  0  0  0
 15 16  1  0  0  0  0
 15 40  1  0  0  0  0
 15 41  1  0  0  0  0
 16 22  1  0  0  0  0
 16 17  1  0  0  0  0
 16 18  1  0  0  0  0
 17 42  1  0  0  0  0
 18 19  1  0  0  0  0
 18 43  1  0  0  0  0
 18 44  1  0  0  0  0
 19 20  1  0  0  0  0
 19 45  1  0  0  0  0
 19 46  1  0  0  0  0
 20 21  1  0  0  0  0
 21 22  1  0  0  0  0
 21 47  1  0  0  0  0
 21 48  1  0  0  0  0
 22 49  1  0  0  0  0
 22 50  1  0  0  0  0
 23 24  1  0  0  0  0
 23 51  1  0  0  0  0
 23 52  1  0  0  0  0
 24 25  1  0  0  0  0
 24 53  1  0  0  0  0
 24 54  1  0  0  0  0
 25 26  1  0  0  0  0
 25 62  1  0  0  0  0
 26 27  1  0  0  0  0
 26 55  1  0  0  0  0
 26 56  1  0  0  0  0
 27 28  1  0  0  0  0
 27 57  1  0  0  0  0
 27 58  1  0  0  0  0
 28 29  1  0  0  0  0
 29 59  1  0  0  0  0
 29 60  1  0  0  0  0
 29 61  1  0  0  0  0
M  CHG  1  25   1
M  END
> <s_m_source_file>
AV-unprocessed.smi

> <i_m_source_file_index>
256

> <i_lp_mmshare_version>
43012

> <i_f3d_flags>
0

> <s_epik_input>
W0NIM11PW0NIMl1bQ0gyXU4xW0NIMl1bQ0gyXU4oW0NIMl1bQ0BIXTFbQ0gyXVtDSDNdKWMobltjSF1uMiljKGMyMyluW2NIXW4zW0NIMl1DNChbT0hdKVtDSDJdW0NIMl1PW0NIMl1bQ0gyXTQ=

> <s_epik_cmdline>
J2VwaWtfcHl0aG9uJywgJy1waCcsICc3LjAnLCAnLXRuJywgJzgnLCAnLW1hJywgJzIwMCcsICctbWV0YWxfYmluZGluZycsICctaW1hZScsICc8aW5maWxlLm1hZT4nLCAnLW9tYWUnLCAnPG91dGZpbGUubWFlPic=

> <r_lp_tautomer_probability>
1

> <r_epik_Ionization_Penalty>
0.233023

> <r_epik_Ionization_Penalty_Charging>
0.23295

> <r_epik_Ionization_Penalty_Neutral>
7.2493e-05

> <r_epik_State_Penalty>
0.223667

> <r_epik_Charging_Adjusted_Penalty>
0.456618

> <i_epik_Tot_Q>
1

> <i_epik_Tot_abs_Q>
1

> <r_epik_Metal_State_Penalty>
0.226879

> <b_epik_Metal_Only>
0

> <s_lp_Force_Field>
OPLS_2005

> <r_lp_Energy>
46.9359

> <b_lp_Chiralities_Consistent>
1

> <s_lp_Variant>
AV-unprocessed.smi:256-3

> <Gold.Version>
5.8.1

> <Gold.Id.Protein>
6NUR|6NUR_protein|mol2

> <Gold.PLP.Fitness>
42.5861

> <Gold.PLP.PLP>
-29.5378

> <Gold.PLP.part.hbond>
-3.0000

> <Gold.PLP.part.metal>
0.0000

> <Gold.PLP.part.buried>
-4.8722

> <Gold.PLP.part.nonpolar>
-22.1704

> <Gold.PLP.part.repulsive>
0.3347

> <Gold.PLP.ligand.clash>
0.0000

> <Gold.PLP.ligand.torsion>
0.7226

> <Gold.PLP.Chemscore.Hbond>
3.6578

> <Gold.PLP.Chemscore.CHOScore>
1.0000

> <Gold.PLP.Chemscore.Metal>
0.0000

> <Gold.Chemscore.Hbonds>
donor molecule, donor type, donor heavy atom, donor atom, acceptor molecule, acceptor atom, score
      L1  H    25    62       P1 10957  2.00
      P1  H  7989  7998       L1    20  0.55
      P1  H 10785 10796       L1    28  0.72
      L1  C     8    38       P1 10175  0.75

> <Gold.PLP.Chemscore.Internal.Correction>
0.5199

> <Gold.Rescore>
     Score         DG    S(hbond)    S(metal)    S(lipo)     H(rot)  DE(clash)    DE(int)     intcor
     14.09     -15.09       2.25        0.00      75.83       2.65       0.00       0.99       ----

> <Gold.Chemscore.Fitness>
14.0935

> <Gold.Chemscore.DG>
-15.0854

> <Gold.Chemscore.ZeroCoef>
-5.4800

> <Gold.Chemscore.Hbond>
2.2477

> <Gold.Chemscore.Metal>
0.0000

> <Gold.Chemscore.Lipo>
75.8310

> <Gold.Chemscore.Internal_Hbond>
0.0000

> <Gold.Chemscore.DEClash>
0.0029

> <Gold.Chemscore.DEInternal>
0.9889

> <Gold.Chemscore.Rot>
2.6462

> <Gold.Chemscore.Internal.Correction>
   9.000000E+99

> <Gold.Chemscore.Hbonds>
donor molecule, donor type, donor heavy atom, donor atom, acceptor molecule, acceptor atom, score
      L1  H    25    62       P1 10957  0.48
      P1  H  7989  7998       L1    20  0.23
      P1  H 10785 10796       L1    28  0.61

> <Gold.Chemscore.Hbond.Weighted>
-7.5073

> <Gold.Chemscore.Metal.Weighted>
-0.0000

> <Gold.Chemscore.Lipo.Weighted>
-8.8722

> <Gold.Chemscore.Internal_Hbond.Weighted>
0.0000

> <Gold.Chemscore.DEClash.Weighted>
0.0029

> <Gold.Chemscore.DEInternal.Weighted>
0.9889

> <Gold.Chemscore.Rot.Weighted>
6.7742

> <Gold.Chemscore.Internal.Correction.Weighted>
   9.000000E+99

> <Gold.Protein.RotatedTorsions>
[ 6907 6896 6895 6894 ] final -154.57 input  -60.11 | X-H torsion
[ 7974 7965 7964 7962 ] final  100.24 input  175.53 | X-H torsion
[ 8008 7997 7996 7995 ] final  149.04 input   59.86 | X-H torsion
[ 10167 10162 10161 10158 ] final   80.86 input  -65.29 | X-H torsion
[ 10718 10713 10712 10709 ] final -137.86 input   66.30 | X-H torsion
[ 10763 10752 10751 10750 ] final  173.52 input  -60.55 | X-H torsion
[ 11005 11000 10999 10996 ] final    3.47 input  -57.11 | X-H torsion

> <Gold.Protein.ActiveResidues>
 VAL166  LYS551  ARG553  GLY616  TRP617  ASP618  TYR619  PRO620  LYS621  CYS622 
 ASP623  PHE694  ASN695  SER759  ASP760  ASP761  ALA762  ILE779  LEU786  VAL792 
 PHE793  MET794  SER795  GLU796  ALA797  LYS798  CYS799  TRP800  GLU811  SER814 

> <Gold.Protein.RotatedAtoms>
  151.2594  133.4309  159.2615 H   0  0  0  0  0  0  0  0  0  0  0  0  # atno 6907 bound_to 6896
  151.0544  134.9695  159.8238 H   0  0  0  0  0  0  0  0  0  0  0  0  # atno 6908 bound_to 6896
  152.5388  134.2547  159.8965 H   0  0  0  0  0  0  0  0  0  0  0  0  # atno 6909 bound_to 6896
  145.3882  139.2367  143.3366 H   0  0  0  0  0  0  0  0  0  0  0  0  # atno 7974 bound_to 7965
  156.2769  140.2112  156.5795 H   0  0  0  0  0  0  0  0  0  0  0  0  # atno 8008 bound_to 7997
  154.7070  140.0515  157.0537 H   0  0  0  0  0  0  0  0  0  0  0  0  # atno 8009 bound_to 7997
  155.0657  140.3171  155.4649 H   0  0  0  0  0  0  0  0  0  0  0  0  # atno 8010 bound_to 7997
  139.9453  144.6063  150.8213 H   0  0  0  0  0  0  0  0  0  0  0  0  # atno 10167 bound_to 10162
  156.2928  130.7385  151.1415 H   0  0  0  0  0  0  0  0  0  0  0  0  # atno 10718 bound_to 10713
  154.4412  135.2762  155.1846 H   0  0  0  0  0  0  0  0  0  0  0  0  # atno 10763 bound_to 10752
  154.3712  135.6108  153.5744 H   0  0  0  0  0  0  0  0  0  0  0  0  # atno 10764 bound_to 10752
  152.9841  135.5857  154.4740 H   0  0  0  0  0  0  0  0  0  0  0  0  # atno 10765 bound_to 10752
  140.5927  133.9909  155.8096 H   0  0  0  0  0  0  0  0  0  0  0  0  # atno 11005 bound_to 11000
  146.2810  140.4561  142.8776 LP  0  0  0  0  0  0  0  0  0  0  0  0  # atno 17320 bound_to 7965
  144.8459  140.6928  143.6199 LP  0  0  0  0  0  0  0  0  0  0  0  0  # atno 17321 bound_to 7965
  140.7599  143.3139  151.2779 LP  0  0  0  0  0  0  0  0  0  0  0  0  # atno 17342 bound_to 10162
  139.6672  144.0084  152.2730 LP  0  0  0  0  0  0  0  0  0  0  0  0  # atno 17343 bound_to 10162
  157.7347  131.0579  150.5509 LP  0  0  0  0  0  0  0  0  0  0  0  0  # atno 17370 bound_to 10713
  156.5628  130.4260  149.6055 LP  0  0  0  0  0  0  0  0  0  0  0  0  # atno 17371 bound_to 10713
  141.0924  133.9896  157.3215 LP  0  0  0  0  0  0  0  0  0  0  0  0  # atno 17394 bound_to 11000
  139.9267  135.0201  156.8258 LP  0  0  0  0  0  0  0  0  0  0  0  0  # atno 17395 bound_to 11000

$$$$
