AV-unprocessed.smi:2024|AV-procd|sdf|8191|dock5
  -GOLD-   2272010443D 1   1.00000     0.00000
 Structure written by MMmdl.
 44 45  0  0  0  0  0  0  0  0  2 V2000
  144.3020  133.1606  148.7380 C   0  0  0  0  0  0  0  0  0  0  0  0
  143.5987  133.3378  150.0294 N   0  3  0  0  0  0  0  0  0  0  0  0
  144.1051  134.4686  150.8400 C   0  0  0  0  0  0  0  0  0  0  0  0
  145.4428  134.1197  151.5227 C   0  0  0  0  0  0  0  0  0  0  0  0
  145.2862  132.9419  152.3929 N   0  0  0  0  0  0  0  0  0  0  0  0
  146.4488  132.6699  153.2820 C   0  0  0  0  0  0  0  0  0  0  0  0
  146.4291  131.1861  153.7300 C   0  0  0  0  0  0  0  0  0  0  0  0
  147.7944  132.9468  152.5689 C   0  0  0  0  0  0  0  0  0  0  0  0
  146.3740  133.5552  154.5626 C   0  0  0  0  0  0  0  0  0  0  0  0
  145.1959  133.2816  155.3870 N   0  0  0  0  0  0  0  0  0  0  0  0
  145.1279  133.4033  156.7207 C   0  0  0  0  0  0  0  0  0  0  0  0
  146.0699  133.7785  157.4190 O   0  0  0  0  0  0  0  0  0  0  0  0
  143.9125  133.0548  157.1780 N   0  0  0  0  0  0  0  0  0  0  0  0
  143.4498  133.0428  158.5202 C   0  0  0  0  0  0  0  0  0  0  0  0
  142.2415  133.4686  158.9064 N   0  0  0  0  0  0  0  0  0  0  0  0
  142.0558  133.3389  160.2850 C   0  0  0  0  0  0  0  0  0  0  0  0
  143.1413  132.8098  160.9378 C   0  0  0  0  0  0  0  0  0  0  0  0
  144.4468  132.4488  159.8402 S   0  0  0  0  0  0  0  0  0  0  0  0
  144.8841  131.8133  151.5365 C   0  0  0  0  0  0  0  0  0  0  0  0
  143.5341  132.1087  150.8522 C   0  0  0  0  0  0  0  0  0  0  0  0
  145.3540  132.9104  148.8754 H   0  0  0  0  0  0  0  0  0  0  0  0
  144.2457  134.0743  148.1457 H   0  0  0  0  0  0  0  0  0  0  0  0
  143.8374  132.3628  148.1578 H   0  0  0  0  0  0  0  0  0  0  0  0
  144.2150  135.3556  150.2150 H   0  0  0  0  0  0  0  0  0  0  0  0
  143.3613  134.7170  151.5987 H   0  0  0  0  0  0  0  0  0  0  0  0
  146.2168  133.9484  150.7746 H   0  0  0  0  0  0  0  0  0  0  0  0
  145.7469  134.9935  152.0940 H   0  0  0  0  0  0  0  0  0  0  0  0
  147.1292  131.0142  154.5485 H   0  0  0  0  0  0  0  0  0  0  0  0
  146.7288  130.5044  152.9344 H   0  0  0  0  0  0  0  0  0  0  0  0
  145.4426  130.8786  154.0792 H   0  0  0  0  0  0  0  0  0  0  0  0
  148.6320  132.7220  153.2303 H   0  0  0  0  0  0  0  0  0  0  0  0
  147.9017  133.9908  152.2754 H   0  0  0  0  0  0  0  0  0  0  0  0
  147.9268  132.3329  151.6784 H   0  0  0  0  0  0  0  0  0  0  0  0
  147.2839  133.4277  155.1520 H   0  0  0  0  0  0  0  0  0  0  0  0
  146.3710  134.6158  154.3143 H   0  0  0  0  0  0  0  0  0  0  0  0
  144.3717  132.9616  154.9004 H   0  0  0  0  0  0  0  0  0  0  0  0
  143.2397  132.7595  156.4865 H   0  0  0  0  0  0  0  0  0  0  0  0
  141.1170  133.6488  160.7194 H   0  0  0  0  0  0  0  0  0  0  0  0
  143.2515  132.6111  161.9936 H   0  0  0  0  0  0  0  0  0  0  0  0
  145.6504  131.5999  150.7914 H   0  0  0  0  0  0  0  0  0  0  0  0
  144.7500  130.9045  152.1192 H   0  0  0  0  0  0  0  0  0  0  0  0
  142.7597  132.2352  151.6101 H   0  0  0  0  0  0  0  0  0  0  0  0
  143.2249  131.2640  150.2355 H   0  0  0  0  0  0  0  0  0  0  0  0
  142.6461  133.5669  149.7841 H   0  0  0  0  0  0  0  0  0  0  0  0
  1  2  1  0  0  0  0
  1 21  1  0  0  0  0
  1 22  1  0  0  0  0
  1 23  1  0  0  0  0
  2 20  1  0  0  0  0
  2  3  1  0  0  0  0
  2 44  1  0  0  0  0
  3  4  1  0  0  0  0
  3 24  1  0  0  0  0
  3 25  1  0  0  0  0
  4  5  1  0  0  0  0
  4 26  1  0  0  0  0
  4 27  1  0  0  0  0
  5  6  1  0  0  0  0
  5 19  1  0  0  0  0
  6  7  1  0  0  0  0
  6  8  1  0  0  0  0
  6  9  1  0  0  0  0
  7 28  1  0  0  0  0
  7 29  1  0  0  0  0
  7 30  1  0  0  0  0
  8 31  1  0  0  0  0
  8 32  1  0  0  0  0
  8 33  1  0  0  0  0
  9 10  1  0  0  0  0
  9 34  1  0  0  0  0
  9 35  1  0  0  0  0
 10 11  1  0  0  0  0
 10 36  1  0  0  0  0
 11 12  2  0  0  0  0
 11 13  1  0  0  0  0
 13 14  1  0  0  0  0
 13 37  1  0  0  0  0
 14 18  1  0  0  0  0
 14 15  2  0  0  0  0
 15 16  1  0  0  0  0
 16 17  2  0  0  0  0
 16 38  1  0  0  0  0
 17 18  1  0  0  0  0
 17 39  1  0  0  0  0
 19 20  1  0  0  0  0
 19 40  1  0  0  0  0
 19 41  1  0  0  0  0
 20 42  1  0  0  0  0
 20 43  1  0  0  0  0
M  CHG  1   2   1
M  END
> <s_m_source_file>
AV-unprocessed.smi

> <i_m_source_file_index>
2024

> <i_lp_mmshare_version>
43012

> <i_f3d_flags>
0

> <s_epik_input>
W0NIM11OMVtDSDJdW0NIMl1OKFtDSDJdW0NIMl0xKUMoW0NIM10pKFtDSDNdKVtDSDJdW05IXUMoPU8pW05IXWMybltjSF1bY0hdczI=

> <s_epik_cmdline>
J2VwaWtfcHl0aG9uJywgJy1waCcsICc3LjAnLCAnLXRuJywgJzgnLCAnLW1hJywgJzIwMCcsICctbWV0YWxfYmluZGluZycsICctaW1hZScsICc8aW5maWxlLm1hZT4nLCAnLW9tYWUnLCAnPG91dGZpbGUubWFlPic=

> <r_lp_tautomer_probability>
0.999

> <r_epik_Ionization_Penalty>
0.025257

> <r_epik_Ionization_Penalty_Charging>
0.0242302

> <r_epik_Ionization_Penalty_Neutral>
0.00102675

> <r_epik_State_Penalty>
0.128805

> <r_epik_Charging_Adjusted_Penalty>
0.153036

> <i_epik_Tot_Q>
1

> <i_epik_Tot_abs_Q>
1

> <r_epik_Metal_State_Penalty>
0.161314

> <b_epik_Metal_Only>
0

> <s_lp_Force_Field>
OPLS_2005

> <r_lp_Energy>
25.0383

> <b_lp_Chiralities_Consistent>
1

> <s_lp_Variant>
AV-unprocessed.smi:2024-1

> <Gold.Version>
5.8.1

> <Gold.Id.Protein>
6NUR|6NUR_protein|mol2

> <Gold.PLP.Fitness>
37.7648

> <Gold.PLP.PLP>
-25.4111

> <Gold.PLP.part.hbond>
-4.0000

> <Gold.PLP.part.metal>
0.0000

> <Gold.PLP.part.buried>
-2.2581

> <Gold.PLP.part.nonpolar>
-19.3034

> <Gold.PLP.part.repulsive>
0.1976

> <Gold.PLP.ligand.clash>
0.0000

> <Gold.PLP.ligand.torsion>
1.3368

> <Gold.PLP.Chemscore.Hbond>
5.0000

> <Gold.PLP.Chemscore.CHOScore>
0.0000

> <Gold.PLP.Chemscore.Metal>
0.0000

> <Gold.Chemscore.Hbonds>
donor molecule, donor type, donor heavy atom, donor atom, acceptor molecule, acceptor atom, score
      L1  H     2    44       P1 10186  2.00
      L1  H    10    36       P1 10957  0.88
      L1  H    13    37       P1 10957  1.00
      P1  H 11000 11005       L1    15  1.00

> <Gold.PLP.Chemscore.Internal.Correction>
0.0273

> <Gold.Rescore>
     Score         DG    S(hbond)    S(metal)    S(lipo)     H(rot)  DE(clash)    DE(int)     intcor
     20.52     -22.11       3.78        0.00      69.15       1.60       0.06       1.54       ----

> <Gold.Chemscore.Fitness>
20.5175

> <Gold.Chemscore.DG>
-22.1103

> <Gold.Chemscore.ZeroCoef>
-5.4800

> <Gold.Chemscore.Hbond>
3.7824

> <Gold.Chemscore.Metal>
0.0000

> <Gold.Chemscore.Lipo>
69.1499

> <Gold.Chemscore.Internal_Hbond>
0.0000

> <Gold.Chemscore.DEClash>
0.0563

> <Gold.Chemscore.DEInternal>
1.5365

> <Gold.Chemscore.Rot>
1.5991

> <Gold.Chemscore.Internal.Correction>
   9.000000E+99

> <Gold.Chemscore.Hbonds>
donor molecule, donor type, donor heavy atom, donor atom, acceptor molecule, acceptor atom, score
      L1  H     2    44       P1 10186  1.00
      L1  H    10    36       P1 10957  0.81
      L1  H    13    37       P1 10957  0.93
      P1  H 11000 11005       L1    15  0.82

> <Gold.Chemscore.Hbond.Weighted>
-12.6334

> <Gold.Chemscore.Metal.Weighted>
-0.0000

> <Gold.Chemscore.Lipo.Weighted>
-8.0905

> <Gold.Chemscore.Internal_Hbond.Weighted>
0.0000

> <Gold.Chemscore.DEClash.Weighted>
0.0563

> <Gold.Chemscore.DEInternal.Weighted>
1.5365

> <Gold.Chemscore.Rot.Weighted>
4.0936

> <Gold.Chemscore.Internal.Correction.Weighted>
   9.000000E+99

> <Gold.Protein.RotatedTorsions>
[ 6907 6896 6895 6894 ] final  129.16 input  -60.11 | X-H torsion
[ 7974 7965 7964 7962 ] final  174.50 input  175.53 | X-H torsion
[ 8008 7997 7996 7995 ] final  139.81 input   59.86 | X-H torsion
[ 10167 10162 10161 10158 ] final -109.37 input  -65.29 | X-H torsion
[ 10718 10713 10712 10709 ] final  -45.60 input   66.30 | X-H torsion
[ 10763 10752 10751 10750 ] final   97.77 input  -60.55 | X-H torsion
[ 11005 11000 10999 10996 ] final -117.73 input  -57.11 | X-H torsion

> <Gold.Protein.ActiveResidues>
 VAL166  LYS551  ARG553  GLY616  TRP617  ASP618  TYR619  PRO620  LYS621  CYS622 
 ASP623  PHE694  ASN695  SER759  ASP760  ASP761  ALA762  ILE779  LEU786  VAL792 
 PHE793  MET794  SER795  GLU796  ALA797  LYS798  CYS799  TRP800  GLU811  SER814 

> <Gold.Protein.RotatedAtoms>
  152.3650  133.6345  159.6043 H   0  0  0  0  0  0  0  0  0  0  0  0  # atno 6907 bound_to 6896
  150.7628  133.9362  159.3451 H   0  0  0  0  0  0  0  0  0  0  0  0  # atno 6908 bound_to 6896
  151.7194  135.0898  160.0332 H   0  0  0  0  0  0  0  0  0  0  0  0  # atno 6909 bound_to 6896
  144.7220  139.9806  143.6438 H   0  0  0  0  0  0  0  0  0  0  0  0  # atno 7974 bound_to 7965
  156.2986  140.2358  156.4298 H   0  0  0  0  0  0  0  0  0  0  0  0  # atno 8008 bound_to 7997
  154.8280  140.0434  157.1478 H   0  0  0  0  0  0  0  0  0  0  0  0  # atno 8009 bound_to 7997
  154.9239  140.3007  155.5205 H   0  0  0  0  0  0  0  0  0  0  0  0  # atno 8010 bound_to 7997
  140.1561  143.4159  152.1460 H   0  0  0  0  0  0  0  0  0  0  0  0  # atno 10167 bound_to 10162
  156.2267  130.4170  149.8925 H   0  0  0  0  0  0  0  0  0  0  0  0  # atno 10718 bound_to 10713
  153.2810  135.4171  155.1078 H   0  0  0  0  0  0  0  0  0  0  0  0  # atno 10763 bound_to 10752
  154.8489  135.3495  154.6112 H   0  0  0  0  0  0  0  0  0  0  0  0  # atno 10764 bound_to 10752
  153.6533  135.7051  153.5259 H   0  0  0  0  0  0  0  0  0  0  0  0  # atno 10765 bound_to 10752
  141.0335  133.9945  157.3107 H   0  0  0  0  0  0  0  0  0  0  0  0  # atno 11005 bound_to 11000
  146.0491  139.3494  143.0650 LP  0  0  0  0  0  0  0  0  0  0  0  0  # atno 17320 bound_to 7965
  145.8238  140.9666  143.0885 LP  0  0  0  0  0  0  0  0  0  0  0  0  # atno 17321 bound_to 7965
  139.5403  144.7250  151.4756 LP  0  0  0  0  0  0  0  0  0  0  0  0  # atno 17342 bound_to 10162
  140.6672  143.8372  150.6956 LP  0  0  0  0  0  0  0  0  0  0  0  0  # atno 17343 bound_to 10162
  156.6553  130.8760  151.3538 LP  0  0  0  0  0  0  0  0  0  0  0  0  # atno 17370 bound_to 10713
  157.7114  130.9445  150.1102 LP  0  0  0  0  0  0  0  0  0  0  0  0  # atno 17371 bound_to 10713
  139.9224  135.0201  156.8113 LP  0  0  0  0  0  0  0  0  0  0  0  0  # atno 17394 bound_to 11000
  140.6364  133.9858  155.7686 LP  0  0  0  0  0  0  0  0  0  0  0  0  # atno 17395 bound_to 11000

$$$$
