AV-unprocessed.smi:2772|AV-procd|sdf|10669|dock1
  -GOLD-   2272015113D 1   1.00000     0.00000
 Structure written by MMmdl.
 54 56  0  0  0  0  0  0  0  0  2 V2000
  154.9246  142.6532  164.9737 C   0  0  0  0  0  0  0  0  0  0  0  0
  154.3450  142.3627  163.6050 C   0  0  0  0  0  0  0  0  0  0  0  0
  153.2849  143.1350  163.0876 C   0  0  0  0  0  0  0  0  0  0  0  0
  152.7851  142.8153  161.8108 C   0  0  0  0  0  0  0  0  0  0  0  0
  153.3494  141.7357  161.1011 C   0  0  0  0  0  0  0  0  0  0  0  0
  152.8338  141.4422  159.8099 N   0  0  0  0  0  0  0  0  0  0  0  0
  151.7896  142.0094  159.1818 C   0  0  0  0  0  0  0  0  0  0  0  0
  151.0798  142.9025  159.6439 O   0  0  0  0  0  0  0  0  0  0  0  0
  151.6223  141.4936  157.9557 N   0  0  0  0  0  0  0  0  0  0  0  0
  150.5993  141.9140  157.0025 C   0  0  0  0  0  0  0  0  0  0  0  0
  149.2076  141.7663  157.6218 C   0  0  0  0  0  0  0  0  0  0  0  0
  148.1091  142.1024  156.5981 C   0  0  0  0  0  0  0  0  0  0  0  0
  148.1742  141.2255  155.4165 N   0  0  0  0  0  0  0  0  0  0  0  0
  147.0644  141.5050  154.4756 C   0  0  2  0  0  0  0  0  0  0  0  0
  145.6589  141.3108  155.1015 C   0  0  0  0  0  0  0  0  0  0  0  0
  145.3567  139.8288  155.3882 C   0  0  0  0  0  0  0  0  0  0  0  0
  145.4584  139.0138  154.1530 N   0  3  2  0  0  0  0  0  0  0  0  0
  145.0914  137.5996  154.3793 C   0  0  0  0  0  0  0  0  0  0  0  0
  146.7790  139.1567  153.4925 C   0  0  0  0  0  0  0  0  0  0  0  0
  147.0908  140.6341  153.1924 C   0  0  0  0  0  0  0  0  0  0  0  0
  149.4885  141.4164  154.7798 C   0  0  0  0  0  0  0  0  0  0  0  0
  150.6454  141.0609  155.7292 C   0  0  0  0  0  0  0  0  0  0  0  0
  154.4208  141.0348  161.7077 C   0  0  0  0  0  0  0  0  0  0  0  0
  154.9070  141.3364  162.9311 N   0  0  0  0  0  0  0  0  0  0  0  0
  154.4529  143.5255  165.4266 H   0  0  0  0  0  0  0  0  0  0  0  0
  155.9954  142.8460  164.8998 H   0  0  0  0  0  0  0  0  0  0  0  0
  154.7736  141.8012  165.6372 H   0  0  0  0  0  0  0  0  0  0  0  0
  152.8624  143.9529  163.6526 H   0  0  0  0  0  0  0  0  0  0  0  0
  151.9739  143.3899  161.3875 H   0  0  0  0  0  0  0  0  0  0  0  0
  153.3675  140.7760  159.2714 H   0  0  0  0  0  0  0  0  0  0  0  0
  152.2526  140.7642  157.6556 H   0  0  0  0  0  0  0  0  0  0  0  0
  150.7556  142.9629  156.7426 H   0  0  0  0  0  0  0  0  0  0  0  0
  149.0632  140.7481  157.9861 H   0  0  0  0  0  0  0  0  0  0  0  0
  149.1142  142.4216  158.4886 H   0  0  0  0  0  0  0  0  0  0  0  0
  147.1642  141.9881  157.1221 H   0  0  0  0  0  0  0  0  0  0  0  0
  148.1818  143.1477  156.2934 H   0  0  0  0  0  0  0  0  0  0  0  0
  147.1592  142.5490  154.1725 H   0  0  0  0  0  0  0  0  0  0  0  0
  145.4942  141.9163  155.9896 H   0  0  0  0  0  0  0  0  0  0  0  0
  144.9148  141.6778  154.3932 H   0  0  0  0  0  0  0  0  0  0  0  0
  146.0430  139.4424  156.1437 H   0  0  0  0  0  0  0  0  0  0  0  0
  144.3504  139.7369  155.7988 H   0  0  0  0  0  0  0  0  0  0  0  0
  145.7844  137.1218  155.0730 H   0  0  0  0  0  0  0  0  0  0  0  0
  145.1067  137.0424  153.4420 H   0  0  0  0  0  0  0  0  0  0  0  0
  144.0856  137.5245  154.7942 H   0  0  0  0  0  0  0  0  0  0  0  0
  147.5576  138.7264  154.1244 H   0  0  0  0  0  0  0  0  0  0  0  0
  146.7791  138.5897  152.5606 H   0  0  0  0  0  0  0  0  0  0  0  0
  146.3272  141.0088  152.5091 H   0  0  0  0  0  0  0  0  0  0  0  0
  148.0144  140.7296  152.6258 H   0  0  0  0  0  0  0  0  0  0  0  0
  149.6026  140.7673  153.9154 H   0  0  0  0  0  0  0  0  0  0  0  0
  149.5889  142.4442  154.4274 H   0  0  0  0  0  0  0  0  0  0  0  0
  151.5953  141.2062  155.2137 H   0  0  0  0  0  0  0  0  0  0  0  0
  150.5921  140.0015  155.9852 H   0  0  0  0  0  0  0  0  0  0  0  0
  154.9281  140.2233  161.2102 H   0  0  0  0  0  0  0  0  0  0  0  0
  144.7759  139.3869  153.5084 H   0  0  0  0  0  0  0  0  0  0  0  0
  1  2  1  0  0  0  0
  1 25  1  0  0  0  0
  1 26  1  0  0  0  0
  1 27  1  0  0  0  0
  2 24  1  0  0  0  0
  2  3  2  0  0  0  0
  3  4  1  0  0  0  0
  3 28  1  0  0  0  0
  4  5  2  0  0  0  0
  4 29  1  0  0  0  0
  5  6  1  0  0  0  0
  5 23  1  0  0  0  0
  6  7  1  0  0  0  0
  6 30  1  0  0  0  0
  7  8  2  0  0  0  0
  7  9  1  0  0  0  0
  9 10  1  0  0  0  0
  9 31  1  0  0  0  0
 10 22  1  0  0  0  0
 10 11  1  0  0  0  0
 10 32  1  0  0  0  0
 11 12  1  0  0  0  0
 11 33  1  0  0  0  0
 11 34  1  0  0  0  0
 12 13  1  0  0  0  0
 12 35  1  0  0  0  0
 12 36  1  0  0  0  0
 13 14  1  0  0  0  0
 13 21  1  0  0  0  0
 14 20  1  0  0  0  0
 14 15  1  0  0  0  0
 14 37  1  0  0  0  0
 15 16  1  0  0  0  0
 15 38  1  0  0  0  0
 15 39  1  0  0  0  0
 16 17  1  0  0  0  0
 16 40  1  0  0  0  0
 16 41  1  0  0  0  0
 17 18  1  0  0  0  0
 17 19  1  0  0  0  0
 17 54  1  0  0  0  0
 18 42  1  0  0  0  0
 18 43  1  0  0  0  0
 18 44  1  0  0  0  0
 19 20  1  0  0  0  0
 19 45  1  0  0  0  0
 19 46  1  0  0  0  0
 20 47  1  0  0  0  0
 20 48  1  0  0  0  0
 21 22  1  0  0  0  0
 21 49  1  0  0  0  0
 21 50  1  0  0  0  0
 22 51  1  0  0  0  0
 22 52  1  0  0  0  0
 23 24  2  0  0  0  0
 23 53  1  0  0  0  0
M  CHG  1  17   1
M  END
> <s_m_source_file>
AV-unprocessed.smi

> <i_m_source_file_index>
2772

> <i_lp_mmshare_version>
43012

> <i_f3d_flags>
0

> <s_epik_input>
W0NIM11jMVtjSF1bY0hdYyhbY0hdbjEpW05IXUMoPU8pW05IXVtDSF0yW0NIMl1bQ0gyXU4oW0NIMl1bQ0gyXTIpW0NIXTNbQ0gyXVtDSDJdTihbQ0gzXSlbQ0gyXVtDSDJdMw==

> <s_epik_cmdline>
J2VwaWtfcHl0aG9uJywgJy1waCcsICc3LjAnLCAnLXRuJywgJzgnLCAnLW1hJywgJzIwMCcsICctbWV0YWxfYmluZGluZycsICctaW1hZScsICc8aW5maWxlLm1hZT4nLCAnLW9tYWUnLCAnPG91dGZpbGUubWFlPic=

> <r_epik_Ionization_Penalty>
1.02952

> <r_epik_Ionization_Penalty_Charging>
0.000974969

> <r_epik_Ionization_Penalty_Neutral>
1.02854

> <r_epik_State_Penalty>
1.11259

> <r_epik_Charging_Adjusted_Penalty>
1.11356

> <i_epik_Tot_Q>
1

> <i_epik_Tot_abs_Q>
1

> <r_epik_Metal_State_Penalty>
1.1091

> <b_epik_Metal_Only>
0

> <s_lp_Force_Field>
OPLS_2005

> <r_lp_Energy>
36.1162

> <b_lp_Chiralities_Consistent>
1

> <s_lp_Variant>
AV-unprocessed.smi:2772-6

> <Gold.Version>
5.8.1

> <Gold.Id.Protein>
6NUR|6NUR_protein|mol2

> <Gold.PLP.Fitness>
50.6283

> <Gold.PLP.PLP>
-44.6548

> <Gold.PLP.part.hbond>
-2.7247

> <Gold.PLP.part.metal>
0.0000

> <Gold.PLP.part.buried>
-0.6570

> <Gold.PLP.part.nonpolar>
-39.8749

> <Gold.PLP.part.repulsive>
0.2758

> <Gold.PLP.ligand.clash>
0.0000

> <Gold.PLP.ligand.torsion>
0.0153

> <Gold.PLP.Chemscore.Hbond>
2.0000

> <Gold.PLP.Chemscore.CHOScore>
0.0000

> <Gold.PLP.Chemscore.Metal>
0.0000

> <Gold.Chemscore.Hbonds>
donor molecule, donor type, donor heavy atom, donor atom, acceptor molecule, acceptor atom, score
      L1  H    17    54       P1 10175  2.00

> <Gold.PLP.Chemscore.Internal.Correction>
0.0042

> <Gold.Rescore>
     Score         DG    S(hbond)    S(metal)    S(lipo)     H(rot)  DE(clash)    DE(int)     intcor
     15.32     -19.48       1.00        0.00     117.45       1.20       1.48       2.69       ----

> <Gold.Chemscore.Fitness>
15.3170

> <Gold.Chemscore.DG>
-19.4809

> <Gold.Chemscore.ZeroCoef>
-5.4800

> <Gold.Chemscore.Hbond>
0.9955

> <Gold.Chemscore.Metal>
0.0000

> <Gold.Chemscore.Lipo>
117.4462

> <Gold.Chemscore.Internal_Hbond>
0.0000

> <Gold.Chemscore.DEClash>
1.4783

> <Gold.Chemscore.DEInternal>
2.6856

> <Gold.Chemscore.Rot>
1.1974

> <Gold.Chemscore.Internal.Correction>
   9.000000E+99

> <Gold.Chemscore.Hbonds>
donor molecule, donor type, donor heavy atom, donor atom, acceptor molecule, acceptor atom, score
      L1  H    17    54       P1 10175  1.00

> <Gold.Chemscore.Hbond.Weighted>
-3.3249

> <Gold.Chemscore.Metal.Weighted>
-0.0000

> <Gold.Chemscore.Lipo.Weighted>
-13.7412

> <Gold.Chemscore.Internal_Hbond.Weighted>
0.0000

> <Gold.Chemscore.DEClash.Weighted>
1.4783

> <Gold.Chemscore.DEInternal.Weighted>
2.6856

> <Gold.Chemscore.Rot.Weighted>
3.0652

> <Gold.Chemscore.Internal.Correction.Weighted>
   9.000000E+99

> <Gold.Protein.RotatedTorsions>
[ 6907 6896 6895 6894 ] final  149.70 input  -60.11 | X-H torsion
[ 7974 7965 7964 7962 ] final   46.92 input  175.53 | X-H torsion
[ 8008 7997 7996 7995 ] final  -91.77 input   59.86 | X-H torsion
[ 10167 10162 10161 10158 ] final  165.87 input  -65.29 | X-H torsion
[ 10718 10713 10712 10709 ] final  155.88 input   66.30 | X-H torsion
[ 10763 10752 10751 10750 ] final  -91.80 input  -60.55 | X-H torsion
[ 11005 11000 10999 10996 ] final    7.10 input  -57.11 | X-H torsion

> <Gold.Protein.ActiveResidues>
 VAL166  LYS551  ARG553  GLY616  TRP617  ASP618  TYR619  PRO620  LYS621  CYS622 
 ASP623  PHE694  ASN695  SER759  ASP760  ASP761  ALA762  ILE779  LEU786  VAL792 
 PHE793  MET794  SER795  GLU796  ALA797  LYS798  CYS799  TRP800  GLU811  SER814 

> <Gold.Protein.RotatedAtoms>
  152.1244  133.4372  159.4690 H   0  0  0  0  0  0  0  0  0  0  0  0  # atno 6907 bound_to 6896
  150.6874  134.2496  159.4514 H   0  0  0  0  0  0  0  0  0  0  0  0  # atno 6908 bound_to 6896
  152.0375  134.9731  160.0624 H   0  0  0  0  0  0  0  0  0  0  0  0  # atno 6909 bound_to 6896
  146.0345  139.4804  142.9817 H   0  0  0  0  0  0  0  0  0  0  0  0  # atno 7974 bound_to 7965
  154.7148  140.0516  157.0584 H   0  0  0  0  0  0  0  0  0  0  0  0  # atno 8008 bound_to 7997
  155.0506  140.3178  155.4674 H   0  0  0  0  0  0  0  0  0  0  0  0  # atno 8009 bound_to 7997
  156.2800  140.2116  156.5631 H   0  0  0  0  0  0  0  0  0  0  0  0  # atno 8010 bound_to 7997
  139.4914  144.4087  151.9325 H   0  0  0  0  0  0  0  0  0  0  0  0  # atno 10167 bound_to 10162
  157.2124  131.0700  151.1961 H   0  0  0  0  0  0  0  0  0  0  0  0  # atno 10718 bound_to 10713
  154.6797  135.5254  153.8246 H   0  0  0  0  0  0  0  0  0  0  0  0  # atno 10763 bound_to 10752
  153.0556  135.6549  154.0595 H   0  0  0  0  0  0  0  0  0  0  0  0  # atno 10764 bound_to 10752
  154.0484  135.2971  155.3324 H   0  0  0  0  0  0  0  0  0  0  0  0  # atno 10765 bound_to 10752
  140.5521  134.0273  155.7940 H   0  0  0  0  0  0  0  0  0  0  0  0  # atno 11005 bound_to 11000
  145.6986  141.0143  143.1516 LP  0  0  0  0  0  0  0  0  0  0  0  0  # atno 17320 bound_to 7965
  144.7045  139.8618  143.7434 LP  0  0  0  0  0  0  0  0  0  0  0  0  # atno 17321 bound_to 7965
  140.3528  144.3068  150.5946 LP  0  0  0  0  0  0  0  0  0  0  0  0  # atno 17342 bound_to 10162
  140.5471  143.2213  151.7989 LP  0  0  0  0  0  0  0  0  0  0  0  0  # atno 17343 bound_to 10162
  157.3659  130.7155  149.6532 LP  0  0  0  0  0  0  0  0  0  0  0  0  # atno 17370 bound_to 10713
  155.9689  130.4212  150.4460 LP  0  0  0  0  0  0  0  0  0  0  0  0  # atno 17371 bound_to 10713
  141.1165  133.9531  157.2811 LP  0  0  0  0  0  0  0  0  0  0  0  0  # atno 17394 bound_to 11000
  139.9450  135.0185  156.8824 LP  0  0  0  0  0  0  0  0  0  0  0  0  # atno 17395 bound_to 11000

$$$$
