#       Name:                AV-unprocessed.smi:1265
#       Creating user name   scv26
#       Creation time:       Fri Mar 27 04:44:13 2020


#       File generated by GOLD software.
#

@<TRIPOS>MOLECULE
AV-unprocessed.smi:1265
    50    52     1
SMALL
NO_CHARGES


@<TRIPOS>ATOM
      1 ****        -0.3783   2.7193   0.4652 O.2            1 S1                 0.0000
      2 ****        -0.7951   1.6165   0.8179 C.2            1 S1                 0.0000
      3 ****         0.0038   0.5644   1.0461 N.am           1 S1                 0.0000
      4 ****         1.4593   0.5454   0.9012 C.3            1 S1                 0.0000
      5 ****         1.9306  -0.2759  -0.3450 C.3            1 S1                 0.0000
      6 ****         1.3189  -1.6407  -0.3293 N.3            1 S1                 0.0000
      7 ****         1.5327  -2.4599  -1.5314 C.3            1 S1                 0.0000
      8 ****         0.7993  -3.8103  -1.4588 C.3            1 S1                 0.0000
      9 ****         1.2070  -4.5188  -0.2964 O.3            1 S1                 0.0000
     10 ****         0.9432  -3.7898   0.8943 C.3            1 S1                 0.0000
     11 ****         1.6801  -2.4412   0.8489 C.3            1 S1                 0.0000
     12 ****         1.5794   0.5444  -1.6202 C.3            1 S1                 0.0000
     13 ****         2.4945   1.7712  -1.6994 C.3            1 S1                 0.0000
     14 ****         4.0858   1.3030  -0.9797 S.3            1 S1                 0.0000
     15 ****         3.4809  -0.2900  -0.3564 C.3            1 S1                 0.0000
     16 ****        -2.0839   1.2939   1.0269 N.am           1 S1                 0.0000
     17 ****        -3.2525   2.0977   0.9115 C.ar           1 S1                 0.0000
     18 ****        -4.4678   1.5375   1.3578 C.ar           1 S1                 0.0000
     19 ****        -5.6489   2.2988   1.2541 C.ar           1 S1                 0.0000
     20 ****        -5.6840   3.5468   0.7429 N.ar           1 S1                 0.0000
     21 ****        -4.5224   4.0805   0.3101 C.ar           1 S1                 0.0000
     22 ****        -3.2865   3.4053   0.3678 C.ar           1 S1                 0.0000
     23 ****        -0.4278  -0.3039   1.3271 H              1 S1                 0.0000
     24 ****         1.8503   1.5623   0.8863 H              1 S1                 0.0000
     25 ****         1.8747   0.1341   1.8200 H              1 S1                 0.0000
     26 ****         1.1611  -1.9563  -2.4204 H              1 S1                 0.0000
     27 ****         2.5947  -2.6468  -1.6857 H              1 S1                 0.0000
     28 ****        -0.2815  -3.6621  -1.4436 H              1 S1                 0.0000
     29 ****         1.0263  -4.4118  -2.3390 H              1 S1                 0.0000
     30 ****        -0.1313  -3.6389   1.0091 H              1 S1                 0.0000
     31 ****         1.2775  -4.3753   1.7509 H              1 S1                 0.0000
     32 ****         2.7551  -2.6238   0.8600 H              1 S1                 0.0000
     33 ****         1.4421  -1.9147   1.7702 H              1 S1                 0.0000
     34 ****         1.7885  -0.0227  -2.5243 H              1 S1                 0.0000
     35 ****         0.5268   0.8220  -1.6715 H              1 S1                 0.0000
     36 ****         2.6226   2.1153  -2.7260 H              1 S1                 0.0000
     37 ****         2.0802   2.6024  -1.1288 H              1 S1                 0.0000
     38 ****         3.9056  -0.4957   0.6267 H              1 S1                 0.0000
     39 ****         3.8693  -1.0488  -1.0335 H              1 S1                 0.0000
     40 ****        -2.2499   0.3477   1.3369 H              1 S1                 0.0000
     41 ****        -4.5002   0.5417   1.7755 H              1 S1                 0.0000
     42 ****        -6.5913   1.8927   1.5907 H              1 S1                 0.0000
     43 ****        -4.5792   5.0784  -0.0989 H              1 S1                 0.0000
     44 ****        -2.4085   3.9045  -0.0096 H              1 S1                 0.0000
     45 ****         0.6024   2.8649   0.3349 LP             1 S1                 0.0000
     46 ****        -1.0203   3.4699   0.3089 LP             1 S1                 0.0000
     47 ****         0.3463  -1.4104  -0.2973 LP             1 S1                 0.0000
     48 ****         2.1894  -4.6960  -0.3549 LP             1 S1                 0.0000
     49 ****         0.7132  -5.3875  -0.2586 LP             1 S1                 0.0000
     50 ****        -6.5412   4.0588   0.6866 LP             1 S1                 0.0000
@<TRIPOS>BOND
    1    1    2 2     
    2    2    3 am    
    3    2   16 am    
    4    3    4 1     
    5    3   23 1     
    6    4    5 1     
    7    4   24 1     
    8    4   25 1     
    9    5   15 1     
   10    5    6 1     
   11    5   12 1     
   12    6   11 1     
   13    6    7 1     
   14    7    8 1     
   15    7   26 1     
   16    7   27 1     
   17    8    9 1     
   18    8   28 1     
   19    8   29 1     
   20    9   10 1     
   21   10   11 1     
   22   10   30 1     
   23   10   31 1     
   24   11   32 1     
   25   11   33 1     
   26   12   13 1     
   27   12   34 1     
   28   12   35 1     
   29   13   14 1     
   30   13   36 1     
   31   13   37 1     
   32   14   15 1     
   33   15   38 1     
   34   15   39 1     
   35   16   17 1     
   36   16   40 1     
   37   17   22 ar    
   38   17   18 ar    
   39   18   19 ar    
   40   18   41 1     
   41   19   20 ar    
   42   19   42 1     
   43   20   21 ar    
   44   21   22 ar    
   45   21   43 1     
   46   22   44 1     
   47    1   45 1     
   48    1   46 1     
   49    6   47 1     
   50    9   48 1     
   51    9   49 1     
   52   20   50 1     
@<TRIPOS>SUBSTRUCTURE
      1 S1             1
@<TRIPOS>SET
LONE_PAIRS      STATIC     ATOMS    <user>   **** ""
6 45 46 47 48 49 50
DONOR_HYDROGENS      STATIC     ATOMS    <user>   **** ""
2 23 40
ATOM$BLUE        STATIC     ATOMS    COLORGROUP SYSTEM
6 45 46 47 48 49 50
ATOM$RED        STATIC     ATOMS    COLORGROUP SYSTEM
2 23 40
