AV-unprocessed.smi:3328|AV-procd|sdf|12791|dock2
  -GOLD-   2272019143D 1   1.00000     0.00000
 Structure written by MMmdl.
 41 42  0  0  0  0  0  0  0  0  2 V2000
  152.2440  145.0291  158.3553 C   0  0  0  0  0  0  0  0  0  0  0  0
  151.9865  143.5538  158.4617 C   0  0  0  0  0  0  0  0  0  0  0  0
  152.6622  142.6054  159.2808 C   0  0  0  0  0  0  0  0  0  0  0  0
  152.1975  141.3755  159.1333 N   0  0  0  0  0  0  0  0  0  0  0  0
  151.2108  141.4956  158.2196 N   0  0  0  0  0  0  0  0  0  0  0  0
  150.4823  140.3165  157.7877 C   0  0  0  0  0  0  0  0  0  0  0  0
  151.0543  139.0077  158.3750 C   0  0  2  0  0  0  0  0  0  0  0  0
  152.4500  138.7230  157.8038 C   0  0  0  0  0  0  0  0  0  0  0  0
  150.1628  137.8594  158.0926 N   0  3  0  0  0  0  0  0  0  0  0  0
  149.6505  137.1580  159.2883 C   0  0  0  0  0  0  0  0  0  0  0  0
  148.4853  136.2280  158.9198 C   0  0  0  0  0  0  0  0  0  0  0  0
  148.0558  135.4224  160.0595 N   0  0  0  0  0  0  0  0  0  0  0  0
  148.0260  133.9719  159.9765 C   0  0  0  0  0  0  0  0  0  0  0  0
  147.6686  133.4968  161.3926 C   0  0  0  0  0  0  0  0  0  0  0  0
  147.1936  134.7441  162.1464 C   0  0  0  0  0  0  0  0  0  0  0  0
  147.5912  135.8856  161.2264 C   0  0  0  0  0  0  0  0  0  0  0  0
  147.4827  137.0689  161.5447 O   0  0  0  0  0  0  0  0  0  0  0  0
  151.0574  142.8003  157.8018 C   0  0  0  0  0  0  0  0  0  0  0  0
  153.1791  145.3130  158.8387 H   0  0  0  0  0  0  0  0  0  0  0  0
  151.4497  145.6098  158.8246 H   0  0  0  0  0  0  0  0  0  0  0  0
  152.3096  145.3525  157.3164 H   0  0  0  0  0  0  0  0  0  0  0  0
  153.4776  142.7731  159.9692 H   0  0  0  0  0  0  0  0  0  0  0  0
  149.4308  140.4308  158.0576 H   0  0  0  0  0  0  0  0  0  0  0  0
  150.5186  140.2835  156.6980 H   0  0  0  0  0  0  0  0  0  0  0  0
  151.1635  139.1194  159.4554 H   0  0  0  0  0  0  0  0  0  0  0  0
  153.1383  139.5399  158.0236 H   0  0  0  0  0  0  0  0  0  0  0  0
  152.4190  138.5977  156.7207 H   0  0  0  0  0  0  0  0  0  0  0  0
  152.8730  137.8141  158.2331 H   0  0  0  0  0  0  0  0  0  0  0  0
  149.3796  138.1975  157.5511 H   0  0  0  0  0  0  0  0  0  0  0  0
  150.4623  136.5885  159.7422 H   0  0  0  0  0  0  0  0  0  0  0  0
  149.3227  137.8855  160.0301 H   0  0  0  0  0  0  0  0  0  0  0  0
  147.6378  136.8137  158.5592 H   0  0  0  0  0  0  0  0  0  0  0  0
  148.7775  135.5709  158.0994 H   0  0  0  0  0  0  0  0  0  0  0  0
  147.2644  133.6665  159.2577 H   0  0  0  0  0  0  0  0  0  0  0  0
  148.9869  133.5737  159.6474 H   0  0  0  0  0  0  0  0  0  0  0  0
  146.9057  132.7177  161.3741 H   0  0  0  0  0  0  0  0  0  0  0  0
  148.5495  133.0798  161.8826 H   0  0  0  0  0  0  0  0  0  0  0  0
  146.1112  134.7428  162.2775 H   0  0  0  0  0  0  0  0  0  0  0  0
  147.6652  134.8386  163.1250 H   0  0  0  0  0  0  0  0  0  0  0  0
  150.3141  143.0805  157.0699 H   0  0  0  0  0  0  0  0  0  0  0  0
  150.6712  137.1871  157.5362 H   0  0  0  0  0  0  0  0  0  0  0  0
  1  2  1  0  0  0  0
  1 19  1  0  0  0  0
  1 20  1  0  0  0  0
  1 21  1  0  0  0  0
  2 18  2  0  0  0  0
  2  3  1  0  0  0  0
  3  4  2  0  0  0  0
  3 22  1  0  0  0  0
  4  5  1  0  0  0  0
  5  6  1  0  0  0  0
  5 18  1  0  0  0  0
  6  7  1  0  0  0  0
  6 23  1  0  0  0  0
  6 24  1  0  0  0  0
  7  8  1  0  0  0  0
  7  9  1  0  0  0  0
  7 25  1  0  0  0  0
  8 26  1  0  0  0  0
  8 27  1  0  0  0  0
  8 28  1  0  0  0  0
  9 10  1  0  0  0  0
  9 29  1  0  0  0  0
  9 41  1  0  0  0  0
 10 11  1  0  0  0  0
 10 30  1  0  0  0  0
 10 31  1  0  0  0  0
 11 12  1  0  0  0  0
 11 32  1  0  0  0  0
 11 33  1  0  0  0  0
 12 16  1  0  0  0  0
 12 13  1  0  0  0  0
 13 14  1  0  0  0  0
 13 34  1  0  0  0  0
 13 35  1  0  0  0  0
 14 15  1  0  0  0  0
 14 36  1  0  0  0  0
 14 37  1  0  0  0  0
 15 16  1  0  0  0  0
 15 38  1  0  0  0  0
 15 39  1  0  0  0  0
 16 17  2  0  0  0  0
 18 40  1  0  0  0  0
M  CHG  1   9   1
M  END
> <s_m_source_file>
AV-unprocessed.smi

> <i_m_source_file_index>
3328

> <i_lp_mmshare_version>
43012

> <i_f3d_flags>
0

> <s_epik_input>
W0NIM11jMVtjSF1ubihbY0hdMSlbQ0gyXVtDQEhdKFtDSDNdKVtOSF1bQ0gyXVtDSDJdTjJbQ0gyXVtDSDJdW0NIMl1DMj1P

> <s_epik_cmdline>
J2VwaWtfcHl0aG9uJywgJy1waCcsICc3LjAnLCAnLXRuJywgJzgnLCAnLW1hJywgJzIwMCcsICctbWV0YWxfYmluZGluZycsICctaW1hZScsICc8aW5maWxlLm1hZT4nLCAnLW9tYWUnLCAnPG91dGZpbGUubWFlPic=

> <r_lp_tautomer_probability>
1

> <r_epik_Ionization_Penalty>
0.00826719

> <r_epik_Ionization_Penalty_Charging>
0.00825899

> <r_epik_Ionization_Penalty_Neutral>
8.19932e-06

> <r_epik_State_Penalty>
0.00621436

> <r_epik_Charging_Adjusted_Penalty>
0.0144734

> <i_epik_Tot_Q>
1

> <i_epik_Tot_abs_Q>
1

> <r_epik_Metal_State_Penalty>
0.00621509

> <b_epik_Metal_Only>
0

> <s_lp_Force_Field>
OPLS_2005

> <r_lp_Energy>
18.6505

> <b_lp_Chiralities_Consistent>
1

> <s_lp_Variant>
AV-unprocessed.smi:3328-1

> <Gold.Version>
5.8.1

> <Gold.Id.Protein>
6NUR|6NUR_protein|mol2

> <Gold.PLP.Fitness>
45.0381

> <Gold.PLP.PLP>
-38.9186

> <Gold.PLP.part.hbond>
-2.0000

> <Gold.PLP.part.metal>
0.0000

> <Gold.PLP.part.buried>
-4.4114

> <Gold.PLP.part.nonpolar>
-31.9086

> <Gold.PLP.part.repulsive>
0.1109

> <Gold.PLP.ligand.clash>
0.0000

> <Gold.PLP.ligand.torsion>
0.8814

> <Gold.PLP.Chemscore.Hbond>
1.6897

> <Gold.PLP.Chemscore.CHOScore>
0.8643

> <Gold.PLP.Chemscore.Metal>
0.0000

> <Gold.Chemscore.Hbonds>
donor molecule, donor type, donor heavy atom, donor atom, acceptor molecule, acceptor atom, score
      P1  H  6931  6943       L1    17  0.99
      P1  H  6934  6947       L1    17  0.79
      L1  C    18    40       P1  8028  0.87

> <Gold.PLP.Chemscore.Internal.Correction>
0.2204

> <Gold.Rescore>
     Score         DG    S(hbond)    S(metal)    S(lipo)     H(rot)  DE(clash)    DE(int)     intcor
     15.65     -16.63       1.71        0.00      89.67       1.97       0.01       0.97       ----

> <Gold.Chemscore.Fitness>
15.6546

> <Gold.Chemscore.DG>
-16.6276

> <Gold.Chemscore.ZeroCoef>
-5.4800

> <Gold.Chemscore.Hbond>
1.7076

> <Gold.Chemscore.Metal>
0.0000

> <Gold.Chemscore.Lipo>
89.6671

> <Gold.Chemscore.Internal_Hbond>
0.0000

> <Gold.Chemscore.DEClash>
0.0069

> <Gold.Chemscore.DEInternal>
0.9660

> <Gold.Chemscore.Rot>
1.9714

> <Gold.Chemscore.Internal.Correction>
   9.000000E+99

> <Gold.Chemscore.Hbonds>
donor molecule, donor type, donor heavy atom, donor atom, acceptor molecule, acceptor atom, score
      P1  H  6931  6943       L1    17  0.92
      P1  H  6934  6947       L1    17  0.75

> <Gold.Chemscore.Hbond.Weighted>
-5.7033

> <Gold.Chemscore.Metal.Weighted>
-0.0000

> <Gold.Chemscore.Lipo.Weighted>
-10.4911

> <Gold.Chemscore.Internal_Hbond.Weighted>
0.0000

> <Gold.Chemscore.DEClash.Weighted>
0.0069

> <Gold.Chemscore.DEInternal.Weighted>
0.9660

> <Gold.Chemscore.Rot.Weighted>
5.0468

> <Gold.Chemscore.Internal.Correction.Weighted>
   9.000000E+99

> <Gold.Protein.RotatedTorsions>
[ 6907 6896 6895 6894 ] final  161.57 input  -60.11 | X-H torsion
[ 7974 7965 7964 7962 ] final   36.76 input  175.53 | X-H torsion
[ 8008 7997 7996 7995 ] final   22.10 input   59.86 | X-H torsion
[ 10167 10162 10161 10158 ] final  -93.34 input  -65.29 | X-H torsion
[ 10718 10713 10712 10709 ] final  -65.57 input   66.30 | X-H torsion
[ 10763 10752 10751 10750 ] final  120.12 input  -60.55 | X-H torsion
[ 11005 11000 10999 10996 ] final   -8.60 input  -57.11 | X-H torsion

> <Gold.Protein.ActiveResidues>
 VAL166  LYS551  ARG553  GLY616  TRP617  ASP618  TYR619  PRO620  LYS621  CYS622 
 ASP623  PHE694  ASN695  SER759  ASP760  ASP761  ALA762  ILE779  LEU786  VAL792 
 PHE793  MET794  SER795  GLU796  ALA797  LYS798  CYS799  TRP800  GLU811  SER814 

> <Gold.Protein.RotatedAtoms>
  151.9536  133.3673  159.4008 H   0  0  0  0  0  0  0  0  0  0  0  0  # atno 6907 bound_to 6896
  150.6976  134.4314  159.5259 H   0  0  0  0  0  0  0  0  0  0  0  0  # atno 6908 bound_to 6896
  152.1991  134.8604  160.0560 H   0  0  0  0  0  0  0  0  0  0  0  0  # atno 6909 bound_to 6896
  146.1188  139.5978  142.9304 H   0  0  0  0  0  0  0  0  0  0  0  0  # atno 7974 bound_to 7965
  154.9605  140.3077  155.5033 H   0  0  0  0  0  0  0  0  0  0  0  0  # atno 8008 bound_to 7997
  156.2977  140.2302  156.4629 H   0  0  0  0  0  0  0  0  0  0  0  0  # atno 8009 bound_to 7997
  154.7969  140.0436  157.1232 H   0  0  0  0  0  0  0  0  0  0  0  0  # atno 8010 bound_to 7997
  140.3256  143.3024  151.9998 H   0  0  0  0  0  0  0  0  0  0  0  0  # atno 10167 bound_to 10162
  156.0662  130.4249  150.1583 H   0  0  0  0  0  0  0  0  0  0  0  0  # atno 10718 bound_to 10713
  153.5937  135.3461  155.2920 H   0  0  0  0  0  0  0  0  0  0  0  0  # atno 10763 bound_to 10752
  154.8648  135.4211  154.2489 H   0  0  0  0  0  0  0  0  0  0  0  0  # atno 10764 bound_to 10752
  153.3301  135.7044  153.7026 H   0  0  0  0  0  0  0  0  0  0  0  0  # atno 10765 bound_to 10752
  140.7252  133.8795  155.8851 H   0  0  0  0  0  0  0  0  0  0  0  0  # atno 11005 bound_to 11000
  145.5511  141.0413  143.2278 LP  0  0  0  0  0  0  0  0  0  0  0  0  # atno 17320 bound_to 7965
  144.7577  139.7033  143.7247 LP  0  0  0  0  0  0  0  0  0  0  0  0  # atno 17321 bound_to 7965
  139.4866  144.6276  151.7133 LP  0  0  0  0  0  0  0  0  0  0  0  0  # atno 17342 bound_to 10162
  140.5444  144.0527  150.6101 LP  0  0  0  0  0  0  0  0  0  0  0  0  # atno 17343 bound_to 10162
  156.9642  130.9814  151.3472 LP  0  0  0  0  0  0  0  0  0  0  0  0  # atno 17370 bound_to 10713
  157.5705  130.8307  149.8385 LP  0  0  0  0  0  0  0  0  0  0  0  0  # atno 17371 bound_to 10713
  140.9969  134.1203  157.4355 LP  0  0  0  0  0  0  0  0  0  0  0  0  # atno 17394 bound_to 11000
  139.8839  135.0057  156.6331 LP  0  0  0  0  0  0  0  0  0  0  0  0  # atno 17395 bound_to 11000

$$$$
