#       Name:                AV-unprocessed.smi:3249
#       Creating user name   scv26
#       Creation time:       Fri Mar 27 18:31:06 2020


#       File generated by GOLD software.
#

@<TRIPOS>MOLECULE
AV-unprocessed.smi:3249
    47    48     1
SMALL
NO_CHARGES


@<TRIPOS>ATOM
      1 ****        -3.5378  -4.7682   3.3492 C.3            1 S1                 0.0000
      2 ****        -2.9107  -3.4875   2.8790 C.2            1 S1                 0.0000
      3 ****        -2.5462  -2.3538   3.6591 C.2            1 S1                 0.0000
      4 ****        -2.0130  -1.3829   2.9359 N.2            1 S1                 0.0000
      5 ****        -2.0146  -1.8601   1.6712 N.pl3          1 S1                 0.0000
      6 ****        -1.4955  -1.0463   0.5791 C.3            1 S1                 0.0000
      7 ****        -2.3712   0.2083   0.3973 C.3            1 S1                 0.0000
      8 ****         0.0096  -0.7117   0.7635 C.3            1 S1                 0.0000
      9 ****         0.8710  -1.9510   1.0672 C.3            1 S1                 0.0000
     10 ****         0.5427  -0.0457  -0.4462 N.4            1 S1                 1.0000
     11 ****         0.9199   1.3708  -0.2614 C.3            1 S1                 0.0000
     12 ****         1.4013   1.9906  -1.5804 C.3            1 S1                 0.0000
     13 ****         1.6382   3.5076  -1.4485 C.3            1 S1                 0.0000
     14 ****         2.2037   4.0806  -2.7530 C.3            1 S1                 0.0000
     15 ****         3.4458   3.2860  -3.1702 C.3            1 S1                 0.0000
     16 ****         3.1298   1.7825  -3.2088 C.3            1 S1                 0.0000
     17 ****         2.6273   1.3590  -1.9446 O.3            1 S1                 0.0000
     18 ****        -2.5539  -3.1284   1.6101 C.2            1 S1                 0.0000
     19 ****        -3.9331  -4.6785   4.3614 H              1 S1                 0.0000
     20 ****        -2.8193  -5.5878   3.3563 H              1 S1                 0.0000
     21 ****        -4.3658  -5.0709   2.7079 H              1 S1                 0.0000
     22 ****        -2.6535  -2.2083   4.7239 H              1 S1                 0.0000
     23 ****        -1.5941  -1.6464  -0.3269 H              1 S1                 0.0000
     24 ****        -2.0994   0.7603  -0.5023 H              1 S1                 0.0000
     25 ****        -2.2781   0.8880   1.2450 H              1 S1                 0.0000
     26 ****        -3.4239  -0.0607   0.3026 H              1 S1                 0.0000
     27 ****         0.1126  -0.0366   1.6151 H              1 S1                 0.0000
     28 ****         0.5873  -2.4219   2.0086 H              1 S1                 0.0000
     29 ****         1.9247  -1.6831   1.1513 H              1 S1                 0.0000
     30 ****         0.7803  -2.6998   0.2796 H              1 S1                 0.0000
     31 ****         1.3658  -0.5479  -0.7476 H              1 S1                 0.0000
     32 ****         0.0530   1.9204   0.1073 H              1 S1                 0.0000
     33 ****         1.6972   1.4470   0.5003 H              1 S1                 0.0000
     34 ****         0.6531   1.8077  -2.3541 H              1 S1                 0.0000
     35 ****         0.7084   4.0165  -1.1921 H              1 S1                 0.0000
     36 ****         2.3361   3.7023  -0.6329 H              1 S1                 0.0000
     37 ****         1.4488   4.0220  -3.5381 H              1 S1                 0.0000
     38 ****         2.4497   5.1358  -2.6311 H              1 S1                 0.0000
     39 ****         3.8008   3.6236  -4.1443 H              1 S1                 0.0000
     40 ****         4.2541   3.4703  -2.4613 H              1 S1                 0.0000
     41 ****         2.4067   1.5561  -3.9940 H              1 S1                 0.0000
     42 ****         4.0330   1.2161  -3.4362 H              1 S1                 0.0000
     43 ****        -2.6389  -3.6668   0.6776 H              1 S1                 0.0000
     44 ****        -0.1525  -0.1052  -1.1762 H              1 S1                 0.0000
     45 ****        -1.6825  -0.4943   3.2539 LP             1 S1                 0.0000
     46 ****         2.4768   0.3709  -1.9784 LP             1 S1                 0.0000
     47 ****         3.3112   1.5682  -1.2456 LP             1 S1                 0.0000
@<TRIPOS>BOND
    1    1    2 1     
    2    1   19 1     
    3    1   20 1     
    4    1   21 1     
    5    2   18 2     
    6    2    3 1     
    7    3    4 2     
    8    3   22 1     
    9    4    5 1     
   10    5    6 1     
   11    5   18 1     
   12    6    7 1     
   13    6    8 1     
   14    6   23 1     
   15    7   24 1     
   16    7   25 1     
   17    7   26 1     
   18    8    9 1     
   19    8   10 1     
   20    8   27 1     
   21    9   28 1     
   22    9   29 1     
   23    9   30 1     
   24   10   11 1     
   25   10   31 1     
   26   10   44 1     
   27   11   12 1     
   28   11   32 1     
   29   11   33 1     
   30   12   17 1     
   31   12   13 1     
   32   12   34 1     
   33   13   14 1     
   34   13   35 1     
   35   13   36 1     
   36   14   15 1     
   37   14   37 1     
   38   14   38 1     
   39   15   16 1     
   40   15   39 1     
   41   15   40 1     
   42   16   17 1     
   43   16   41 1     
   44   16   42 1     
   45   18   43 1     
   46    4   45 1     
   47   17   46 1     
   48   17   47 1     
@<TRIPOS>SUBSTRUCTURE
      1 S1             1
@<TRIPOS>SET
LONE_PAIRS      STATIC     ATOMS    <user>   **** ""
3 45 46 47
DONOR_HYDROGENS      STATIC     ATOMS    <user>   **** ""
2 31 44
ATOM$BLUE        STATIC     ATOMS    COLORGROUP SYSTEM
3 45 46 47
ATOM$RED        STATIC     ATOMS    COLORGROUP SYSTEM
2 31 44
