AV-unprocessed.smi:2799|AV-procd|sdf|10791|dock3
  -GOLD-   2272015223D 1   1.00000     0.00000
 Structure written by MMmdl.
 52 53  0  0  0  0  0  0  0  0  2 V2000
  145.7485  131.7877  150.0388 C   0  0  0  0  0  0  0  0  0  0  0  0
  145.6087  132.6527  151.3004 C   0  0  0  0  0  0  0  0  0  0  0  0
  144.6917  133.8564  151.0254 C   0  0  0  0  0  0  0  0  0  0  0  0
  147.0003  133.0884  151.8115 C   0  0  0  0  0  0  0  0  0  0  0  0
  147.7904  131.9995  152.4520 N   0  3  2  0  0  0  0  0  0  0  0  0
  146.9407  131.1289  153.3099 C   0  0  0  0  0  0  0  0  0  0  0  0
  147.7015  129.8748  153.7681 C   0  0  0  0  0  0  0  0  0  0  0  0
  149.0058  130.2497  154.4787 C   0  0  0  0  0  0  0  0  0  0  0  0
  149.8465  131.1562  153.5705 C   0  0  0  0  0  0  0  0  0  0  0  0
  149.0661  132.4146  153.1198 C   0  0  2  0  0  0  0  0  0  0  0  0
  148.8550  133.4667  154.2424 C   0  0  0  0  0  0  0  0  0  0  0  0
  149.2555  134.8089  153.8281 N   0  0  0  0  0  0  0  0  0  0  0  0
  150.2748  135.5126  154.3424 C   0  0  0  0  0  0  0  0  0  0  0  0
  151.0035  135.0896  155.2394 O   0  0  0  0  0  0  0  0  0  0  0  0
  150.3939  136.7034  153.7275 N   0  0  0  0  0  0  0  0  0  0  0  0
  151.3129  137.7395  153.9683 C   0  0  0  0  0  0  0  0  0  0  0  0
  152.6326  137.5540  154.2234 C   0  0  0  0  0  0  0  0  0  0  0  0
  153.5050  138.6765  154.4714 C   0  0  0  0  0  0  0  0  0  0  0  0
  152.9785  139.9090  154.4536 C   0  0  0  0  0  0  0  0  0  0  0  0
  151.6128  140.1237  154.2021 N   0  0  0  0  0  0  0  0  0  0  0  0
  151.1322  141.5077  154.2041 C   0  0  0  0  0  0  0  0  0  0  0  0
  150.7408  139.1001  153.9595 C   0  0  0  0  0  0  0  0  0  0  0  0
  149.5455  139.3168  153.7446 O   0  0  0  0  0  0  0  0  0  0  0  0
  146.2150  132.3435  149.2246 H   0  0  0  0  0  0  0  0  0  0  0  0
  144.7755  131.4410  149.6893 H   0  0  0  0  0  0  0  0  0  0  0  0
  146.3595  130.9054  150.2321 H   0  0  0  0  0  0  0  0  0  0  0  0
  145.1302  132.0223  152.0492 H   0  0  0  0  0  0  0  0  0  0  0  0
  145.1247  134.5229  150.2787 H   0  0  0  0  0  0  0  0  0  0  0  0
  144.5134  134.4394  151.9292 H   0  0  0  0  0  0  0  0  0  0  0  0
  143.7194  133.5310  150.6543 H   0  0  0  0  0  0  0  0  0  0  0  0
  147.5793  133.5414  151.0067 H   0  0  0  0  0  0  0  0  0  0  0  0
  146.8531  133.8823  152.5454 H   0  0  0  0  0  0  0  0  0  0  0  0
  146.5760  131.6890  154.1713 H   0  0  0  0  0  0  0  0  0  0  0  0
  146.0579  130.8149  152.7516 H   0  0  0  0  0  0  0  0  0  0  0  0
  147.0737  129.2786  154.4311 H   0  0  0  0  0  0  0  0  0  0  0  0
  147.9233  129.2463  152.9045 H   0  0  0  0  0  0  0  0  0  0  0  0
  148.7857  130.7549  155.4192 H   0  0  0  0  0  0  0  0  0  0  0  0
  149.5663  129.3498  154.7338 H   0  0  0  0  0  0  0  0  0  0  0  0
  150.7794  131.4236  154.0665 H   0  0  0  0  0  0  0  0  0  0  0  0
  150.1413  130.5887  152.6867 H   0  0  0  0  0  0  0  0  0  0  0  0
  149.6950  132.8819  152.3632 H   0  0  0  0  0  0  0  0  0  0  0  0
  147.7993  133.5363  154.5013 H   0  0  0  0  0  0  0  0  0  0  0  0
  149.3691  133.1752  155.1585 H   0  0  0  0  0  0  0  0  0  0  0  0
  148.7140  135.2361  153.0905 H   0  0  0  0  0  0  0  0  0  0  0  0
  149.7663  136.8746  152.9552 H   0  0  0  0  0  0  0  0  0  0  0  0
  153.0708  136.5700  154.2676 H   0  0  0  0  0  0  0  0  0  0  0  0
  154.5568  138.5269  154.6661 H   0  0  0  0  0  0  0  0  0  0  0  0
  153.5650  140.7990  154.6295 H   0  0  0  0  0  0  0  0  0  0  0  0
  150.7125  141.7680  153.2312 H   0  0  0  0  0  0  0  0  0  0  0  0
  151.9217  142.2284  154.4207 H   0  0  0  0  0  0  0  0  0  0  0  0
  150.3546  141.6428  154.9577 H   0  0  0  0  0  0  0  0  0  0  0  0
  148.0783  131.4053  151.6876 H   0  0  0  0  0  0  0  0  0  0  0  0
  1  2  1  0  0  0  0
  1 24  1  0  0  0  0
  1 25  1  0  0  0  0
  1 26  1  0  0  0  0
  2  3  1  0  0  0  0
  2  4  1  0  0  0  0
  2 27  1  0  0  0  0
  3 28  1  0  0  0  0
  3 29  1  0  0  0  0
  3 30  1  0  0  0  0
  4  5  1  0  0  0  0
  4 31  1  0  0  0  0
  4 32  1  0  0  0  0
  5 10  1  0  0  0  0
  5  6  1  0  0  0  0
  5 52  1  0  0  0  0
  6  7  1  0  0  0  0
  6 33  1  0  0  0  0
  6 34  1  0  0  0  0
  7  8  1  0  0  0  0
  7 35  1  0  0  0  0
  7 36  1  0  0  0  0
  8  9  1  0  0  0  0
  8 37  1  0  0  0  0
  8 38  1  0  0  0  0
  9 10  1  0  0  0  0
  9 39  1  0  0  0  0
  9 40  1  0  0  0  0
 10 11  1  0  0  0  0
 10 41  1  0  0  0  0
 11 12  1  0  0  0  0
 11 42  1  0  0  0  0
 11 43  1  0  0  0  0
 12 13  1  0  0  0  0
 12 44  1  0  0  0  0
 13 14  2  0  0  0  0
 13 15  1  0  0  0  0
 15 16  1  0  0  0  0
 15 45  1  0  0  0  0
 16 22  1  0  0  0  0
 16 17  2  0  0  0  0
 17 18  1  0  0  0  0
 17 46  1  0  0  0  0
 18 19  2  0  0  0  0
 18 47  1  0  0  0  0
 19 20  1  0  0  0  0
 19 48  1  0  0  0  0
 20 21  1  0  0  0  0
 20 22  1  0  0  0  0
 21 49  1  0  0  0  0
 21 50  1  0  0  0  0
 21 51  1  0  0  0  0
 22 23  2  0  0  0  0
M  CHG  1   5   1
M  END
> <s_m_source_file>
AV-unprocessed.smi

> <i_m_source_file_index>
2799

> <i_lp_mmshare_version>
43012

> <i_f3d_flags>
0

> <s_epik_input>
W0NIM11bQ0hdKFtDSDNdKVtDSDJdTjFbQ0gyXVtDSDJdW0NIMl1bQ0gyXVtDQEhdMVtDSDJdW05IXUMoPU8pW05IXWMyW2NIXVtjSF1bY0hdbihbQ0gzXSljMj1P

> <s_epik_cmdline>
J2VwaWtfcHl0aG9uJywgJy1waCcsICc3LjAnLCAnLXRuJywgJzgnLCAnLW1hJywgJzIwMCcsICctbWV0YWxfYmluZGluZycsICctaW1hZScsICc8aW5maWxlLm1hZT4nLCAnLW9tYWUnLCAnPG91dGZpbGUubWFlPic=

> <r_lp_tautomer_probability>
1

> <r_epik_Ionization_Penalty>
0.0010885

> <r_epik_Ionization_Penalty_Charging>
0.00106921

> <r_epik_Ionization_Penalty_Neutral>
1.92865e-05

> <r_epik_State_Penalty>
0.000697184

> <r_epik_Charging_Adjusted_Penalty>
0.0017664

> <i_epik_Tot_Q>
1

> <i_epik_Tot_abs_Q>
1

> <r_epik_Metal_State_Penalty>
-0

> <b_epik_Metal_Only>
0

> <s_lp_Force_Field>
OPLS_2005

> <r_lp_Energy>
36.9818

> <b_lp_Chiralities_Consistent>
1

> <s_lp_Variant>
AV-unprocessed.smi:2799-3

> <Gold.Version>
5.8.1

> <Gold.Id.Protein>
6NUR|6NUR_protein|mol2

> <Gold.PLP.Fitness>
47.5134

> <Gold.PLP.PLP>
-42.4834

> <Gold.PLP.part.hbond>
-3.0000

> <Gold.PLP.part.metal>
0.0000

> <Gold.PLP.part.buried>
-4.1321

> <Gold.PLP.part.nonpolar>
-35.8160

> <Gold.PLP.part.repulsive>
0.2113

> <Gold.PLP.ligand.clash>
0.0000

> <Gold.PLP.ligand.torsion>
1.2313

> <Gold.PLP.Chemscore.Hbond>
2.4400

> <Gold.PLP.Chemscore.CHOScore>
0.0000

> <Gold.PLP.Chemscore.Metal>
0.0000

> <Gold.Chemscore.Hbonds>
donor molecule, donor type, donor heavy atom, donor atom, acceptor molecule, acceptor atom, score
      L1  H     5    52       P1 10747  1.00
      L1  H    12    44       P1  7948  0.74
      L1  H    15    45       P1  7948  0.69
      P1  H 10752 10764       L1    14  0.77

> <Gold.PLP.Chemscore.Internal.Correction>
0.1726

> <Gold.Rescore>
     Score         DG    S(hbond)    S(metal)    S(lipo)     H(rot)  DE(clash)    DE(int)     intcor
     19.52     -21.70       2.77        0.00      93.79       1.57       0.12       2.06       ----

> <Gold.Chemscore.Fitness>
19.5209

> <Gold.Chemscore.DG>
-21.6953

> <Gold.Chemscore.ZeroCoef>
-5.4800

> <Gold.Chemscore.Hbond>
2.7717

> <Gold.Chemscore.Metal>
0.0000

> <Gold.Chemscore.Lipo>
93.7946

> <Gold.Chemscore.Internal_Hbond>
0.0000

> <Gold.Chemscore.DEClash>
0.1183

> <Gold.Chemscore.DEInternal>
2.0561

> <Gold.Chemscore.Rot>
1.5688

> <Gold.Chemscore.Internal.Correction>
   9.000000E+99

> <Gold.Chemscore.Hbonds>
donor molecule, donor type, donor heavy atom, donor atom, acceptor molecule, acceptor atom, score
      L1  H     5    52       P1 10747  0.99
      L1  H    12    44       P1  7948  0.50
      L1  H    15    45       P1  7948  0.15
      P1  H 10752 10764       L1    14  0.33

> <Gold.Chemscore.Hbond.Weighted>
-9.2574

> <Gold.Chemscore.Metal.Weighted>
-0.0000

> <Gold.Chemscore.Lipo.Weighted>
-10.9740

> <Gold.Chemscore.Internal_Hbond.Weighted>
0.0000

> <Gold.Chemscore.DEClash.Weighted>
0.1183

> <Gold.Chemscore.DEInternal.Weighted>
2.0561

> <Gold.Chemscore.Rot.Weighted>
4.0161

> <Gold.Chemscore.Internal.Correction.Weighted>
   9.000000E+99

> <Gold.Protein.RotatedTorsions>
[ 6907 6896 6895 6894 ] final  148.31 input  -60.11 | X-H torsion
[ 7974 7965 7964 7962 ] final  140.62 input  175.53 | X-H torsion
[ 8008 7997 7996 7995 ] final  -45.74 input   59.86 | X-H torsion
[ 10167 10162 10161 10158 ] final  -83.50 input  -65.29 | X-H torsion
[ 10718 10713 10712 10709 ] final  148.96 input   66.30 | X-H torsion
[ 10763 10752 10751 10750 ] final  -59.42 input  -60.55 | X-H torsion
[ 11005 11000 10999 10996 ] final   -7.29 input  -57.11 | X-H torsion

> <Gold.Protein.ActiveResidues>
 VAL166  LYS551  ARG553  GLY616  TRP617  ASP618  TYR619  PRO620  LYS621  CYS622 
 ASP623  PHE694  ASN695  SER759  ASP760  ASP761  ALA762  ILE779  LEU786  VAL792 
 PHE793  MET794  SER795  GLU796  ALA797  LYS798  CYS799  TRP800  GLU811  SER814 

> <Gold.Protein.RotatedAtoms>
  152.1432  133.4476  159.4776 H   0  0  0  0  0  0  0  0  0  0  0  0  # atno 6907 bound_to 6896
  150.6888  134.2280  159.4432 H   0  0  0  0  0  0  0  0  0  0  0  0  # atno 6908 bound_to 6896
  152.0172  134.9842  160.0620 H   0  0  0  0  0  0  0  0  0  0  0  0  # atno 6909 bound_to 6896
  144.9170  139.5217  143.5681 H   0  0  0  0  0  0  0  0  0  0  0  0  # atno 7974 bound_to 7965
  154.4003  140.1389  156.3898 H   0  0  0  0  0  0  0  0  0  0  0  0  # atno 8008 bound_to 7997
  155.7925  140.3478  155.5337 H   0  0  0  0  0  0  0  0  0  0  0  0  # atno 8009 bound_to 7997
  155.8565  140.0949  157.1632 H   0  0  0  0  0  0  0  0  0  0  0  0  # atno 8010 bound_to 7997
  140.4221  143.2580  151.8876 H   0  0  0  0  0  0  0  0  0  0  0  0  # atno 10167 bound_to 10162
  157.3021  131.0872  151.1382 H   0  0  0  0  0  0  0  0  0  0  0  0  # atno 10718 bound_to 10713
  154.2534  135.6322  153.5248 H   0  0  0  0  0  0  0  0  0  0  0  0  # atno 10763 bound_to 10752
  152.9908  135.5570  154.5783 H   0  0  0  0  0  0  0  0  0  0  0  0  # atno 10764 bound_to 10752
  154.5316  135.2888  155.1150 H   0  0  0  0  0  0  0  0  0  0  0  0  # atno 10765 bound_to 10752
  140.7112  133.8907  155.8752 H   0  0  0  0  0  0  0  0  0  0  0  0  # atno 11005 bound_to 11000
  146.3187  139.8021  142.8963 LP  0  0  0  0  0  0  0  0  0  0  0  0  # atno 17320 bound_to 7965
  145.3358  141.0277  143.3420 LP  0  0  0  0  0  0  0  0  0  0  0  0  # atno 17321 bound_to 7965
  139.4783  144.5426  151.8505 LP  0  0  0  0  0  0  0  0  0  0  0  0  # atno 17342 bound_to 10162
  140.4522  144.1839  150.5898 LP  0  0  0  0  0  0  0  0  0  0  0  0  # atno 17343 bound_to 10162
  157.2737  130.6717  149.6032 LP  0  0  0  0  0  0  0  0  0  0  0  0  # atno 17370 bound_to 10713
  155.9672  130.4471  150.5567 LP  0  0  0  0  0  0  0  0  0  0  0  0  # atno 17371 bound_to 10713
  141.0083  134.1056  157.4248 LP  0  0  0  0  0  0  0  0  0  0  0  0  # atno 17394 bound_to 11000
  139.8871  135.0087  156.6541 LP  0  0  0  0  0  0  0  0  0  0  0  0  # atno 17395 bound_to 11000

$$$$
