AV-unprocessed.smi:686|AV-procd|sdf|3349|dock4
  -GOLD-   22720 0323D 1   1.00000     0.00000
 Structure written by MMmdl.
 40 41  0  0  0  0  0  0  0  0  3 V2000
  150.4157  135.3745  154.9235 C   0  0  0  0  0  0  0  0  0  0  0  0
  149.5753  134.1040  155.2003 C   0  0  2  0  0  0  0  0  0  0  0  0
  149.2032  133.4009  153.8887 C   0  0  0  0  0  0  0  0  0  0  0  0
  147.9554  134.0551  153.4264 N   0  3  1  0  0  0  0  0  0  0  0  0
  147.1049  133.2515  152.5024 C   0  0  0  0  0  0  0  0  0  0  0  0
  145.8684  134.0411  152.0304 C   0  0  0  0  0  0  0  0  0  0  0  0
  146.6488  131.9405  153.1702 C   0  0  0  0  0  0  0  0  0  0  0  0
  147.2643  134.5918  154.6280 C   0  0  0  0  0  0  0  0  0  0  0  0
  148.1839  134.3284  155.8287 C   0  0  2  0  0  0  0  0  0  0  0  0
  148.1385  135.4116  156.8054 N   0  5  0  0  0  0  0  0  0  0  0  0
  148.4462  135.1539  158.3834 S   0  0  0  0  0  0  0  0  0  0  0  0
  148.2398  133.7594  158.8096 O   0  0  0  0  0  0  0  0  0  0  0  0
  149.7180  135.7785  158.7773 O   0  0  0  0  0  0  0  0  0  0  0  0
  147.1294  136.1573  159.2114 C   0  0  0  0  0  0  0  0  0  0  0  0
  147.3489  136.1622  160.6979 C   0  0  0  0  0  0  0  0  0  0  0  0
  147.3537  135.0590  161.5961 C   0  0  0  0  0  0  0  0  0  0  0  0
  147.6027  135.6352  162.8080 C   0  0  0  0  0  0  0  0  0  0  0  0
  147.7498  136.9774  162.6749 O   0  0  0  0  0  0  0  0  0  0  0  0
  147.5893  137.3040  161.3236 N   0  0  0  0  0  0  0  0  0  0  0  0
  149.8894  136.1004  154.3009 H   0  0  0  0  0  0  0  0  0  0  0  0
  151.3383  135.1148  154.4038 H   0  0  0  0  0  0  0  0  0  0  0  0
  150.7116  135.8772  155.8459 H   0  0  0  0  0  0  0  0  0  0  0  0
  150.1691  133.4356  155.8248 H   0  0  0  0  0  0  0  0  0  0  0  0
  149.9920  133.4776  153.1393 H   0  0  0  0  0  0  0  0  0  0  0  0
  149.0274  132.3349  154.0599 H   0  0  0  0  0  0  0  0  0  0  0  0
  147.7020  133.0021  151.6239 H   0  0  0  0  0  0  0  0  0  0  0  0
  145.2301  133.4244  151.3965 H   0  0  0  0  0  0  0  0  0  0  0  0
  146.1402  134.9175  151.4420 H   0  0  0  0  0  0  0  0  0  0  0  0
  145.2665  134.3774  152.8753 H   0  0  0  0  0  0  0  0  0  0  0  0
  146.0116  131.3632  152.4996 H   0  0  0  0  0  0  0  0  0  0  0  0
  146.0774  132.1375  154.0779 H   0  0  0  0  0  0  0  0  0  0  0  0
  147.4875  131.2986  153.4389 H   0  0  0  0  0  0  0  0  0  0  0  0
  147.0924  135.6575  154.4696 H   0  0  0  0  0  0  0  0  0  0  0  0
  146.2942  134.1226  154.7965 H   0  0  0  0  0  0  0  0  0  0  0  0
  147.8683  133.3818  156.2697 H   0  0  0  0  0  0  0  0  0  0  0  0
  147.1686  137.1700  158.8108 H   0  0  0  0  0  0  0  0  0  0  0  0
  146.1548  135.7382  158.9631 H   0  0  0  0  0  0  0  0  0  0  0  0
  147.1916  134.0129  161.3836 H   0  0  0  0  0  0  0  0  0  0  0  0
  147.7026  135.2434  163.8095 H   0  0  0  0  0  0  0  0  0  0  0  0
  148.2575  134.8680  152.9090 H   0  0  0  0  0  0  0  0  0  0  0  0
  1  2  1  0  0  0  0
  1 20  1  0  0  0  0
  1 21  1  0  0  0  0
  1 22  1  0  0  0  0
  2  9  1  0  0  0  0
  2  3  1  0  0  0  0
  2 23  1  0  0  0  0
  3  4  1  0  0  0  0
  3 24  1  0  0  0  0
  3 25  1  0  0  0  0
  4  5  1  0  0  0  0
  4  8  1  0  0  0  0
  4 40  1  0  0  0  0
  5  6  1  0  0  0  0
  5  7  1  0  0  0  0
  5 26  1  0  0  0  0
  6 27  1  0  0  0  0
  6 28  1  0  0  0  0
  6 29  1  0  0  0  0
  7 30  1  0  0  0  0
  7 31  1  0  0  0  0
  7 32  1  0  0  0  0
  8  9  1  0  0  0  0
  8 33  1  0  0  0  0
  8 34  1  0  0  0  0
  9 10  1  0  0  0  0
  9 35  1  0  0  0  0
 10 11  1  0  0  0  0
 11 12  2  0  0  0  0
 11 13  2  0  0  0  0
 11 14  1  0  0  0  0
 14 15  1  0  0  0  0
 14 36  1  0  0  0  0
 14 37  1  0  0  0  0
 15 19  2  0  0  0  0
 15 16  1  0  0  0  0
 16 17  2  0  0  0  0
 16 38  1  0  0  0  0
 17 18  1  0  0  0  0
 17 39  1  0  0  0  0
 18 19  1  0  0  0  0
M  CHG  1   4   1
M  CHG  1  10  -1
M  END
> <s_m_source_file>
AV-unprocessed.smi

> <i_m_source_file_index>
686

> <i_lp_mmshare_version>
43012

> <i_f3d_flags>
0

> <s_epik_input>
W0NIM11bQ0BASF0xW0NIMl1OKFtDSF0oW0NIM10pW0NIM10pW0NIMl1bQ0BIXTFbTkhdUyg9TykoPU8pW0NIMl1jMltjSF1bY0hdb24y

> <s_epik_cmdline>
J2VwaWtfcHl0aG9uJywgJy1waCcsICc3LjAnLCAnLXRuJywgJzgnLCAnLW1hJywgJzIwMCcsICctbWV0YWxfYmluZGluZycsICctaW1hZScsICc8aW5maWxlLm1hZT4nLCAnLW9tYWUnLCAnPG91dGZpbGUubWFlPic=

> <r_epik_Ionization_Penalty>
3.62478

> <r_epik_Ionization_Penalty_Charging>
3.62478

> <r_epik_Ionization_Penalty_Neutral>
2.03645e-10

> <r_epik_State_Penalty>
3.6247

> <r_epik_Charging_Adjusted_Penalty>
7.24949

> <i_epik_Tot_Q>
0

> <i_epik_Tot_abs_Q>
2

> <r_epik_Metal_State_Penalty>
0.530836

> <b_epik_Metal_Only>
1

> <s_lp_Force_Field>
OPLS_2005

> <r_lp_Energy>
21.5589

> <b_lp_Chiralities_Consistent>
1

> <s_lp_Variant>
AV-unprocessed.smi:686-13

> <Gold.Version>
5.8.1

> <Gold.Id.Protein>
6NUR|6NUR_protein|mol2

> <Gold.PLP.Fitness>
42.7028

> <Gold.PLP.PLP>
-31.7759

> <Gold.PLP.part.hbond>
-5.7545

> <Gold.PLP.part.metal>
0.0000

> <Gold.PLP.part.buried>
-5.5365

> <Gold.PLP.part.nonpolar>
-21.1310

> <Gold.PLP.part.repulsive>
0.0000

> <Gold.PLP.ligand.clash>
0.0000

> <Gold.PLP.ligand.torsion>
0.9902

> <Gold.PLP.Chemscore.Hbond>
3.9600

> <Gold.PLP.Chemscore.CHOScore>
0.0000

> <Gold.PLP.Chemscore.Metal>
0.0000

> <Gold.Chemscore.Hbonds>
donor molecule, donor type, donor heavy atom, donor atom, acceptor molecule, acceptor atom, score
      L1  H     4    40       P1  7948  2.00
      P1  H  6896  6908       L1    13  1.00
      P1  H  6934  6947       L1    19  0.85

> <Gold.PLP.Chemscore.Internal.Correction>
1.0274

> <Gold.Rescore>
     Score         DG    S(hbond)    S(metal)    S(lipo)     H(rot)  DE(clash)    DE(int)     intcor
     17.16     -18.19       2.88        0.00      61.85       1.61       0.00       1.03       ----

> <Gold.Chemscore.Fitness>
17.1605

> <Gold.Chemscore.DG>
-18.1914

> <Gold.Chemscore.ZeroCoef>
-5.4800

> <Gold.Chemscore.Hbond>
2.8768

> <Gold.Chemscore.Metal>
0.0000

> <Gold.Chemscore.Lipo>
61.8548

> <Gold.Chemscore.Internal_Hbond>
0.0000

> <Gold.Chemscore.DEClash>
0.0030

> <Gold.Chemscore.DEInternal>
1.0279

> <Gold.Chemscore.Rot>
1.6149

> <Gold.Chemscore.Internal.Correction>
   9.000000E+99

> <Gold.Chemscore.Hbonds>
donor molecule, donor type, donor heavy atom, donor atom, acceptor molecule, acceptor atom, score
      L1  H     4    40       P1  7948  0.74
      P1  H  6896  6908       L1    13  0.85
      P1  H  6934  6947       L1    19  0.80

> <Gold.Chemscore.Hbond.Weighted>
-9.6085

> <Gold.Chemscore.Metal.Weighted>
-0.0000

> <Gold.Chemscore.Lipo.Weighted>
-7.2370

> <Gold.Chemscore.Internal_Hbond.Weighted>
0.0000

> <Gold.Chemscore.DEClash.Weighted>
0.0030

> <Gold.Chemscore.DEInternal.Weighted>
1.0279

> <Gold.Chemscore.Rot.Weighted>
4.1341

> <Gold.Chemscore.Internal.Correction.Weighted>
   9.000000E+99

> <Gold.Protein.RotatedTorsions>
[ 6907 6896 6895 6894 ] final  179.94 input  -60.11 | X-H torsion
[ 7974 7965 7964 7962 ] final   -3.65 input  175.53 | X-H torsion
[ 8008 7997 7996 7995 ] final  161.57 input   59.86 | X-H torsion
[ 10167 10162 10161 10158 ] final -140.01 input  -65.29 | X-H torsion
[ 10718 10713 10712 10709 ] final  119.07 input   66.30 | X-H torsion
[ 10763 10752 10751 10750 ] final -151.77 input  -60.55 | X-H torsion
[ 11005 11000 10999 10996 ] final -102.66 input  -57.11 | X-H torsion

> <Gold.Protein.ActiveResidues>
 VAL166  LYS551  ARG553  GLY616  TRP617  ASP618  TYR619  PRO620  LYS621  CYS622 
 ASP623  PHE694  ASN695  SER759  ASP760  ASP761  ALA762  ILE779  LEU786  VAL792 
 PHE793  MET794  SER795  GLU796  ALA797  LYS798  CYS799  TRP800  GLU811  SER814 

> <Gold.Protein.RotatedAtoms>
  151.6636  133.3316  159.3179 H   0  0  0  0  0  0  0  0  0  0  0  0  # atno 6907 bound_to 6896
  150.7901  134.6922  159.6513 H   0  0  0  0  0  0  0  0  0  0  0  0  # atno 6908 bound_to 6896
  152.3979  134.6338  160.0134 H   0  0  0  0  0  0  0  0  0  0  0  0  # atno 6909 bound_to 6896
  146.2386  140.1753  142.8332 H   0  0  0  0  0  0  0  0  0  0  0  0  # atno 7974 bound_to 7965
  156.2093  140.1773  156.7730 H   0  0  0  0  0  0  0  0  0  0  0  0  # atno 8008 bound_to 7997
  154.5700  140.0684  156.8980 H   0  0  0  0  0  0  0  0  0  0  0  0  # atno 8009 bound_to 7997
  155.2690  140.3341  155.4269 H   0  0  0  0  0  0  0  0  0  0  0  0  # atno 8010 bound_to 7997
  139.8323  143.7431  152.2665 H   0  0  0  0  0  0  0  0  0  0  0  0  # atno 10167 bound_to 10162
  157.5987  131.1054  150.7845 H   0  0  0  0  0  0  0  0  0  0  0  0  # atno 10718 bound_to 10713
  154.8037  135.3252  154.7486 H   0  0  0  0  0  0  0  0  0  0  0  0  # atno 10763 bound_to 10752
  153.8149  135.6892  153.4840 H   0  0  0  0  0  0  0  0  0  0  0  0  # atno 10764 bound_to 10752
  153.1769  135.4602  154.9920 H   0  0  0  0  0  0  0  0  0  0  0  0  # atno 10765 bound_to 10752
  141.1179  133.8577  157.1388 H   0  0  0  0  0  0  0  0  0  0  0  0  # atno 11005 bound_to 11000
  144.9978  140.8605  143.5300 LP  0  0  0  0  0  0  0  0  0  0  0  0  # atno 17320 bound_to 7965
  145.1768  139.2374  143.5313 LP  0  0  0  0  0  0  0  0  0  0  0  0  # atno 17321 bound_to 7965
  139.7642  144.7497  151.0319 LP  0  0  0  0  0  0  0  0  0  0  0  0  # atno 17342 bound_to 10162
  140.7805  143.4717  151.0138 LP  0  0  0  0  0  0  0  0  0  0  0  0  # atno 17343 bound_to 10162
  156.8249  130.4996  149.5338 LP  0  0  0  0  0  0  0  0  0  0  0  0  # atno 17370 bound_to 10713
  156.1055  130.6001  150.9964 LP  0  0  0  0  0  0  0  0  0  0  0  0  # atno 17371 bound_to 10713
  140.0115  134.9986  157.0404 LP  0  0  0  0  0  0  0  0  0  0  0  0  # atno 17394 bound_to 11000
  140.4592  134.1502  155.7189 LP  0  0  0  0  0  0  0  0  0  0  0  0  # atno 17395 bound_to 11000

$$$$
