AV-unprocessed.smi:101|AV-procd|sdf|943|dock3
  -GOLD-   2262017463D 1   1.00000     0.00000
 Structure written by MMmdl.
 43 45  0  0  0  0  0  0  0  0  2 V2000
  146.3580  142.8483  153.6627 C   0  0  0  0  0  0  0  0  0  0  0  0
  146.2765  141.6986  154.6514 C   0  0  0  0  0  0  0  0  0  0  0  0
  147.3381  140.9100  154.9298 C   0  0  0  0  0  0  0  0  0  0  0  0
  147.2577  139.8607  155.8280 N   0  0  0  0  0  0  0  0  0  0  0  0
  148.4692  138.9968  156.1089 C   0  0  2  0  0  0  0  0  0  0  0  0
  149.4977  139.8103  156.5901 O   0  0  0  0  0  0  0  0  0  0  0  0
  150.7272  139.4401  155.9774 C   0  0  2  0  0  0  0  0  0  0  0  0
  151.7366  140.5959  156.0262 C   0  0  0  0  0  0  0  0  0  0  0  0
  151.5982  141.2845  157.2580 O   0  0  0  0  0  0  0  0  0  0  0  0
  152.3254  140.9064  158.3266 C   0  0  0  0  0  0  0  0  0  0  0  0
  152.9708  139.8571  158.3756 O   0  0  0  0  0  0  0  0  0  0  0  0
  152.2670  141.8901  159.4463 C   0  0  0  0  0  0  0  0  0  0  0  0
  152.8316  141.5501  160.6980 C   0  0  0  0  0  0  0  0  0  0  0  0
  152.7922  142.4589  161.7732 C   0  0  0  0  0  0  0  0  0  0  0  0
  152.1879  143.7190  161.6099 C   0  0  0  0  0  0  0  0  0  0  0  0
  151.6228  144.0694  160.3699 C   0  0  0  0  0  0  0  0  0  0  0  0
  151.6612  143.1619  159.2934 C   0  0  0  0  0  0  0  0  0  0  0  0
  150.3147  138.9769  154.5748 C   0  0  2  0  0  0  0  0  0  0  0  0
  150.1704  140.0849  153.7006 O   0  0  0  0  0  0  0  0  0  0  0  0
  148.9934  138.2667  154.8534 C   0  0  2  0  0  0  0  0  0  0  0  0
  148.1208  138.2447  153.7364 O   0  0  0  0  0  0  0  0  0  0  0  0
  146.0222  139.5753  156.4658 C   0  0  0  0  0  0  0  0  0  0  0  0
  145.9707  138.6076  157.2254 O   0  0  0  0  0  0  0  0  0  0  0  0
  144.9483  140.3719  156.1995 N   0  5  0  0  0  0  0  0  0  0  0  0
  145.0044  141.4215  155.3298 C   0  0  0  0  0  0  0  0  0  0  0  0
  144.0271  142.1337  155.1009 O   0  0  0  0  0  0  0  0  0  0  0  0
  147.3624  142.9449  153.2496 H   0  0  0  0  0  0  0  0  0  0  0  0
  146.1009  143.7897  154.1493 H   0  0  0  0  0  0  0  0  0  0  0  0
  145.6662  142.6870  152.8355 H   0  0  0  0  0  0  0  0  0  0  0  0
  148.2750  141.1043  154.4294 H   0  0  0  0  0  0  0  0  0  0  0  0
  148.1847  138.3119  156.9086 H   0  0  0  0  0  0  0  0  0  0  0  0
  151.1274  138.5795  156.5169 H   0  0  0  0  0  0  0  0  0  0  0  0
  152.7523  140.2043  155.9547 H   0  0  0  0  0  0  0  0  0  0  0  0
  151.5828  141.2760  155.1870 H   0  0  0  0  0  0  0  0  0  0  0  0
  153.3009  140.5883  160.8473 H   0  0  0  0  0  0  0  0  0  0  0  0
  153.2265  142.1883  162.7243 H   0  0  0  0  0  0  0  0  0  0  0  0
  152.1580  144.4158  162.4347 H   0  0  0  0  0  0  0  0  0  0  0  0
  151.1588  145.0364  160.2431 H   0  0  0  0  0  0  0  0  0  0  0  0
  151.2190  143.4630  158.3549 H   0  0  0  0  0  0  0  0  0  0  0  0
  151.0507  138.2990  154.1416 H   0  0  0  0  0  0  0  0  0  0  0  0
  150.0013  139.7621  152.8293 H   0  0  0  0  0  0  0  0  0  0  0  0
  149.1985  137.2370  155.1488 H   0  0  0  0  0  0  0  0  0  0  0  0
  148.4393  137.5988  153.1237 H   0  0  0  0  0  0  0  0  0  0  0  0
  1  2  1  0  0  0  0
  1 27  1  0  0  0  0
  1 28  1  0  0  0  0
  1 29  1  0  0  0  0
  2 25  1  0  0  0  0
  2  3  2  0  0  0  0
  3  4  1  0  0  0  0
  3 30  1  0  0  0  0
  4  5  1  0  0  0  0
  4 22  1  0  0  0  0
  5 20  1  0  0  0  0
  5  6  1  0  0  0  0
  5 31  1  0  0  0  0
  6  7  1  0  0  0  0
  7  8  1  0  0  0  0
  7 18  1  0  0  0  0
  7 32  1  0  0  0  0
  8  9  1  0  0  0  0
  8 33  1  0  0  0  0
  8 34  1  0  0  0  0
  9 10  1  0  0  0  0
 10 11  2  0  0  0  0
 10 12  1  0  0  0  0
 12 17  1  0  0  0  0
 12 13  2  0  0  0  0
 13 14  1  0  0  0  0
 13 35  1  0  0  0  0
 14 15  2  0  0  0  0
 14 36  1  0  0  0  0
 15 16  1  0  0  0  0
 15 37  1  0  0  0  0
 16 17  2  0  0  0  0
 16 38  1  0  0  0  0
 17 39  1  0  0  0  0
 18 19  1  0  0  0  0
 18 20  1  0  0  0  0
 18 40  1  0  0  0  0
 19 41  1  0  0  0  0
 20 21  1  0  0  0  0
 20 42  1  0  0  0  0
 21 43  1  0  0  0  0
 22 23  2  0  0  0  0
 22 24  1  0  0  0  0
 24 25  1  0  0  0  0
 25 26  2  0  0  0  0
M  CHG  1  24  -1
M  END
> <s_m_source_file>
AV-unprocessed.smi

> <i_m_source_file_index>
101

> <i_lp_mmshare_version>
43012

> <i_f3d_flags>
0

> <s_epik_input>
Tz1jMVtuSF1jKD1PKW4oW2NIXWMxW0NIM10pW0NAQEhdMk9bQ0BIXShbQ0BASF0oW09IXSlbQ0BIXTJbT0hdKVtDSDJdT0MoPU8pYzNbY0hdW2NIXVtjSF1bY0hdW2NIXTM=

> <s_epik_cmdline>
J2VwaWtfcHl0aG9uJywgJy1waCcsICc3LjAnLCAnLXRuJywgJzgnLCAnLW1hJywgJzIwMCcsICctbWV0YWxfYmluZGluZycsICctaW1hZScsICc8aW5maWxlLm1hZT4nLCAnLW9tYWUnLCAnPG91dGZpbGUubWFlPic=

> <r_lp_tautomer_probability>
0.999537

> <r_epik_Ionization_Penalty>
3.21006

> <r_epik_Ionization_Penalty_Charging>
5.75142e-08

> <r_epik_Ionization_Penalty_Neutral>
3.21006

> <r_epik_State_Penalty>
3.20925

> <r_epik_Charging_Adjusted_Penalty>
3.20925

> <i_epik_Tot_Q>
-1

> <i_epik_Tot_abs_Q>
1

> <r_epik_Metal_State_Penalty>
0.119957

> <b_epik_Metal_Only>
1

> <s_epik_Chemistry_Notes>
This compound has an ester and may undergo hydrolysis at high or low pH. This compound contains an acetal/aminal-like group ( X-CH(R)-Y where X, Y are N, S, or O) that may be acid/base labile, releasing an aldehyde.

> <s_lp_Force_Field>
OPLS_2005

> <r_lp_Energy>
51.0672

> <b_lp_Chiralities_Consistent>
1

> <s_lp_Variant>
AV-unprocessed.smi:101-31

> <Gold.Version>
5.8.1

> <Gold.Id.Protein>
6NUR|6NUR_protein|mol2

> <Gold.PLP.Fitness>
51.5643

> <Gold.PLP.PLP>
-41.2424

> <Gold.PLP.part.hbond>
-4.0000

> <Gold.PLP.part.metal>
0.0000

> <Gold.PLP.part.buried>
-5.9761

> <Gold.PLP.part.nonpolar>
-31.5835

> <Gold.PLP.part.repulsive>
0.1915

> <Gold.PLP.ligand.clash>
0.0000

> <Gold.PLP.ligand.torsion>
0.6091

> <Gold.PLP.Chemscore.Hbond>
3.8320

> <Gold.PLP.Chemscore.CHOScore>
0.0000

> <Gold.PLP.Chemscore.Metal>
0.0000

> <Gold.Chemscore.Hbonds>
donor molecule, donor type, donor heavy atom, donor atom, acceptor molecule, acceptor atom, score
      L1  H    19    41       P1  7957  1.00
      L1  H    21    43       P1  7948  1.00
      P1  H  7989  7998       L1    19  0.78
      P1  H  7997  8008       L1    11  0.80

> <Gold.PLP.Chemscore.Internal.Correction>
0.0441

> <Gold.Rescore>
     Score         DG    S(hbond)    S(metal)    S(lipo)     H(rot)  DE(clash)    DE(int)     intcor
     18.66     -19.65       3.20        0.00     101.29       3.27       0.27       0.71       ----

> <Gold.Chemscore.Fitness>
18.6646

> <Gold.Chemscore.DG>
-19.6534

> <Gold.Chemscore.ZeroCoef>
-5.4800

> <Gold.Chemscore.Hbond>
3.1984

> <Gold.Chemscore.Metal>
0.0000

> <Gold.Chemscore.Lipo>
101.2883

> <Gold.Chemscore.Internal_Hbond>
0.0000

> <Gold.Chemscore.DEClash>
0.2747

> <Gold.Chemscore.DEInternal>
0.7141

> <Gold.Chemscore.Rot>
3.2656

> <Gold.Chemscore.Internal.Correction>
   9.000000E+99

> <Gold.Chemscore.Hbonds>
donor molecule, donor type, donor heavy atom, donor atom, acceptor molecule, acceptor atom, score
      L1  H    19    41       P1  7957  0.95
      L1  H    21    43       P1  7948  1.00
      P1  H  7989  7998       L1    19  0.16
      P1  H  7997  8008       L1    11  0.47

> <Gold.Chemscore.Hbond.Weighted>
-10.6825

> <Gold.Chemscore.Metal.Weighted>
-0.0000

> <Gold.Chemscore.Lipo.Weighted>
-11.8507

> <Gold.Chemscore.Internal_Hbond.Weighted>
0.0000

> <Gold.Chemscore.DEClash.Weighted>
0.2747

> <Gold.Chemscore.DEInternal.Weighted>
0.7141

> <Gold.Chemscore.Rot.Weighted>
8.3598

> <Gold.Chemscore.Internal.Correction.Weighted>
   9.000000E+99

> <Gold.Protein.RotatedTorsions>
[ 6907 6896 6895 6894 ] final   44.93 input  -60.11 | X-H torsion
[ 7974 7965 7964 7962 ] final  174.30 input  175.53 | X-H torsion
[ 8008 7997 7996 7995 ] final  -83.67 input   59.86 | X-H torsion
[ 10167 10162 10161 10158 ] final  101.19 input  -65.29 | X-H torsion
[ 10718 10713 10712 10709 ] final  126.67 input   66.30 | X-H torsion
[ 10763 10752 10751 10750 ] final  147.01 input  -60.55 | X-H torsion
[ 11005 11000 10999 10996 ] final -157.29 input  -57.11 | X-H torsion

> <Gold.Protein.ActiveResidues>
 VAL166  LYS551  ARG553  GLY616  TRP617  ASP618  TYR619  PRO620  LYS621  CYS622 
 ASP623  PHE694  ASN695  SER759  ASP760  ASP761  ALA762  ILE779  LEU786  VAL792 
 PHE793  MET794  SER795  GLU796  ALA797  LYS798  CYS799  TRP800  GLU811  SER814 

> <Gold.Protein.RotatedAtoms>
  152.2385  134.8252  160.0463 H   0  0  0  0  0  0  0  0  0  0  0  0  # atno 6907 bound_to 6896
  151.8975  133.3525  159.3827 H   0  0  0  0  0  0  0  0  0  0  0  0  # atno 6908 bound_to 6896
  150.7046  134.4787  159.5504 H   0  0  0  0  0  0  0  0  0  0  0  0  # atno 6909 bound_to 6896
  144.7224  139.9776  143.6438 H   0  0  0  0  0  0  0  0  0  0  0  0  # atno 7974 bound_to 7965
  154.6216  140.0615  156.9621 H   0  0  0  0  0  0  0  0  0  0  0  0  # atno 8008 bound_to 7997
  155.1809  140.3299  155.4357 H   0  0  0  0  0  0  0  0  0  0  0  0  # atno 8009 bound_to 7997
  156.2434  140.1898  156.6905 H   0  0  0  0  0  0  0  0  0  0  0  0  # atno 8010 bound_to 7997
  139.7460  144.6998  151.0504 H   0  0  0  0  0  0  0  0  0  0  0  0  # atno 10167 bound_to 10162
  157.5399  131.1097  150.8875 H   0  0  0  0  0  0  0  0  0  0  0  0  # atno 10718 bound_to 10713
  154.0313  135.2897  155.3368 H   0  0  0  0  0  0  0  0  0  0  0  0  # atno 10763 bound_to 10752
  154.6986  135.5197  153.8497 H   0  0  0  0  0  0  0  0  0  0  0  0  # atno 10764 bound_to 10752
  153.0639  135.6623  154.0526 H   0  0  0  0  0  0  0  0  0  0  0  0  # atno 10765 bound_to 10752
  140.6663  134.4296  157.5233 H   0  0  0  0  0  0  0  0  0  0  0  0  # atno 11005 bound_to 11000
  146.0513  139.3514  143.0638 LP  0  0  0  0  0  0  0  0  0  0  0  0  # atno 17320 bound_to 7965
  145.8211  140.9678  143.0898 LP  0  0  0  0  0  0  0  0  0  0  0  0  # atno 17321 bound_to 7965
  140.7792  143.4866  150.9947 LP  0  0  0  0  0  0  0  0  0  0  0  0  # atno 17342 bound_to 10162
  139.8554  143.7383  152.3176 LP  0  0  0  0  0  0  0  0  0  0  0  0  # atno 17343 bound_to 10162
  156.9431  130.5392  149.5280 LP  0  0  0  0  0  0  0  0  0  0  0  0  # atno 17370 bound_to 10713
  156.0488  130.5561  150.8943 LP  0  0  0  0  0  0  0  0  0  0  0  0  # atno 17371 bound_to 10713
  139.8996  134.8587  156.1952 LP  0  0  0  0  0  0  0  0  0  0  0  0  # atno 17394 bound_to 11000
  141.0427  133.6929  156.1627 LP  0  0  0  0  0  0  0  0  0  0  0  0  # atno 17395 bound_to 11000

$$$$
