AV-unprocessed.smi:634|AV-procd|sdf|3136|dock8
  -GOLD-   22720 0 63D 1   1.00000     0.00000
 Structure written by MMmdl.
 32 33  0  0  0  0  0  0  0  0  2 V2000
  145.5355  134.1953  162.5443 C   0  0  0  0  0  0  0  0  0  0  0  0
  146.5737  134.9624  161.7992 C   0  0  0  0  0  0  0  0  0  0  0  0
  147.5529  134.5886  160.9233 C   0  0  0  0  0  0  0  0  0  0  0  0
  148.1774  135.8212  160.5888 C   0  0  0  0  0  0  0  0  0  0  0  0
  149.2195  135.9776  159.7575 N   0  5  0  0  0  0  0  0  0  0  0  0
  149.2200  136.9763  158.8446 C   0  0  0  0  0  0  0  0  0  0  0  0
  148.7986  138.1210  159.0217 O   0  0  0  0  0  0  0  0  0  0  0  0
  149.7406  136.6128  157.6598 N   0  0  0  0  0  0  0  0  0  0  0  0
  149.9225  137.3951  156.4289 C   0  0  2  0  0  0  0  0  0  0  0  0
  148.5127  137.8240  155.9728 C   0  0  0  0  0  0  0  0  0  0  0  0
  150.5954  136.5701  155.2985 C   0  0  0  0  0  0  0  0  0  0  0  0
  151.1026  137.5176  154.2012 C   0  0  0  0  0  0  0  0  0  0  0  0
  151.4915  139.1061  155.0291 S   0  0  0  0  0  0  0  0  0  0  0  0
  152.9497  139.2550  155.1504 O   0  0  0  0  0  0  0  0  0  0  0  0
  150.6725  140.1691  154.4264 O   0  0  0  0  0  0  0  0  0  0  0  0
  150.7948  138.6509  156.6625 C   0  0  0  0  0  0  0  0  0  0  0  0
  147.6365  136.8498  161.2198 N   0  0  0  0  0  0  0  0  0  0  0  0
  146.6031  136.3082  161.9937 O   0  0  0  0  0  0  0  0  0  0  0  0
  145.9897  133.6089  163.3428 H   0  0  0  0  0  0  0  0  0  0  0  0
  145.0098  133.5108  161.8784 H   0  0  0  0  0  0  0  0  0  0  0  0
  144.7984  134.8630  162.9910 H   0  0  0  0  0  0  0  0  0  0  0  0
  147.7844  133.5937  160.5733 H   0  0  0  0  0  0  0  0  0  0  0  0
  150.0609  135.6569  157.6086 H   0  0  0  0  0  0  0  0  0  0  0  0
  148.5406  138.4263  155.0649 H   0  0  0  0  0  0  0  0  0  0  0  0
  148.0129  138.4181  156.7391 H   0  0  0  0  0  0  0  0  0  0  0  0
  147.8818  136.9577  155.7694 H   0  0  0  0  0  0  0  0  0  0  0  0
  151.4606  136.0319  155.6826 H   0  0  0  0  0  0  0  0  0  0  0  0
  149.9257  135.8123  154.8907 H   0  0  0  0  0  0  0  0  0  0  0  0
  151.9858  137.1348  153.6898 H   0  0  0  0  0  0  0  0  0  0  0  0
  150.3265  137.7053  153.4594 H   0  0  0  0  0  0  0  0  0  0  0  0
  150.2402  139.4914  157.0799 H   0  0  0  0  0  0  0  0  0  0  0  0
  151.6394  138.4534  157.3209 H   0  0  0  0  0  0  0  0  0  0  0  0
  1  2  1  0  0  0  0
  1 19  1  0  0  0  0
  1 20  1  0  0  0  0
  1 21  1  0  0  0  0
  2 18  1  0  0  0  0
  2  3  2  0  0  0  0
  3  4  1  0  0  0  0
  3 22  1  0  0  0  0
  4  5  1  0  0  0  0
  4 17  2  0  0  0  0
  5  6  1  0  0  0  0
  6  7  2  0  0  0  0
  6  8  1  0  0  0  0
  8  9  1  0  0  0  0
  8 23  1  0  0  0  0
  9 16  1  0  0  0  0
  9 10  1  0  0  0  0
  9 11  1  0  0  0  0
 10 24  1  0  0  0  0
 10 25  1  0  0  0  0
 10 26  1  0  0  0  0
 11 12  1  0  0  0  0
 11 27  1  0  0  0  0
 11 28  1  0  0  0  0
 12 13  1  0  0  0  0
 12 29  1  0  0  0  0
 12 30  1  0  0  0  0
 13 14  2  0  0  0  0
 13 15  2  0  0  0  0
 13 16  1  0  0  0  0
 16 31  1  0  0  0  0
 16 32  1  0  0  0  0
 17 18  1  0  0  0  0
M  CHG  1   5  -1
M  END
> <s_m_source_file>
AV-unprocessed.smi

> <i_m_source_file_index>
634

> <i_lp_mmshare_version>
43012

> <i_f3d_flags>
0

> <s_epik_input>
W0NIM11jMVtjSF1jKG5vMSlbTkhdQyg9TylbTkhdW0NAQF0yKFtDSDNdKVtDSDJdW0NIMl1TKD1PKSg9TylbQ0gyXTI=

> <s_epik_cmdline>
J2VwaWtfcHl0aG9uJywgJy1waCcsICc3LjAnLCAnLXRuJywgJzgnLCAnLW1hJywgJzIwMCcsICctbWV0YWxfYmluZGluZycsICctaW1hZScsICc8aW5maWxlLm1hZT4nLCAnLW9tYWUnLCAnPG91dGZpbGUubWFlPic=

> <r_lp_tautomer_probability>
1

> <r_epik_Ionization_Penalty>
6.15572

> <r_epik_Ionization_Penalty_Charging>
6.1556

> <r_epik_Ionization_Penalty_Neutral>
0.000118136

> <r_epik_State_Penalty>
6.15558

> <r_epik_Charging_Adjusted_Penalty>
12.3112

> <i_epik_Tot_Q>
-1

> <i_epik_Tot_abs_Q>
1

> <r_epik_Metal_State_Penalty>
2.10569

> <b_epik_Metal_Only>
1

> <s_lp_Force_Field>
OPLS_2005

> <r_lp_Energy>
-1.68809

> <b_lp_Chiralities_Consistent>
1

> <s_lp_Variant>
AV-unprocessed.smi:634-4

> <Gold.Version>
5.8.1

> <Gold.Id.Protein>
6NUR|6NUR_protein|mol2

> <Gold.PLP.Fitness>
42.8327

> <Gold.PLP.PLP>
-26.7749

> <Gold.PLP.part.hbond>
-7.0162

> <Gold.PLP.part.metal>
0.0000

> <Gold.PLP.part.buried>
-3.1298

> <Gold.PLP.part.nonpolar>
-18.4142

> <Gold.PLP.part.repulsive>
0.1766

> <Gold.PLP.ligand.clash>
0.0000

> <Gold.PLP.ligand.torsion>
0.6740

> <Gold.PLP.Chemscore.Hbond>
5.7999

> <Gold.PLP.Chemscore.CHOScore>
0.0000

> <Gold.PLP.Chemscore.Metal>
0.0000

> <Gold.Chemscore.Hbonds>
donor molecule, donor type, donor heavy atom, donor atom, acceptor molecule, acceptor atom, score
      P1  H  6896  6907       L1     5  2.00
      P1  H  6931  6943       L1    17  0.84
      P1  H  6934  6947       L1    17  0.45
      P1  H  7989  7998       L1    15  0.94
      P1  H  7997  8008       L1    14  1.00

> <Gold.PLP.Chemscore.Internal.Correction>
0.0061

> <Gold.Rescore>
     Score         DG    S(hbond)    S(metal)    S(lipo)     H(rot)  DE(clash)    DE(int)     intcor
     17.73     -19.89       3.55        0.00      43.56       1.00       0.05       2.11       ----

> <Gold.Chemscore.Fitness>
17.7301

> <Gold.Chemscore.DG>
-19.8898

> <Gold.Chemscore.ZeroCoef>
-5.4800

> <Gold.Chemscore.Hbond>
3.5550

> <Gold.Chemscore.Metal>
0.0000

> <Gold.Chemscore.Lipo>
43.5575

> <Gold.Chemscore.Internal_Hbond>
0.0000

> <Gold.Chemscore.DEClash>
0.0456

> <Gold.Chemscore.DEInternal>
2.1141

> <Gold.Chemscore.Rot>
1.0000

> <Gold.Chemscore.Internal.Correction>
   9.000000E+99

> <Gold.Chemscore.Hbonds>
donor molecule, donor type, donor heavy atom, donor atom, acceptor molecule, acceptor atom, score
      P1  H  6896  6907       L1     5  0.86
      P1  H  6931  6943       L1    17  0.71
      P1  H  6934  6947       L1    17  0.26
      P1  H  7989  7998       L1    15  0.40
      P1  H  7997  8008       L1    14  1.00

> <Gold.Chemscore.Hbond.Weighted>
-11.8735

> <Gold.Chemscore.Metal.Weighted>
-0.0000

> <Gold.Chemscore.Lipo.Weighted>
-5.0962

> <Gold.Chemscore.Internal_Hbond.Weighted>
0.0000

> <Gold.Chemscore.DEClash.Weighted>
0.0456

> <Gold.Chemscore.DEInternal.Weighted>
2.1141

> <Gold.Chemscore.Rot.Weighted>
2.5600

> <Gold.Chemscore.Internal.Correction.Weighted>
   9.000000E+99

> <Gold.Protein.RotatedTorsions>
[ 6907 6896 6895 6894 ] final  -46.87 input  -60.11 | X-H torsion
[ 7974 7965 7964 7962 ] final  -41.65 input  175.53 | X-H torsion
[ 8008 7997 7996 7995 ] final  -15.14 input   59.86 | X-H torsion
[ 10167 10162 10161 10158 ] final  134.21 input  -65.29 | X-H torsion
[ 10718 10713 10712 10709 ] final  -80.68 input   66.30 | X-H torsion
[ 10763 10752 10751 10750 ] final  143.17 input  -60.55 | X-H torsion
[ 11005 11000 10999 10996 ] final    7.08 input  -57.11 | X-H torsion

> <Gold.Protein.ActiveResidues>
 VAL166  LYS551  ARG553  GLY616  TRP617  ASP618  TYR619  PRO620  LYS621  CYS622 
 ASP623  PHE694  ASN695  SER759  ASP760  ASP761  ALA762  ILE779  LEU786  VAL792 
 PHE793  MET794  SER795  GLU796  ALA797  LYS798  CYS799  TRP800  GLU811  SER814 

> <Gold.Protein.RotatedAtoms>
  150.9067  134.8482  159.7397 H   0  0  0  0  0  0  0  0  0  0  0  0  # atno 6907 bound_to 6896
  152.4922  134.4420  159.9556 H   0  0  0  0  0  0  0  0  0  0  0  0  # atno 6908 bound_to 6896
  151.4467  133.3589  159.2824 H   0  0  0  0  0  0  0  0  0  0  0  0  # atno 6909 bound_to 6896
  146.0191  140.6872  142.9187 H   0  0  0  0  0  0  0  0  0  0  0  0  # atno 7974 bound_to 7965
  154.5154  140.2204  155.9076 H   0  0  0  0  0  0  0  0  0  0  0  0  # atno 8008 bound_to 7997
  156.1601  140.3144  155.8758 H   0  0  0  0  0  0  0  0  0  0  0  0  # atno 8009 bound_to 7997
  155.3768  140.0470  157.3035 H   0  0  0  0  0  0  0  0  0  0  0  0  # atno 8010 bound_to 7997
  139.5265  144.6578  151.5107 H   0  0  0  0  0  0  0  0  0  0  0  0  # atno 10167 bound_to 10162
  156.0065  130.4581  150.3837 H   0  0  0  0  0  0  0  0  0  0  0  0  # atno 10718 bound_to 10713
  153.9679  135.2953  155.3429 H   0  0  0  0  0  0  0  0  0  0  0  0  # atno 10763 bound_to 10752
  154.7339  135.5055  153.9012 H   0  0  0  0  0  0  0  0  0  0  0  0  # atno 10764 bound_to 10752
  153.0914  135.6709  153.9958 H   0  0  0  0  0  0  0  0  0  0  0  0  # atno 10765 bound_to 10752
  140.5522  134.0272  155.7941 H   0  0  0  0  0  0  0  0  0  0  0  0  # atno 11005 bound_to 11000
  144.6982  140.3534  143.7177 LP  0  0  0  0  0  0  0  0  0  0  0  0  # atno 17320 bound_to 7965
  145.7222  139.1713  143.2478 LP  0  0  0  0  0  0  0  0  0  0  0  0  # atno 17321 bound_to 7965
  140.6412  143.8885  150.6693 LP  0  0  0  0  0  0  0  0  0  0  0  0  # atno 17342 bound_to 10162
  140.2220  143.3801  152.1635 LP  0  0  0  0  0  0  0  0  0  0  0  0  # atno 17343 bound_to 10162
  157.1916  131.0416  151.2697 LP  0  0  0  0  0  0  0  0  0  0  0  0  # atno 17370 bound_to 10713
  157.4056  130.7357  149.6800 LP  0  0  0  0  0  0  0  0  0  0  0  0  # atno 17371 bound_to 10713
  141.1164  133.9532  157.2813 LP  0  0  0  0  0  0  0  0  0  0  0  0  # atno 17394 bound_to 11000
  139.9449  135.0185  156.8822 LP  0  0  0  0  0  0  0  0  0  0  0  0  # atno 17395 bound_to 11000

$$$$
