AV-unprocessed.smi:208|AV-procd|sdf|1606|dock4
  -GOLD-   2262019523D 1   1.00000     0.00000
 Structure written by MMmdl.
 50 53  0  0  0  0  0  0  0  0  1 V2000
  151.8253  140.5376  155.2343 C   0  0  0  0  0  0  0  0  0  0  0  0
  151.3958  141.6841  156.1628 C   0  0  0  0  0  0  0  0  0  0  0  0
  151.1091  141.2642  157.6311 C   0  0  1  0  0  0  0  0  0  0  0  0
  152.4258  140.8469  158.3237 C   0  0  0  0  0  0  0  0  0  0  0  0
  152.9689  139.8029  157.9584 O   0  0  0  0  0  0  0  0  0  0  0  0
  152.9440  141.6194  159.3082 N   0  0  0  0  0  0  0  0  0  0  0  0
  154.1859  141.2357  159.9813 C   0  0  0  0  0  0  0  0  0  0  0  0
  152.3298  142.8573  159.8047 C   0  0  0  0  0  0  0  0  0  0  0  0
  151.2171  143.4136  158.9053 C   0  0  0  0  0  0  0  0  0  0  0  0
  150.4076  142.3225  158.3726 N   0  0  0  0  0  0  0  0  0  0  0  0
  149.0953  142.5544  158.1025 C   0  0  0  0  0  0  0  0  0  0  0  0
  148.5497  142.0314  156.9718 N   0  0  0  0  0  0  0  0  0  0  0  0
  147.2548  142.2103  156.6983 C   0  0  0  0  0  0  0  0  0  0  0  0
  146.3378  142.8716  157.4052 N   0  0  0  0  0  0  0  0  0  0  0  0
  146.8783  143.4164  158.5315 C   0  0  0  0  0  0  0  0  0  0  0  0
  148.2351  143.3081  158.9529 C   0  0  0  0  0  0  0  0  0  0  0  0
  148.4111  144.0020  160.1444 N   0  0  0  0  0  0  0  0  0  0  0  0
  147.2275  144.4748  160.4206 C   0  0  0  0  0  0  0  0  0  0  0  0
  146.2480  144.1793  159.4998 N   0  0  0  0  0  0  0  0  0  0  0  0
  144.8505  144.5820  159.5629 C   0  0  0  0  0  0  0  0  0  0  0  0
  144.0253  143.8608  160.6474 C   0  0  0  0  0  0  0  0  0  0  0  0
  142.6246  144.5032  160.7278 C   0  0  0  0  0  0  0  0  0  0  0  0
  142.6796  145.8959  160.9650 O   0  0  0  0  0  0  0  0  0  0  0  0
  144.0589  142.3254  160.6192 C   0  0  0  0  0  0  0  0  0  0  0  0
  144.4716  142.2520  162.0016 O   0  0  0  0  0  0  0  0  0  0  0  0
  144.7589  143.6672  161.9829 C   0  0  0  0  0  0  0  0  0  0  0  0
  152.1553  140.9289  154.2719 H   0  0  0  0  0  0  0  0  0  0  0  0
  151.0103  139.8448  155.0327 H   0  0  0  0  0  0  0  0  0  0  0  0
  152.6530  139.9711  155.6616 H   0  0  0  0  0  0  0  0  0  0  0  0
  152.2069  142.4136  156.1461 H   0  0  0  0  0  0  0  0  0  0  0  0
  150.5363  142.1996  155.7340 H   0  0  0  0  0  0  0  0  0  0  0  0
  150.5069  140.3579  157.6148 H   0  0  0  0  0  0  0  0  0  0  0  0
  155.0264  141.2866  159.2878 H   0  0  0  0  0  0  0  0  0  0  0  0
  154.1214  140.2170  160.3669 H   0  0  0  0  0  0  0  0  0  0  0  0
  154.4120  141.8875  160.8260 H   0  0  0  0  0  0  0  0  0  0  0  0
  151.9119  142.6365  160.7879 H   0  0  0  0  0  0  0  0  0  0  0  0
  153.0905  143.6244  159.9559 H   0  0  0  0  0  0  0  0  0  0  0  0
  150.6195  144.1186  159.4851 H   0  0  0  0  0  0  0  0  0  0  0  0
  151.6508  143.9735  158.0760 H   0  0  0  0  0  0  0  0  0  0  0  0
  146.9026  141.7559  155.7840 H   0  0  0  0  0  0  0  0  0  0  0  0
  147.0375  145.0642  161.3058 H   0  0  0  0  0  0  0  0  0  0  0  0
  144.8220  145.6620  159.7129 H   0  0  0  0  0  0  0  0  0  0  0  0
  144.4069  144.4114  158.5812 H   0  0  0  0  0  0  0  0  0  0  0  0
  142.0686  144.3387  159.8044 H   0  0  0  0  0  0  0  0  0  0  0  0
  142.0369  144.0664  161.5353 H   0  0  0  0  0  0  0  0  0  0  0  0
  142.3815  146.3462  160.1894 H   0  0  0  0  0  0  0  0  0  0  0  0
  143.0887  141.8596  160.4431 H   0  0  0  0  0  0  0  0  0  0  0  0
  144.8169  141.9054  159.9575 H   0  0  0  0  0  0  0  0  0  0  0  0
  145.8320  143.8585  161.9299 H   0  0  0  0  0  0  0  0  0  0  0  0
  144.3152  144.1993  162.8249 H   0  0  0  0  0  0  0  0  0  0  0  0
  1  2  1  0  0  0  0
  1 27  1  0  0  0  0
  1 28  1  0  0  0  0
  1 29  1  0  0  0  0
  2  3  1  0  0  0  0
  2 30  1  0  0  0  0
  2 31  1  0  0  0  0
  3 10  1  0  0  0  0
  3  4  1  0  0  0  0
  3 32  1  0  0  0  0
  4  5  2  0  0  0  0
  4  6  1  0  0  0  0
  6  7  1  0  0  0  0
  6  8  1  0  0  0  0
  7 33  1  0  0  0  0
  7 34  1  0  0  0  0
  7 35  1  0  0  0  0
  8  9  1  0  0  0  0
  8 36  1  0  0  0  0
  8 37  1  0  0  0  0
  9 10  1  0  0  0  0
  9 38  1  0  0  0  0
  9 39  1  0  0  0  0
 10 11  1  0  0  0  0
 11 16  1  0  0  0  0
 11 12  2  0  0  0  0
 12 13  1  0  0  0  0
 13 14  2  0  0  0  0
 13 40  1  0  0  0  0
 14 15  1  0  0  0  0
 15 19  1  0  0  0  0
 15 16  2  0  0  0  0
 16 17  1  0  0  0  0
 17 18  2  0  0  0  0
 18 19  1  0  0  0  0
 18 41  1  0  0  0  0
 19 20  1  0  0  0  0
 20 21  1  0  0  0  0
 20 42  1  0  0  0  0
 20 43  1  0  0  0  0
 21 26  1  0  0  0  0
 21 22  1  0  0  0  0
 21 24  1  0  0  0  0
 22 23  1  0  0  0  0
 22 44  1  0  0  0  0
 22 45  1  0  0  0  0
 23 46  1  0  0  0  0
 24 25  1  0  0  0  0
 24 47  1  0  0  0  0
 24 48  1  0  0  0  0
 25 26  1  0  0  0  0
 26 49  1  0  0  0  0
 26 50  1  0  0  0  0
M  END
> <s_m_source_file>
AV-unprocessed.smi

> <i_m_source_file_index>
208

> <i_lp_mmshare_version>
43012

> <i_f3d_flags>
0

> <s_epik_input>
W0NIM11bQ0gyXVtDQEBIXTFDKD1PKU4oW0NIM10pW0NIMl1bQ0gyXU4xYyhuW2NIXW4yKWMoYzIzKW5bY0hdbjNbQ0gyXUM0KFtDSDJdW09IXSlbQ0gyXU9bQ0gyXTQ=

> <s_epik_cmdline>
J2VwaWtfcHl0aG9uJywgJy1waCcsICc3LjAnLCAnLXRuJywgJzgnLCAnLW1hJywgJzIwMCcsICctbWV0YWxfYmluZGluZycsICctaW1hZScsICc8aW5maWxlLm1hZT4nLCAnLW9tYWUnLCAnPG91dGZpbGUubWFlPic=

> <r_lp_tautomer_probability>
1

> <r_epik_Ionization_Penalty>
0.000581289

> <r_epik_Ionization_Penalty_Charging>
0

> <r_epik_Ionization_Penalty_Neutral>
0.000581289

> <r_epik_State_Penalty>
0.000280365

> <r_epik_Charging_Adjusted_Penalty>
0.000280365

> <i_epik_Tot_Q>
0

> <i_epik_Tot_abs_Q>
0

> <r_epik_Metal_State_Penalty>
-0

> <b_epik_Metal_Only>
0

> <s_lp_Force_Field>
OPLS_2005

> <r_lp_Energy>
42.9171

> <b_lp_Chiralities_Consistent>
1

> <s_lp_Variant>
AV-unprocessed.smi:208-2

> <Gold.Version>
5.8.1

> <Gold.Id.Protein>
6NUR|6NUR_protein|mol2

> <Gold.PLP.Fitness>
45.4716

> <Gold.PLP.PLP>
-41.9996

> <Gold.PLP.part.hbond>
-4.4027

> <Gold.PLP.part.metal>
0.0000

> <Gold.PLP.part.buried>
-5.6616

> <Gold.PLP.part.nonpolar>
-32.4145

> <Gold.PLP.part.repulsive>
0.4067

> <Gold.PLP.ligand.clash>
0.0000

> <Gold.PLP.ligand.torsion>
0.7592

> <Gold.PLP.Chemscore.Hbond>
1.4912

> <Gold.PLP.Chemscore.CHOScore>
0.0000

> <Gold.PLP.Chemscore.Metal>
0.0000

> <Gold.Chemscore.Hbonds>
donor molecule, donor type, donor heavy atom, donor atom, acceptor molecule, acceptor atom, score
      P1  H  6933  6944       L1    17  0.71
      P1  H  7997  8010       L1     5  1.00

> <Gold.PLP.Chemscore.Internal.Correction>
0.5169

> <Gold.Rescore>
     Score         DG    S(hbond)    S(metal)    S(lipo)     H(rot)  DE(clash)    DE(int)     intcor
      6.38      -9.61       0.59        0.00      72.18       2.46       0.70       2.54       ----

> <Gold.Chemscore.Fitness>
6.3784

> <Gold.Chemscore.DG>
-9.6148

> <Gold.Chemscore.ZeroCoef>
-5.4800

> <Gold.Chemscore.Hbond>
0.5950

> <Gold.Chemscore.Metal>
0.0000

> <Gold.Chemscore.Lipo>
72.1779

> <Gold.Chemscore.Internal_Hbond>
0.0000

> <Gold.Chemscore.DEClash>
0.7009

> <Gold.Chemscore.DEInternal>
2.5354

> <Gold.Chemscore.Rot>
2.4598

> <Gold.Chemscore.Internal.Correction>
   9.000000E+99

> <Gold.Chemscore.Hbonds>
donor molecule, donor type, donor heavy atom, donor atom, acceptor molecule, acceptor atom, score
      P1  H  6933  6944       L1    17  0.05
      P1  H  7997  8010       L1     5  0.88

> <Gold.Chemscore.Hbond.Weighted>
-1.9872

> <Gold.Chemscore.Metal.Weighted>
-0.0000

> <Gold.Chemscore.Lipo.Weighted>
-8.4448

> <Gold.Chemscore.Internal_Hbond.Weighted>
0.0000

> <Gold.Chemscore.DEClash.Weighted>
0.7009

> <Gold.Chemscore.DEInternal.Weighted>
2.5354

> <Gold.Chemscore.Rot.Weighted>
6.2972

> <Gold.Chemscore.Internal.Correction.Weighted>
   9.000000E+99

> <Gold.Protein.RotatedTorsions>
[ 6907 6896 6895 6894 ] final   88.08 input  -60.11 | X-H torsion
[ 7974 7965 7964 7962 ] final  -58.00 input  175.53 | X-H torsion
[ 8008 7997 7996 7995 ] final   40.90 input   59.86 | X-H torsion
[ 10167 10162 10161 10158 ] final   23.01 input  -65.29 | X-H torsion
[ 10718 10713 10712 10709 ] final  -67.50 input   66.30 | X-H torsion
[ 10763 10752 10751 10750 ] final   82.87 input  -60.55 | X-H torsion
[ 11005 11000 10999 10996 ] final   72.64 input  -57.11 | X-H torsion

> <Gold.Protein.ActiveResidues>
 VAL166  LYS551  ARG553  GLY616  TRP617  ASP618  TYR619  PRO620  LYS621  CYS622 
 ASP623  PHE694  ASN695  SER759  ASP760  ASP761  ALA762  ILE779  LEU786  VAL792 
 PHE793  MET794  SER795  GLU796  ALA797  LYS798  CYS799  TRP800  GLU811  SER814 

> <Gold.Protein.RotatedAtoms>
  152.5420  134.2176  159.8774 H   0  0  0  0  0  0  0  0  0  0  0  0  # atno 6907 bound_to 6896
  151.2155  133.4525  159.2607 H   0  0  0  0  0  0  0  0  0  0  0  0  # atno 6908 bound_to 6896
  151.0855  134.9897  159.8433 H   0  0  0  0  0  0  0  0  0  0  0  0  # atno 6909 bound_to 6896
  145.8444  140.8395  143.0018 H   0  0  0  0  0  0  0  0  0  0  0  0  # atno 7974 bound_to 7965
  155.2608  140.3359  155.4273 H   0  0  0  0  0  0  0  0  0  0  0  0  # atno 8008 bound_to 7997
  156.2175  140.1795  156.7597 H   0  0  0  0  0  0  0  0  0  0  0  0  # atno 8009 bound_to 7997
  154.5776  140.0659  156.9041 H   0  0  0  0  0  0  0  0  0  0  0  0  # atno 8010 bound_to 7997
  140.5303  143.9852  150.6462 H   0  0  0  0  0  0  0  0  0  0  0  0  # atno 10167 bound_to 10162
  156.0554  130.4279  150.1864 H   0  0  0  0  0  0  0  0  0  0  0  0  # atno 10718 bound_to 10713
  153.1241  135.4712  154.9243 H   0  0  0  0  0  0  0  0  0  0  0  0  # atno 10763 bound_to 10752
  154.7603  135.3129  154.8393 H   0  0  0  0  0  0  0  0  0  0  0  0  # atno 10764 bound_to 10752
  153.8951  135.6881  153.4812 H   0  0  0  0  0  0  0  0  0  0  0  0  # atno 10765 bound_to 10752
  139.9480  134.7278  156.0931 H   0  0  0  0  0  0  0  0  0  0  0  0  # atno 11005 bound_to 11000
  144.6732  140.0860  143.7467 LP  0  0  0  0  0  0  0  0  0  0  0  0  # atno 17320 bound_to 7965
  145.9428  139.2680  143.1258 LP  0  0  0  0  0  0  0  0  0  0  0  0  # atno 17321 bound_to 7965
  140.3225  143.3128  152.0769 LP  0  0  0  0  0  0  0  0  0  0  0  0  # atno 17342 bound_to 10162
  139.4952  144.6564  151.6563 LP  0  0  0  0  0  0  0  0  0  0  0  0  # atno 17343 bound_to 10162
  156.9941  130.9902  151.3407 LP  0  0  0  0  0  0  0  0  0  0  0  0  # atno 17370 bound_to 10713
  157.5519  130.8188  149.8156 LP  0  0  0  0  0  0  0  0  0  0  0  0  # atno 17371 bound_to 10713
  141.1136  133.6635  156.3038 LP  0  0  0  0  0  0  0  0  0  0  0  0  # atno 17394 bound_to 11000
  140.5787  134.5767  157.5474 LP  0  0  0  0  0  0  0  0  0  0  0  0  # atno 17395 bound_to 11000

$$$$
