AV-unprocessed.smi:2414|AV-procd|sdf|9538|dock8
  -GOLD-   2272013173D 1   1.00000     0.00000
 Structure written by MMmdl.
 43 44  0  0  0  0  0  0  0  0  1 V2000
  150.8871  142.1753  158.1561 C   0  0  0  0  0  0  0  0  0  0  0  0
  150.4696  141.4848  156.9024 C   0  0  0  0  0  0  0  0  0  0  0  0
  151.2759  140.9321  155.9385 C   0  0  0  0  0  0  0  0  0  0  0  0
  150.5740  140.3627  154.8737 N   0  0  0  0  0  0  0  0  0  0  0  0
  149.2502  140.4728  155.0175 C   0  0  0  0  0  0  0  0  0  0  0  0
  148.2562  139.9758  154.0116 C   0  0  2  0  0  0  0  0  0  0  0  0
  147.3314  141.0932  153.5095 C   0  0  0  0  0  0  0  0  0  0  0  0
  147.4852  138.7226  154.4846 C   0  0  0  0  0  0  0  0  0  0  0  0
  147.3182  137.7275  153.4293 N   0  0  0  0  0  0  0  0  0  0  0  0
  146.1452  137.3544  152.9013 C   0  0  0  0  0  0  0  0  0  0  0  0
  145.0521  137.7715  153.2841 O   0  0  0  0  0  0  0  0  0  0  0  0
  146.3135  136.4941  151.8888 N   0  0  0  0  0  0  0  0  0  0  0  0
  145.2512  135.9239  151.0646 C   0  0  0  0  0  0  0  0  0  0  0  0
  144.8859  134.4794  151.4780 C   0  0  1  0  0  0  0  0  0  0  0  0
  144.0380  134.4952  152.7617 C   0  0  0  0  0  0  0  0  0  0  0  0
  144.1906  133.6579  150.3736 C   0  0  0  0  0  0  0  0  0  0  0  0
  144.8027  132.2835  150.5326 C   0  0  0  0  0  0  0  0  0  0  0  0
  146.2273  132.6376  150.9320 C   0  0  0  0  0  0  0  0  0  0  0  0
  146.0843  133.7634  151.7902 O   0  0  0  0  0  0  0  0  0  0  0  0
  148.7832  141.2936  156.5026 S   0  0  0  0  0  0  0  0  0  0  0  0
  151.9718  142.1708  158.2647 H   0  0  0  0  0  0  0  0  0  0  0  0
  150.4590  141.6834  159.0295 H   0  0  0  0  0  0  0  0  0  0  0  0
  150.5544  143.2131  158.1549 H   0  0  0  0  0  0  0  0  0  0  0  0
  152.3555  140.9028  155.9274 H   0  0  0  0  0  0  0  0  0  0  0  0
  148.8419  139.6666  153.1451 H   0  0  0  0  0  0  0  0  0  0  0  0
  147.9064  141.9176  153.0869 H   0  0  0  0  0  0  0  0  0  0  0  0
  146.7188  141.4934  154.3179 H   0  0  0  0  0  0  0  0  0  0  0  0
  146.6595  140.7267  152.7330 H   0  0  0  0  0  0  0  0  0  0  0  0
  148.0363  138.2410  155.2929 H   0  0  0  0  0  0  0  0  0  0  0  0
  146.5141  139.0006  154.8972 H   0  0  0  0  0  0  0  0  0  0  0  0
  148.1615  137.3262  153.0463 H   0  0  0  0  0  0  0  0  0  0  0  0
  147.2569  136.2258  151.6498 H   0  0  0  0  0  0  0  0  0  0  0  0
  144.3793  136.5682  151.1799 H   0  0  0  0  0  0  0  0  0  0  0  0
  145.5112  135.9570  150.0052 H   0  0  0  0  0  0  0  0  0  0  0  0
  143.0950  135.0201  152.6055 H   0  0  0  0  0  0  0  0  0  0  0  0
  144.5641  134.9955  153.5752 H   0  0  0  0  0  0  0  0  0  0  0  0
  143.8032  133.4847  153.0976 H   0  0  0  0  0  0  0  0  0  0  0  0
  143.1039  133.6478  150.4622 H   0  0  0  0  0  0  0  0  0  0  0  0
  144.4275  134.0354  149.3802 H   0  0  0  0  0  0  0  0  0  0  0  0
  144.3086  131.7376  151.3371 H   0  0  0  0  0  0  0  0  0  0  0  0
  144.7478  131.6811  149.6257 H   0  0  0  0  0  0  0  0  0  0  0  0
  146.7442  131.8165  151.4286 H   0  0  0  0  0  0  0  0  0  0  0  0
  146.8090  132.9290  150.0562 H   0  0  0  0  0  0  0  0  0  0  0  0
  1  2  1  0  0  0  0
  1 21  1  0  0  0  0
  1 22  1  0  0  0  0
  1 23  1  0  0  0  0
  2 20  1  0  0  0  0
  2  3  2  0  0  0  0
  3  4  1  0  0  0  0
  3 24  1  0  0  0  0
  4  5  2  0  0  0  0
  5  6  1  0  0  0  0
  5 20  1  0  0  0  0
  6  7  1  0  0  0  0
  6  8  1  0  0  0  0
  6 25  1  0  0  0  0
  7 26  1  0  0  0  0
  7 27  1  0  0  0  0
  7 28  1  0  0  0  0
  8  9  1  0  0  0  0
  8 29  1  0  0  0  0
  8 30  1  0  0  0  0
  9 10  1  0  0  0  0
  9 31  1  0  0  0  0
 10 11  2  0  0  0  0
 10 12  1  0  0  0  0
 12 13  1  0  0  0  0
 12 32  1  0  0  0  0
 13 14  1  0  0  0  0
 13 33  1  0  0  0  0
 13 34  1  0  0  0  0
 14 19  1  0  0  0  0
 14 15  1  0  0  0  0
 14 16  1  0  0  0  0
 15 35  1  0  0  0  0
 15 36  1  0  0  0  0
 15 37  1  0  0  0  0
 16 17  1  0  0  0  0
 16 38  1  0  0  0  0
 16 39  1  0  0  0  0
 17 18  1  0  0  0  0
 17 40  1  0  0  0  0
 17 41  1  0  0  0  0
 18 19  1  0  0  0  0
 18 42  1  0  0  0  0
 18 43  1  0  0  0  0
M  END
> <s_m_source_file>
AV-unprocessed.smi

> <i_m_source_file_index>
2414

> <i_lp_mmshare_version>
43012

> <i_f3d_flags>
0

> <s_epik_input>
W0NIM11jMVtjSF1uYyhzMSlbQ0BIXShbQ0gzXSlbQ0gyXVtOSF1DKD1PKVtOSF1bQ0gyXVtDQEBdMihbQ0gzXSlbQ0gyXVtDSDJdW0NIMl1PMg==

> <s_epik_cmdline>
J2VwaWtfcHl0aG9uJywgJy1waCcsICc3LjAnLCAnLXRuJywgJzgnLCAnLW1hJywgJzIwMCcsICctbWV0YWxfYmluZGluZycsICctaW1hZScsICc8aW5maWxlLm1hZT4nLCAnLW9tYWUnLCAnPG91dGZpbGUubWFlPic=

> <r_epik_Ionization_Penalty>
0.000646956

> <r_epik_Ionization_Penalty_Charging>
0

> <r_epik_Ionization_Penalty_Neutral>
0.000646956

> <r_epik_State_Penalty>
0.000375727

> <r_epik_Charging_Adjusted_Penalty>
0.000375727

> <i_epik_Tot_Q>
0

> <i_epik_Tot_abs_Q>
0

> <r_epik_Metal_State_Penalty>
-0

> <b_epik_Metal_Only>
0

> <s_lp_Force_Field>
OPLS_2005

> <r_lp_Energy>
5.80605

> <b_lp_Chiralities_Consistent>
1

> <s_lp_Variant>
AV-unprocessed.smi:2414-1

> <Gold.Version>
5.8.1

> <Gold.Id.Protein>
6NUR|6NUR_protein|mol2

> <Gold.PLP.Fitness>
41.5134

> <Gold.PLP.PLP>
-34.5012

> <Gold.PLP.part.hbond>
-3.0000

> <Gold.PLP.part.metal>
0.0000

> <Gold.PLP.part.buried>
-4.9839

> <Gold.PLP.part.nonpolar>
-26.7465

> <Gold.PLP.part.repulsive>
0.7254

> <Gold.PLP.ligand.clash>
0.0000

> <Gold.PLP.ligand.torsion>
1.0575

> <Gold.PLP.Chemscore.Hbond>
3.0000

> <Gold.PLP.Chemscore.CHOScore>
0.0000

> <Gold.PLP.Chemscore.Metal>
0.0000

> <Gold.Chemscore.Hbonds>
donor molecule, donor type, donor heavy atom, donor atom, acceptor molecule, acceptor atom, score
      L1  H     9    31       P1  7948  0.99
      L1  H    12    32       P1  7948  1.00
      P1  H  7989  7998       L1     4  1.00

> <Gold.PLP.Chemscore.Internal.Correction>
0.1272

> <Gold.Rescore>
     Score         DG    S(hbond)    S(metal)    S(lipo)     H(rot)  DE(clash)    DE(int)     intcor
     19.37     -20.25       2.71        0.00      84.94       1.65       0.01       0.87       ----

> <Gold.Chemscore.Fitness>
19.3684

> <Gold.Chemscore.DG>
-20.2528

> <Gold.Chemscore.ZeroCoef>
-5.4800

> <Gold.Chemscore.Hbond>
2.7138

> <Gold.Chemscore.Metal>
0.0000

> <Gold.Chemscore.Lipo>
84.9415

> <Gold.Chemscore.Internal_Hbond>
0.0000

> <Gold.Chemscore.DEClash>
0.0141

> <Gold.Chemscore.DEInternal>
0.8703

> <Gold.Chemscore.Rot>
1.6522

> <Gold.Chemscore.Internal.Correction>
   9.000000E+99

> <Gold.Chemscore.Hbonds>
donor molecule, donor type, donor heavy atom, donor atom, acceptor molecule, acceptor atom, score
      L1  H     9    31       P1  7948  0.94
      L1  H    12    32       P1  7948  0.98
      P1  H  7989  7998       L1     4  0.25

> <Gold.Chemscore.Hbond.Weighted>
-9.0642

> <Gold.Chemscore.Metal.Weighted>
-0.0000

> <Gold.Chemscore.Lipo.Weighted>
-9.9382

> <Gold.Chemscore.Internal_Hbond.Weighted>
0.0000

> <Gold.Chemscore.DEClash.Weighted>
0.0141

> <Gold.Chemscore.DEInternal.Weighted>
0.8703

> <Gold.Chemscore.Rot.Weighted>
4.2295

> <Gold.Chemscore.Internal.Correction.Weighted>
   9.000000E+99

> <Gold.Protein.RotatedTorsions>
[ 6907 6896 6895 6894 ] final  128.09 input  -60.11 | X-H torsion
[ 7974 7965 7964 7962 ] final  -93.36 input  175.53 | X-H torsion
[ 8008 7997 7996 7995 ] final  108.39 input   59.86 | X-H torsion
[ 10167 10162 10161 10158 ] final  -32.90 input  -65.29 | X-H torsion
[ 10718 10713 10712 10709 ] final  166.55 input   66.30 | X-H torsion
[ 10763 10752 10751 10750 ] final  128.88 input  -60.55 | X-H torsion
[ 11005 11000 10999 10996 ] final  167.81 input  -57.11 | X-H torsion

> <Gold.Protein.ActiveResidues>
 VAL166  LYS551  ARG553  GLY616  TRP617  ASP618  TYR619  PRO620  LYS621  CYS622 
 ASP623  PHE694  ASN695  SER759  ASP760  ASP761  ALA762  ILE779  LEU786  VAL792 
 PHE793  MET794  SER795  GLU796  ALA797  LYS798  CYS799  TRP800  GLU811  SER814 

> <Gold.Protein.RotatedAtoms>
  152.3752  133.6472  159.6117 H   0  0  0  0  0  0  0  0  0  0  0  0  # atno 6907 bound_to 6896
  150.7698  133.9205  159.3405 H   0  0  0  0  0  0  0  0  0  0  0  0  # atno 6908 bound_to 6896
  151.7020  135.0929  160.0304 H   0  0  0  0  0  0  0  0  0  0  0  0  # atno 6909 bound_to 6896
  145.3876  140.9524  143.2358 H   0  0  0  0  0  0  0  0  0  0  0  0  # atno 7974 bound_to 7965
  156.1899  140.3077  155.9311 H   0  0  0  0  0  0  0  0  0  0  0  0  # atno 8008 bound_to 7997
  155.3197  140.0455  157.3056 H   0  0  0  0  0  0  0  0  0  0  0  0  # atno 8009 bound_to 7997
  154.5439  140.2270  155.8604 H   0  0  0  0  0  0  0  0  0  0  0  0  # atno 8010 bound_to 7997
  140.7213  143.3660  151.1870 H   0  0  0  0  0  0  0  0  0  0  0  0  # atno 10167 bound_to 10162
  157.0642  131.0348  151.2636 H   0  0  0  0  0  0  0  0  0  0  0  0  # atno 10718 bound_to 10713
  153.7327  135.3236  155.3289 H   0  0  0  0  0  0  0  0  0  0  0  0  # atno 10763 bound_to 10752
  154.8320  135.4526  154.1105 H   0  0  0  0  0  0  0  0  0  0  0  0  # atno 10764 bound_to 10752
  153.2257  135.6954  153.8029 H   0  0  0  0  0  0  0  0  0  0  0  0  # atno 10765 bound_to 10752
  140.2807  134.7752  157.3756 H   0  0  0  0  0  0  0  0  0  0  0  0  # atno 11005 bound_to 11000
  144.8463  139.5392  143.6877 LP  0  0  0  0  0  0  0  0  0  0  0  0  # atno 17320 bound_to 7965
  146.2813  139.6884  142.9227 LP  0  0  0  0  0  0  0  0  0  0  0  0  # atno 17321 bound_to 7965
  139.7222  143.9205  152.2989 LP  0  0  0  0  0  0  0  0  0  0  0  0  # atno 17342 bound_to 10162
  139.8966  144.6935  150.8711 LP  0  0  0  0  0  0  0  0  0  0  0  0  # atno 17343 bound_to 10162
  157.4930  130.7834  149.7527 LP  0  0  0  0  0  0  0  0  0  0  0  0  # atno 17370 bound_to 10713
  155.9969  130.3903  150.2760 LP  0  0  0  0  0  0  0  0  0  0  0  0  # atno 17371 bound_to 10713
  140.1286  134.5125  155.8124 LP  0  0  0  0  0  0  0  0  0  0  0  0  # atno 17394 bound_to 11000
  141.2163  133.6781  156.6997 LP  0  0  0  0  0  0  0  0  0  0  0  0  # atno 17395 bound_to 11000

$$$$
