AV-unprocessed.smi:759|AV-procd|sdf|3624|dock5
  -GOLD-   22720 1 13D 1   1.00000     0.00000
 Structure written by MMmdl.
 24 25  0  0  0  0  0  0  0  0  2 V2000
  147.0342  134.8127  154.2312 C   0  0  0  0  0  0  0  0  0  0  0  0
  146.0214  134.0970  154.7217 N   0  0  0  0  0  0  0  0  0  0  0  0
  145.3548  133.6156  153.6064 N   0  0  0  0  0  0  0  0  0  0  0  0
  146.0282  134.0897  152.5500 C   0  0  0  0  0  0  0  0  0  0  0  0
  145.6705  133.8294  151.1186 C   0  0  1  0  0  0  0  0  0  0  0  0
  145.7719  132.3343  150.7593 C   0  0  0  0  0  0  0  0  0  0  0  0
  145.3786  132.1043  149.2917 C   0  0  0  0  0  0  0  0  0  0  0  0
  143.9881  132.6907  148.9964 C   0  0  0  0  0  0  0  0  0  0  0  0
  143.9415  134.1267  149.3477 N   0  3  0  0  0  0  0  0  0  0  0  0
  144.2758  134.3868  150.7655 C   0  0  0  0  0  0  0  0  0  0  0  0
  147.0856  134.8411  152.8944 N   0  0  0  0  0  0  0  0  0  0  0  0
  147.7533  135.3094  152.2989 H   0  0  0  0  0  0  0  0  0  0  0  0
  147.7493  135.3245  154.8584 H   0  0  0  0  0  0  0  0  0  0  0  0
  146.3989  134.3618  150.5040 H   0  0  0  0  0  0  0  0  0  0  0  0
  146.7852  131.9708  150.9345 H   0  0  0  0  0  0  0  0  0  0  0  0
  145.1155  131.7497  151.4055 H   0  0  0  0  0  0  0  0  0  0  0  0
  146.1183  132.5666  148.6367 H   0  0  0  0  0  0  0  0  0  0  0  0
  145.3892  131.0376  149.0657 H   0  0  0  0  0  0  0  0  0  0  0  0
  143.7447  132.5747  147.9401 H   0  0  0  0  0  0  0  0  0  0  0  0
  143.2224  132.1569  149.5613 H   0  0  0  0  0  0  0  0  0  0  0  0
  144.6019  134.6211  148.7650 H   0  0  0  0  0  0  0  0  0  0  0  0
  143.5098  133.9340  151.3969 H   0  0  0  0  0  0  0  0  0  0  0  0
  144.2398  135.4621  150.9432 H   0  0  0  0  0  0  0  0  0  0  0  0
  143.0138  134.4797  149.1604 H   0  0  0  0  0  0  0  0  0  0  0  0
  1 11  1  0  0  0  0
  1  2  2  0  0  0  0
  1 13  1  0  0  0  0
  2  3  1  0  0  0  0
  3  4  2  0  0  0  0
  4  5  1  0  0  0  0
  4 11  1  0  0  0  0
  5 10  1  0  0  0  0
  5  6  1  0  0  0  0
  5 14  1  0  0  0  0
  6  7  1  0  0  0  0
  6 15  1  0  0  0  0
  6 16  1  0  0  0  0
  7  8  1  0  0  0  0
  7 17  1  0  0  0  0
  7 18  1  0  0  0  0
  8  9  1  0  0  0  0
  8 19  1  0  0  0  0
  8 20  1  0  0  0  0
  9 10  1  0  0  0  0
  9 21  1  0  0  0  0
  9 24  1  0  0  0  0
 10 22  1  0  0  0  0
 10 23  1  0  0  0  0
 11 12  1  0  0  0  0
M  CHG  1   9   1
M  END
> <s_m_source_file>
AV-unprocessed.smi

> <i_m_source_file_index>
759

> <i_lp_mmshare_version>
43012

> <i_f3d_flags>
0

> <s_epik_input>
W25IXTFbY0hdbm5jMVtDQEBIXTJbQ0gyXVtDSDJdW0NIMl1bTkhdW0NIMl0y

> <s_epik_cmdline>
J2VwaWtfcHl0aG9uJywgJy1waCcsICc3LjAnLCAnLXRuJywgJzgnLCAnLW1hJywgJzIwMCcsICctbWV0YWxfYmluZGluZycsICctaW1hZScsICc8aW5maWxlLm1hZT4nLCAnLW9tYWUnLCAnPG91dGZpbGUubWFlPic=

> <r_lp_tautomer_probability>
0.0517155

> <r_epik_Ionization_Penalty>
0.0333069

> <r_epik_Ionization_Penalty_Charging>
0.000426856

> <r_epik_Ionization_Penalty_Neutral>
0.03288

> <r_epik_State_Penalty>
2.11054

> <r_epik_Charging_Adjusted_Penalty>
2.11097

> <i_epik_Tot_Q>
1

> <i_epik_Tot_abs_Q>
1

> <r_epik_Metal_State_Penalty>
2.37626

> <b_epik_Metal_Only>
0

> <s_lp_Force_Field>
OPLS_2005

> <r_lp_Energy>
13.742

> <b_lp_Chiralities_Consistent>
1

> <s_lp_Variant>
AV-unprocessed.smi:759-6

> <Gold.Version>
5.8.1

> <Gold.Id.Protein>
6NUR|6NUR_protein|mol2

> <Gold.PLP.Fitness>
32.5116

> <Gold.PLP.PLP>
-20.5138

> <Gold.PLP.part.hbond>
-2.9656

> <Gold.PLP.part.metal>
0.0000

> <Gold.PLP.part.buried>
-3.5028

> <Gold.PLP.part.nonpolar>
-14.5131

> <Gold.PLP.part.repulsive>
0.2717

> <Gold.PLP.ligand.clash>
0.0000

> <Gold.PLP.ligand.torsion>
0.0150

> <Gold.PLP.Chemscore.Hbond>
4.0000

> <Gold.PLP.Chemscore.CHOScore>
0.0000

> <Gold.PLP.Chemscore.Metal>
0.0000

> <Gold.Chemscore.Hbonds>
donor molecule, donor type, donor heavy atom, donor atom, acceptor molecule, acceptor atom, score
      L1  H     9    21       P1  7921  1.00
      L1  H     9    24       P1 10186  1.97
      L1  H    11    12       P1  7948  1.00

> <Gold.PLP.Chemscore.Internal.Correction>
0.0278

> <Gold.Rescore>
     Score         DG    S(hbond)    S(metal)    S(lipo)     H(rot)  DE(clash)    DE(int)     intcor
     18.13     -18.20       2.89        0.00      48.14       1.00       0.04       0.03       ----

> <Gold.Chemscore.Fitness>
18.1345

> <Gold.Chemscore.DG>
-18.2045

> <Gold.Chemscore.ZeroCoef>
-5.4800

> <Gold.Chemscore.Hbond>
2.8900

> <Gold.Chemscore.Metal>
0.0000

> <Gold.Chemscore.Lipo>
48.1370

> <Gold.Chemscore.Internal_Hbond>
0.0000

> <Gold.Chemscore.DEClash>
0.0444

> <Gold.Chemscore.DEInternal>
0.0257

> <Gold.Chemscore.Rot>
1.0000

> <Gold.Chemscore.Internal.Correction>
   9.000000E+99

> <Gold.Chemscore.Hbonds>
donor molecule, donor type, donor heavy atom, donor atom, acceptor molecule, acceptor atom, score
      L1  H     9    21       P1  7921  0.98
      L1  H     9    24       P1 10186  0.87
      L1  H    11    12       P1  7948  0.94

> <Gold.Chemscore.Hbond.Weighted>
-9.6525

> <Gold.Chemscore.Metal.Weighted>
-0.0000

> <Gold.Chemscore.Lipo.Weighted>
-5.6320

> <Gold.Chemscore.Internal_Hbond.Weighted>
0.0000

> <Gold.Chemscore.DEClash.Weighted>
0.0444

> <Gold.Chemscore.DEInternal.Weighted>
0.0257

> <Gold.Chemscore.Rot.Weighted>
2.5600

> <Gold.Chemscore.Internal.Correction.Weighted>
   9.000000E+99

> <Gold.Protein.RotatedTorsions>
[ 6907 6896 6895 6894 ] final  131.28 input  -60.11 | X-H torsion
[ 7974 7965 7964 7962 ] final -142.66 input  175.53 | X-H torsion
[ 8008 7997 7996 7995 ] final  -53.45 input   59.86 | X-H torsion
[ 10167 10162 10161 10158 ] final -113.41 input  -65.29 | X-H torsion
[ 10718 10713 10712 10709 ] final   33.93 input   66.30 | X-H torsion
[ 10763 10752 10751 10750 ] final  -26.12 input  -60.55 | X-H torsion
[ 11005 11000 10999 10996 ] final   30.12 input  -57.11 | X-H torsion

> <Gold.Protein.ActiveResidues>
 VAL166  LYS551  ARG553  GLY616  TRP617  ASP618  TYR619  PRO620  LYS621  CYS622 
 ASP623  PHE694  ASN695  SER759  ASP760  ASP761  ALA762  ILE779  LEU786  VAL792 
 PHE793  MET794  SER795  GLU796  ALA797  LYS798  CYS799  TRP800  GLU811  SER814 

> <Gold.Protein.RotatedAtoms>
  152.3442  133.6103  159.5898 H   0  0  0  0  0  0  0  0  0  0  0  0  # atno 6907 bound_to 6896
  150.7497  133.9674  159.3544 H   0  0  0  0  0  0  0  0  0  0  0  0  # atno 6908 bound_to 6896
  151.7535  135.0828  160.0385 H   0  0  0  0  0  0  0  0  0  0  0  0  # atno 6909 bound_to 6896
  144.8427  140.5931  143.5442 H   0  0  0  0  0  0  0  0  0  0  0  0  # atno 7974 bound_to 7965
  154.4134  140.1199  156.5156 H   0  0  0  0  0  0  0  0  0  0  0  0  # atno 8008 bound_to 7997
  155.6754  140.3496  155.4815 H   0  0  0  0  0  0  0  0  0  0  0  0  # atno 8009 bound_to 7997
  155.9597  140.1120  157.0896 H   0  0  0  0  0  0  0  0  0  0  0  0  # atno 8010 bound_to 7997
  140.1121  143.4518  152.1745 H   0  0  0  0  0  0  0  0  0  0  0  0  # atno 10167 bound_to 10162
  157.3040  130.7365  149.6684 H   0  0  0  0  0  0  0  0  0  0  0  0  # atno 10718 bound_to 10713
  153.7109  135.6951  153.5038 H   0  0  0  0  0  0  0  0  0  0  0  0  # atno 10763 bound_to 10752
  153.2273  135.4349  155.0555 H   0  0  0  0  0  0  0  0  0  0  0  0  # atno 10764 bound_to 10752
  154.8315  135.3475  154.6646 H   0  0  0  0  0  0  0  0  0  0  0  0  # atno 10765 bound_to 10752
  140.2977  134.2792  155.7761 H   0  0  0  0  0  0  0  0  0  0  0  0  # atno 11005 bound_to 11000
  145.4661  139.1508  143.3840 LP  0  0  0  0  0  0  0  0  0  0  0  0  # atno 17320 bound_to 7965
  146.2717  140.4793  142.8812 LP  0  0  0  0  0  0  0  0  0  0  0  0  # atno 17321 bound_to 7965
  139.5613  144.7407  151.4146 LP  0  0  0  0  0  0  0  0  0  0  0  0  # atno 17342 bound_to 10162
  140.6919  143.7840  150.7269 LP  0  0  0  0  0  0  0  0  0  0  0  0  # atno 17343 bound_to 10162
  155.9673  130.4271  150.4730 LP  0  0  0  0  0  0  0  0  0  0  0  0  # atno 17370 bound_to 10713
  157.2716  131.0588  151.2256 LP  0  0  0  0  0  0  0  0  0  0  0  0  # atno 17371 bound_to 10713
  141.2134  133.7626  156.9720 LP  0  0  0  0  0  0  0  0  0  0  0  0  # atno 17394 bound_to 11000
  140.1137  134.9460  157.2103 LP  0  0  0  0  0  0  0  0  0  0  0  0  # atno 17395 bound_to 11000

$$$$
