AV-unprocessed.smi:157|AV-procd|sdf|1299|dock2
  -GOLD-   2262018583D 1   1.00000     0.00000
 Structure written by MMmdl.
 35 37  0  0  0  0  0  0  0  0  1 V2000
  151.2172  136.4637  154.3608 O   0  0  0  0  0  0  0  0  0  0  0  0
  150.5664  137.6778  154.6702 C   0  0  0  0  0  0  0  0  0  0  0  0
  151.6028  138.8181  154.7729 C   0  0  1  0  0  0  0  0  0  0  0  0
  150.8979  140.0567  154.6405 O   0  0  0  0  0  0  0  0  0  0  0  0
  150.8290  140.7297  155.8646 C   0  0  1  0  0  0  0  0  0  0  0  0
  149.4126  141.1421  156.1207 N   0  0  0  0  0  0  0  0  0  0  0  0
  148.8357  141.3327  157.3151 C   0  0  0  0  0  0  0  0  0  0  0  0
  147.5699  141.7107  157.2595 N   0  0  0  0  0  0  0  0  0  0  0  0
  147.2949  141.7657  155.8943 C   0  0  0  0  0  0  0  0  0  0  0  0
  148.4243  141.4127  155.1700 C   0  0  0  0  0  0  0  0  0  0  0  0
  148.7540  141.2980  153.8329 N   0  0  0  0  0  0  0  0  0  0  0  0
  147.7877  141.1984  152.9751 C   0  0  0  0  0  0  0  0  0  0  0  0
  146.4148  141.2817  153.1587 N   0  0  0  0  0  0  0  0  0  0  0  0
  145.7755  142.3460  153.9134 C   0  0  0  0  0  0  0  0  0  0  0  0
  145.9343  142.2004  155.4318 C   0  0  1  0  0  0  0  0  0  0  0  0
  145.0116  141.2410  155.9057 O   0  0  0  0  0  0  0  0  0  0  0  0
  151.3013  139.7534  156.9364 C   0  0  0  0  0  0  0  0  0  0  0  0
  152.2993  138.9453  156.1397 C   0  0  1  0  0  0  0  0  0  0  0  0
  152.6071  137.7167  156.7669 O   0  0  0  0  0  0  0  0  0  0  0  0
  152.3497  138.7151  153.9842 H   0  0  0  0  0  0  0  0  0  0  0  0
  151.4088  141.6524  155.8186 H   0  0  0  0  0  0  0  0  0  0  0  0
  145.6705  143.1497  155.8989 H   0  0  0  0  0  0  0  0  0  0  0  0
  153.2192  139.5210  156.0263 H   0  0  0  0  0  0  0  0  0  0  0  0
  151.2185  136.3540  153.4223 H   0  0  0  0  0  0  0  0  0  0  0  0
  149.7971  137.8937  153.9290 H   0  0  0  0  0  0  0  0  0  0  0  0
  150.0596  137.5234  155.6225 H   0  0  0  0  0  0  0  0  0  0  0  0
  149.3543  141.1953  158.2522 H   0  0  0  0  0  0  0  0  0  0  0  0
  148.0407  141.0287  151.9276 H   0  0  0  0  0  0  0  0  0  0  0  0
  145.8094  140.9380  152.4273 H   0  0  0  0  0  0  0  0  0  0  0  0
  146.2347  143.2849  153.6004 H   0  0  0  0  0  0  0  0  0  0  0  0
  144.7227  142.4158  153.6384 H   0  0  0  0  0  0  0  0  0  0  0  0
  145.4961  140.5585  156.3450 H   0  0  0  0  0  0  0  0  0  0  0  0
  151.7296  140.2770  157.7916 H   0  0  0  0  0  0  0  0  0  0  0  0
  150.4669  139.1342  157.2712 H   0  0  0  0  0  0  0  0  0  0  0  0
  151.8336  137.1736  156.7589 H   0  0  0  0  0  0  0  0  0  0  0  0
  1  2  1  0  0  0  0
  1 24  1  0  0  0  0
  2  3  1  0  0  0  0
  2 25  1  0  0  0  0
  2 26  1  0  0  0  0
  3 20  1  0  0  0  0
  3 18  1  0  0  0  0
  3  4  1  0  0  0  0
  4  5  1  0  0  0  0
  5 21  1  0  0  0  0
  5  6  1  0  0  0  0
  5 17  1  0  0  0  0
  6 10  1  0  0  0  0
  6  7  1  0  0  0  0
  7  8  2  0  0  0  0
  7 27  1  0  0  0  0
  8  9  1  0  0  0  0
  9 15  1  0  0  0  0
  9 10  2  0  0  0  0
 10 11  1  0  0  0  0
 11 12  2  0  0  0  0
 12 13  1  0  0  0  0
 12 28  1  0  0  0  0
 13 14  1  0  0  0  0
 13 29  1  0  0  0  0
 14 15  1  0  0  0  0
 14 30  1  0  0  0  0
 14 31  1  0  0  0  0
 15 22  1  0  0  0  0
 15 16  1  0  0  0  0
 16 32  1  0  0  0  0
 17 18  1  0  0  0  0
 17 33  1  0  0  0  0
 17 34  1  0  0  0  0
 18 23  1  0  0  0  0
 18 19  1  0  0  0  0
 19 35  1  0  0  0  0
M  END
> <s_m_source_file>
AV-unprocessed.smi

> <i_m_source_file_index>
157

> <i_lp_mmshare_version>
43012

> <i_f3d_flags>
0

> <s_epik_input>
W09IXVtDSDJdW0NASF0xT1tDQEhdKFtDSDJdW0NAQEhdMVtPSF0pbihbY0hdbjIpYyhjMjMpTj1bQ0hdW05IXVtDSDJdW0NASF0zW09IXQ==

> <s_epik_cmdline>
J2VwaWtfcHl0aG9uJywgJy1waCcsICc3LjAnLCAnLXRuJywgJzgnLCAnLW1hJywgJzIwMCcsICctbWV0YWxfYmluZGluZycsICctaW1hZScsICc8aW5maWxlLm1hZT4nLCAnLW9tYWUnLCAnPG91dGZpbGUubWFlPic=

> <r_lp_tautomer_probability>
1

> <r_epik_Ionization_Penalty>
0.0357149

> <r_epik_Ionization_Penalty_Charging>
0.0355056

> <r_epik_Ionization_Penalty_Neutral>
0.000209255

> <r_epik_State_Penalty>
0.0296046

> <r_epik_Charging_Adjusted_Penalty>
0.0651102

> <i_epik_Tot_Q>
0

> <i_epik_Tot_abs_Q>
0

> <r_epik_Metal_State_Penalty>
3.03559e-05

> <b_epik_Metal_Only>
0

> <s_epik_Chemistry_Notes>
This compound has an imine and may undergo hydrolysis. This compound contains an acetal/aminal-like group ( X-CH(R)-Y where X, Y are N, S, or O) that may be acid/base labile, releasing an aldehyde.

> <s_lp_Force_Field>
OPLS_2005

> <r_lp_Energy>
47.2619

> <b_lp_Chiralities_Consistent>
1

> <s_lp_Variant>
AV-unprocessed.smi:157-9

> <Gold.Version>
5.8.1

> <Gold.Id.Protein>
6NUR|6NUR_protein|mol2

> <Gold.PLP.Fitness>
43.0041

> <Gold.PLP.PLP>
-29.9315

> <Gold.PLP.part.hbond>
-4.6660

> <Gold.PLP.part.metal>
0.0000

> <Gold.PLP.part.buried>
-6.0927

> <Gold.PLP.part.nonpolar>
-20.7374

> <Gold.PLP.part.repulsive>
0.3380

> <Gold.PLP.ligand.clash>
0.0000

> <Gold.PLP.ligand.torsion>
0.9285

> <Gold.PLP.Chemscore.Hbond>
4.0000

> <Gold.PLP.Chemscore.CHOScore>
0.9717

> <Gold.PLP.Chemscore.Metal>
0.0000

> <Gold.Chemscore.Hbonds>
donor molecule, donor type, donor heavy atom, donor atom, acceptor molecule, acceptor atom, score
      L1  H     1    24       P1  7949  1.00
      L1  H    13    29       P1 10175  0.31
      P1  H  7989  7998       L1     4  1.00
      P1  H  8011  8017       L1    11  0.18
      P1  H 10752 10765       L1     1  0.35
      L1  C    12    28       P1  7957  0.86

> <Gold.PLP.Chemscore.Internal.Correction>
0.0144

> <Gold.Rescore>
     Score         DG    S(hbond)    S(metal)    S(lipo)     H(rot)  DE(clash)    DE(int)     intcor
      6.69      -9.35       2.65        0.00      37.10       3.64       0.12       2.54       ----

> <Gold.Chemscore.Fitness>
6.6904

> <Gold.Chemscore.DG>
-9.3478

> <Gold.Chemscore.ZeroCoef>
-5.4800

> <Gold.Chemscore.Hbond>
2.6454

> <Gold.Chemscore.Metal>
0.0000

> <Gold.Chemscore.Lipo>
37.1011

> <Gold.Chemscore.Internal_Hbond>
0.0000

> <Gold.Chemscore.DEClash>
0.1197

> <Gold.Chemscore.DEInternal>
2.5376

> <Gold.Chemscore.Rot>
3.6362

> <Gold.Chemscore.Internal.Correction>
   9.000000E+99

> <Gold.Chemscore.Hbonds>
donor molecule, donor type, donor heavy atom, donor atom, acceptor molecule, acceptor atom, score
      L1  H     1    24       P1  7949  0.49
      L1  H    13    29       P1 10175  0.04
      P1  H  7989  7998       L1     4  0.48
      P1  H 10752 10765       L1     1  0.01

> <Gold.Chemscore.Hbond.Weighted>
-8.8357

> <Gold.Chemscore.Metal.Weighted>
-0.0000

> <Gold.Chemscore.Lipo.Weighted>
-4.3408

> <Gold.Chemscore.Internal_Hbond.Weighted>
0.0000

> <Gold.Chemscore.DEClash.Weighted>
0.1197

> <Gold.Chemscore.DEInternal.Weighted>
2.5376

> <Gold.Chemscore.Rot.Weighted>
9.3087

> <Gold.Chemscore.Internal.Correction.Weighted>
   9.000000E+99

> <Gold.Protein.RotatedTorsions>
[ 6907 6896 6895 6894 ] final  145.33 input  -60.11 | X-H torsion
[ 7974 7965 7964 7962 ] final  -95.85 input  175.53 | X-H torsion
[ 8008 7997 7996 7995 ] final -145.67 input   59.86 | X-H torsion
[ 10167 10162 10161 10158 ] final   64.08 input  -65.29 | X-H torsion
[ 10718 10713 10712 10709 ] final  138.52 input   66.30 | X-H torsion
[ 10763 10752 10751 10750 ] final  166.69 input  -60.55 | X-H torsion
[ 11005 11000 10999 10996 ] final  -29.27 input  -57.11 | X-H torsion

> <Gold.Protein.ActiveResidues>
 VAL166  LYS551  ARG553  GLY616  TRP617  ASP618  TYR619  PRO620  LYS621  CYS622 
 ASP623  PHE694  ASN695  SER759  ASP760  ASP761  ALA762  ILE779  LEU786  VAL792 
 PHE793  MET794  SER795  GLU796  ALA797  LYS798  CYS799  TRP800  GLU811  SER814 

> <Gold.Protein.RotatedAtoms>
  152.1823  133.4716  159.4964 H   0  0  0  0  0  0  0  0  0  0  0  0  # atno 6907 bound_to 6896
  150.6936  134.1818  159.4260 H   0  0  0  0  0  0  0  0  0  0  0  0  # atno 6908 bound_to 6896
  151.9729  135.0067  160.0604 H   0  0  0  0  0  0  0  0  0  0  0  0  # atno 6909 bound_to 6896
  145.3546  140.9482  143.2535 H   0  0  0  0  0  0  0  0  0  0  0  0  # atno 7974 bound_to 7965
  155.5469  140.0613  157.2858 H   0  0  0  0  0  0  0  0  0  0  0  0  # atno 8008 bound_to 7997
  154.4433  140.1909  156.0692 H   0  0  0  0  0  0  0  0  0  0  0  0  # atno 8009 bound_to 7997
  156.0544  140.3280  155.7392 H   0  0  0  0  0  0  0  0  0  0  0  0  # atno 8010 bound_to 7997
  140.1261  144.4687  150.6892 H   0  0  0  0  0  0  0  0  0  0  0  0  # atno 10167 bound_to 10162
  157.4244  131.1042  151.0318 H   0  0  0  0  0  0  0  0  0  0  0  0  # atno 10718 bound_to 10713
  154.3427  135.2754  155.2414 H   0  0  0  0  0  0  0  0  0  0  0  0  # atno 10763 bound_to 10752
  154.4677  135.5891  153.6303 H   0  0  0  0  0  0  0  0  0  0  0  0  # atno 10764 bound_to 10752
  152.9856  135.6080  154.3630 H   0  0  0  0  0  0  0  0  0  0  0  0  # atno 10765 bound_to 10752
  140.9281  133.7355  156.0897 H   0  0  0  0  0  0  0  0  0  0  0  0  # atno 11005 bound_to 11000
  144.8692  139.5063  143.6776 LP  0  0  0  0  0  0  0  0  0  0  0  0  # atno 17320 bound_to 7965
  146.2953  139.7260  142.9131 LP  0  0  0  0  0  0  0  0  0  0  0  0  # atno 17321 bound_to 7965
  140.6844  143.2342  151.5299 LP  0  0  0  0  0  0  0  0  0  0  0  0  # atno 17342 bound_to 10162
  139.5544  144.2314  152.1586 LP  0  0  0  0  0  0  0  0  0  0  0  0  # atno 17343 bound_to 10162
  157.1237  130.6072  149.5511 LP  0  0  0  0  0  0  0  0  0  0  0  0  # atno 17370 bound_to 10713
  155.9891  130.4938  150.7201 LP  0  0  0  0  0  0  0  0  0  0  0  0  # atno 17371 bound_to 10713
  140.7898  134.3630  157.5467 LP  0  0  0  0  0  0  0  0  0  0  0  0  # atno 17394 bound_to 11000
  139.8790  134.9133  156.3081 LP  0  0  0  0  0  0  0  0  0  0  0  0  # atno 17395 bound_to 11000

$$$$
