#       Name:                AV-unprocessed.smi:54
#       Creating user name   scv26
#       Creation time:       Thu Mar 26 16:44:20 2020


#       File generated by GOLD software.
#

@<TRIPOS>MOLECULE
AV-unprocessed.smi:54
    58    60     1
SMALL
NO_CHARGES


@<TRIPOS>ATOM
      1 ****        -0.6639   5.6623  -0.9406 C.3            1 S1                 0.0000
      2 ****        -1.1921   5.0101   0.3480 C.3            1 S1                 0.0000
      3 ****        -0.5956   5.6794   1.5973 C.3            1 S1                 0.0000
      4 ****        -0.9068   3.5015   0.3492 C.2            1 S1                 0.0000
      5 ****         0.2633   3.1114   0.3383 O.2            1 S1                 0.0000
      6 ****        -2.0001   2.7062   0.3608 N.am           1 S1                 0.0000
      7 ****        -2.0766   1.3085   0.3596 C.2            1 S1                 0.0000
      8 ****        -0.9818   0.5816   0.3923 N.2            1 S1                 0.0000
      9 ****        -1.2487  -0.7735   0.3784 C.2            1 S1                 0.0000
     10 ****        -2.4704  -1.3868   0.3405 C.2            1 S1                 0.0000
     11 ****        -2.3444  -2.7702   0.3351 N.2            1 S1                 0.0000
     12 ****        -1.0222  -2.9285   0.3712 C.2            1 S1                 0.0000
     13 ****        -0.2994  -1.7888   0.3900 N.pl3          1 S1                 0.0000
     14 ****         1.1922  -1.6325   0.4325 C.3            1 S1                 0.0000
     15 ****         1.7264  -2.8027   0.9799 O.3            1 S1                 0.0000
     16 ****         2.5541  -3.4849   0.0358 C.3            1 S1                 0.0000
     17 ****         2.4190  -5.0112   0.1807 C.3            1 S1                 0.0000
     18 ****         3.2160  -5.4691   1.2516 O.3            1 S1                 0.0000
     19 ****         2.1662  -2.9101  -1.3353 C.3            1 S1                 0.0000
     20 ****         1.0858  -3.6199  -1.9180 O.3            1 S1                 0.0000
     21 ****         1.7985  -1.4789  -0.9735 C.3            1 S1                 0.0000
     22 ****         0.9736  -0.8489  -1.9378 O.3            1 S1                 0.0000
     23 ****        -3.6605  -0.5042   0.3124 C.2            1 S1                 0.0000
     24 ****        -4.7805  -1.0103   0.2806 O.2            1 S1                 0.0000
     25 ****        -3.3983   0.8377   0.3236 N.pl3          1 S1                -1.0000
     26 ****         1.3586  -0.7723   1.0819 H              1 S1                 0.0000
     27 ****         3.5850  -3.1851   0.2331 H              1 S1                 0.0000
     28 ****         3.0034  -2.9437  -2.0332 H              1 S1                 0.0000
     29 ****         2.7148  -0.8970  -0.8667 H              1 S1                 0.0000
     30 ****        -1.0761   5.1785  -1.8270 H              1 S1                 0.0000
     31 ****         0.4236   5.6046  -1.0040 H              1 S1                 0.0000
     32 ****        -0.9411   6.7158  -0.9855 H              1 S1                 0.0000
     33 ****        -2.2734   5.1564   0.3762 H              1 S1                 0.0000
     34 ****        -0.9663   5.2141   2.5118 H              1 S1                 0.0000
     35 ****        -0.8629   6.7356   1.6373 H              1 S1                 0.0000
     36 ****         0.4933   5.6143   1.6074 H              1 S1                 0.0000
     37 ****        -2.8832   3.1950   0.3603 H              1 S1                 0.0000
     38 ****        -0.5680  -3.9077   0.3813 H              1 S1                 0.0000
     39 ****         1.3809  -5.3081   0.3301 H              1 S1                 0.0000
     40 ****         2.7736  -5.5078  -0.7230 H              1 S1                 0.0000
     41 ****         3.1093  -6.4050   1.3260 H              1 S1                 0.0000
     42 ****         0.8426  -3.1834  -2.7203 H              1 S1                 0.0000
     43 ****         0.1328  -1.2808  -1.9403 H              1 S1                 0.0000
     44 ****         1.0115   3.7748   0.3289 LP             1 S1                 0.0000
     45 ****         0.4637   2.1317   0.3390 LP             1 S1                 0.0000
     46 ****        -0.0594   0.9665   0.4238 LP             1 S1                 0.0000
     47 ****        -3.0611  -3.4672   0.3105 LP             1 S1                 0.0000
     48 ****         0.9774  -3.4064   1.2530 LP             1 S1                 0.0000
     49 ****         2.2738  -2.5667   1.7828 LP             1 S1                 0.0000
     50 ****         2.9257  -5.0280   2.1008 LP             1 S1                 0.0000
     51 ****         4.1759  -5.2521   1.0745 LP             1 S1                 0.0000
     52 ****         0.3085  -3.6290  -1.2888 LP             1 S1                 0.0000
     53 ****         1.3657  -4.5594  -2.1155 LP             1 S1                 0.0000
     54 ****         1.3940  -0.9235  -2.8420 LP             1 S1                 0.0000
     55 ****         0.8566   0.1161  -1.7031 LP             1 S1                 0.0000
     56 ****        -4.8795  -2.0054   0.2740 LP             1 S1                 0.0000
     57 ****        -5.5925  -0.4269   0.2614 LP             1 S1                 0.0000
     58 ****        -4.1559   1.4902   0.3060 LP             1 S1                 0.0000
@<TRIPOS>BOND
    1    1    2 1     
    2    1   30 1     
    3    1   31 1     
    4    1   32 1     
    5    2    3 1     
    6    2    4 1     
    7    2   33 1     
    8    3   34 1     
    9    3   35 1     
   10    3   36 1     
   11    4    5 2     
   12    4    6 am    
   13    6   37 1     
   14    6    7 1     
   15    7   25 1     
   16    7    8 2     
   17    8    9 1     
   18    9   13 1     
   19    9   10 2     
   20   10   11 1     
   21   10   23 1     
   22   11   12 2     
   23   12   13 1     
   24   12   38 1     
   25   13   14 1     
   26   14   26 1     
   27   14   21 1     
   28   14   15 1     
   29   15   16 1     
   30   16   27 1     
   31   16   17 1     
   32   16   19 1     
   33   17   18 1     
   34   17   39 1     
   35   17   40 1     
   36   18   41 1     
   37   19   28 1     
   38   19   20 1     
   39   19   21 1     
   40   20   42 1     
   41   21   29 1     
   42   21   22 1     
   43   22   43 1     
   44   23   24 2     
   45   23   25 1     
   46    5   44 1     
   47    5   45 1     
   48    8   46 1     
   49   11   47 1     
   50   15   48 1     
   51   15   49 1     
   52   18   50 1     
   53   18   51 1     
   54   20   52 1     
   55   20   53 1     
   56   22   54 1     
   57   22   55 1     
   58   24   56 1     
   59   24   57 1     
   60   25   58 1     
@<TRIPOS>SUBSTRUCTURE
      1 S1             1
@<TRIPOS>SET
LONE_PAIRS      STATIC     ATOMS    <user>   **** ""
15 44 45 46 47 48 49 50 51 52 53 54 55 56 57 58
DONOR_HYDROGENS      STATIC     ATOMS    <user>   **** ""
4 37 41 42 43
ATOM$BLUE        STATIC     ATOMS    COLORGROUP SYSTEM
15 44 45 46 47 48 49 50 51 52 53 54 55 56 57 58
ATOM$RED        STATIC     ATOMS    COLORGROUP SYSTEM
4 37 41 42 43
