#       Name:                AV-unprocessed.smi:2643
#       Creating user name   scv26
#       Creation time:       Fri Mar 27 14:28:52 2020


#       File generated by GOLD software.
#

@<TRIPOS>MOLECULE
AV-unprocessed.smi:2643
    37    38     1
SMALL
NO_CHARGES


@<TRIPOS>ATOM
      1 ****        -5.3913   1.5077   1.6844 C.3            1 S1                 0.0000
      2 ****        -5.0546   0.1068   1.1605 C.3            1 S1                 0.0000
      3 ****        -3.6252  -0.1359   1.1563 N.pl3          1 S1                 0.0000
      4 ****        -2.7495  -0.0569   0.0917 C.2            1 S1                 0.0000
      5 ****        -1.5209  -0.3703   0.6003 C.2            1 S1                 0.0000
      6 ****        -0.2664  -0.4407  -0.0557 N.am           1 S1                 0.0000
      7 ****        -0.0041  -0.2014  -1.3547 C.2            1 S1                 0.0000
      8 ****        -0.8485   0.1254  -2.1864 O.2            1 S1                 0.0000
      9 ****         1.2904  -0.3428  -1.6923 N.am           1 S1                 0.0000
     10 ****         1.9068  -0.1585  -3.0084 C.3            1 S1                 0.0000
     11 ****         1.6430  -1.3600  -3.9413 C.3            1 S1                 0.0000
     12 ****         3.0034  -1.7623  -4.5132 C.3            1 S1                 0.0000
     13 ****         4.0002  -1.3614  -3.4310 C.3            1 S1                 0.0000
     14 ****         3.4372  -0.0538  -2.8738 C.3            1 S1                 0.0000
     15 ****        -1.7272  -0.6278   1.9805 C.2            1 S1                 0.0000
     16 ****        -3.0019  -0.4839   2.3095 N.2            1 S1                 0.0000
     17 ****        -6.4676   1.6788   1.6705 H              1 S1                 0.0000
     18 ****        -4.9232   2.2794   1.0725 H              1 S1                 0.0000
     19 ****        -5.0477   1.6392   2.7108 H              1 S1                 0.0000
     20 ****        -5.5395  -0.6548   1.7725 H              1 S1                 0.0000
     21 ****        -5.4320  -0.0160   0.1446 H              1 S1                 0.0000
     22 ****        -3.0778   0.2097  -0.9020 H              1 S1                 0.0000
     23 ****         0.5195  -0.6977   0.5236 H              1 S1                 0.0000
     24 ****         1.9219  -0.5993  -0.9472 H              1 S1                 0.0000
     25 ****         1.5377   0.7638  -3.4610 H              1 S1                 0.0000
     26 ****         1.2334  -2.2007  -3.3788 H              1 S1                 0.0000
     27 ****         0.9262  -1.1208  -4.7274 H              1 S1                 0.0000
     28 ****         3.0572  -2.8223  -4.7636 H              1 S1                 0.0000
     29 ****         3.2026  -1.1941  -5.4229 H              1 S1                 0.0000
     30 ****         4.0167  -2.1193  -2.6467 H              1 S1                 0.0000
     31 ****         5.0158  -1.2532  -3.8131 H              1 S1                 0.0000
     32 ****         3.7946   0.7768  -3.4840 H              1 S1                 0.0000
     33 ****         3.7721   0.1346  -1.8526 H              1 S1                 0.0000
     34 ****        -1.0104  -0.9078   2.7386 H              1 S1                 0.0000
     35 ****        -1.8049   0.2297  -1.9136 LP             1 S1                 0.0000
     36 ****        -0.5789   0.2870  -3.1357 LP             1 S1                 0.0000
     37 ****        -3.4151  -0.6054   3.2120 LP             1 S1                 0.0000
@<TRIPOS>BOND
    1    1    2 1     
    2    1   17 1     
    3    1   18 1     
    4    1   19 1     
    5    2    3 1     
    6    2   20 1     
    7    2   21 1     
    8    3   16 1     
    9    3    4 1     
   10    4    5 2     
   11    4   22 1     
   12    5    6 1     
   13    5   15 1     
   14    6    7 am    
   15    6   23 1     
   16    7    8 2     
   17    7    9 am    
   18    9   10 1     
   19    9   24 1     
   20   10   14 1     
   21   10   11 1     
   22   10   25 1     
   23   11   12 1     
   24   11   26 1     
   25   11   27 1     
   26   12   13 1     
   27   12   28 1     
   28   12   29 1     
   29   13   14 1     
   30   13   30 1     
   31   13   31 1     
   32   14   32 1     
   33   14   33 1     
   34   15   16 2     
   35   15   34 1     
   36    8   35 1     
   37    8   36 1     
   38   16   37 1     
@<TRIPOS>SUBSTRUCTURE
      1 S1             1
@<TRIPOS>SET
LONE_PAIRS      STATIC     ATOMS    <user>   **** ""
3 35 36 37
DONOR_HYDROGENS      STATIC     ATOMS    <user>   **** ""
2 23 24
ATOM$BLUE        STATIC     ATOMS    COLORGROUP SYSTEM
3 35 36 37
ATOM$RED        STATIC     ATOMS    COLORGROUP SYSTEM
2 23 24
