#       Name:                AV-unprocessed.smi:34
#       Creating user name   scv26
#       Creation time:       Thu Mar 26 15:52:54 2020


#       File generated by GOLD software.
#

@<TRIPOS>MOLECULE
AV-unprocessed.smi:34
    66    70     1
SMALL
NO_CHARGES


@<TRIPOS>ATOM
      1 ****        -5.3268   1.4658   0.3985 O.2            1 S1                 0.0000
      2 ****        -5.5014   0.2512   0.5004 C.2            1 S1                 0.0000
      3 ****        -4.4004  -0.6947   0.4443 N.am           1 S1                 0.0000
      4 ****        -3.0756  -0.4311   0.3503 C.ar           1 S1                 0.0000
      5 ****        -2.5867   0.8350   0.2797 N.ar           1 S1                 0.0000
      6 ****        -1.2706   1.0435   0.1844 C.ar           1 S1                 0.0000
      7 ****        -0.2857   0.1442   0.1432 N.ar           1 S1                 0.0000
      8 ****        -0.7661  -1.1299   0.2158 C.ar           1 S1                 0.0000
      9 ****        -2.1373  -1.4958   0.3215 C.ar           1 S1                 0.0000
     10 ****        -2.2520  -2.8785   0.3750 N.2            1 S1                 0.0000
     11 ****        -1.0180  -3.3004   0.3056 C.2            1 S1                 0.0000
     12 ****        -0.0603  -2.3160   0.2002 N.pl3          1 S1                 0.0000
     13 ****         1.4197  -2.5004   0.1042 C.3            1 S1                 0.0000
     14 ****         2.0284  -1.6670   1.0459 O.3            1 S1                 0.0000
     15 ****         3.1842  -1.0389   0.4851 C.3            1 S1                 0.0000
     16 ****         2.9571   0.4782   0.4200 C.3            1 S1                 0.0000
     17 ****         4.1881   1.1305   0.1529 O.3            1 S1                 0.0000
     18 ****         4.2211   2.4687  -0.0037 C.2            1 S1                 0.0000
     19 ****         3.2258   3.1906   0.0846 O.2            1 S1                 0.0000
     20 ****         5.5890   2.9856  -0.2978 C.ar           1 S1                 0.0000
     21 ****         5.7813   4.3760  -0.4735 C.ar           1 S1                 0.0000
     22 ****         7.0610   4.8935  -0.7543 C.ar           1 S1                 0.0000
     23 ****         8.1639   4.0268  -0.8634 C.ar           1 S1                 0.0000
     24 ****         7.9858   2.6417  -0.6912 C.ar           1 S1                 0.0000
     25 ****         6.7069   2.1223  -0.4100 C.ar           1 S1                 0.0000
     26 ****         3.3696  -1.6818  -0.8927 C.3            1 S1                 0.0000
     27 ****         4.1415  -2.7612  -0.7355 F              1 S1                 0.0000
     28 ****         1.9514  -2.0798  -1.2653 C.3            1 S1                 0.0000
     29 ****         1.9598  -3.1224  -2.2197 O.3            1 S1                 0.0000
     30 ****        -6.8768  -0.3412   0.6077 C.ar           1 S1                 0.0000
     31 ****        -7.9881   0.3529   0.0781 C.ar           1 S1                 0.0000
     32 ****        -9.2848  -0.1850   0.1903 C.ar           1 S1                 0.0000
     33 ****        -9.4827  -1.4188   0.8383 C.ar           1 S1                 0.0000
     34 ****        -8.3831  -2.1122   1.3782 C.ar           1 S1                 0.0000
     35 ****        -7.0858  -1.5747   1.2676 C.ar           1 S1                 0.0000
     36 ****        -4.6540  -1.6705   0.4971 H              1 S1                 0.0000
     37 ****        -0.9629   2.0775   0.1328 H              1 S1                 0.0000
     38 ****        -0.7709  -4.3519   0.3256 H              1 S1                 0.0000
     39 ****         1.6110  -3.5464   0.3491 H              1 S1                 0.0000
     40 ****         4.0394  -1.2430   1.1312 H              1 S1                 0.0000
     41 ****         2.2275   0.7268  -0.3509 H              1 S1                 0.0000
     42 ****         2.5657   0.8358   1.3733 H              1 S1                 0.0000
     43 ****         4.9494   5.0610  -0.3948 H              1 S1                 0.0000
     44 ****         7.1956   5.9570  -0.8865 H              1 S1                 0.0000
     45 ****         9.1451   4.4238  -1.0787 H              1 S1                 0.0000
     46 ****         8.8315   1.9751  -0.7752 H              1 S1                 0.0000
     47 ****         6.6054   1.0542  -0.2842 H              1 S1                 0.0000
     48 ****         3.8526  -1.0340  -1.6252 H              1 S1                 0.0000
     49 ****         1.3996  -1.2167  -1.6392 H              1 S1                 0.0000
     50 ****         1.0658  -3.3718  -2.3982 H              1 S1                 0.0000
     51 ****        -7.8535   1.3017  -0.4216 H              1 S1                 0.0000
     52 ****       -10.1281   0.3501  -0.2207 H              1 S1                 0.0000
     53 ****       -10.4772  -1.8313   0.9243 H              1 S1                 0.0000
     54 ****        -8.5353  -3.0558   1.8813 H              1 S1                 0.0000
     55 ****        -6.2579  -2.1188   1.6983 H              1 S1                 0.0000
     56 ****        -4.4038   1.8294   0.2726 LP             1 S1                 0.0000
     57 ****        -6.1080   2.0886   0.4416 LP             1 S1                 0.0000
     58 ****        -3.2144   1.6133   0.2991 LP             1 S1                 0.0000
     59 ****         0.6842   0.3758   0.0683 LP             1 S1                 0.0000
     60 ****        -3.0863  -3.4248   0.4494 LP             1 S1                 0.0000
     61 ****         2.3017  -2.2111   1.8391 LP             1 S1                 0.0000
     62 ****         1.3778  -0.9636   1.3323 LP             1 S1                 0.0000
     63 ****         2.3320   2.7880   0.2824 LP             1 S1                 0.0000
     64 ****         3.3121   4.1788  -0.0417 LP             1 S1                 0.0000
     65 ****         2.4633  -3.9070  -1.8580 LP             1 S1                 0.0000
     66 ****         2.3964  -2.8056  -3.0618 LP             1 S1                 0.0000
@<TRIPOS>BOND
    1    1    2 2     
    2    2    3 am    
    3    2   30 1     
    4    3    4 1     
    5    3   36 1     
    6    4    9 ar    
    7    4    5 ar    
    8    5    6 ar    
    9    6    7 ar    
   10    6   37 1     
   11    7    8 ar    
   12    8   12 1     
   13    8    9 ar    
   14    9   10 1     
   15   10   11 2     
   16   11   12 1     
   17   11   38 1     
   18   12   13 1     
   19   13   28 1     
   20   13   14 1     
   21   13   39 1     
   22   14   15 1     
   23   15   16 1     
   24   15   26 1     
   25   15   40 1     
   26   16   17 1     
   27   16   41 1     
   28   16   42 1     
   29   17   18 1     
   30   18   19 2     
   31   18   20 1     
   32   20   25 ar    
   33   20   21 ar    
   34   21   22 ar    
   35   21   43 1     
   36   22   23 ar    
   37   22   44 1     
   38   23   24 ar    
   39   23   45 1     
   40   24   25 ar    
   41   24   46 1     
   42   25   47 1     
   43   26   27 1     
   44   26   28 1     
   45   26   48 1     
   46   28   29 1     
   47   28   49 1     
   48   29   50 1     
   49   30   35 ar    
   50   30   31 ar    
   51   31   32 ar    
   52   31   51 1     
   53   32   33 ar    
   54   32   52 1     
   55   33   34 ar    
   56   33   53 1     
   57   34   35 ar    
   58   34   54 1     
   59   35   55 1     
   60    1   56 1     
   61    1   57 1     
   62    5   58 1     
   63    7   59 1     
   64   10   60 1     
   65   14   61 1     
   66   14   62 1     
   67   19   63 1     
   68   19   64 1     
   69   29   65 1     
   70   29   66 1     
@<TRIPOS>SUBSTRUCTURE
      1 S1             1
@<TRIPOS>SET
LONE_PAIRS      STATIC     ATOMS    <user>   **** ""
11 56 57 58 59 60 61 62 63 64 65 66
DONOR_HYDROGENS      STATIC     ATOMS    <user>   **** ""
2 36 50
ATOM$BLUE        STATIC     ATOMS    COLORGROUP SYSTEM
11 56 57 58 59 60 61 62 63 64 65 66
ATOM$RED        STATIC     ATOMS    COLORGROUP SYSTEM
2 36 50
