AV-unprocessed.smi:1807|AV-procd|sdf|7304|dock1
  -GOLD-   22720 8563D 1   1.00000     0.00000
 Structure written by MMmdl.
 44 45  0  0  0  0  0  0  0  0  1 V2000
  153.7658  142.5299  163.2749 C   0  0  0  0  0  0  0  0  0  0  0  0
  152.8502  142.6777  162.0466 C   0  0  1  0  0  0  0  0  0  0  0  0
  152.5833  144.1672  161.7487 C   0  0  0  0  0  0  0  0  0  0  0  0
  151.6681  144.3536  160.5294 C   0  0  0  0  0  0  0  0  0  0  0  0
  152.2498  143.6557  159.2925 C   0  0  0  0  0  0  0  0  0  0  0  0
  152.5046  142.1669  159.5685 C   0  0  0  0  0  0  0  0  0  0  0  0
  153.4191  141.9638  160.7948 C   0  0  2  0  0  0  0  0  0  0  0  0
  153.5862  140.5365  161.0578 N   0  0  0  0  0  0  0  0  0  0  0  0
  154.1753  139.6565  160.2348 C   0  0  0  0  0  0  0  0  0  0  0  0
  154.6076  139.9546  159.1206 O   0  0  0  0  0  0  0  0  0  0  0  0
  154.2719  138.2152  160.7478 C   0  0  0  0  0  0  0  0  0  0  0  0
  153.8933  138.1011  162.1519 N   0  0  0  0  0  0  0  0  0  0  0  0
  154.0778  136.8850  162.8234 C   0  0  0  0  0  0  0  0  0  0  0  0
  153.7235  136.7166  164.1895 C   0  0  0  0  0  0  0  0  0  0  0  0
  154.0455  135.4121  164.4371 C   0  0  0  0  0  0  0  0  0  0  0  0
  154.5578  134.8806  163.2693 N   0  0  0  0  0  0  0  0  0  0  0  0
  155.0326  133.5303  163.0250 C   0  0  0  0  0  0  0  0  0  0  0  0
  153.9341  132.5004  163.2984 C   0  0  0  0  0  0  0  0  0  0  0  0
  153.4539  132.4344  164.5429 N   0  0  0  0  0  0  0  0  0  0  0  0
  153.5219  131.7732  162.3976 O   0  0  0  0  0  0  0  0  0  0  0  0
  154.5845  135.7921  162.2721 N   0  0  0  0  0  0  0  0  0  0  0  0
  154.7499  142.9580  163.0836 H   0  0  0  0  0  0  0  0  0  0  0  0
  153.9069  141.4855  163.5543 H   0  0  0  0  0  0  0  0  0  0  0  0
  153.3452  143.0408  164.1412 H   0  0  0  0  0  0  0  0  0  0  0  0
  151.8936  142.2148  162.2939 H   0  0  0  0  0  0  0  0  0  0  0  0
  152.1308  144.6460  162.6177 H   0  0  0  0  0  0  0  0  0  0  0  0
  153.5291  144.6820  161.5727 H   0  0  0  0  0  0  0  0  0  0  0  0
  150.6788  143.9498  160.7479 H   0  0  0  0  0  0  0  0  0  0  0  0
  151.5315  145.4162  160.3267 H   0  0  0  0  0  0  0  0  0  0  0  0
  151.5695  143.7661  158.4477 H   0  0  0  0  0  0  0  0  0  0  0  0
  153.1838  144.1395  159.0036 H   0  0  0  0  0  0  0  0  0  0  0  0
  151.5514  141.6616  159.7308 H   0  0  0  0  0  0  0  0  0  0  0  0
  152.9510  141.7063  158.6863 H   0  0  0  0  0  0  0  0  0  0  0  0
  154.3957  142.4006  160.5753 H   0  0  0  0  0  0  0  0  0  0  0  0
  153.2561  140.1983  161.9500 H   0  0  0  0  0  0  0  0  0  0  0  0
  153.6669  137.5429  160.1367 H   0  0  0  0  0  0  0  0  0  0  0  0
  155.3048  137.8827  160.6443 H   0  0  0  0  0  0  0  0  0  0  0  0
  153.2394  138.7727  162.5271 H   0  0  0  0  0  0  0  0  0  0  0  0
  153.2958  137.4325  164.8755 H   0  0  0  0  0  0  0  0  0  0  0  0
  153.9514  134.8223  165.3370 H   0  0  0  0  0  0  0  0  0  0  0  0
  155.3648  133.4431  161.9892 H   0  0  0  0  0  0  0  0  0  0  0  0
  155.9023  133.3454  163.6573 H   0  0  0  0  0  0  0  0  0  0  0  0
  152.7250  131.7742  164.7705 H   0  0  0  0  0  0  0  0  0  0  0  0
  153.8208  133.0519  165.2528 H   0  0  0  0  0  0  0  0  0  0  0  0
  1  2  1  0  0  0  0
  1 22  1  0  0  0  0
  1 23  1  0  0  0  0
  1 24  1  0  0  0  0
  2  7  1  0  0  0  0
  2  3  1  0  0  0  0
  2 25  1  0  0  0  0
  3  4  1  0  0  0  0
  3 26  1  0  0  0  0
  3 27  1  0  0  0  0
  4  5  1  0  0  0  0
  4 28  1  0  0  0  0
  4 29  1  0  0  0  0
  5  6  1  0  0  0  0
  5 30  1  0  0  0  0
  5 31  1  0  0  0  0
  6  7  1  0  0  0  0
  6 32  1  0  0  0  0
  6 33  1  0  0  0  0
  7  8  1  0  0  0  0
  7 34  1  0  0  0  0
  8  9  1  0  0  0  0
  8 35  1  0  0  0  0
  9 10  2  0  0  0  0
  9 11  1  0  0  0  0
 11 12  1  0  0  0  0
 11 36  1  0  0  0  0
 11 37  1  0  0  0  0
 12 13  1  0  0  0  0
 12 38  1  0  0  0  0
 13 21  2  0  0  0  0
 13 14  1  0  0  0  0
 14 15  2  0  0  0  0
 14 39  1  0  0  0  0
 15 16  1  0  0  0  0
 15 40  1  0  0  0  0
 16 17  1  0  0  0  0
 16 21  1  0  0  0  0
 17 18  1  0  0  0  0
 17 41  1  0  0  0  0
 17 42  1  0  0  0  0
 18 19  1  0  0  0  0
 18 20  2  0  0  0  0
 19 43  1  0  0  0  0
 19 44  1  0  0  0  0
M  END
> <s_m_source_file>
AV-unprocessed.smi

> <i_m_source_file_index>
1807

> <i_lp_mmshare_version>
43012

> <i_f3d_flags>
0

> <s_epik_input>
W0NIM11bQ0BASF0xW0NIMl1bQ0gyXVtDSDJdW0NIMl1bQ0BIXTFbTkhdQyg9TylbQ0gyXVtOSF1jMltjSF1bY0hdbihuMilbQ0gyXUMoPU8pW05IMl0=

> <s_epik_cmdline>
J2VwaWtfcHl0aG9uJywgJy1waCcsICc3LjAnLCAnLXRuJywgJzgnLCAnLW1hJywgJzIwMCcsICctbWV0YWxfYmluZGluZycsICctaW1hZScsICc8aW5maWxlLm1hZT4nLCAnLW9tYWUnLCAnPG91dGZpbGUubWFlPic=

> <r_lp_tautomer_probability>
1

> <r_epik_Ionization_Penalty>
0.000167642

> <r_epik_Ionization_Penalty_Charging>
0

> <r_epik_Ionization_Penalty_Neutral>
0.000167642

> <r_epik_State_Penalty>
-0

> <r_epik_Charging_Adjusted_Penalty>
0

> <i_epik_Tot_Q>
0

> <i_epik_Tot_abs_Q>
0

> <r_epik_Metal_State_Penalty>
-0

> <b_epik_Metal_Only>
0

> <s_lp_Force_Field>
OPLS_2005

> <r_lp_Energy>
6.04908

> <b_lp_Chiralities_Consistent>
1

> <s_lp_Variant>
AV-unprocessed.smi:1807-4

> <Gold.Version>
5.8.1

> <Gold.Id.Protein>
6NUR|6NUR_protein|mol2

> <Gold.PLP.Fitness>
49.8125

> <Gold.PLP.PLP>
-47.0715

> <Gold.PLP.part.hbond>
-1.0000

> <Gold.PLP.part.metal>
0.0000

> <Gold.PLP.part.buried>
-5.4394

> <Gold.PLP.part.nonpolar>
-40.2229

> <Gold.PLP.part.repulsive>
0.0518

> <Gold.PLP.ligand.clash>
0.0000

> <Gold.PLP.ligand.torsion>
0.1428

> <Gold.PLP.Chemscore.Hbond>
1.0000

> <Gold.PLP.Chemscore.CHOScore>
0.0000

> <Gold.PLP.Chemscore.Metal>
0.0000

> <Gold.Chemscore.Hbonds>
donor molecule, donor type, donor heavy atom, donor atom, acceptor molecule, acceptor atom, score
      P1  H  7997  8009       L1    10  1.00

> <Gold.PLP.Chemscore.Internal.Correction>
0.0266

> <Gold.Rescore>
     Score         DG    S(hbond)    S(metal)    S(lipo)     H(rot)  DE(clash)    DE(int)     intcor
     14.64     -14.78       0.98        0.00     109.20       2.64       0.02       0.12       ----

> <Gold.Chemscore.Fitness>
14.6429

> <Gold.Chemscore.DG>
-14.7793

> <Gold.Chemscore.ZeroCoef>
-5.4800

> <Gold.Chemscore.Hbond>
0.9799

> <Gold.Chemscore.Metal>
0.0000

> <Gold.Chemscore.Lipo>
109.2023

> <Gold.Chemscore.Internal_Hbond>
0.0000

> <Gold.Chemscore.DEClash>
0.0198

> <Gold.Chemscore.DEInternal>
0.1166

> <Gold.Chemscore.Rot>
2.6369

> <Gold.Chemscore.Internal.Correction>
   9.000000E+99

> <Gold.Chemscore.Hbonds>
donor molecule, donor type, donor heavy atom, donor atom, acceptor molecule, acceptor atom, score
      P1  H  7997  8009       L1    10  0.97

> <Gold.Chemscore.Hbond.Weighted>
-3.2730

> <Gold.Chemscore.Metal.Weighted>
-0.0000

> <Gold.Chemscore.Lipo.Weighted>
-12.7767

> <Gold.Chemscore.Internal_Hbond.Weighted>
0.0000

> <Gold.Chemscore.DEClash.Weighted>
0.0198

> <Gold.Chemscore.DEInternal.Weighted>
0.1166

> <Gold.Chemscore.Rot.Weighted>
6.7504

> <Gold.Chemscore.Internal.Correction.Weighted>
   9.000000E+99

> <Gold.Protein.RotatedTorsions>
[ 6907 6896 6895 6894 ] final  -53.53 input  -60.11 | X-H torsion
[ 7974 7965 7964 7962 ] final  166.80 input  175.53 | X-H torsion
[ 8008 7997 7996 7995 ] final  115.89 input   59.86 | X-H torsion
[ 10167 10162 10161 10158 ] final  115.58 input  -65.29 | X-H torsion
[ 10718 10713 10712 10709 ] final   94.24 input   66.30 | X-H torsion
[ 10763 10752 10751 10750 ] final  -75.71 input  -60.55 | X-H torsion
[ 11005 11000 10999 10996 ] final   59.36 input  -57.11 | X-H torsion

> <Gold.Protein.ActiveResidues>
 VAL166  LYS551  ARG553  GLY616  TRP617  ASP618  TYR619  PRO620  LYS621  CYS622 
 ASP623  PHE694  ASN695  SER759  ASP760  ASP761  ALA762  ILE779  LEU786  VAL792 
 PHE793  MET794  SER795  GLU796  ALA797  LYS798  CYS799  TRP800  GLU811  SER814 

> <Gold.Protein.RotatedAtoms>
  150.8419  134.7714  159.6938 H   0  0  0  0  0  0  0  0  0  0  0  0  # atno 6907 bound_to 6896
  152.4504  134.5402  159.9846 H   0  0  0  0  0  0  0  0  0  0  0  0  # atno 6908 bound_to 6896
  151.5540  133.3375  159.2994 H   0  0  0  0  0  0  0  0  0  0  0  0  # atno 6909 bound_to 6896
  144.7448  139.8667  143.6385 H   0  0  0  0  0  0  0  0  0  0  0  0  # atno 7974 bound_to 7965
  156.2408  140.2929  156.0438 H   0  0  0  0  0  0  0  0  0  0  0  0  # atno 8008 bound_to 7997
  155.1957  140.0408  157.2926 H   0  0  0  0  0  0  0  0  0  0  0  0  # atno 8009 bound_to 7997
  154.6164  140.2465  155.7611 H   0  0  0  0  0  0  0  0  0  0  0  0  # atno 8010 bound_to 7997
  139.6307  144.7114  151.2438 H   0  0  0  0  0  0  0  0  0  0  0  0  # atno 10167 bound_to 10162
  157.6949  131.0506  150.4156 H   0  0  0  0  0  0  0  0  0  0  0  0  # atno 10718 bound_to 10713
  154.4901  135.5822  153.6453 H   0  0  0  0  0  0  0  0  0  0  0  0  # atno 10763 bound_to 10752
  152.9861  135.6110  154.3136 H   0  0  0  0  0  0  0  0  0  0  0  0  # atno 10764 bound_to 10752
  154.3034  135.2846  155.2579 H   0  0  0  0  0  0  0  0  0  0  0  0  # atno 10765 bound_to 10752
  140.0309  134.6013  155.9508 H   0  0  0  0  0  0  0  0  0  0  0  0  # atno 11005 bound_to 11000
  146.1309  139.4344  143.0169 LP  0  0  0  0  0  0  0  0  0  0  0  0  # atno 17320 bound_to 7965
  145.7164  141.0089  143.1426 LP  0  0  0  0  0  0  0  0  0  0  0  0  # atno 17321 bound_to 7965
  140.7437  143.6485  150.8270 LP  0  0  0  0  0  0  0  0  0  0  0  0  # atno 17342 bound_to 10162
  140.0109  143.5643  152.2839 LP  0  0  0  0  0  0  0  0  0  0  0  0  # atno 17343 bound_to 10162
  156.4536  130.4017  149.6620 LP  0  0  0  0  0  0  0  0  0  0  0  0  # atno 17370 bound_to 10713
  156.3760  130.7555  151.2543 LP  0  0  0  0  0  0  0  0  0  0  0  0  # atno 17371 bound_to 10713
  141.1830  133.6550  156.5101 LP  0  0  0  0  0  0  0  0  0  0  0  0  # atno 17394 bound_to 11000
  140.4226  134.7173  157.4898 LP  0  0  0  0  0  0  0  0  0  0  0  0  # atno 17395 bound_to 11000

$$$$
