AV-unprocessed.smi:2911|AV-procd|sdf|11177|dock6
  -GOLD-   2272016 73D 1   1.00000     0.00000
 Structure written by MMmdl.
 41 42  0  0  0  0  0  0  0  0  1 V2000
  145.7544  144.1247  161.6664 C   0  0  0  0  0  0  0  0  0  0  0  0
  146.4096  143.5215  160.4712 C   0  0  0  0  0  0  0  0  0  0  0  0
  147.5817  142.9055  160.5653 N   0  0  0  0  0  0  0  0  0  0  0  0
  147.8373  142.4946  159.2490 O   0  0  0  0  0  0  0  0  0  0  0  0
  146.7676  142.8977  158.5219 C   0  0  0  0  0  0  0  0  0  0  0  0
  146.7549  142.6401  157.0526 C   0  0  0  0  0  0  0  0  0  0  0  0
  147.8860  141.6974  156.6120 C   0  0  0  0  0  0  0  0  0  0  0  0
  149.1976  142.2385  156.9487 N   0  0  0  0  0  0  0  0  0  0  0  0
  150.0930  141.6533  157.7623 C   0  0  0  0  0  0  0  0  0  0  0  0
  149.8869  140.5570  158.2834 O   0  0  0  0  0  0  0  0  0  0  0  0
  151.2713  142.3225  157.8405 N   0  0  0  0  0  0  0  0  0  0  0  0
  151.3119  143.7955  157.8133 C   0  0  0  0  0  0  0  0  0  0  0  0
  151.2776  144.3255  159.2600 C   0  0  0  0  0  0  0  0  0  0  0  0
  152.4351  143.7456  160.1011 C   0  0  1  0  0  0  0  0  0  0  0  0
  152.3365  144.1723  161.5721 C   0  0  0  0  0  0  0  0  0  0  0  0
  152.5149  142.2102  159.9565 C   0  0  0  0  0  0  0  0  0  0  0  0
  152.5000  141.7925  158.4714 C   0  0  1  0  0  0  0  0  0  0  0  0
  152.7437  140.2806  158.2791 C   0  0  0  0  0  0  0  0  0  0  0  0
  145.8541  143.5586  159.2289 N   0  0  0  0  0  0  0  0  0  0  0  0
  145.0741  143.4061  162.1234 H   0  0  0  0  0  0  0  0  0  0  0  0
  145.1847  145.0100  161.3828 H   0  0  0  0  0  0  0  0  0  0  0  0
  146.4982  144.4190  162.4077 H   0  0  0  0  0  0  0  0  0  0  0  0
  145.7842  142.2212  156.7852 H   0  0  0  0  0  0  0  0  0  0  0  0
  146.8368  143.5950  156.5322 H   0  0  0  0  0  0  0  0  0  0  0  0
  147.7807  140.7346  157.1125 H   0  0  0  0  0  0  0  0  0  0  0  0
  147.8255  141.4996  155.5404 H   0  0  0  0  0  0  0  0  0  0  0  0
  149.4513  143.1186  156.5236 H   0  0  0  0  0  0  0  0  0  0  0  0
  152.2217  144.1291  157.3124 H   0  0  0  0  0  0  0  0  0  0  0  0
  150.4931  144.2393  157.2461 H   0  0  0  0  0  0  0  0  0  0  0  0
  151.3293  145.4147  159.2555 H   0  0  0  0  0  0  0  0  0  0  0  0
  150.3221  144.0646  159.7175 H   0  0  0  0  0  0  0  0  0  0  0  0
  153.3636  144.1579  159.7031 H   0  0  0  0  0  0  0  0  0  0  0  0
  151.4258  143.7911  162.0352 H   0  0  0  0  0  0  0  0  0  0  0  0
  152.3286  145.2585  161.6658 H   0  0  0  0  0  0  0  0  0  0  0  0
  153.1840  143.7979  162.1468 H   0  0  0  0  0  0  0  0  0  0  0  0
  153.4227  141.8438  160.4374 H   0  0  0  0  0  0  0  0  0  0  0  0
  151.6786  141.7423  160.4783 H   0  0  0  0  0  0  0  0  0  0  0  0
  153.3438  142.2802  157.9804 H   0  0  0  0  0  0  0  0  0  0  0  0
  153.7586  140.0187  158.5789 H   0  0  0  0  0  0  0  0  0  0  0  0
  152.6293  139.9901  157.2343 H   0  0  0  0  0  0  0  0  0  0  0  0
  152.0728  139.6675  158.8802 H   0  0  0  0  0  0  0  0  0  0  0  0
  1  2  1  0  0  0  0
  1 20  1  0  0  0  0
  1 21  1  0  0  0  0
  1 22  1  0  0  0  0
  2 19  1  0  0  0  0
  2  3  2  0  0  0  0
  3  4  1  0  0  0  0
  4  5  1  0  0  0  0
  5  6  1  0  0  0  0
  5 19  2  0  0  0  0
  6  7  1  0  0  0  0
  6 23  1  0  0  0  0
  6 24  1  0  0  0  0
  7  8  1  0  0  0  0
  7 25  1  0  0  0  0
  7 26  1  0  0  0  0
  8  9  1  0  0  0  0
  8 27  1  0  0  0  0
  9 10  2  0  0  0  0
  9 11  1  0  0  0  0
 11 17  1  0  0  0  0
 11 12  1  0  0  0  0
 12 13  1  0  0  0  0
 12 28  1  0  0  0  0
 12 29  1  0  0  0  0
 13 14  1  0  0  0  0
 13 30  1  0  0  0  0
 13 31  1  0  0  0  0
 14 15  1  0  0  0  0
 14 16  1  0  0  0  0
 14 32  1  0  0  0  0
 15 33  1  0  0  0  0
 15 34  1  0  0  0  0
 15 35  1  0  0  0  0
 16 17  1  0  0  0  0
 16 36  1  0  0  0  0
 16 37  1  0  0  0  0
 17 18  1  0  0  0  0
 17 38  1  0  0  0  0
 18 39  1  0  0  0  0
 18 40  1  0  0  0  0
 18 41  1  0  0  0  0
M  END
> <s_m_source_file>
AV-unprocessed.smi

> <i_m_source_file_index>
2911

> <i_lp_mmshare_version>
43012

> <i_f3d_flags>
0

> <s_epik_input>
W0NIM11jMW5vYyhuMSlbQ0gyXVtDSDJdW05IXUMoPU8pTjJbQ0gyXVtDSDJdW0NAQEhdKFtDSDNdKVtDSDJdW0NASF0yW0NIM10=

> <s_epik_cmdline>
J2VwaWtfcHl0aG9uJywgJy1waCcsICc3LjAnLCAnLXRuJywgJzgnLCAnLW1hJywgJzIwMCcsICctbWV0YWxfYmluZGluZycsICctaW1hZScsICc8aW5maWxlLm1hZT4nLCAnLW9tYWUnLCAnPG91dGZpbGUubWFlPic=

> <r_lp_tautomer_probability>
1

> <r_epik_Ionization_Penalty>
6.61671e-05

> <r_epik_Ionization_Penalty_Charging>
0

> <r_epik_Ionization_Penalty_Neutral>
6.61671e-05

> <r_epik_State_Penalty>
-0

> <r_epik_Charging_Adjusted_Penalty>
0

> <i_epik_Tot_Q>
0

> <i_epik_Tot_abs_Q>
0

> <r_epik_Metal_State_Penalty>
-0

> <b_epik_Metal_Only>
0

> <s_lp_Force_Field>
OPLS_2005

> <r_lp_Energy>
29.1944

> <b_lp_Chiralities_Consistent>
1

> <s_lp_Variant>
AV-unprocessed.smi:2911-1

> <Gold.Version>
5.8.1

> <Gold.Id.Protein>
6NUR|6NUR_protein|mol2

> <Gold.PLP.Fitness>
40.5187

> <Gold.PLP.PLP>
-34.9702

> <Gold.PLP.part.hbond>
-4.1271

> <Gold.PLP.part.metal>
0.0000

> <Gold.PLP.part.buried>
-3.0480

> <Gold.PLP.part.nonpolar>
-27.3481

> <Gold.PLP.part.repulsive>
0.2600

> <Gold.PLP.ligand.clash>
0.0000

> <Gold.PLP.ligand.torsion>
0.3188

> <Gold.PLP.Chemscore.Hbond>
1.9204

> <Gold.PLP.Chemscore.CHOScore>
0.0000

> <Gold.PLP.Chemscore.Metal>
0.0000

> <Gold.Chemscore.Hbonds>
donor molecule, donor type, donor heavy atom, donor atom, acceptor molecule, acceptor atom, score
      L1  H     8    27       P1  8028  0.96
      P1  H  6933  6944       L1     3  0.62
      P1  H  6934  6946       L1     3  0.02

> <Gold.PLP.Chemscore.Internal.Correction>
0.4249

> <Gold.Rescore>
     Score         DG    S(hbond)    S(metal)    S(lipo)     H(rot)  DE(clash)    DE(int)     intcor
     12.58     -16.54       1.50        0.00      86.99       1.61       0.15       3.81       ----

> <Gold.Chemscore.Fitness>
12.5799

> <Gold.Chemscore.DG>
-16.5390

> <Gold.Chemscore.ZeroCoef>
-5.4800

> <Gold.Chemscore.Hbond>
1.4971

> <Gold.Chemscore.Metal>
0.0000

> <Gold.Chemscore.Lipo>
86.9872

> <Gold.Chemscore.Internal_Hbond>
0.0000

> <Gold.Chemscore.DEClash>
0.1480

> <Gold.Chemscore.DEInternal>
3.8111

> <Gold.Chemscore.Rot>
1.6088

> <Gold.Chemscore.Internal.Correction>
   9.000000E+99

> <Gold.Chemscore.Hbonds>
donor molecule, donor type, donor heavy atom, donor atom, acceptor molecule, acceptor atom, score
      L1  H     8    27       P1  8028  0.92
      P1  H  6933  6944       L1     3  0.45

> <Gold.Chemscore.Hbond.Weighted>
-5.0002

> <Gold.Chemscore.Metal.Weighted>
-0.0000

> <Gold.Chemscore.Lipo.Weighted>
-10.1775

> <Gold.Chemscore.Internal_Hbond.Weighted>
0.0000

> <Gold.Chemscore.DEClash.Weighted>
0.1480

> <Gold.Chemscore.DEInternal.Weighted>
3.8111

> <Gold.Chemscore.Rot.Weighted>
4.1186

> <Gold.Chemscore.Internal.Correction.Weighted>
   9.000000E+99

> <Gold.Protein.RotatedTorsions>
[ 6907 6896 6895 6894 ] final  143.97 input  -60.11 | X-H torsion
[ 7974 7965 7964 7962 ] final -152.55 input  175.53 | X-H torsion
[ 8008 7997 7996 7995 ] final -148.47 input   59.86 | X-H torsion
[ 10167 10162 10161 10158 ] final   85.08 input  -65.29 | X-H torsion
[ 10718 10713 10712 10709 ] final   49.35 input   66.30 | X-H torsion
[ 10763 10752 10751 10750 ] final  -30.09 input  -60.55 | X-H torsion
[ 11005 11000 10999 10996 ] final   70.69 input  -57.11 | X-H torsion

> <Gold.Protein.ActiveResidues>
 VAL166  LYS551  ARG553  GLY616  TRP617  ASP618  TYR619  PRO620  LYS621  CYS622 
 ASP623  PHE694  ASN695  SER759  ASP760  ASP761  ALA762  ILE779  LEU786  VAL792 
 PHE793  MET794  SER795  GLU796  ALA797  LYS798  CYS799  TRP800  GLU811  SER814 

> <Gold.Protein.RotatedAtoms>
  152.1995  133.4831  159.5050 H   0  0  0  0  0  0  0  0  0  0  0  0  # atno 6907 bound_to 6896
  150.6967  134.1608  159.4184 H   0  0  0  0  0  0  0  0  0  0  0  0  # atno 6908 bound_to 6896
  151.9525  135.0162  160.0593 H   0  0  0  0  0  0  0  0  0  0  0  0  # atno 6909 bound_to 6896
  144.7788  140.4646  143.5854 H   0  0  0  0  0  0  0  0  0  0  0  0  # atno 7974 bound_to 7965
  155.5921  140.0653  157.2756 H   0  0  0  0  0  0  0  0  0  0  0  0  # atno 8008 bound_to 7997
  154.4302  140.1833  156.1132 H   0  0  0  0  0  0  0  0  0  0  0  0  # atno 8009 bound_to 7997
  156.0225  140.3315  155.7057 H   0  0  0  0  0  0  0  0  0  0  0  0  # atno 8010 bound_to 7997
  139.9014  144.6327  150.8633 H   0  0  0  0  0  0  0  0  0  0  0  0  # atno 10167 bound_to 10162
  157.4778  130.8295  149.8059 H   0  0  0  0  0  0  0  0  0  0  0  0  # atno 10718 bound_to 10713
  153.7752  135.6909  153.4898 H   0  0  0  0  0  0  0  0  0  0  0  0  # atno 10763 bound_to 10752
  153.1848  135.4493  155.0072 H   0  0  0  0  0  0  0  0  0  0  0  0  # atno 10764 bound_to 10752
  154.8102  135.3374  154.7259 H   0  0  0  0  0  0  0  0  0  0  0  0  # atno 10765 bound_to 10752
  139.9584  134.7104  156.0701 H   0  0  0  0  0  0  0  0  0  0  0  0  # atno 11005 bound_to 11000
  145.6110  139.1513  143.3076 LP  0  0  0  0  0  0  0  0  0  0  0  0  # atno 17320 bound_to 7965
  146.1984  140.6226  142.9114 LP  0  0  0  0  0  0  0  0  0  0  0  0  # atno 17321 bound_to 7965
  140.7706  143.3434  151.2161 LP  0  0  0  0  0  0  0  0  0  0  0  0  # atno 17342 bound_to 10162
  139.7022  143.9514  152.2910 LP  0  0  0  0  0  0  0  0  0  0  0  0  # atno 17343 bound_to 10162
  156.0105  130.3835  150.2280 LP  0  0  0  0  0  0  0  0  0  0  0  0  # atno 17370 bound_to 10713
  157.0465  131.0050  151.3267 LP  0  0  0  0  0  0  0  0  0  0  0  0  # atno 17371 bound_to 10713
  141.1258  133.6599  156.3333 LP  0  0  0  0  0  0  0  0  0  0  0  0  # atno 17394 bound_to 11000
  140.5557  134.5984  157.5420 LP  0  0  0  0  0  0  0  0  0  0  0  0  # atno 17395 bound_to 11000

$$$$
