#       Name:                AV-unprocessed.smi:100
#       Creating user name   scv26
#       Creation time:       Thu Mar 26 17:39:31 2020


#       File generated by GOLD software.
#

@<TRIPOS>MOLECULE
AV-unprocessed.smi:100
    40    42     1
SMALL
NO_CHARGES


@<TRIPOS>ATOM
      1 ****        -4.9765   0.0681  -0.2255 N.pl3          1 S1                 0.0000
      2 ****        -3.6695   0.3607  -0.2747 C.ar           1 S1                 0.0000
      3 ****        -3.3054   1.6592  -0.3905 N.ar           1 S1                 0.0000
      4 ****        -2.0077   1.9764  -0.4418 C.ar           1 S1                 0.0000
      5 ****        -0.9473   1.1659  -0.3935 N.ar           1 S1                 0.0000
      6 ****        -1.3154  -0.1437  -0.2779 C.ar           1 S1                 0.0000
      7 ****        -2.6525  -0.6252  -0.2105 C.ar           1 S1                 0.0000
      8 ****        -2.6525  -2.0080  -0.0908 N.2            1 S1                 0.0000
      9 ****        -1.3849  -2.3224  -0.0885 C.2            1 S1                 0.0000
     10 ****        -0.5101  -1.2633  -0.1956 N.pl3          1 S1                 0.0000
     11 ****         0.9868  -1.3241  -0.2157 C.3            1 S1                 0.0000
     12 ****         1.4920  -0.3235  -1.0424 O.3            1 S1                 0.0000
     13 ****         2.7210   0.1926  -0.5233 C.3            1 S1                 0.0000
     14 ****         2.5594   1.7057  -0.2966 C.3            1 S1                 0.0000
     15 ****         2.6890   2.3969  -1.5205 O.3            1 S1                 0.0000
     16 ****         2.9761  -0.5759   0.7846 C.3            1 S1                 0.0000
     17 ****         3.8078  -1.5918   0.5461 F              1 S1                 0.0000
     18 ****         1.6175  -1.1313   1.1656 C.3            1 S1                 0.0000
     19 ****         0.9089  -0.2419   2.0092 O.3            1 S1                 0.0000
     20 ****        -5.2733  -0.8934  -0.1388 H              1 S1                 0.0000
     21 ****        -5.6610   0.8083  -0.2784 H              1 S1                 0.0000
     22 ****        -1.7864   3.0294  -0.5346 H              1 S1                 0.0000
     23 ****        -1.0495  -3.3460  -0.0059 H              1 S1                 0.0000
     24 ****         1.2263  -2.2952  -0.6524 H              1 S1                 0.0000
     25 ****         3.5351   0.0070  -1.2260 H              1 S1                 0.0000
     26 ****         1.6083   1.9443   0.1778 H              1 S1                 0.0000
     27 ****         3.3455   2.0735   0.3633 H              1 S1                 0.0000
     28 ****         2.5686   3.3199  -1.3580 H              1 S1                 0.0000
     29 ****         3.4377   0.0242   1.5698 H              1 S1                 0.0000
     30 ****         1.6902  -2.0937   1.6738 H              1 S1                 0.0000
     31 ****         0.0206  -0.5541   2.0924 H              1 S1                 0.0000
     32 ****        -4.0015   2.3756  -0.4373 LP             1 S1                 0.0000
     33 ****         0.0011   1.4801  -0.4368 LP             1 S1                 0.0000
     34 ****        -3.4397  -2.6208  -0.0223 LP             1 S1                 0.0000
     35 ****         0.8248   0.4188  -1.1039 LP             1 S1                 0.0000
     36 ****         1.6544  -0.7020  -1.9536 LP             1 S1                 0.0000
     37 ****         1.9956   2.0747  -2.1649 LP             1 S1                 0.0000
     38 ****         3.5992   2.2377  -1.9030 LP             1 S1                 0.0000
     39 ****         0.9088   0.6748   1.6096 LP             1 S1                 0.0000
     40 ****         1.3426  -0.2128   2.9098 LP             1 S1                 0.0000
@<TRIPOS>BOND
    1    1    2 1     
    2    1   20 1     
    3    1   21 1     
    4    2    7 ar    
    5    2    3 ar    
    6    3    4 ar    
    7    4    5 ar    
    8    4   22 1     
    9    5    6 ar    
   10    6   10 1     
   11    6    7 ar    
   12    7    8 1     
   13    8    9 2     
   14    9   10 1     
   15    9   23 1     
   16   10   11 1     
   17   11   18 1     
   18   11   12 1     
   19   11   24 1     
   20   12   13 1     
   21   13   14 1     
   22   13   16 1     
   23   13   25 1     
   24   14   15 1     
   25   14   26 1     
   26   14   27 1     
   27   15   28 1     
   28   16   17 1     
   29   16   18 1     
   30   16   29 1     
   31   18   19 1     
   32   18   30 1     
   33   19   31 1     
   34    3   32 1     
   35    5   33 1     
   36    8   34 1     
   37   12   35 1     
   38   12   36 1     
   39   15   37 1     
   40   15   38 1     
   41   19   39 1     
   42   19   40 1     
@<TRIPOS>SUBSTRUCTURE
      1 S1             1
@<TRIPOS>SET
LONE_PAIRS      STATIC     ATOMS    <user>   **** ""
9 32 33 34 35 36 37 38 39 40
DONOR_HYDROGENS      STATIC     ATOMS    <user>   **** ""
4 20 21 28 31
ATOM$BLUE        STATIC     ATOMS    COLORGROUP SYSTEM
9 32 33 34 35 36 37 38 39 40
ATOM$RED        STATIC     ATOMS    COLORGROUP SYSTEM
4 20 21 28 31
