AV-unprocessed.smi:3329|AV-procd|sdf|12795|dock4
  -GOLD-   2272019153D 1   1.00000     0.00000
 Structure written by MMmdl.
 42 43  0  0  0  0  0  0  0  0  2 V2000
  152.1221  142.8957  158.7505 C   0  0  0  0  0  0  0  0  0  0  0  0
  151.4787  141.8981  157.8308 C   0  0  0  0  0  0  0  0  0  0  0  0
  151.3831  140.4881  158.0030 C   0  0  0  0  0  0  0  0  0  0  0  0
  150.7513  139.8903  157.0058 N   0  0  0  0  0  0  0  0  0  0  0  0
  150.4203  140.8934  156.1659 N   0  0  0  0  0  0  0  0  0  0  0  0
  149.7063  140.5997  154.9358 C   0  0  0  0  0  0  0  0  0  0  0  0
  149.9940  139.1824  154.4117 C   0  0  0  0  0  0  0  0  0  0  0  0
  149.0808  138.8206  153.3097 N   0  3  0  0  0  0  0  0  0  0  0  0
  147.6639  138.6987  153.7086 C   0  0  0  0  0  0  0  0  0  0  0  0
  147.4446  137.5805  154.7294 C   0  0  0  0  0  0  0  0  0  0  0  0
  147.1109  137.8428  155.8849 O   0  0  0  0  0  0  0  0  0  0  0  0
  147.6417  136.3295  154.2826 N   0  0  0  0  0  0  0  0  0  0  0  0
  147.5089  135.0944  155.0574 C   0  0  1  0  0  0  0  0  0  0  0  0
  148.4817  135.2159  156.2418 C   0  0  0  0  0  0  0  0  0  0  0  0
  146.1410  134.9760  155.6027 C   0  0  0  0  0  0  0  0  0  0  0  0
  145.0690  134.8809  156.0280 N   0  0  0  0  0  0  0  0  0  0  0  0
  147.8748  133.8455  154.2510 C   0  0  0  0  0  0  0  0  0  0  0  0
  148.6063  132.6578  154.8408 C   0  0  0  0  0  0  0  0  0  0  0  0
  149.3017  133.5516  153.8413 C   0  0  0  0  0  0  0  0  0  0  0  0
  150.8537  142.1153  156.6355 C   0  0  0  0  0  0  0  0  0  0  0  0
  153.2095  142.8258  158.7201 H   0  0  0  0  0  0  0  0  0  0  0  0
  151.8182  142.7429  159.7862 H   0  0  0  0  0  0  0  0  0  0  0  0
  151.8584  143.9206  158.4878 H   0  0  0  0  0  0  0  0  0  0  0  0
  151.7522  139.8849  158.8194 H   0  0  0  0  0  0  0  0  0  0  0  0
  148.6374  140.7297  155.1107 H   0  0  0  0  0  0  0  0  0  0  0  0
  149.9940  141.3409  154.1890 H   0  0  0  0  0  0  0  0  0  0  0  0
  151.0228  139.1258  154.0543 H   0  0  0  0  0  0  0  0  0  0  0  0
  149.8981  138.4539  155.2181 H   0  0  0  0  0  0  0  0  0  0  0  0
  149.1471  139.5319  152.5952 H   0  0  0  0  0  0  0  0  0  0  0  0
  147.3238  139.6443  154.1334 H   0  0  0  0  0  0  0  0  0  0  0  0
  147.0554  138.4961  152.8261 H   0  0  0  0  0  0  0  0  0  0  0  0
  147.9175  136.2179  153.3176 H   0  0  0  0  0  0  0  0  0  0  0  0
  148.4277  134.3393  156.8887 H   0  0  0  0  0  0  0  0  0  0  0  0
  148.2524  136.0874  156.8563 H   0  0  0  0  0  0  0  0  0  0  0  0
  149.5145  135.3110  155.9037 H   0  0  0  0  0  0  0  0  0  0  0  0
  147.1277  133.6001  153.4979 H   0  0  0  0  0  0  0  0  0  0  0  0
  148.9386  132.7119  155.8753 H   0  0  0  0  0  0  0  0  0  0  0  0
  148.3043  131.6682  154.5042 H   0  0  0  0  0  0  0  0  0  0  0  0
  149.4639  133.1554  152.8411 H   0  0  0  0  0  0  0  0  0  0  0  0
  150.0886  134.2034  154.2152 H   0  0  0  0  0  0  0  0  0  0  0  0
  150.6815  143.0306  156.0886 H   0  0  0  0  0  0  0  0  0  0  0  0
  149.3791  137.9407  152.9135 H   0  0  0  0  0  0  0  0  0  0  0  0
  1  2  1  0  0  0  0
  1 21  1  0  0  0  0
  1 22  1  0  0  0  0
  1 23  1  0  0  0  0
  2 20  2  0  0  0  0
  2  3  1  0  0  0  0
  3  4  2  0  0  0  0
  3 24  1  0  0  0  0
  4  5  1  0  0  0  0
  5  6  1  0  0  0  0
  5 20  1  0  0  0  0
  6  7  1  0  0  0  0
  6 25  1  0  0  0  0
  6 26  1  0  0  0  0
  7  8  1  0  0  0  0
  7 27  1  0  0  0  0
  7 28  1  0  0  0  0
  8  9  1  0  0  0  0
  8 29  1  0  0  0  0
  8 42  1  0  0  0  0
  9 10  1  0  0  0  0
  9 30  1  0  0  0  0
  9 31  1  0  0  0  0
 10 11  2  0  0  0  0
 10 12  1  0  0  0  0
 12 13  1  0  0  0  0
 12 32  1  0  0  0  0
 13 14  1  0  0  0  0
 13 15  1  0  0  0  0
 13 17  1  0  0  0  0
 14 33  1  0  0  0  0
 14 34  1  0  0  0  0
 14 35  1  0  0  0  0
 15 16  3  0  0  0  0
 17 19  1  0  0  0  0
 17 18  1  0  0  0  0
 17 36  1  0  0  0  0
 18 19  1  0  0  0  0
 18 37  1  0  0  0  0
 18 38  1  0  0  0  0
 19 39  1  0  0  0  0
 19 40  1  0  0  0  0
 20 41  1  0  0  0  0
M  CHG  1   8   1
M  END
> <s_m_source_file>
AV-unprocessed.smi

> <i_m_source_file_index>
3329

> <i_lp_mmshare_version>
43012

> <i_f3d_flags>
0

> <s_epik_input>
W0NIM11jMVtjSF1ubihbY0hdMSlbQ0gyXVtDSDJdW05IXVtDSDJdQyg9TylbTkhdW0NAQF0oW0NIM10pKEMjTilbQ0hdMltDSDJdW0NIMl0y

> <s_epik_cmdline>
J2VwaWtfcHl0aG9uJywgJy1waCcsICc3LjAnLCAnLXRuJywgJzgnLCAnLW1hJywgJzIwMCcsICctbWV0YWxfYmluZGluZycsICctaW1hZScsICc8aW5maWxlLm1hZT4nLCAnLW9tYWUnLCAnPG91dGZpbGUubWFlPic=

> <r_lp_tautomer_probability>
1

> <r_epik_Ionization_Penalty>
0.350291

> <r_epik_Ionization_Penalty_Charging>
0.350239

> <r_epik_Ionization_Penalty_Neutral>
5.12768e-05

> <r_epik_State_Penalty>
0.347656

> <r_epik_Charging_Adjusted_Penalty>
0.697895

> <i_epik_Tot_Q>
1

> <i_epik_Tot_abs_Q>
1

> <r_epik_Metal_State_Penalty>
0.371739

> <b_epik_Metal_Only>
0

> <s_lp_Force_Field>
OPLS_2005

> <r_lp_Energy>
10.54

> <b_lp_Chiralities_Consistent>
1

> <s_lp_Variant>
AV-unprocessed.smi:3329-1

> <Gold.Version>
5.8.1

> <Gold.Id.Protein>
6NUR|6NUR_protein|mol2

> <Gold.PLP.Fitness>
43.3393

> <Gold.PLP.PLP>
-29.4168

> <Gold.PLP.part.hbond>
-2.7937

> <Gold.PLP.part.metal>
0.0000

> <Gold.PLP.part.buried>
-3.4520

> <Gold.PLP.part.nonpolar>
-23.2928

> <Gold.PLP.part.repulsive>
0.1516

> <Gold.PLP.ligand.clash>
0.0000

> <Gold.PLP.ligand.torsion>
1.3000

> <Gold.PLP.Chemscore.Hbond>
3.9666

> <Gold.PLP.Chemscore.CHOScore>
1.0000

> <Gold.PLP.Chemscore.Metal>
0.0000

> <Gold.Chemscore.Hbonds>
donor molecule, donor type, donor heavy atom, donor atom, acceptor molecule, acceptor atom, score
      L1  H     8    29       P1  7957  1.00
      L1  H     8    42       P1  7948  2.00
      L1  H    12    32       P1  7948  1.00
      L1  C    20    41       P1  8028  1.00

> <Gold.PLP.Chemscore.Internal.Correction>
1.6226

> <Gold.Rescore>
     Score         DG    S(hbond)    S(metal)    S(lipo)     H(rot)  DE(clash)    DE(int)     intcor
     14.75     -17.24       2.83        0.00      72.10       2.40       0.05       2.44       ----

> <Gold.Chemscore.Fitness>
14.7454

> <Gold.Chemscore.DG>
-17.2358

> <Gold.Chemscore.ZeroCoef>
-5.4800

> <Gold.Chemscore.Hbond>
2.8316

> <Gold.Chemscore.Metal>
0.0000

> <Gold.Chemscore.Lipo>
72.0953

> <Gold.Chemscore.Internal_Hbond>
0.0000

> <Gold.Chemscore.DEClash>
0.0526

> <Gold.Chemscore.DEInternal>
2.4378

> <Gold.Chemscore.Rot>
2.3972

> <Gold.Chemscore.Internal.Correction>
   9.000000E+99

> <Gold.Chemscore.Hbonds>
donor molecule, donor type, donor heavy atom, donor atom, acceptor molecule, acceptor atom, score
      L1  H     8    29       P1  7957  0.93
      L1  H     8    42       P1  7948  0.84
      L1  H    12    32       P1  7948  0.99

> <Gold.Chemscore.Hbond.Weighted>
-9.4575

> <Gold.Chemscore.Metal.Weighted>
-0.0000

> <Gold.Chemscore.Lipo.Weighted>
-8.4351

> <Gold.Chemscore.Internal_Hbond.Weighted>
0.0000

> <Gold.Chemscore.DEClash.Weighted>
0.0526

> <Gold.Chemscore.DEInternal.Weighted>
2.4378

> <Gold.Chemscore.Rot.Weighted>
6.1369

> <Gold.Chemscore.Internal.Correction.Weighted>
   9.000000E+99

> <Gold.Protein.RotatedTorsions>
[ 6907 6896 6895 6894 ] final   62.14 input  -60.11 | X-H torsion
[ 7974 7965 7964 7962 ] final   56.37 input  175.53 | X-H torsion
[ 8008 7997 7996 7995 ] final  103.34 input   59.86 | X-H torsion
[ 10167 10162 10161 10158 ] final -124.00 input  -65.29 | X-H torsion
[ 10718 10713 10712 10709 ] final  -44.18 input   66.30 | X-H torsion
[ 10763 10752 10751 10750 ] final -139.78 input  -60.55 | X-H torsion
[ 11005 11000 10999 10996 ] final -178.14 input  -57.11 | X-H torsion

> <Gold.Protein.ActiveResidues>
 VAL166  LYS551  ARG553  GLY616  TRP617  ASP618  TYR619  PRO620  LYS621  CYS622 
 ASP623  PHE694  ASN695  SER759  ASP760  ASP761  ALA762  ILE779  LEU786  VAL792 
 PHE793  MET794  SER795  GLU796  ALA797  LYS798  CYS799  TRP800  GLU811  SER814 

> <Gold.Protein.RotatedAtoms>
  152.4147  134.6062  160.0013 H   0  0  0  0  0  0  0  0  0  0  0  0  # atno 6907 bound_to 6896
  151.6229  133.3332  159.3100 H   0  0  0  0  0  0  0  0  0  0  0  0  # atno 6908 bound_to 6896
  150.8036  134.7187  159.6690 H   0  0  0  0  0  0  0  0  0  0  0  0  # atno 6909 bound_to 6896
  145.9405  139.3884  143.0366 H   0  0  0  0  0  0  0  0  0  0  0  0  # atno 7974 bound_to 7965
  156.1475  140.3166  155.8593 H   0  0  0  0  0  0  0  0  0  0  0  0  # atno 8008 bound_to 7997
  155.4036  140.0501  157.3052 H   0  0  0  0  0  0  0  0  0  0  0  0  # atno 8009 bound_to 7997
  154.5029  140.2136  155.9322 H   0  0  0  0  0  0  0  0  0  0  0  0  # atno 8010 bound_to 7997
  139.9975  143.5576  152.2317 H   0  0  0  0  0  0  0  0  0  0  0  0  # atno 10167 bound_to 10162
  156.2412  130.4180  149.8758 H   0  0  0  0  0  0  0  0  0  0  0  0  # atno 10718 bound_to 10713
  154.8599  135.3572  154.5601 H   0  0  0  0  0  0  0  0  0  0  0  0  # atno 10763 bound_to 10752
  153.6216  135.7005  153.5313 H   0  0  0  0  0  0  0  0  0  0  0  0  # atno 10764 bound_to 10752
  153.3124  135.4175  155.1307 H   0  0  0  0  0  0  0  0  0  0  0  0  # atno 10765 bound_to 10752
  140.4331  134.6501  157.4721 H   0  0  0  0  0  0  0  0  0  0  0  0  # atno 11005 bound_to 11000
  145.8306  140.9632  143.0851 LP  0  0  0  0  0  0  0  0  0  0  0  0  # atno 17320 bound_to 7965
  144.6778  140.0158  143.7484 LP  0  0  0  0  0  0  0  0  0  0  0  0  # atno 17321 bound_to 7965
  139.6296  144.7642  151.2565 LP  0  0  0  0  0  0  0  0  0  0  0  0  # atno 17342 bound_to 10162
  140.7431  143.6503  150.8254 LP  0  0  0  0  0  0  0  0  0  0  0  0  # atno 17343 bound_to 10162
  156.6339  130.8677  151.3501 LP  0  0  0  0  0  0  0  0  0  0  0  0  # atno 17370 bound_to 10713
  157.7176  130.9517  150.1314 LP  0  0  0  0  0  0  0  0  0  0  0  0  # atno 17371 bound_to 10713
  140.0121  134.6675  155.9365 LP  0  0  0  0  0  0  0  0  0  0  0  0  # atno 17394 bound_to 11000
  141.1737  133.6539  156.4748 LP  0  0  0  0  0  0  0  0  0  0  0  0  # atno 17395 bound_to 11000

$$$$
