AV-unprocessed.smi:1100|AV-procd|sdf|4759|dock7
  -GOLD-   22720 3293D 1   1.00000     0.00000
 Structure written by MMmdl.
 43 44  0  0  0  0  0  0  0  0  1 V2000
  147.5310  139.1160  153.3434 C   0  0  0  0  0  0  0  0  0  0  0  0
  148.3331  139.7041  154.5325 C   0  0  2  0  0  0  0  0  0  0  0  0
  148.9129  141.0863  154.1118 C   0  0  0  0  0  0  0  0  0  0  0  0
  149.1740  141.9773  155.2393 N   0  0  0  0  0  0  0  0  0  0  0  0
  150.0325  141.7254  156.2378 C   0  0  0  0  0  0  0  0  0  0  0  0
  150.7096  140.6999  156.2992 O   0  0  0  0  0  0  0  0  0  0  0  0
  150.0420  142.7343  157.1282 N   0  0  0  0  0  0  0  0  0  0  0  0
  150.7654  142.8526  158.3232 C   0  0  0  0  0  0  0  0  0  0  0  0
  150.7559  144.0120  159.2041 C   0  0  0  0  0  0  0  0  0  0  0  0
  151.4907  144.0270  160.3341 C   0  0  0  0  0  0  0  0  0  0  0  0
  152.3261  142.8890  160.7253 C   0  0  0  0  0  0  0  0  0  0  0  0
  152.9938  142.8877  161.7599 O   0  0  0  0  0  0  0  0  0  0  0  0
  152.3179  141.8298  159.8658 N   0  0  0  0  0  0  0  0  0  0  0  0
  153.1248  140.6438  160.1628 C   0  0  0  0  0  0  0  0  0  0  0  0
  151.5478  141.8205  158.6878 C   0  0  0  0  0  0  0  0  0  0  0  0
  149.3620  138.7712  155.0484 N   0  0  0  0  0  0  0  0  0  0  0  0
  148.9027  137.3772  155.0713 C   0  0  0  0  0  0  0  0  0  0  0  0
  149.9793  136.4005  155.5754 C   0  0  0  0  0  0  0  0  0  0  0  0
  151.1465  136.5166  154.7736 O   0  0  0  0  0  0  0  0  0  0  0  0
  151.6715  137.8366  154.7856 C   0  0  0  0  0  0  0  0  0  0  0  0
  150.6071  138.8220  154.2729 C   0  0  0  0  0  0  0  0  0  0  0  0
  146.8099  139.8239  152.9364 H   0  0  0  0  0  0  0  0  0  0  0  0
  146.9402  138.2481  153.6322 H   0  0  0  0  0  0  0  0  0  0  0  0
  148.1933  138.8189  152.5297 H   0  0  0  0  0  0  0  0  0  0  0  0
  147.6184  139.8859  155.3365 H   0  0  0  0  0  0  0  0  0  0  0  0
  149.8522  140.9890  153.5692 H   0  0  0  0  0  0  0  0  0  0  0  0
  148.2190  141.5887  153.4373 H   0  0  0  0  0  0  0  0  0  0  0  0
  148.6577  142.8446  155.2611 H   0  0  0  0  0  0  0  0  0  0  0  0
  149.4480  143.5221  156.9152 H   0  0  0  0  0  0  0  0  0  0  0  0
  150.1774  144.8925  158.9775 H   0  0  0  0  0  0  0  0  0  0  0  0
  151.4690  144.9024  160.9665 H   0  0  0  0  0  0  0  0  0  0  0  0
  153.0817  139.8953  159.3711 H   0  0  0  0  0  0  0  0  0  0  0  0
  152.7779  140.1688  161.0814 H   0  0  0  0  0  0  0  0  0  0  0  0
  154.1738  140.9138  160.2947 H   0  0  0  0  0  0  0  0  0  0  0  0
  151.6286  140.9163  158.1015 H   0  0  0  0  0  0  0  0  0  0  0  0
  148.0444  137.2631  155.7299 H   0  0  0  0  0  0  0  0  0  0  0  0
  148.5803  137.0772  154.0730 H   0  0  0  0  0  0  0  0  0  0  0  0
  150.2240  136.6007  156.6195 H   0  0  0  0  0  0  0  0  0  0  0  0
  149.6134  135.3751  155.5241 H   0  0  0  0  0  0  0  0  0  0  0  0
  151.9900  138.1018  155.7951 H   0  0  0  0  0  0  0  0  0  0  0  0
  152.5570  137.8724  154.1510 H   0  0  0  0  0  0  0  0  0  0  0  0
  150.3976  138.6137  153.2225 H   0  0  0  0  0  0  0  0  0  0  0  0
  151.0472  139.8165  154.3172 H   0  0  0  0  0  0  0  0  0  0  0  0
  1  2  1  0  0  0  0
  1 22  1  0  0  0  0
  1 23  1  0  0  0  0
  1 24  1  0  0  0  0
  2  3  1  0  0  0  0
  2 16  1  0  0  0  0
  2 25  1  0  0  0  0
  3  4  1  0  0  0  0
  3 26  1  0  0  0  0
  3 27  1  0  0  0  0
  4  5  1  0  0  0  0
  4 28  1  0  0  0  0
  5  6  2  0  0  0  0
  5  7  1  0  0  0  0
  7  8  1  0  0  0  0
  7 29  1  0  0  0  0
  8 15  2  0  0  0  0
  8  9  1  0  0  0  0
  9 10  2  0  0  0  0
  9 30  1  0  0  0  0
 10 11  1  0  0  0  0
 10 31  1  0  0  0  0
 11 12  2  0  0  0  0
 11 13  1  0  0  0  0
 13 14  1  0  0  0  0
 13 15  1  0  0  0  0
 14 32  1  0  0  0  0
 14 33  1  0  0  0  0
 14 34  1  0  0  0  0
 15 35  1  0  0  0  0
 16 21  1  0  0  0  0
 16 17  1  0  0  0  0
 17 18  1  0  0  0  0
 17 36  1  0  0  0  0
 17 37  1  0  0  0  0
 18 19  1  0  0  0  0
 18 38  1  0  0  0  0
 18 39  1  0  0  0  0
 19 20  1  0  0  0  0
 20 21  1  0  0  0  0
 20 40  1  0  0  0  0
 20 41  1  0  0  0  0
 21 42  1  0  0  0  0
 21 43  1  0  0  0  0
M  END
> <s_m_source_file>
AV-unprocessed.smi

> <i_m_source_file_index>
1100

> <i_lp_mmshare_version>
43012

> <i_f3d_flags>
0

> <s_epik_input>
W0NIMl0xW0NIMl1PW0NIMl1bQ0gyXU4xW0NASF0oW0NIM10pW0NIMl1bTkhdQyg9TylbTkhdYzJbY0hdW2NIXWMoPU8pbihbQ0gzXSlbY0hdMg==

> <s_epik_cmdline>
J2VwaWtfcHl0aG9uJywgJy1waCcsICc3LjAnLCAnLXRuJywgJzgnLCAnLW1hJywgJzIwMCcsICctbWV0YWxfYmluZGluZycsICctaW1hZScsICc8aW5maWxlLm1hZT4nLCAnLW9tYWUnLCAnPG91dGZpbGUubWFlPic=

> <r_lp_tautomer_probability>
1

> <r_epik_Ionization_Penalty>
0.266016

> <r_epik_Ionization_Penalty_Charging>
5.79683e-06

> <r_epik_Ionization_Penalty_Neutral>
0.26601

> <r_epik_State_Penalty>
0.257924

> <r_epik_Charging_Adjusted_Penalty>
0.25793

> <i_epik_Tot_Q>
0

> <i_epik_Tot_abs_Q>
0

> <r_epik_Metal_State_Penalty>
0.260326

> <b_epik_Metal_Only>
0

> <s_lp_Force_Field>
OPLS_2005

> <r_lp_Energy>
41.8129

> <b_lp_Chiralities_Consistent>
1

> <s_lp_Variant>
AV-unprocessed.smi:1100-1

> <Gold.Version>
5.8.1

> <Gold.Id.Protein>
6NUR|6NUR_protein|mol2

> <Gold.PLP.Fitness>
46.3988

> <Gold.PLP.PLP>
-39.2706

> <Gold.PLP.part.hbond>
-3.0000

> <Gold.PLP.part.metal>
0.0000

> <Gold.PLP.part.buried>
-4.7060

> <Gold.PLP.part.nonpolar>
-32.1101

> <Gold.PLP.part.repulsive>
0.5524

> <Gold.PLP.ligand.clash>
0.0000

> <Gold.PLP.ligand.torsion>
0.5936

> <Gold.PLP.Chemscore.Hbond>
2.7600

> <Gold.PLP.Chemscore.CHOScore>
0.0000

> <Gold.PLP.Chemscore.Metal>
0.0000

> <Gold.Chemscore.Hbonds>
donor molecule, donor type, donor heavy atom, donor atom, acceptor molecule, acceptor atom, score
      L1  H     4    28       P1  8028  0.85
      L1  H     7    29       P1  8028  0.96
      P1  H 10752 10763       L1    19  0.75

> <Gold.PLP.Chemscore.Internal.Correction>
0.0355

> <Gold.Rescore>
     Score         DG    S(hbond)    S(metal)    S(lipo)     H(rot)  DE(clash)    DE(int)     intcor
     13.97     -18.65       1.94        0.00      89.93       1.49       0.10       4.58       ----

> <Gold.Chemscore.Fitness>
13.9718

> <Gold.Chemscore.DG>
-18.6496

> <Gold.Chemscore.ZeroCoef>
-5.4800

> <Gold.Chemscore.Hbond>
1.9377

> <Gold.Chemscore.Metal>
0.0000

> <Gold.Chemscore.Lipo>
89.9302

> <Gold.Chemscore.Internal_Hbond>
0.0000

> <Gold.Chemscore.DEClash>
0.1002

> <Gold.Chemscore.DEInternal>
4.5776

> <Gold.Chemscore.Rot>
1.4938

> <Gold.Chemscore.Internal.Correction>
   9.000000E+99

> <Gold.Chemscore.Hbonds>
donor molecule, donor type, donor heavy atom, donor atom, acceptor molecule, acceptor atom, score
      L1  H     4    28       P1  8028  0.83
      L1  H     7    29       P1  8028  0.87
      P1  H 10752 10763       L1    19  0.09

> <Gold.Chemscore.Hbond.Weighted>
-6.4719

> <Gold.Chemscore.Metal.Weighted>
-0.0000

> <Gold.Chemscore.Lipo.Weighted>
-10.5218

> <Gold.Chemscore.Internal_Hbond.Weighted>
0.0000

> <Gold.Chemscore.DEClash.Weighted>
0.1002

> <Gold.Chemscore.DEInternal.Weighted>
4.5776

> <Gold.Chemscore.Rot.Weighted>
3.8242

> <Gold.Chemscore.Internal.Correction.Weighted>
   9.000000E+99

> <Gold.Protein.RotatedTorsions>
[ 6907 6896 6895 6894 ] final   26.06 input  -60.11 | X-H torsion
[ 7974 7965 7964 7962 ] final -148.05 input  175.53 | X-H torsion
[ 8008 7997 7996 7995 ] final   76.46 input   59.86 | X-H torsion
[ 10167 10162 10161 10158 ] final  -20.83 input  -65.29 | X-H torsion
[ 10718 10713 10712 10709 ] final  -53.59 input   66.30 | X-H torsion
[ 10763 10752 10751 10750 ] final   53.36 input  -60.55 | X-H torsion
[ 11005 11000 10999 10996 ] final -138.23 input  -57.11 | X-H torsion

> <Gold.Protein.ActiveResidues>
 VAL166  LYS551  ARG553  GLY616  TRP617  ASP618  TYR619  PRO620  LYS621  CYS622 
 ASP623  PHE694  ASN695  SER759  ASP760  ASP761  ALA762  ILE779  LEU786  VAL792 
 PHE793  MET794  SER795  GLU796  ALA797  LYS798  CYS799  TRP800  GLU811  SER814 

> <Gold.Protein.RotatedAtoms>
  151.9818  135.0025  160.0557 H   0  0  0  0  0  0  0  0  0  0  0  0  # atno 6907 bound_to 6896
  152.1689  133.4626  159.4907 H   0  0  0  0  0  0  0  0  0  0  0  0  # atno 6908 bound_to 6896
  150.6898  134.1895  159.4323 H   0  0  0  0  0  0  0  0  0  0  0  0  # atno 6909 bound_to 6896
  144.8054  140.5247  143.5679 H   0  0  0  0  0  0  0  0  0  0  0  0  # atno 7974 bound_to 7965
  155.8276  140.3467  155.5552 H   0  0  0  0  0  0  0  0  0  0  0  0  # atno 8008 bound_to 7997
  155.8276  140.0922  157.1832 H   0  0  0  0  0  0  0  0  0  0  0  0  # atno 8009 bound_to 7997
  154.4004  140.1418  156.3562 H   0  0  0  0  0  0  0  0  0  0  0  0  # atno 8010 bound_to 7997
  140.7278  143.4685  151.0279 H   0  0  0  0  0  0  0  0  0  0  0  0  # atno 10167 bound_to 10162
  156.1522  130.4151  149.9926 H   0  0  0  0  0  0  0  0  0  0  0  0  # atno 10718 bound_to 10713
  152.9795  135.5781  154.4729 H   0  0  0  0  0  0  0  0  0  0  0  0  # atno 10763 bound_to 10752
  154.4289  135.2773  155.1928 H   0  0  0  0  0  0  0  0  0  0  0  0  # atno 10764 bound_to 10752
  154.3645  135.6181  153.5761 H   0  0  0  0  0  0  0  0  0  0  0  0  # atno 10765 bound_to 10752
  140.8636  134.2139  157.4693 H   0  0  0  0  0  0  0  0  0  0  0  0  # atno 11005 bound_to 11000
  145.5452  139.1476  143.3425 LP  0  0  0  0  0  0  0  0  0  0  0  0  # atno 17320 bound_to 7965
  146.2344  140.5591  142.8961 LP  0  0  0  0  0  0  0  0  0  0  0  0  # atno 17321 bound_to 7965
  139.8376  143.7607  152.3180 LP  0  0  0  0  0  0  0  0  0  0  0  0  # atno 17342 bound_to 10162
  139.7745  144.7465  151.0177 LP  0  0  0  0  0  0  0  0  0  0  0  0  # atno 17343 bound_to 10162
  156.7780  130.9211  151.3645 LP  0  0  0  0  0  0  0  0  0  0  0  0  # atno 17370 bound_to 10713
  157.6666  130.9013  149.9947 LP  0  0  0  0  0  0  0  0  0  0  0  0  # atno 17371 bound_to 10713
  139.8708  134.9741  156.4834 LP  0  0  0  0  0  0  0  0  0  0  0  0  # atno 17394 bound_to 11000
  140.8655  133.8028  155.9309 LP  0  0  0  0  0  0  0  0  0  0  0  0  # atno 17395 bound_to 11000

$$$$
