AV-unprocessed.smi:658|AV-procd|sdf|3237|dock7
  -GOLD-   22720 0183D 1   1.00000     0.00000
 Structure written by MMmdl.
 37 37  0  0  0  0  0  0  0  0  3 V2000
  141.9909  138.0488  154.0146 C   0  0  0  0  0  0  0  0  0  0  0  0
  142.6890  137.2981  152.8638 C   0  0  1  0  0  0  0  0  0  0  0  0
  143.9828  137.9365  152.5244 N   0  3  0  0  0  0  0  0  0  0  0  0
  145.1346  137.5215  153.3504 C   0  0  0  0  0  0  0  0  0  0  0  0
  146.4509  137.7862  152.6126 C   0  0  0  0  0  0  0  0  0  0  0  0
  146.7761  139.2830  152.5127 C   0  0  0  0  0  0  0  0  0  0  0  0
  147.9969  139.8013  153.7949 S   0  0  0  0  0  0  0  0  0  0  0  0
  149.1987  138.7652  153.5005 N   0  5  0  0  0  0  0  0  0  0  0  0
  148.3722  141.1882  153.4799 O   0  0  0  0  0  0  0  0  0  0  0  0
  147.3477  139.5433  155.0889 O   0  0  0  0  0  0  0  0  0  0  0  0
  142.8797  135.7907  153.1762 C   0  0  1  0  0  0  0  0  0  0  0  0
  141.5592  135.0746  153.5127 C   0  0  0  0  0  0  0  0  0  0  0  0
  143.6228  135.0830  152.1369 N   0  0  0  0  0  0  0  0  0  0  0  0
  143.8853  133.7312  152.0193 C   0  0  0  0  0  0  0  0  0  0  0  0
  144.5907  133.5488  150.8650 C   0  0  0  0  0  0  0  0  0  0  0  0
  144.7100  134.8614  150.3310 C   0  0  0  0  0  0  0  0  0  0  0  0
  144.1263  135.7742  151.0901 N   0  0  0  0  0  0  0  0  0  0  0  0
  141.0693  137.5445  154.3059 H   0  0  0  0  0  0  0  0  0  0  0  0
  141.7202  139.0648  153.7288 H   0  0  0  0  0  0  0  0  0  0  0  0
  142.6265  138.1127  154.8985 H   0  0  0  0  0  0  0  0  0  0  0  0
  142.0463  137.3628  151.9845 H   0  0  0  0  0  0  0  0  0  0  0  0
  144.1914  137.7571  151.5525 H   0  0  0  0  0  0  0  0  0  0  0  0
  145.1211  138.0704  154.2929 H   0  0  0  0  0  0  0  0  0  0  0  0
  145.0570  136.4612  153.5898 H   0  0  0  0  0  0  0  0  0  0  0  0
  147.2639  137.2733  153.1284 H   0  0  0  0  0  0  0  0  0  0  0  0
  146.3986  137.3561  151.6118 H   0  0  0  0  0  0  0  0  0  0  0  0
  147.2141  139.5023  151.5389 H   0  0  0  0  0  0  0  0  0  0  0  0
  145.8845  139.9020  152.6165 H   0  0  0  0  0  0  0  0  0  0  0  0
  148.8430  138.0322  152.8751 H   0  0  0  0  0  0  0  0  0  0  0  0
  143.4820  135.7344  154.0851 H   0  0  0  0  0  0  0  0  0  0  0  0
  141.0569  135.5566  154.3517 H   0  0  0  0  0  0  0  0  0  0  0  0
  141.7398  134.0363  153.7935 H   0  0  0  0  0  0  0  0  0  0  0  0
  140.8666  135.0731  152.6708 H   0  0  0  0  0  0  0  0  0  0  0  0
  143.5534  133.0158  152.7572 H   0  0  0  0  0  0  0  0  0  0  0  0
  144.9637  132.6187  150.4620 H   0  0  0  0  0  0  0  0  0  0  0  0
  145.1970  135.1758  149.4197 H   0  0  0  0  0  0  0  0  0  0  0  0
  143.8731  138.9327  152.6486 H   0  0  0  0  0  0  0  0  0  0  0  0
  1  2  1  0  0  0  0
  1 18  1  0  0  0  0
  1 19  1  0  0  0  0
  1 20  1  0  0  0  0
  2  3  1  0  0  0  0
  2 11  1  0  0  0  0
  2 21  1  0  0  0  0
  3  4  1  0  0  0  0
  3 22  1  0  0  0  0
  3 37  1  0  0  0  0
  4  5  1  0  0  0  0
  4 23  1  0  0  0  0
  4 24  1  0  0  0  0
  5  6  1  0  0  0  0
  5 25  1  0  0  0  0
  5 26  1  0  0  0  0
  6  7  1  0  0  0  0
  6 27  1  0  0  0  0
  6 28  1  0  0  0  0
  7  8  1  0  0  0  0
  7  9  2  0  0  0  0
  7 10  2  0  0  0  0
  8 29  1  0  0  0  0
 11 12  1  0  0  0  0
 11 13  1  0  0  0  0
 11 30  1  0  0  0  0
 12 31  1  0  0  0  0
 12 32  1  0  0  0  0
 12 33  1  0  0  0  0
 13 17  1  0  0  0  0
 13 14  1  0  0  0  0
 14 15  2  0  0  0  0
 14 34  1  0  0  0  0
 15 16  1  0  0  0  0
 15 35  1  0  0  0  0
 16 17  2  0  0  0  0
 16 36  1  0  0  0  0
M  CHG  1   3   1
M  CHG  1   8  -1
M  END
> <s_m_source_file>
AV-unprocessed.smi

> <i_m_source_file_index>
658

> <i_lp_mmshare_version>
43012

> <i_f3d_flags>
0

> <s_epik_input>
bjFbY0hdW2NIXVtjSF1uMVtDQEBIXShbQ0gzXSlbQ0BIXShbQ0gzXSlbTkhdW0NIMl1bQ0gyXVtDSDJdUyg9TykoPU8pW05IMl0=

> <s_epik_cmdline>
J2VwaWtfcHl0aG9uJywgJy1waCcsICc3LjAnLCAnLXRuJywgJzgnLCAnLW1hJywgJzIwMCcsICctbWV0YWxfYmluZGluZycsICctaW1hZScsICc8aW5maWxlLm1hZT4nLCAnLW9tYWUnLCAnPG91dGZpbGUubWFlPic=

> <r_lp_tautomer_probability>
1

> <r_epik_Ionization_Penalty>
4.63642

> <r_epik_Ionization_Penalty_Charging>
4.63641

> <r_epik_Ionization_Penalty_Neutral>
1.08396e-05

> <r_epik_State_Penalty>
4.63466

> <r_epik_Charging_Adjusted_Penalty>
9.27106

> <i_epik_Tot_Q>
0

> <i_epik_Tot_abs_Q>
2

> <r_epik_Metal_State_Penalty>
0.890424

> <b_epik_Metal_Only>
1

> <s_lp_Force_Field>
OPLS_2005

> <r_lp_Energy>
1.41706

> <b_lp_Chiralities_Consistent>
1

> <s_lp_Variant>
AV-unprocessed.smi:658-8

> <Gold.Version>
5.8.1

> <Gold.Id.Protein>
6NUR|6NUR_protein|mol2

> <Gold.PLP.Fitness>
45.1901

> <Gold.PLP.PLP>
-27.9940

> <Gold.PLP.part.hbond>
-4.7992

> <Gold.PLP.part.metal>
0.0000

> <Gold.PLP.part.buried>
-1.4080

> <Gold.PLP.part.nonpolar>
-23.2014

> <Gold.PLP.part.repulsive>
2.5267

> <Gold.PLP.ligand.clash>
0.0000

> <Gold.PLP.ligand.torsion>
0.8901

> <Gold.PLP.Chemscore.Hbond>
4.2399

> <Gold.PLP.Chemscore.CHOScore>
2.0000

> <Gold.PLP.Chemscore.Metal>
0.0000

> <Gold.Chemscore.Hbonds>
donor molecule, donor type, donor heavy atom, donor atom, acceptor molecule, acceptor atom, score
      L1  H     3    22       P1 10171  0.75
      L1  H     3    37       P1 10175  2.00
      L1  H     8    29       P1  7948  0.98
      P1  H  8011  8017       L1     9  0.50
      L1  C    14    34       P1 10957  1.00
      L1  C    16    36       P1  7921  1.00

> <Gold.PLP.Chemscore.Internal.Correction>
0.2567

> <Gold.Rescore>
     Score         DG    S(hbond)    S(metal)    S(lipo)     H(rot)  DE(clash)    DE(int)     intcor
     10.14     -13.11       2.74        0.00      53.67       3.04       0.64       2.33       ----

> <Gold.Chemscore.Fitness>
10.1421

> <Gold.Chemscore.DG>
-13.1129

> <Gold.Chemscore.ZeroCoef>
-5.4800

> <Gold.Chemscore.Hbond>
2.7360

> <Gold.Chemscore.Metal>
0.0000

> <Gold.Chemscore.Lipo>
53.6713

> <Gold.Chemscore.Internal_Hbond>
0.0000

> <Gold.Chemscore.DEClash>
0.6414

> <Gold.Chemscore.DEInternal>
2.3295

> <Gold.Chemscore.Rot>
3.0409

> <Gold.Chemscore.Internal.Correction>
   9.000000E+99

> <Gold.Chemscore.Hbonds>
donor molecule, donor type, donor heavy atom, donor atom, acceptor molecule, acceptor atom, score
      L1  H     3    22       P1 10171  0.75
      L1  H     3    37       P1 10175  0.93
      L1  H     8    29       P1  7948  0.89
      P1  H  8011  8017       L1     9  0.49

> <Gold.Chemscore.Hbond.Weighted>
-9.1382

> <Gold.Chemscore.Metal.Weighted>
-0.0000

> <Gold.Chemscore.Lipo.Weighted>
-6.2795

> <Gold.Chemscore.Internal_Hbond.Weighted>
0.0000

> <Gold.Chemscore.DEClash.Weighted>
0.6414

> <Gold.Chemscore.DEInternal.Weighted>
2.3295

> <Gold.Chemscore.Rot.Weighted>
7.7848

> <Gold.Chemscore.Internal.Correction.Weighted>
   9.000000E+99

> <Gold.Protein.RotatedTorsions>
[ 6907 6896 6895 6894 ] final   38.20 input  -60.11 | X-H torsion
[ 7974 7965 7964 7962 ] final  -20.63 input  175.53 | X-H torsion
[ 8008 7997 7996 7995 ] final  163.10 input   59.86 | X-H torsion
[ 10167 10162 10161 10158 ] final  -45.01 input  -65.29 | X-H torsion
[ 10718 10713 10712 10709 ] final   74.31 input   66.30 | X-H torsion
[ 10763 10752 10751 10750 ] final  140.08 input  -60.55 | X-H torsion
[ 11005 11000 10999 10996 ] final  -69.73 input  -57.11 | X-H torsion

> <Gold.Protein.ActiveResidues>
 VAL166  LYS551  ARG553  GLY616  TRP617  ASP618  TYR619  PRO620  LYS621  CYS622 
 ASP623  PHE694  ASN695  SER759  ASP760  ASP761  ALA762  ILE779  LEU786  VAL792 
 PHE793  MET794  SER795  GLU796  ALA797  LYS798  CYS799  TRP800  GLU811  SER814 

> <Gold.Protein.RotatedAtoms>
  152.1533  134.8971  160.0546 H   0  0  0  0  0  0  0  0  0  0  0  0  # atno 6907 bound_to 6896
  151.9995  133.3815  159.4184 H   0  0  0  0  0  0  0  0  0  0  0  0  # atno 6908 bound_to 6896
  150.6878  134.3772  159.5062 H   0  0  0  0  0  0  0  0  0  0  0  0  # atno 6909 bound_to 6896
  146.1777  140.4229  142.8507 H   0  0  0  0  0  0  0  0  0  0  0  0  # atno 7974 bound_to 7965
  156.1982  140.1732  156.7955 H   0  0  0  0  0  0  0  0  0  0  0  0  # atno 8008 bound_to 7997
  154.5557  140.0709  156.8770 H   0  0  0  0  0  0  0  0  0  0  0  0  # atno 8009 bound_to 7997
  155.2944  140.3357  155.4253 H   0  0  0  0  0  0  0  0  0  0  0  0  # atno 8010 bound_to 7997
  140.6875  143.2901  151.3577 H   0  0  0  0  0  0  0  0  0  0  0  0  # atno 10167 bound_to 10162
  157.6586  130.9671  150.1193 H   0  0  0  0  0  0  0  0  0  0  0  0  # atno 10718 bound_to 10713
  153.9167  135.3005  155.3448 H   0  0  0  0  0  0  0  0  0  0  0  0  # atno 10763 bound_to 10752
  154.7596  135.4940  153.9442 H   0  0  0  0  0  0  0  0  0  0  0  0  # atno 10764 bound_to 10752
  153.1163  135.6771  153.9514 H   0  0  0  0  0  0  0  0  0  0  0  0  # atno 10765 bound_to 10752
  141.1560  133.6772  156.6644 H   0  0  0  0  0  0  0  0  0  0  0  0  # atno 11005 bound_to 11000
  144.8264  140.6635  143.6319 LP  0  0  0  0  0  0  0  0  0  0  0  0  # atno 17320 bound_to 7965
  145.4164  139.1571  143.4098 LP  0  0  0  0  0  0  0  0  0  0  0  0  # atno 17321 bound_to 7965
  139.6246  144.0839  152.2422 LP  0  0  0  0  0  0  0  0  0  0  0  0  # atno 17342 bound_to 10162
  140.0295  144.6092  150.7500 LP  0  0  0  0  0  0  0  0  0  0  0  0  # atno 17343 bound_to 10162
  156.2068  130.3664  149.8719 LP  0  0  0  0  0  0  0  0  0  0  0  0  # atno 17370 bound_to 10713
  156.6608  130.8781  151.3547 LP  0  0  0  0  0  0  0  0  0  0  0  0  # atno 17371 bound_to 10713
  140.3223  134.7998  157.4262 LP  0  0  0  0  0  0  0  0  0  0  0  0  # atno 17394 bound_to 11000
  140.1086  134.5375  155.8286 LP  0  0  0  0  0  0  0  0  0  0  0  0  # atno 17395 bound_to 11000

$$$$
