AV-unprocessed.smi:3300|AV-procd|sdf|12651|dock9
  -GOLD-   2272018583D 1   1.00000     0.00000
 Structure written by MMmdl.
 36 37  0  0  0  0  0  0  0  0  1 V2000
  151.8086  145.3522  159.5287 C   0  0  0  0  0  0  0  0  0  0  0  0
  152.6012  144.0404  159.5629 C   0  0  0  0  0  0  0  0  0  0  0  0
  151.8899  142.9190  158.8288 C   0  0  0  0  0  0  0  0  0  0  0  0
  150.7056  143.2254  158.2533 N   0  0  0  0  0  0  0  0  0  0  0  0
  150.0811  142.2418  157.6016 C   0  0  0  0  0  0  0  0  0  0  0  0
  150.5061  140.9846  157.4556 N   0  0  0  0  0  0  0  0  0  0  0  0
  151.6989  140.6627  158.0146 C   0  0  0  0  0  0  0  0  0  0  0  0
  152.1761  139.3433  157.9005 N   0  0  0  0  0  0  0  0  0  0  0  0
  152.1502  138.7058  159.2130 C   0  0  0  0  0  0  0  0  0  0  0  0
  152.8042  137.3199  159.1563 C   0  0  0  0  0  0  0  0  0  0  0  0
  152.1357  136.5387  158.1768 O   0  0  0  0  0  0  0  0  0  0  0  0
  152.2636  137.1044  156.8781 C   0  0  0  0  0  0  0  0  0  0  0  0
  151.6205  138.5121  156.8215 C   0  0  2  0  0  0  0  0  0  0  0  0
  151.8315  139.1536  155.4247 C   0  0  0  0  0  0  0  0  0  0  0  0
  151.4750  138.2272  154.2509 C   0  0  0  0  0  0  0  0  0  0  0  0
  150.1123  138.3815  153.9172 O   0  0  0  0  0  0  0  0  0  0  0  0
  152.4426  141.6230  158.7374 C   0  0  0  0  0  0  0  0  0  0  0  0
  153.6333  141.3160  159.3083 F   0  0  0  0  0  0  0  0  0  0  0  0
  152.3401  146.1410  160.0613 H   0  0  0  0  0  0  0  0  0  0  0  0
  150.8309  145.2352  159.9968 H   0  0  0  0  0  0  0  0  0  0  0  0
  151.6515  145.6888  158.5035 H   0  0  0  0  0  0  0  0  0  0  0  0
  153.5893  144.1936  159.1282 H   0  0  0  0  0  0  0  0  0  0  0  0
  152.7678  143.7379  160.5974 H   0  0  0  0  0  0  0  0  0  0  0  0
  149.1329  142.4879  157.1468 H   0  0  0  0  0  0  0  0  0  0  0  0
  152.6722  139.3247  159.9443 H   0  0  0  0  0  0  0  0  0  0  0  0
  151.1163  138.6140  159.5500 H   0  0  0  0  0  0  0  0  0  0  0  0
  153.8679  137.3951  158.9241 H   0  0  0  0  0  0  0  0  0  0  0  0
  152.7214  136.8248  160.1239 H   0  0  0  0  0  0  0  0  0  0  0  0
  153.3171  137.1434  156.5955 H   0  0  0  0  0  0  0  0  0  0  0  0
  151.7740  136.4279  156.1786 H   0  0  0  0  0  0  0  0  0  0  0  0
  150.5500  138.4016  157.0008 H   0  0  0  0  0  0  0  0  0  0  0  0
  151.2213  140.0510  155.3239 H   0  0  0  0  0  0  0  0  0  0  0  0
  152.8660  139.4867  155.3293 H   0  0  0  0  0  0  0  0  0  0  0  0
  152.0713  138.4526  153.3673 H   0  0  0  0  0  0  0  0  0  0  0  0
  151.6579  137.1852  154.5153 H   0  0  0  0  0  0  0  0  0  0  0  0
  150.0503  138.9243  153.1460 H   0  0  0  0  0  0  0  0  0  0  0  0
  1  2  1  0  0  0  0
  1 19  1  0  0  0  0
  1 20  1  0  0  0  0
  1 21  1  0  0  0  0
  2  3  1  0  0  0  0
  2 22  1  0  0  0  0
  2 23  1  0  0  0  0
  3 17  1  0  0  0  0
  3  4  2  0  0  0  0
  4  5  1  0  0  0  0
  5  6  2  0  0  0  0
  5 24  1  0  0  0  0
  6  7  1  0  0  0  0
  7  8  1  0  0  0  0
  7 17  2  0  0  0  0
  8 13  1  0  0  0  0
  8  9  1  0  0  0  0
  9 10  1  0  0  0  0
  9 25  1  0  0  0  0
  9 26  1  0  0  0  0
 10 11  1  0  0  0  0
 10 27  1  0  0  0  0
 10 28  1  0  0  0  0
 11 12  1  0  0  0  0
 12 13  1  0  0  0  0
 12 29  1  0  0  0  0
 12 30  1  0  0  0  0
 13 14  1  0  0  0  0
 13 31  1  0  0  0  0
 14 15  1  0  0  0  0
 14 32  1  0  0  0  0
 14 33  1  0  0  0  0
 15 16  1  0  0  0  0
 15 34  1  0  0  0  0
 15 35  1  0  0  0  0
 16 36  1  0  0  0  0
 17 18  1  0  0  0  0
M  END
> <s_m_source_file>
AV-unprocessed.smi

> <i_m_source_file_index>
3300

> <i_lp_mmshare_version>
43012

> <i_f3d_flags>
0

> <s_epik_input>
W0NIM11bQ0gyXWMxbltjSF1uYyhjMUYpTjJbQ0gyXVtDSDJdT1tDSDJdW0NASF0yW0NIMl1bQ0gyXVtPSF0=

> <s_epik_cmdline>
J2VwaWtfcHl0aG9uJywgJy1waCcsICc3LjAnLCAnLXRuJywgJzgnLCAnLW1hJywgJzIwMCcsICctbWV0YWxfYmluZGluZycsICctaW1hZScsICc8aW5maWxlLm1hZT4nLCAnLW9tYWUnLCAnPG91dGZpbGUubWFlPic=

> <r_lp_tautomer_probability>
1

> <r_epik_Ionization_Penalty>
2.51351e-05

> <r_epik_Ionization_Penalty_Charging>
0

> <r_epik_Ionization_Penalty_Neutral>
2.51351e-05

> <r_epik_State_Penalty>
-0

> <r_epik_Charging_Adjusted_Penalty>
0

> <i_epik_Tot_Q>
0

> <i_epik_Tot_abs_Q>
0

> <r_epik_Metal_State_Penalty>
-0

> <b_epik_Metal_Only>
0

> <s_lp_Force_Field>
OPLS_2005

> <r_lp_Energy>
16.3992

> <b_lp_Chiralities_Consistent>
1

> <s_lp_Variant>
AV-unprocessed.smi:3300-2

> <Gold.Version>
5.8.1

> <Gold.Id.Protein>
6NUR|6NUR_protein|mol2

> <Gold.PLP.Fitness>
36.2521

> <Gold.PLP.PLP>
-31.3364

> <Gold.PLP.part.hbond>
-2.0182

> <Gold.PLP.part.metal>
0.0000

> <Gold.PLP.part.buried>
-4.6404

> <Gold.PLP.part.nonpolar>
-25.0861

> <Gold.PLP.part.repulsive>
0.1817

> <Gold.PLP.ligand.clash>
0.0000

> <Gold.PLP.ligand.torsion>
0.5751

> <Gold.PLP.Chemscore.Hbond>
1.0023

> <Gold.PLP.Chemscore.CHOScore>
0.9711

> <Gold.PLP.Chemscore.Metal>
0.0000

> <Gold.Chemscore.Hbonds>
donor molecule, donor type, donor heavy atom, donor atom, acceptor molecule, acceptor atom, score
      L1  H    16    36       P1  7957  0.31
      L1  C     5    24       P1  8028  0.49

> <Gold.PLP.Chemscore.Internal.Correction>
0.1458

> <Gold.Rescore>
     Score         DG    S(hbond)    S(metal)    S(lipo)     H(rot)  DE(clash)    DE(int)     intcor
     10.77     -12.19       0.98        0.00      80.66       2.35       0.71       0.70       ----

> <Gold.Chemscore.Fitness>
10.7745

> <Gold.Chemscore.DG>
-12.1860

> <Gold.Chemscore.ZeroCoef>
-5.4800

> <Gold.Chemscore.Hbond>
0.9803

> <Gold.Chemscore.Metal>
0.0000

> <Gold.Chemscore.Lipo>
80.6589

> <Gold.Chemscore.Internal_Hbond>
0.0000

> <Gold.Chemscore.DEClash>
0.7135

> <Gold.Chemscore.DEInternal>
0.6979

> <Gold.Chemscore.Rot>
2.3458

> <Gold.Chemscore.Internal.Correction>
   9.000000E+99

> <Gold.Chemscore.Hbonds>
donor molecule, donor type, donor heavy atom, donor atom, acceptor molecule, acceptor atom, score
      L1  H    16    36       P1  7957  0.26

> <Gold.Chemscore.Hbond.Weighted>
-3.2741

> <Gold.Chemscore.Metal.Weighted>
-0.0000

> <Gold.Chemscore.Lipo.Weighted>
-9.4371

> <Gold.Chemscore.Internal_Hbond.Weighted>
0.0000

> <Gold.Chemscore.DEClash.Weighted>
0.7135

> <Gold.Chemscore.DEInternal.Weighted>
0.6979

> <Gold.Chemscore.Rot.Weighted>
6.0051

> <Gold.Chemscore.Internal.Correction.Weighted>
   9.000000E+99

> <Gold.Protein.RotatedTorsions>
[ 6907 6896 6895 6894 ] final  -33.68 input  -60.11 | X-H torsion
[ 7974 7965 7964 7962 ] final  -37.49 input  175.53 | X-H torsion
[ 8008 7997 7996 7995 ] final   61.55 input   59.86 | X-H torsion
[ 10167 10162 10161 10158 ] final -148.20 input  -65.29 | X-H torsion
[ 10718 10713 10712 10709 ] final  103.04 input   66.30 | X-H torsion
[ 10763 10752 10751 10750 ] final -176.12 input  -60.55 | X-H torsion
[ 11005 11000 10999 10996 ] final   17.34 input  -57.11 | X-H torsion

> <Gold.Protein.ActiveResidues>
 VAL166  LYS551  ARG553  GLY616  TRP617  ASP618  TYR619  PRO620  LYS621  CYS622 
 ASP623  PHE694  ASN695  SER759  ASP760  ASP761  ALA762  ILE779  LEU786  VAL792 
 PHE793  MET794  SER795  GLU796  ALA797  LYS798  CYS799  TRP800  GLU811  SER814 

> <Gold.Protein.RotatedAtoms>
  151.0624  134.9745  159.8266 H   0  0  0  0  0  0  0  0  0  0  0  0  # atno 6907 bound_to 6896
  152.5397  134.2401  159.8868 H   0  0  0  0  0  0  0  0  0  0  0  0  # atno 6908 bound_to 6896
  151.2421  133.4351  159.2641 H   0  0  0  0  0  0  0  0  0  0  0  0  # atno 6909 bound_to 6896
  146.0570  140.6402  142.9015 H   0  0  0  0  0  0  0  0  0  0  0  0  # atno 7974 bound_to 7965
  155.6002  140.3494  155.4591 H   0  0  0  0  0  0  0  0  0  0  0  0  # atno 8008 bound_to 7997
  156.0234  140.1258  157.0358 H   0  0  0  0  0  0  0  0  0  0  0  0  # atno 8009 bound_to 7997
  154.4324  140.1058  156.5982 H   0  0  0  0  0  0  0  0  0  0  0  0  # atno 8010 bound_to 7997
  139.7553  143.8457  152.2596 H   0  0  0  0  0  0  0  0  0  0  0  0  # atno 10167 bound_to 10162
  157.6784  131.0768  150.5494 H   0  0  0  0  0  0  0  0  0  0  0  0  # atno 10718 bound_to 10713
  154.5762  135.2832  155.0778 H   0  0  0  0  0  0  0  0  0  0  0  0  # atno 10763 bound_to 10752
  154.2131  135.6404  153.5125 H   0  0  0  0  0  0  0  0  0  0  0  0  # atno 10764 bound_to 10752
  153.0073  135.5496  154.6402 H   0  0  0  0  0  0  0  0  0  0  0  0  # atno 10765 bound_to 10752
  140.4371  134.1360  155.7686 H   0  0  0  0  0  0  0  0  0  0  0  0  # atno 11005 bound_to 11000
  144.7153  140.4189  143.7049 LP  0  0  0  0  0  0  0  0  0  0  0  0  # atno 17320 bound_to 7965
  145.6626  139.1584  143.2799 LP  0  0  0  0  0  0  0  0  0  0  0  0  # atno 17321 bound_to 7965
  139.8447  144.7193  150.9287 LP  0  0  0  0  0  0  0  0  0  0  0  0  # atno 17342 bound_to 10162
  140.7802  143.3952  151.1242 LP  0  0  0  0  0  0  0  0  0  0  0  0  # atno 17343 bound_to 10162
  156.5799  130.4302  149.5982 LP  0  0  0  0  0  0  0  0  0  0  0  0  # atno 17370 bound_to 10713
  156.2670  130.6995  151.1781 LP  0  0  0  0  0  0  0  0  0  0  0  0  # atno 17371 bound_to 10713
  141.1721  133.8587  157.1537 LP  0  0  0  0  0  0  0  0  0  0  0  0  # atno 17394 bound_to 11000
  140.0095  134.9994  157.0365 LP  0  0  0  0  0  0  0  0  0  0  0  0  # atno 17395 bound_to 11000

$$$$
