#       Name:                AV-unprocessed.smi:102
#       Creating user name   scv26
#       Creation time:       Thu Mar 26 17:49:38 2020


#       File generated by GOLD software.
#

@<TRIPOS>MOLECULE
AV-unprocessed.smi:102
    56    57     1
SMALL
NO_CHARGES


@<TRIPOS>ATOM
      1 ****        -3.6994   3.4168   2.4629 C.3            1 S1                 0.0000
      2 ****        -3.2394   2.1852   1.6945 C.2            1 S1                 0.0000
      3 ****        -3.3644   1.0526   2.1613 O.2            1 S1                 0.0000
      4 ****        -2.7074   2.4970   0.4983 O.3            1 S1                 0.0000
      5 ****        -2.2195   1.4743  -0.3589 C.3            1 S1                 0.0000
      6 ****        -0.7301   1.1997  -0.0998 C.3            1 S1                 0.0000
      7 ****        -0.5554   0.4802   1.1172 O.3            1 S1                 0.0000
      8 ****         0.5553  -0.3614   1.0336 C.3            1 S1                 0.0000
      9 ****         0.1285  -1.7662   1.3877 N.am           1 S1                 0.0000
     10 ****        -1.1442  -2.2325   1.0837 C.2            1 S1                 0.0000
     11 ****        -1.5573  -3.4886   1.3746 C.2            1 S1                 0.0000
     12 ****        -2.8045  -3.8694   1.0492 F              1 S1                 0.0000
     13 ****        -0.6593  -4.4341   2.0311 C.2            1 S1                 0.0000
     14 ****        -0.9424  -5.5903   2.3381 O.2            1 S1                 0.0000
     15 ****         0.6145  -3.9265   2.3034 N.am           1 S1                 0.0000
     16 ****         1.0544  -2.6354   2.0061 C.2            1 S1                 0.0000
     17 ****         2.2065  -2.3015   2.2786 O.2            1 S1                 0.0000
     18 ****         1.0764  -0.3216  -0.4091 C.3            1 S1                 0.0000
     19 ****         2.2231   0.5212  -0.4759 O.3            1 S1                 0.0000
     20 ****         3.4581  -0.0056  -0.4226 C.2            1 S1                 0.0000
     21 ****         4.5451   1.0564  -0.5182 C.3            1 S1                 0.0000
     22 ****         3.7346  -1.1995  -0.3084 O.2            1 S1                 0.0000
     23 ****        -0.1045   0.2879  -1.1523 C.3            1 S1                 0.0000
     24 ****         0.2876   1.0042  -2.3176 O.3            1 S1                 0.0000
     25 ****         0.5079   0.3484  -3.4700 C.2            1 S1                 0.0000
     26 ****         0.9345   1.2802  -4.5963 C.3            1 S1                 0.0000
     27 ****         0.4010  -0.8655  -3.6445 O.2            1 S1                 0.0000
     28 ****         1.2733  -4.5486   2.7489 H              1 S1                 0.0000
     29 ****        -4.4867   3.9328   1.9132 H              1 S1                 0.0000
     30 ****        -2.8674   4.1062   2.6081 H              1 S1                 0.0000
     31 ****        -4.0890   3.1342   3.4412 H              1 S1                 0.0000
     32 ****        -2.8107   0.5610  -0.2769 H              1 S1                 0.0000
     33 ****        -2.3427   1.8290  -1.3822 H              1 S1                 0.0000
     34 ****        -0.1661   2.1321  -0.0378 H              1 S1                 0.0000
     35 ****         1.2850  -0.0525   1.7844 H              1 S1                 0.0000
     36 ****        -1.8477  -1.5788   0.5896 H              1 S1                 0.0000
     37 ****         1.2941  -1.3254  -0.7780 H              1 S1                 0.0000
     38 ****         4.2997   1.7856  -1.2905 H              1 S1                 0.0000
     39 ****         5.5039   0.6009  -0.7667 H              1 S1                 0.0000
     40 ****         4.6467   1.5790   0.4329 H              1 S1                 0.0000
     41 ****        -0.8190  -0.4982  -1.4018 H              1 S1                 0.0000
     42 ****         0.3140   2.1766  -4.6066 H              1 S1                 0.0000
     43 ****         0.8377   0.7828  -5.5617 H              1 S1                 0.0000
     44 ****         1.9746   1.5784  -4.4639 H              1 S1                 0.0000
     45 ****        -3.7756   0.9264   3.0641 LP             1 S1                 0.0000
     46 ****        -3.0546   0.2590   1.6377 LP             1 S1                 0.0000
     47 ****        -1.3718  -0.0693   1.2946 LP             1 S1                 0.0000
     48 ****        -0.4210   1.1288   1.8664 LP             1 S1                 0.0000
     49 ****        -1.8532  -5.9518   2.1389 LP             1 S1                 0.0000
     50 ****        -0.2618  -6.1694   2.7871 LP             1 S1                 0.0000
     51 ****         2.5241  -1.3784   2.0619 LP             1 S1                 0.0000
     52 ****         2.8256  -2.9532   2.7169 LP             1 S1                 0.0000
     53 ****         3.0031  -1.8784  -0.2458 LP             1 S1                 0.0000
     54 ****         4.6908  -1.4906  -0.2782 LP             1 S1                 0.0000
     55 ****         0.1273  -1.4575  -2.8864 LP             1 S1                 0.0000
     56 ****         0.5879  -1.2597  -4.5443 LP             1 S1                 0.0000
@<TRIPOS>BOND
    1    1    2 1     
    2    1   29 1     
    3    1   30 1     
    4    1   31 1     
    5    2    3 2     
    6    2    4 1     
    7    4    5 1     
    8    5    6 1     
    9    5   32 1     
   10    5   33 1     
   11    6   23 1     
   12    6    7 1     
   13    6   34 1     
   14    7    8 1     
   15    8    9 1     
   16    8   18 1     
   17    8   35 1     
   18    9   16 1     
   19    9   10 1     
   20   10   11 2     
   21   10   36 1     
   22   11   12 1     
   23   11   13 1     
   24   13   14 2     
   25   13   15 1     
   26   15   28 1     
   27   15   16 1     
   28   16   17 2     
   29   18   19 1     
   30   18   23 1     
   31   18   37 1     
   32   19   20 1     
   33   20   21 1     
   34   20   22 2     
   35   21   38 1     
   36   21   39 1     
   37   21   40 1     
   38   23   24 1     
   39   23   41 1     
   40   24   25 1     
   41   25   26 1     
   42   25   27 2     
   43   26   42 1     
   44   26   43 1     
   45   26   44 1     
   46    3   45 1     
   47    3   46 1     
   48    7   47 1     
   49    7   48 1     
   50   14   49 1     
   51   14   50 1     
   52   17   51 1     
   53   17   52 1     
   54   22   53 1     
   55   22   54 1     
   56   27   55 1     
   57   27   56 1     
@<TRIPOS>SUBSTRUCTURE
      1 S1             1
@<TRIPOS>SET
LONE_PAIRS      STATIC     ATOMS    <user>   **** ""
12 45 46 47 48 49 50 51 52 53 54 55 56
DONOR_HYDROGENS      STATIC     ATOMS    <user>   **** ""
1 28
ATOM$BLUE        STATIC     ATOMS    COLORGROUP SYSTEM
12 45 46 47 48 49 50 51 52 53 54 55 56
ATOM$RED        STATIC     ATOMS    COLORGROUP SYSTEM
1 28
