#       Name:                AV-unprocessed.smi:124
#       Creating user name   scv26
#       Creation time:       Thu Mar 26 18:28:09 2020


#       File generated by GOLD software.
#

@<TRIPOS>MOLECULE
AV-unprocessed.smi:124
    60    64     1
SMALL
NO_CHARGES


@<TRIPOS>ATOM
      1 ****        -1.0209   0.3004   0.3628 O.2            1 S1                 0.0000
      2 ****        -0.5088  -0.8073   0.5338 C.2            1 S1                 0.0000
      3 ****         1.0184  -0.9030   0.7136 C.3            1 S1                 0.0000
      4 ****         1.6831   0.3964   0.7289 N.am           1 S1                 0.0000
      5 ****         1.7981   1.0636   1.9740 C.2            1 S1                 0.0000
      6 ****         1.3620   0.5799   3.0203 O.2            1 S1                 0.0000
      7 ****         2.4493   2.3660   1.9033 C.2            1 S1                 0.0000
      8 ****         2.5737   3.1079   3.0168 F              1 S1                 0.0000
      9 ****         2.9179   2.8491   0.7326 C.2            1 S1                 0.0000
     10 ****         2.8381   2.1552  -0.4642 N.am           1 S1                 0.0000
     11 ****         3.2833   2.7790  -1.7710 C.3            1 S1                 0.0000
     12 ****         4.4893   3.7255  -1.6365 C.3            1 S1                 0.0000
     13 ****         3.8506   5.0920  -1.7928 C.3            1 S1                 0.0000
     14 ****         2.6780   4.7826  -2.7151 C.3            1 S1                 0.0000
     15 ****         2.2088   3.5161  -2.2718 O.3            1 S1                 0.0000
     16 ****         2.1486   0.9211  -0.5018 C.2            1 S1                 0.0000
     17 ****         1.9604   0.3304  -1.5680 O.2            1 S1                 0.0000
     18 ****        -1.2550  -2.0716   0.5943 C.2            1 S1                 0.0000
     19 ****        -2.6309  -2.1468   0.4860 C.2            1 S1                 0.0000
     20 ****        -3.6562  -1.1333   0.2650 C.ar           1 S1                 0.0000
     21 ****        -4.5811  -0.8208   1.2842 C.ar           1 S1                 0.0000
     22 ****        -5.5765   0.1527   1.0715 C.ar           1 S1                 0.0000
     23 ****        -5.6567   0.8193  -0.1658 C.ar           1 S1                 0.0000
     24 ****        -4.7407   0.5107  -1.1893 C.ar           1 S1                 0.0000
     25 ****        -3.7460  -0.4628  -0.9740 C.ar           1 S1                 0.0000
     26 ****        -3.0313  -3.4619   0.6213 N.pl3          1 S1                 0.0000
     27 ****        -1.9474  -4.2897   0.7958 C.ar           1 S1                 0.0000
     28 ****        -1.8583  -5.6836   0.9650 C.ar           1 S1                 0.0000
     29 ****        -0.5978  -6.2838   1.1200 C.ar           1 S1                 0.0000
     30 ****         0.5577  -5.4833   1.1036 C.ar           1 S1                 0.0000
     31 ****         0.4563  -4.0877   0.9353 C.ar           1 S1                 0.0000
     32 ****        -0.7986  -3.4402   0.7771 C.ar           1 S1                 0.0000
     33 ****        -3.9988  -3.7482   0.5798 H              1 S1                 0.0000
     34 ****         1.2698  -1.4083   1.6468 H              1 S1                 0.0000
     35 ****         1.4668  -1.4986  -0.0825 H              1 S1                 0.0000
     36 ****         3.3651   3.8300   0.7511 H              1 S1                 0.0000
     37 ****         3.5295   1.9515  -2.4379 H              1 S1                 0.0000
     38 ****         5.0516   3.5844  -0.7135 H              1 S1                 0.0000
     39 ****         5.1638   3.5351  -2.4724 H              1 S1                 0.0000
     40 ****         3.4861   5.4610  -0.8340 H              1 S1                 0.0000
     41 ****         4.5315   5.8361  -2.2065 H              1 S1                 0.0000
     42 ****         1.8942   5.5389  -2.6697 H              1 S1                 0.0000
     43 ****         3.0148   4.6984  -3.7494 H              1 S1                 0.0000
     44 ****        -4.5260  -1.3275   2.2366 H              1 S1                 0.0000
     45 ****        -6.2784   0.3878   1.8580 H              1 S1                 0.0000
     46 ****        -6.4198   1.5659  -0.3298 H              1 S1                 0.0000
     47 ****        -4.8003   1.0198  -2.1398 H              1 S1                 0.0000
     48 ****        -3.0469  -0.6947  -1.7643 H              1 S1                 0.0000
     49 ****        -2.7525  -6.2889   0.9744 H              1 S1                 0.0000
     50 ****        -0.5169  -7.3531   1.2496 H              1 S1                 0.0000
     51 ****         1.5291  -5.9409   1.2205 H              1 S1                 0.0000
     52 ****         1.3720  -3.5205   0.9273 H              1 S1                 0.0000
     53 ****        -0.4468   1.1189   0.3425 LP             1 S1                 0.0000
     54 ****        -2.0106   0.3808   0.2444 LP             1 S1                 0.0000
     55 ****         0.9093  -0.3117   3.0084 LP             1 S1                 0.0000
     56 ****         1.4608   1.0790   3.8812 LP             1 S1                 0.0000
     57 ****         1.5270   3.6452  -1.5517 LP             1 S1                 0.0000
     58 ****         1.7949   3.0255  -3.0386 LP             1 S1                 0.0000
     59 ****         1.4688  -0.5404  -1.5772 LP             1 S1                 0.0000
     60 ****         2.2993   0.7223  -2.4233 LP             1 S1                 0.0000
@<TRIPOS>BOND
    1    1    2 2     
    2    2    3 1     
    3    2   18 1     
    4    3    4 1     
    5    3   34 1     
    6    3   35 1     
    7    4   16 am    
    8    4    5 am    
    9    5    6 2     
   10    5    7 1     
   11    7    8 1     
   12    7    9 2     
   13    9   10 1     
   14    9   36 1     
   15   10   11 1     
   16   10   16 am    
   17   11   15 1     
   18   11   12 1     
   19   11   37 1     
   20   12   13 1     
   21   12   38 1     
   22   12   39 1     
   23   13   14 1     
   24   13   40 1     
   25   13   41 1     
   26   14   15 1     
   27   14   42 1     
   28   14   43 1     
   29   16   17 2     
   30   18   32 1     
   31   18   19 2     
   32   19   20 1     
   33   19   26 1     
   34   20   25 ar    
   35   20   21 ar    
   36   21   22 ar    
   37   21   44 1     
   38   22   23 ar    
   39   22   45 1     
   40   23   24 ar    
   41   23   46 1     
   42   24   25 ar    
   43   24   47 1     
   44   25   48 1     
   45   26   33 1     
   46   26   27 1     
   47   27   32 ar    
   48   27   28 ar    
   49   28   29 ar    
   50   28   49 1     
   51   29   30 ar    
   52   29   50 1     
   53   30   31 ar    
   54   30   51 1     
   55   31   32 ar    
   56   31   52 1     
   57    1   53 1     
   58    1   54 1     
   59    6   55 1     
   60    6   56 1     
   61   15   57 1     
   62   15   58 1     
   63   17   59 1     
   64   17   60 1     
@<TRIPOS>SUBSTRUCTURE
      1 S1             1
@<TRIPOS>SET
LONE_PAIRS      STATIC     ATOMS    <user>   **** ""
8 53 54 55 56 57 58 59 60
DONOR_HYDROGENS      STATIC     ATOMS    <user>   **** ""
1 33
ATOM$BLUE        STATIC     ATOMS    COLORGROUP SYSTEM
8 53 54 55 56 57 58 59 60
ATOM$RED        STATIC     ATOMS    COLORGROUP SYSTEM
1 33
