#       Name:                AV-unprocessed.smi:54
#       Creating user name   scv26
#       Creation time:       Thu Mar 26 16:44:48 2020


#       File generated by GOLD software.
#

@<TRIPOS>MOLECULE
AV-unprocessed.smi:54
    58    60     1
SMALL
NO_CHARGES


@<TRIPOS>ATOM
      1 ****        -0.5917   5.5516  -0.9628 C.3            1 S1                 0.0000
      2 ****        -1.1778   4.9025   0.3021 C.3            1 S1                 0.0000
      3 ****        -0.5771   5.5207   1.5753 C.3            1 S1                 0.0000
      4 ****        -0.9640   3.3823   0.2817 C.2            1 S1                 0.0000
      5 ****         0.1866   2.9380   0.2656 O.2            1 S1                 0.0000
      6 ****        -2.0932   2.6387   0.2786 N.am           1 S1                 0.0000
      7 ****        -2.2327   1.2460   0.2528 C.2            1 S1                 0.0000
      8 ****        -1.1736   0.4707   0.3269 N.2            1 S1                 0.0000
      9 ****        -1.4994  -0.8703   0.2846 C.2            1 S1                 0.0000
     10 ****        -2.7427  -1.4294   0.1819 C.2            1 S1                 0.0000
     11 ****        -2.6739  -2.8173   0.1630 N.2            1 S1                 0.0000
     12 ****        -1.3620  -3.0333   0.2562 C.2            1 S1                 0.0000
     13 ****        -0.5956  -1.9245   0.3269 N.pl3          1 S1                 0.0000
     14 ****         0.8967  -1.8206   0.4442 C.3            1 S1                 0.0000
     15 ****         1.4059  -3.0698   0.8061 O.3            1 S1                 0.0000
     16 ****         1.9553  -3.7131  -0.3381 C.3            1 S1                 0.0000
     17 ****         2.9209  -4.8420   0.0624 C.3            1 S1                 0.0000
     18 ****         2.1990  -6.0241   0.3350 O.3            1 S1                 0.0000
     19 ****         2.5877  -2.5387  -1.0949 C.3            1 S1                 0.0000
     20 ****         3.8359  -2.1877  -0.5259 O.3            1 S1                 0.0000
     21 ****         1.5753  -1.4180  -0.8889 C.3            1 S1                 0.0000
     22 ****         0.6937  -1.3611  -1.9973 O.3            1 S1                 0.0000
     23 ****        -3.8908  -0.4945   0.1093 C.2            1 S1                 0.0000
     24 ****        -5.0293  -0.9498   0.0185 O.2            1 S1                 0.0000
     25 ****        -3.5710   0.8347   0.1511 N.pl3          1 S1                -1.0000
     26 ****         1.0550  -1.1026   1.2498 H              1 S1                 0.0000
     27 ****         1.1439  -4.1142  -0.9484 H              1 S1                 0.0000
     28 ****         2.7505  -2.7731  -2.1479 H              1 S1                 0.0000
     29 ****         2.0523  -0.4431  -0.7787 H              1 S1                 0.0000
     30 ****        -1.0027   5.1006  -1.8670 H              1 S1                 0.0000
     31 ****         0.4933   5.4475  -1.0021 H              1 S1                 0.0000
     32 ****        -0.8221   6.6167  -0.9957 H              1 S1                 0.0000
     33 ****        -2.2513   5.0991   0.3107 H              1 S1                 0.0000
     34 ****        -0.9874   5.0567   2.4731 H              1 S1                 0.0000
     35 ****        -0.7968   6.5871   1.6302 H              1 S1                 0.0000
     36 ****         0.5072   5.4056   1.6057 H              1 S1                 0.0000
     37 ****        -2.9528   3.1676   0.2776 H              1 S1                 0.0000
     38 ****        -0.9507  -4.0316   0.2743 H              1 S1                 0.0000
     39 ****         3.6048  -5.0593  -0.7587 H              1 S1                 0.0000
     40 ****         3.5258  -4.5624   0.9255 H              1 S1                 0.0000
     41 ****         2.8123  -6.7026   0.5724 H              1 S1                 0.0000
     42 ****         3.6969  -1.9814   0.3860 H              1 S1                 0.0000
     43 ****         0.0378  -0.7023  -1.8229 H              1 S1                 0.0000
     44 ****         0.9651   3.5657   0.2660 LP             1 S1                 0.0000
     45 ****         0.3410   1.9501   0.2522 LP             1 S1                 0.0000
     46 ****        -0.2374   0.8136   0.4051 LP             1 S1                 0.0000
     47 ****        -3.4174  -3.4827   0.0966 LP             1 S1                 0.0000
     48 ****         0.6700  -3.6325   1.1826 LP             1 S1                 0.0000
     49 ****         2.1204  -2.9506   1.4956 LP             1 S1                 0.0000
     50 ****         1.6872  -6.3016  -0.4780 LP             1 S1                 0.0000
     51 ****         1.5637  -5.8645   1.0906 LP             1 S1                 0.0000
     52 ****         4.2121  -1.3914  -0.9996 LP             1 S1                 0.0000
     53 ****         4.4724  -2.9548  -0.6063 LP             1 S1                 0.0000
     54 ****         0.2540  -2.2501  -2.1252 LP             1 S1                 0.0000
     55 ****         1.2040  -1.1197  -2.8227 LP             1 S1                 0.0000
     56 ****        -5.1716  -1.9393  -0.0055 LP             1 S1                 0.0000
     57 ****        -5.8129  -0.3306  -0.0313 LP             1 S1                 0.0000
     58 ****        -4.2977   1.5203   0.1088 LP             1 S1                 0.0000
@<TRIPOS>BOND
    1    1    2 1     
    2    1   30 1     
    3    1   31 1     
    4    1   32 1     
    5    2    3 1     
    6    2    4 1     
    7    2   33 1     
    8    3   34 1     
    9    3   35 1     
   10    3   36 1     
   11    4    5 2     
   12    4    6 am    
   13    6   37 1     
   14    6    7 1     
   15    7   25 1     
   16    7    8 2     
   17    8    9 1     
   18    9   13 1     
   19    9   10 2     
   20   10   11 1     
   21   10   23 1     
   22   11   12 2     
   23   12   13 1     
   24   12   38 1     
   25   13   14 1     
   26   14   26 1     
   27   14   21 1     
   28   14   15 1     
   29   15   16 1     
   30   16   27 1     
   31   16   17 1     
   32   16   19 1     
   33   17   18 1     
   34   17   39 1     
   35   17   40 1     
   36   18   41 1     
   37   19   28 1     
   38   19   20 1     
   39   19   21 1     
   40   20   42 1     
   41   21   29 1     
   42   21   22 1     
   43   22   43 1     
   44   23   24 2     
   45   23   25 1     
   46    5   44 1     
   47    5   45 1     
   48    8   46 1     
   49   11   47 1     
   50   15   48 1     
   51   15   49 1     
   52   18   50 1     
   53   18   51 1     
   54   20   52 1     
   55   20   53 1     
   56   22   54 1     
   57   22   55 1     
   58   24   56 1     
   59   24   57 1     
   60   25   58 1     
@<TRIPOS>SUBSTRUCTURE
      1 S1             1
@<TRIPOS>SET
LONE_PAIRS      STATIC     ATOMS    <user>   **** ""
15 44 45 46 47 48 49 50 51 52 53 54 55 56 57 58
DONOR_HYDROGENS      STATIC     ATOMS    <user>   **** ""
4 37 41 42 43
ATOM$BLUE        STATIC     ATOMS    COLORGROUP SYSTEM
15 44 45 46 47 48 49 50 51 52 53 54 55 56 57 58
ATOM$RED        STATIC     ATOMS    COLORGROUP SYSTEM
4 37 41 42 43
