AV-unprocessed.smi:2254|AV-procd|sdf|9123|dock6
  -GOLD-   2272012323D 1   1.00000     0.00000
 Structure written by MMmdl.
 41 42  0  0  0  0  0  0  0  0  1 V2000
  152.2326  145.0286  159.2717 C   0  0  0  0  0  0  0  0  0  0  0  0
  151.8520  143.9193  158.3071 C   0  0  0  0  0  0  0  0  0  0  0  0
  150.8813  144.2511  157.3574 N   0  0  0  0  0  0  0  0  0  0  0  0
  150.4855  143.3650  156.5032 C   0  0  0  0  0  0  0  0  0  0  0  0
  151.0059  142.0611  156.4992 N   0  0  0  0  0  0  0  0  0  0  0  0
  150.4670  141.1471  155.4799 C   0  0  0  0  0  0  0  0  0  0  0  0
  148.9205  141.1318  155.4753 C   0  0  2  0  0  0  0  0  0  0  0  0
  148.4710  140.0122  156.2117 O   0  0  0  0  0  0  0  0  0  0  0  0
  148.3442  141.0093  154.0568 C   0  0  0  0  0  0  0  0  0  0  0  0
  147.3945  142.0451  153.8712 O   0  0  0  0  0  0  0  0  0  0  0  0
  146.0553  141.6175  154.0536 C   0  0  0  0  0  0  0  0  0  0  0  0
  145.0716  142.7714  153.9862 C   0  0  0  0  0  0  0  0  0  0  0  0
  144.3226  143.1476  155.1228 C   0  0  0  0  0  0  0  0  0  0  0  0
  143.4013  144.2100  155.0447 C   0  0  0  0  0  0  0  0  0  0  0  0
  143.2189  144.8974  153.8291 C   0  0  0  0  0  0  0  0  0  0  0  0
  142.0890  146.1980  153.7333 Cl  0  0  0  0  0  0  0  0  0  0  0  0
  143.9573  144.5200  152.6906 C   0  0  0  0  0  0  0  0  0  0  0  0
  144.8792  143.4577  152.7686 C   0  0  0  0  0  0  0  0  0  0  0  0
  151.9719  141.6601  157.3757 C   0  0  0  0  0  0  0  0  0  0  0  0
  152.4418  140.5208  157.3444 O   0  0  0  0  0  0  0  0  0  0  0  0
  152.4064  142.6767  158.3473 C   0  0  0  0  0  0  0  0  0  0  0  0
  153.4650  142.2576  159.3599 C   0  0  0  0  0  0  0  0  0  0  0  0
  153.2902  145.2741  159.1732 H   0  0  0  0  0  0  0  0  0  0  0  0
  152.0388  144.7238  160.3004 H   0  0  0  0  0  0  0  0  0  0  0  0
  151.6592  145.9363  159.0795 H   0  0  0  0  0  0  0  0  0  0  0  0
  149.7340  143.5735  155.7396 H   0  0  0  0  0  0  0  0  0  0  0  0
  150.8364  141.4730  154.5057 H   0  0  0  0  0  0  0  0  0  0  0  0
  150.8659  140.1351  155.5793 H   0  0  0  0  0  0  0  0  0  0  0  0
  148.5137  142.0318  155.9388 H   0  0  0  0  0  0  0  0  0  0  0  0
  147.5825  139.8196  155.9540 H   0  0  0  0  0  0  0  0  0  0  0  0
  149.1370  141.0739  153.3095 H   0  0  0  0  0  0  0  0  0  0  0  0
  147.8506  140.0438  153.9331 H   0  0  0  0  0  0  0  0  0  0  0  0
  145.7992  140.8838  153.2873 H   0  0  0  0  0  0  0  0  0  0  0  0
  145.9485  141.1295  155.0235 H   0  0  0  0  0  0  0  0  0  0  0  0
  144.4497  142.6256  156.0599 H   0  0  0  0  0  0  0  0  0  0  0  0
  142.8339  144.4947  155.9186 H   0  0  0  0  0  0  0  0  0  0  0  0
  143.8168  145.0434  151.7563 H   0  0  0  0  0  0  0  0  0  0  0  0
  145.4392  143.1720  151.8902 H   0  0  0  0  0  0  0  0  0  0  0  0
  153.0864  141.4478  159.9844 H   0  0  0  0  0  0  0  0  0  0  0  0
  153.7732  143.0665  160.0201 H   0  0  0  0  0  0  0  0  0  0  0  0
  154.3569  141.8985  158.8454 H   0  0  0  0  0  0  0  0  0  0  0  0
  1  2  1  0  0  0  0
  1 23  1  0  0  0  0
  1 24  1  0  0  0  0
  1 25  1  0  0  0  0
  2 21  2  0  0  0  0
  2  3  1  0  0  0  0
  3  4  2  0  0  0  0
  4  5  1  0  0  0  0
  4 26  1  0  0  0  0
  5  6  1  0  0  0  0
  5 19  1  0  0  0  0
  6  7  1  0  0  0  0
  6 27  1  0  0  0  0
  6 28  1  0  0  0  0
  7  8  1  0  0  0  0
  7  9  1  0  0  0  0
  7 29  1  0  0  0  0
  8 30  1  0  0  0  0
  9 10  1  0  0  0  0
  9 31  1  0  0  0  0
  9 32  1  0  0  0  0
 10 11  1  0  0  0  0
 11 12  1  0  0  0  0
 11 33  1  0  0  0  0
 11 34  1  0  0  0  0
 12 18  1  0  0  0  0
 12 13  2  0  0  0  0
 13 14  1  0  0  0  0
 13 35  1  0  0  0  0
 14 15  2  0  0  0  0
 14 36  1  0  0  0  0
 15 16  1  0  0  0  0
 15 17  1  0  0  0  0
 17 18  2  0  0  0  0
 17 37  1  0  0  0  0
 18 38  1  0  0  0  0
 19 20  2  0  0  0  0
 19 21  1  0  0  0  0
 21 22  1  0  0  0  0
 22 39  1  0  0  0  0
 22 40  1  0  0  0  0
 22 41  1  0  0  0  0
M  END
> <s_m_source_file>
AV-unprocessed.smi

> <i_m_source_file_index>
2254

> <i_lp_mmshare_version>
43012

> <i_f3d_flags>
0

> <s_epik_input>
W0NIM11jMW5bY0hdbihjKD1PKWMxW0NIM10pW0NIMl1bQ0BIXShbT0hdKVtDSDJdT1tDSDJdYzJbY0hdW2NIXWMoQ2wpW2NIXVtjSF0y

> <s_epik_cmdline>
J2VwaWtfcHl0aG9uJywgJy1waCcsICc3LjAnLCAnLXRuJywgJzgnLCAnLW1hJywgJzIwMCcsICctbWV0YWxfYmluZGluZycsICctaW1hZScsICc8aW5maWxlLm1hZT4nLCAnLW9tYWUnLCAnPG91dGZpbGUubWFlPic=

> <r_lp_tautomer_probability>
1

> <r_epik_Ionization_Penalty>
5.36e-05

> <r_epik_Ionization_Penalty_Charging>
1.17753e-07

> <r_epik_Ionization_Penalty_Neutral>
5.34822e-05

> <r_epik_State_Penalty>
-0

> <r_epik_Charging_Adjusted_Penalty>
1.17753e-07

> <i_epik_Tot_Q>
0

> <i_epik_Tot_abs_Q>
0

> <r_epik_Metal_State_Penalty>
-0

> <b_epik_Metal_Only>
0

> <s_lp_Force_Field>
OPLS_2005

> <r_lp_Energy>
20.9698

> <b_lp_Chiralities_Consistent>
1

> <s_lp_Variant>
AV-unprocessed.smi:2254-1

> <Gold.Version>
5.8.1

> <Gold.Id.Protein>
6NUR|6NUR_protein|mol2

> <Gold.PLP.Fitness>
52.1037

> <Gold.PLP.PLP>
-49.3222

> <Gold.PLP.part.hbond>
-1.9931

> <Gold.PLP.part.metal>
0.0000

> <Gold.PLP.part.buried>
-5.6008

> <Gold.PLP.part.nonpolar>
-42.2870

> <Gold.PLP.part.repulsive>
0.9246

> <Gold.PLP.ligand.clash>
0.0000

> <Gold.PLP.ligand.torsion>
1.6455

> <Gold.PLP.Chemscore.Hbond>
1.0000

> <Gold.PLP.Chemscore.CHOScore>
1.0000

> <Gold.PLP.Chemscore.Metal>
0.0000

> <Gold.Chemscore.Hbonds>
donor molecule, donor type, donor heavy atom, donor atom, acceptor molecule, acceptor atom, score
      P1  H  7997  8009       L1    20  0.68

> <Gold.PLP.Chemscore.Internal.Correction>
0.0726

> <Gold.Rescore>
     Score         DG    S(hbond)    S(metal)    S(lipo)     H(rot)  DE(clash)    DE(int)     intcor
     10.68     -12.75       0.18        0.00     111.93       2.52       0.32       1.75       ----

> <Gold.Chemscore.Fitness>
10.6771

> <Gold.Chemscore.DG>
-12.7487

> <Gold.Chemscore.ZeroCoef>
-5.4800

> <Gold.Chemscore.Hbond>
0.1839

> <Gold.Chemscore.Metal>
0.0000

> <Gold.Chemscore.Lipo>
111.9302

> <Gold.Chemscore.Internal_Hbond>
0.0000

> <Gold.Chemscore.DEClash>
0.3168

> <Gold.Chemscore.DEInternal>
1.7548

> <Gold.Chemscore.Rot>
2.5162

> <Gold.Chemscore.Internal.Correction>
   9.000000E+99

> <Gold.Chemscore.Hbonds>
donor molecule, donor type, donor heavy atom, donor atom, acceptor molecule, acceptor atom, score
      P1  H  7997  8009       L1    20  0.66

> <Gold.Chemscore.Hbond.Weighted>
-0.6143

> <Gold.Chemscore.Metal.Weighted>
-0.0000

> <Gold.Chemscore.Lipo.Weighted>
-13.0958

> <Gold.Chemscore.Internal_Hbond.Weighted>
0.0000

> <Gold.Chemscore.DEClash.Weighted>
0.3168

> <Gold.Chemscore.DEInternal.Weighted>
1.7548

> <Gold.Chemscore.Rot.Weighted>
6.4414

> <Gold.Chemscore.Internal.Correction.Weighted>
   9.000000E+99

> <Gold.Protein.RotatedTorsions>
[ 6907 6896 6895 6894 ] final  -87.18 input  -60.11 | X-H torsion
[ 7974 7965 7964 7962 ] final -131.41 input  175.53 | X-H torsion
[ 8008 7997 7996 7995 ] final  170.50 input   59.86 | X-H torsion
[ 10167 10162 10161 10158 ] final    9.42 input  -65.29 | X-H torsion
[ 10718 10713 10712 10709 ] final  108.47 input   66.30 | X-H torsion
[ 10763 10752 10751 10750 ] final  101.90 input  -60.55 | X-H torsion
[ 11005 11000 10999 10996 ] final  -38.60 input  -57.11 | X-H torsion

> <Gold.Protein.ActiveResidues>
 VAL166  LYS551  ARG553  GLY616  TRP617  ASP618  TYR619  PRO620  LYS621  CYS622 
 ASP623  PHE694  ASN695  SER759  ASP760  ASP761  ALA762  ILE779  LEU786  VAL792 
 PHE793  MET794  SER795  GLU796  ALA797  LYS798  CYS799  TRP800  GLU811  SER814 

> <Gold.Protein.RotatedAtoms>
  150.6866  134.2937  159.4676 H   0  0  0  0  0  0  0  0  0  0  0  0  # atno 6907 bound_to 6896
  152.0839  134.9450  160.0582 H   0  0  0  0  0  0  0  0  0  0  0  0  # atno 6908 bound_to 6896
  152.0792  133.4109  159.4530 H   0  0  0  0  0  0  0  0  0  0  0  0  # atno 6909 bound_to 6896
  144.9382  140.7208  143.4863 H   0  0  0  0  0  0  0  0  0  0  0  0  # atno 7974 bound_to 7965
  156.1360  140.1536  156.8994 H   0  0  0  0  0  0  0  0  0  0  0  0  # atno 8008 bound_to 7997
  154.4947  140.0841  156.7710 H   0  0  0  0  0  0  0  0  0  0  0  0  # atno 8009 bound_to 7997
  155.4169  140.3421  155.4270 H   0  0  0  0  0  0  0  0  0  0  0  0  # atno 8010 bound_to 7997
  140.6256  143.8109  150.7229 H   0  0  0  0  0  0  0  0  0  0  0  0  # atno 10167 bound_to 10162
  157.6584  131.0894  150.6311 H   0  0  0  0  0  0  0  0  0  0  0  0  # atno 10718 bound_to 10713
  153.3326  135.4029  155.1508 H   0  0  0  0  0  0  0  0  0  0  0  0  # atno 10763 bound_to 10752
  154.8626  135.3614  154.5450 H   0  0  0  0  0  0  0  0  0  0  0  0  # atno 10764 bound_to 10752
  153.5890  135.7074  153.5490 H   0  0  0  0  0  0  0  0  0  0  0  0  # atno 10765 bound_to 10752
  141.0040  133.6941  156.2075 H   0  0  0  0  0  0  0  0  0  0  0  0  # atno 11005 bound_to 11000
  145.3034  139.1843  143.4677 LP  0  0  0  0  0  0  0  0  0  0  0  0  # atno 17320 bound_to 7965
  146.3275  140.3028  142.8622 LP  0  0  0  0  0  0  0  0  0  0  0  0  # atno 17321 bound_to 7965
  140.1709  143.4195  152.2002 LP  0  0  0  0  0  0  0  0  0  0  0  0  # atno 17342 bound_to 10162
  139.5477  144.7312  151.4533 LP  0  0  0  0  0  0  0  0  0  0  0  0  # atno 17343 bound_to 10162
  156.6615  130.4513  149.5686 LP  0  0  0  0  0  0  0  0  0  0  0  0  # atno 17370 bound_to 10713
  156.2063  130.6651  151.1222 LP  0  0  0  0  0  0  0  0  0  0  0  0  # atno 17371 bound_to 10713
  140.6843  134.4733  157.5589 LP  0  0  0  0  0  0  0  0  0  0  0  0  # atno 17394 bound_to 11000
  139.9053  134.8463  156.1730 LP  0  0  0  0  0  0  0  0  0  0  0  0  # atno 17395 bound_to 11000

$$$$
