AV-unprocessed.smi:212|AV-procd|sdf|1632|dock5
  -GOLD-   2262019583D 1   1.00000     0.00000
 Structure written by MMmdl.
 65 68  0  0  0  0  0  0  0  0  2 V2000
  149.2220  129.4211  154.3092 C   0  0  0  0  0  0  0  0  0  0  0  0
  148.8796  130.6149  153.3967 C   0  0  1  0  0  0  0  0  0  0  0  0
  147.3596  130.8000  153.2153 C   0  0  0  0  0  0  0  0  0  0  0  0
  147.0703  131.9090  152.2682 N   0  3  1  0  0  0  0  0  0  0  0  0
  145.6222  132.0603  151.9630 C   0  0  0  0  0  0  0  0  0  0  0  0
  145.3575  132.5915  150.5336 C   0  0  0  0  0  0  0  0  0  0  0  0
  146.1257  131.7430  149.5062 C   0  0  0  0  0  0  0  0  0  0  0  0
  143.8573  132.6171  150.1870 C   0  0  0  0  0  0  0  0  0  0  0  0
  145.8622  133.9071  150.4199 O   0  0  0  0  0  0  0  0  0  0  0  0
  147.7111  133.1832  152.6838 C   0  0  0  0  0  0  0  0  0  0  0  0
  149.2247  133.0063  152.9250 C   0  0  0  0  0  0  0  0  0  0  0  0
  149.5174  131.8729  153.7985 N   0  0  0  0  0  0  0  0  0  0  0  0
  149.5642  132.1634  155.1205 C   0  0  0  0  0  0  0  0  0  0  0  0
  150.7398  132.0937  155.7976 N   0  0  0  0  0  0  0  0  0  0  0  0
  150.7794  132.3942  157.0995 C   0  0  0  0  0  0  0  0  0  0  0  0
  149.7815  132.7795  157.8981 N   0  0  0  0  0  0  0  0  0  0  0  0
  148.6009  132.8484  157.2181 C   0  0  0  0  0  0  0  0  0  0  0  0
  148.4060  132.5582  155.8395 C   0  0  0  0  0  0  0  0  0  0  0  0
  147.0722  132.7364  155.4960 N   0  0  0  0  0  0  0  0  0  0  0  0
  146.5066  133.1069  156.6129 C   0  0  0  0  0  0  0  0  0  0  0  0
  147.3504  133.1971  157.6969 N   0  0  0  0  0  0  0  0  0  0  0  0
  146.9853  133.5835  159.0477 C   0  0  0  0  0  0  0  0  0  0  0  0
  147.0469  135.1126  159.3049 C   0  0  1  0  0  0  0  0  0  0  0  0
  146.0635  135.9052  158.4057 C   0  0  0  0  0  0  0  0  0  0  0  0
  144.7165  135.5694  158.6702 O   0  0  0  0  0  0  0  0  0  0  0  0
  146.7931  135.4163  160.8046 C   0  0  1  0  0  0  0  0  0  0  0  0
  147.7103  134.6864  161.7724 C   0  0  0  0  0  0  0  0  0  0  0  0
  147.5537  135.5116  163.0421 C   0  0  0  0  0  0  0  0  0  0  0  0
  147.4377  136.8539  162.5916 O   0  0  0  0  0  0  0  0  0  0  0  0
  147.0433  136.8733  161.2222 C   0  0  0  0  0  0  0  0  0  0  0  0
  148.8155  128.4946  153.9028 H   0  0  0  0  0  0  0  0  0  0  0  0
  148.8123  129.5431  155.3124 H   0  0  0  0  0  0  0  0  0  0  0  0
  150.3011  129.2917  154.3991 H   0  0  0  0  0  0  0  0  0  0  0  0
  149.2946  130.3780  152.4160 H   0  0  0  0  0  0  0  0  0  0  0  0
  146.9257  129.8730  152.8421 H   0  0  0  0  0  0  0  0  0  0  0  0
  146.8807  131.0024  154.1742 H   0  0  0  0  0  0  0  0  0  0  0  0
  145.1021  131.1153  152.1294 H   0  0  0  0  0  0  0  0  0  0  0  0
  145.1744  132.7626  152.6683 H   0  0  0  0  0  0  0  0  0  0  0  0
  145.7883  130.7059  149.5202 H   0  0  0  0  0  0  0  0  0  0  0  0
  147.1971  131.7422  149.7108 H   0  0  0  0  0  0  0  0  0  0  0  0
  145.9855  132.1184  148.4914 H   0  0  0  0  0  0  0  0  0  0  0  0
  143.4181  131.6224  150.2682 H   0  0  0  0  0  0  0  0  0  0  0  0
  143.6926  132.9654  149.1666 H   0  0  0  0  0  0  0  0  0  0  0  0
  143.2980  133.2798  150.8482 H   0  0  0  0  0  0  0  0  0  0  0  0
  145.7862  134.1833  149.5187 H   0  0  0  0  0  0  0  0  0  0  0  0
  147.5585  133.9379  151.9115 H   0  0  0  0  0  0  0  0  0  0  0  0
  147.2204  133.5550  153.5837 H   0  0  0  0  0  0  0  0  0  0  0  0
  149.7285  132.8341  151.9733 H   0  0  0  0  0  0  0  0  0  0  0  0
  149.6514  133.9227  153.3359 H   0  0  0  0  0  0  0  0  0  0  0  0
  151.7492  132.3164  157.5687 H   0  0  0  0  0  0  0  0  0  0  0  0
  145.4500  133.3222  156.6799 H   0  0  0  0  0  0  0  0  0  0  0  0
  145.9826  133.2086  159.2571 H   0  0  0  0  0  0  0  0  0  0  0  0
  147.6566  133.0534  159.7232 H   0  0  0  0  0  0  0  0  0  0  0  0
  148.0584  135.4523  159.0751 H   0  0  0  0  0  0  0  0  0  0  0  0
  146.2049  136.9796  158.5287 H   0  0  0  0  0  0  0  0  0  0  0  0
  146.2278  135.6887  157.3512 H   0  0  0  0  0  0  0  0  0  0  0  0
  144.5763  134.6700  158.4160 H   0  0  0  0  0  0  0  0  0  0  0  0
  145.7625  135.1583  161.0543 H   0  0  0  0  0  0  0  0  0  0  0  0
  147.4368  133.6419  161.9239 H   0  0  0  0  0  0  0  0  0  0  0  0
  148.7442  134.7253  161.4259 H   0  0  0  0  0  0  0  0  0  0  0  0
  146.6369  135.2358  163.5646 H   0  0  0  0  0  0  0  0  0  0  0  0
  148.3892  135.3889  163.7312 H   0  0  0  0  0  0  0  0  0  0  0  0
  147.8560  137.3133  160.6426 H   0  0  0  0  0  0  0  0  0  0  0  0
  146.1595  137.4972  161.0876 H   0  0  0  0  0  0  0  0  0  0  0  0
  147.5104  131.6559  151.3952 H   0  0  0  0  0  0  0  0  0  0  0  0
  1  2  1  0  0  0  0
  1 31  1  0  0  0  0
  1 32  1  0  0  0  0
  1 33  1  0  0  0  0
  2 12  1  0  0  0  0
  2  3  1  0  0  0  0
  2 34  1  0  0  0  0
  3  4  1  0  0  0  0
  3 35  1  0  0  0  0
  3 36  1  0  0  0  0
  4  5  1  0  0  0  0
  4 10  1  0  0  0  0
  4 65  1  0  0  0  0
  5  6  1  0  0  0  0
  5 37  1  0  0  0  0
  5 38  1  0  0  0  0
  6  7  1  0  0  0  0
  6  8  1  0  0  0  0
  6  9  1  0  0  0  0
  7 39  1  0  0  0  0
  7 40  1  0  0  0  0
  7 41  1  0  0  0  0
  8 42  1  0  0  0  0
  8 43  1  0  0  0  0
  8 44  1  0  0  0  0
  9 45  1  0  0  0  0
 10 11  1  0  0  0  0
 10 46  1  0  0  0  0
 10 47  1  0  0  0  0
 11 12  1  0  0  0  0
 11 48  1  0  0  0  0
 11 49  1  0  0  0  0
 12 13  1  0  0  0  0
 13 18  1  0  0  0  0
 13 14  2  0  0  0  0
 14 15  1  0  0  0  0
 15 16  2  0  0  0  0
 15 50  1  0  0  0  0
 16 17  1  0  0  0  0
 17 21  1  0  0  0  0
 17 18  2  0  0  0  0
 18 19  1  0  0  0  0
 19 20  2  0  0  0  0
 20 21  1  0  0  0  0
 20 51  1  0  0  0  0
 21 22  1  0  0  0  0
 22 23  1  0  0  0  0
 22 52  1  0  0  0  0
 22 53  1  0  0  0  0
 23 24  1  0  0  0  0
 23 26  1  0  0  0  0
 23 54  1  0  0  0  0
 24 25  1  0  0  0  0
 24 55  1  0  0  0  0
 24 56  1  0  0  0  0
 25 57  1  0  0  0  0
 26 30  1  0  0  0  0
 26 27  1  0  0  0  0
 26 58  1  0  0  0  0
 27 28  1  0  0  0  0
 27 59  1  0  0  0  0
 27 60  1  0  0  0  0
 28 29  1  0  0  0  0
 28 61  1  0  0  0  0
 28 62  1  0  0  0  0
 29 30  1  0  0  0  0
 30 63  1  0  0  0  0
 30 64  1  0  0  0  0
M  CHG  1   4   1
M  END
> <s_m_source_file>
AV-unprocessed.smi

> <i_m_source_file_index>
212

> <i_lp_mmshare_version>
43012

> <i_f3d_flags>
0

> <s_epik_input>
W0NIM11bQ0BASF0xW0NIMl1OKFtDSDJdQyhbQ0gzXSkoW0NIM10pW09IXSlbQ0gyXVtDSDJdTjFjKG5bY0hdbjIpYyhjMjMpbltjSF1uM1tDSDJdW0NASF0oW0NIMl1bT0hdKVtDQEBIXTRbQ0gyXVtDSDJdT1tDSDJdNA==

> <s_epik_cmdline>
J2VwaWtfcHl0aG9uJywgJy1waCcsICc3LjAnLCAnLXRuJywgJzgnLCAnLW1hJywgJzIwMCcsICctbWV0YWxfYmluZGluZycsICctaW1hZScsICc8aW5maWxlLm1hZT4nLCAnLW9tYWUnLCAnPG91dGZpbGUubWFlPic=

> <r_lp_tautomer_probability>
1

> <r_epik_Ionization_Penalty>
0.00182193

> <r_epik_Ionization_Penalty_Charging>
0.00173996

> <r_epik_Ionization_Penalty_Neutral>
8.19718e-05

> <r_epik_State_Penalty>
-0

> <r_epik_Charging_Adjusted_Penalty>
0.00173996

> <i_epik_Tot_Q>
1

> <i_epik_Tot_abs_Q>
1

> <r_epik_Metal_State_Penalty>
-0

> <b_epik_Metal_Only>
0

> <s_lp_Force_Field>
OPLS_2005

> <r_lp_Energy>
59.0262

> <b_lp_Chiralities_Consistent>
1

> <s_lp_Variant>
AV-unprocessed.smi:212-16

> <Gold.Version>
5.8.1

> <Gold.Id.Protein>
6NUR|6NUR_protein|mol2

> <Gold.PLP.Fitness>
47.7980

> <Gold.PLP.PLP>
-39.1979

> <Gold.PLP.part.hbond>
-3.8259

> <Gold.PLP.part.metal>
0.0000

> <Gold.PLP.part.buried>
-2.6664

> <Gold.PLP.part.nonpolar>
-31.3551

> <Gold.PLP.part.repulsive>
0.1033

> <Gold.PLP.ligand.clash>
0.0000

> <Gold.PLP.ligand.torsion>
0.9532

> <Gold.PLP.Chemscore.Hbond>
3.1246

> <Gold.PLP.Chemscore.CHOScore>
0.0000

> <Gold.PLP.Chemscore.Metal>
0.0000

> <Gold.Chemscore.Hbonds>
donor molecule, donor type, donor heavy atom, donor atom, acceptor molecule, acceptor atom, score
      L1  H     4    65       P1 10747  1.00
      L1  H     9    45       P1  7921  1.00
      P1  H  6896  6908       L1    16  1.00
      P1  H  6931  6943       L1    29  0.12

> <Gold.PLP.Chemscore.Internal.Correction>
1.1326

> <Gold.Rescore>
     Score         DG    S(hbond)    S(metal)    S(lipo)     H(rot)  DE(clash)    DE(int)     intcor
     10.29     -14.88       1.91        0.00     106.46       3.68       0.72       3.87       ----

> <Gold.Chemscore.Fitness>
10.2883

> <Gold.Chemscore.DG>
-14.8821

> <Gold.Chemscore.ZeroCoef>
-5.4800

> <Gold.Chemscore.Hbond>
1.9073

> <Gold.Chemscore.Metal>
0.0000

> <Gold.Chemscore.Lipo>
106.4593

> <Gold.Chemscore.Internal_Hbond>
0.0000

> <Gold.Chemscore.DEClash>
0.7209

> <Gold.Chemscore.DEInternal>
3.8729

> <Gold.Chemscore.Rot>
3.6812

> <Gold.Chemscore.Internal.Correction>
   9.000000E+99

> <Gold.Chemscore.Hbonds>
donor molecule, donor type, donor heavy atom, donor atom, acceptor molecule, acceptor atom, score
      L1  H     4    65       P1 10747  0.93
      L1  H     9    45       P1  7921  0.53
      P1  H  6896  6908       L1    16  0.25

> <Gold.Chemscore.Hbond.Weighted>
-6.3703

> <Gold.Chemscore.Metal.Weighted>
-0.0000

> <Gold.Chemscore.Lipo.Weighted>
-12.4557

> <Gold.Chemscore.Internal_Hbond.Weighted>
0.0000

> <Gold.Chemscore.DEClash.Weighted>
0.7209

> <Gold.Chemscore.DEInternal.Weighted>
3.8729

> <Gold.Chemscore.Rot.Weighted>
9.4239

> <Gold.Chemscore.Internal.Correction.Weighted>
   9.000000E+99

> <Gold.Protein.RotatedTorsions>
[ 6907 6896 6895 6894 ] final  121.14 input  -60.11 | X-H torsion
[ 7974 7965 7964 7962 ] final -126.57 input  175.53 | X-H torsion
[ 8008 7997 7996 7995 ] final   41.64 input   59.86 | X-H torsion
[ 10167 10162 10161 10158 ] final -108.88 input  -65.29 | X-H torsion
[ 10718 10713 10712 10709 ] final   42.29 input   66.30 | X-H torsion
[ 10763 10752 10751 10750 ] final   -7.41 input  -60.55 | X-H torsion
[ 11005 11000 10999 10996 ] final   70.49 input  -57.11 | X-H torsion

> <Gold.Protein.ActiveResidues>
 VAL166  LYS551  ARG553  GLY616  TRP617  ASP618  TYR619  PRO620  LYS621  CYS622 
 ASP623  PHE694  ASN695  SER759  ASP760  ASP761  ALA762  ILE779  LEU786  VAL792 
 PHE793  MET794  SER795  GLU796  ALA797  LYS798  CYS799  TRP800  GLU811  SER814 

> <Gold.Protein.RotatedAtoms>
  152.4345  133.7336  159.6600 H   0  0  0  0  0  0  0  0  0  0  0  0  # atno 6907 bound_to 6896
  150.8227  133.8214  159.3138 H   0  0  0  0  0  0  0  0  0  0  0  0  # atno 6908 bound_to 6896
  151.5892  135.1056  160.0086 H   0  0  0  0  0  0  0  0  0  0  0  0  # atno 6909 bound_to 6896
  144.9859  140.7686  143.4583 H   0  0  0  0  0  0  0  0  0  0  0  0  # atno 7974 bound_to 7965
  155.2730  140.3367  155.4264 H   0  0  0  0  0  0  0  0  0  0  0  0  # atno 8008 bound_to 7997
  156.2124  140.1775  156.7707 H   0  0  0  0  0  0  0  0  0  0  0  0  # atno 8009 bound_to 7997
  154.5705  140.0671  156.8941 H   0  0  0  0  0  0  0  0  0  0  0  0  # atno 8010 bound_to 7997
  140.1614  143.4117  152.1423 H   0  0  0  0  0  0  0  0  0  0  0  0  # atno 10167 bound_to 10162
  157.4032  130.7871  149.7366 H   0  0  0  0  0  0  0  0  0  0  0  0  # atno 10718 bound_to 10713
  153.4259  135.7011  153.6262 H   0  0  0  0  0  0  0  0  0  0  0  0  # atno 10763 bound_to 10752
  153.4697  135.3717  155.2384 H   0  0  0  0  0  0  0  0  0  0  0  0  # atno 10764 bound_to 10752
  154.8724  135.4040  154.3635 H   0  0  0  0  0  0  0  0  0  0  0  0  # atno 10765 bound_to 10752
  139.9595  134.7086  156.0678 H   0  0  0  0  0  0  0  0  0  0  0  0  # atno 11005 bound_to 11000
  145.2354  139.2096  143.5021 LP  0  0  0  0  0  0  0  0  0  0  0  0  # atno 17320 bound_to 7965
  146.3420  140.2239  142.8592 LP  0  0  0  0  0  0  0  0  0  0  0  0  # atno 17321 bound_to 7965
  139.5379  144.7228  151.4830 LP  0  0  0  0  0  0  0  0  0  0  0  0  # atno 17342 bound_to 10162
  140.6641  143.8436  150.6921 LP  0  0  0  0  0  0  0  0  0  0  0  0  # atno 17343 bound_to 10162
  155.9829  130.4005  150.3392 LP  0  0  0  0  0  0  0  0  0  0  0  0  # atno 17370 bound_to 10713
  157.1522  131.0324  151.2879 LP  0  0  0  0  0  0  0  0  0  0  0  0  # atno 17371 bound_to 10713
  141.1270  133.6596  156.3363 LP  0  0  0  0  0  0  0  0  0  0  0  0  # atno 17394 bound_to 11000
  140.5533  134.6006  157.5414 LP  0  0  0  0  0  0  0  0  0  0  0  0  # atno 17395 bound_to 11000

$$$$
