AV-unprocessed.smi:1079|AV-procd|sdf|4704|dock10
  -GOLD-   22720 3233D 1   1.00000     0.00000
 Structure written by MMmdl.
 44 45  0  0  0  0  0  0  0  0  1 V2000
  145.3711  132.3865  151.3084 C   0  0  0  0  0  0  0  0  0  0  0  0
  146.4210  133.2508  151.7036 O   0  0  0  0  0  0  0  0  0  0  0  0
  147.1591  132.7452  152.8040 C   0  0  0  0  0  0  0  0  0  0  0  0
  148.5428  133.4151  152.8436 C   0  0  0  0  0  0  0  0  0  0  0  0
  149.2271  133.2285  154.1091 N   0  0  0  0  0  0  0  0  0  0  0  0
  149.5806  134.2759  154.9659 C   0  0  0  0  0  0  0  0  0  0  0  0
  149.2635  135.5703  154.5808 N   0  0  0  0  0  0  0  0  0  0  0  0
  150.2486  134.0511  156.1366 C   0  0  0  0  0  0  0  0  0  0  0  0
  150.5721  135.1025  157.0153 N   0  0  0  0  0  0  0  0  0  0  0  0
  151.8765  135.7555  156.8235 C   0  0  0  0  0  0  0  0  0  0  0  0
  151.7612  137.2606  156.6513 C   0  0  0  0  0  0  0  0  0  0  0  0
  152.2744  138.1253  157.6411 C   0  0  0  0  0  0  0  0  0  0  0  0
  152.1818  139.5211  157.4803 C   0  0  0  0  0  0  0  0  0  0  0  0
  151.5740  140.0584  156.3292 C   0  0  0  0  0  0  0  0  0  0  0  0
  151.0600  139.1990  155.3390 C   0  0  0  0  0  0  0  0  0  0  0  0
  151.1531  137.8028  155.4995 C   0  0  0  0  0  0  0  0  0  0  0  0
  149.7401  135.4845  158.0192 C   0  0  0  0  0  0  0  0  0  0  0  0
  148.4524  134.6914  158.2725 C   0  0  0  0  0  0  0  0  0  0  0  0
  149.9887  136.4331  158.7634 O   0  0  0  0  0  0  0  0  0  0  0  0
  150.5953  132.6833  156.5482 C   0  0  0  0  0  0  0  0  0  0  0  0
  151.1616  132.3693  157.5944 O   0  0  0  0  0  0  0  0  0  0  0  0
  150.2313  131.6895  155.6440 N   0  0  0  0  0  0  0  0  0  0  0  0
  149.5748  131.8958  154.4363 C   0  0  0  0  0  0  0  0  0  0  0  0
  149.3259  130.9309  153.7126 O   0  0  0  0  0  0  0  0  0  0  0  0
  150.4665  130.7376  155.8848 H   0  0  0  0  0  0  0  0  0  0  0  0
  144.8366  132.8224  150.4643 H   0  0  0  0  0  0  0  0  0  0  0  0
  144.6567  132.2367  152.1190 H   0  0  0  0  0  0  0  0  0  0  0  0
  145.7569  131.4151  150.9968 H   0  0  0  0  0  0  0  0  0  0  0  0
  146.6243  132.9609  153.7300 H   0  0  0  0  0  0  0  0  0  0  0  0
  147.2570  131.6610  152.7324 H   0  0  0  0  0  0  0  0  0  0  0  0
  149.1939  133.0374  152.0562 H   0  0  0  0  0  0  0  0  0  0  0  0
  148.4758  134.4891  152.6606 H   0  0  0  0  0  0  0  0  0  0  0  0
  148.7910  135.7604  153.7086 H   0  0  0  0  0  0  0  0  0  0  0  0
  149.3229  136.3413  155.2308 H   0  0  0  0  0  0  0  0  0  0  0  0
  152.5529  135.5311  157.6500 H   0  0  0  0  0  0  0  0  0  0  0  0
  152.3711  135.3525  155.9387 H   0  0  0  0  0  0  0  0  0  0  0  0
  152.7455  137.7190  158.5242 H   0  0  0  0  0  0  0  0  0  0  0  0
  152.5778  140.1796  158.2391 H   0  0  0  0  0  0  0  0  0  0  0  0
  151.5032  141.1290  156.2060 H   0  0  0  0  0  0  0  0  0  0  0  0
  150.5950  139.6106  154.4553 H   0  0  0  0  0  0  0  0  0  0  0  0
  150.7599  137.1499  154.7342 H   0  0  0  0  0  0  0  0  0  0  0  0
  148.6514  133.6205  158.3238 H   0  0  0  0  0  0  0  0  0  0  0  0
  147.7221  134.8764  157.4849 H   0  0  0  0  0  0  0  0  0  0  0  0
  148.0016  134.9889  159.2200 H   0  0  0  0  0  0  0  0  0  0  0  0
  1  2  1  0  0  0  0
  1 26  1  0  0  0  0
  1 27  1  0  0  0  0
  1 28  1  0  0  0  0
  2  3  1  0  0  0  0
  3  4  1  0  0  0  0
  3 29  1  0  0  0  0
  3 30  1  0  0  0  0
  4  5  1  0  0  0  0
  4 31  1  0  0  0  0
  4 32  1  0  0  0  0
  5 23  1  0  0  0  0
  5  6  1  0  0  0  0
  6  7  1  0  0  0  0
  6  8  2  0  0  0  0
  7 33  1  0  0  0  0
  7 34  1  0  0  0  0
  8  9  1  0  0  0  0
  8 20  1  0  0  0  0
  9 10  1  0  0  0  0
  9 17  1  0  0  0  0
 10 11  1  0  0  0  0
 10 35  1  0  0  0  0
 10 36  1  0  0  0  0
 11 16  1  0  0  0  0
 11 12  2  0  0  0  0
 12 13  1  0  0  0  0
 12 37  1  0  0  0  0
 13 14  2  0  0  0  0
 13 38  1  0  0  0  0
 14 15  1  0  0  0  0
 14 39  1  0  0  0  0
 15 16  2  0  0  0  0
 15 40  1  0  0  0  0
 16 41  1  0  0  0  0
 17 18  1  0  0  0  0
 17 19  2  0  0  0  0
 18 42  1  0  0  0  0
 18 43  1  0  0  0  0
 18 44  1  0  0  0  0
 20 21  2  0  0  0  0
 20 22  1  0  0  0  0
 22 25  1  0  0  0  0
 22 23  1  0  0  0  0
 23 24  2  0  0  0  0
M  END
> <s_m_source_file>
AV-unprocessed.smi

> <i_m_source_file_index>
1079

> <i_lp_mmshare_version>
43012

> <i_f3d_flags>
0

> <s_epik_input>
W0NIM11PW0NIMl1bQ0gyXW4xYyhbTkgyXSljKGMoPU8pW25IXWMxPU8pTihDKD1PKVtDSDNdKVtDSDJdYzJbY0hdW2NIXVtjSF1bY0hdW2NIXTI=

> <s_epik_cmdline>
J2VwaWtfcHl0aG9uJywgJy1waCcsICc3LjAnLCAnLXRuJywgJzgnLCAnLW1hJywgJzIwMCcsICctbWV0YWxfYmluZGluZycsICctaW1hZScsICc8aW5maWxlLm1hZT4nLCAnLW9tYWUnLCAnPG91dGZpbGUubWFlPic=

> <r_lp_tautomer_probability>
1

> <r_epik_Ionization_Penalty>
1.40243e-05

> <r_epik_Ionization_Penalty_Charging>
7.95939e-06

> <r_epik_Ionization_Penalty_Neutral>
6.06489e-06

> <r_epik_State_Penalty>
-0

> <r_epik_Charging_Adjusted_Penalty>
7.95939e-06

> <i_epik_Tot_Q>
0

> <i_epik_Tot_abs_Q>
0

> <r_epik_Metal_State_Penalty>
0.00752988

> <b_epik_Metal_Only>
0

> <s_epik_Chemistry_Notes>
This compound has an imine and may undergo hydrolysis.

> <s_lp_Force_Field>
OPLS_2005

> <r_lp_Energy>
29.3793

> <b_lp_Chiralities_Consistent>
1

> <s_lp_Variant>
AV-unprocessed.smi:1079-1

> <Gold.Version>
5.8.1

> <Gold.Id.Protein>
6NUR|6NUR_protein|mol2

> <Gold.PLP.Fitness>
39.4974

> <Gold.PLP.PLP>
-34.7399

> <Gold.PLP.part.hbond>
-2.0000

> <Gold.PLP.part.metal>
0.0000

> <Gold.PLP.part.buried>
-2.5895

> <Gold.PLP.part.nonpolar>
-29.8047

> <Gold.PLP.part.repulsive>
0.2731

> <Gold.PLP.ligand.clash>
0.0000

> <Gold.PLP.ligand.torsion>
1.7558

> <Gold.PLP.Chemscore.Hbond>
1.9600

> <Gold.PLP.Chemscore.CHOScore>
0.0000

> <Gold.PLP.Chemscore.Metal>
0.0000

> <Gold.Chemscore.Hbonds>
donor molecule, donor type, donor heavy atom, donor atom, acceptor molecule, acceptor atom, score
      L1  H     7    33       P1  7948  0.93
      P1  H  6896  6908       L1    21  1.00

> <Gold.PLP.Chemscore.Internal.Correction>
2.3892

> <Gold.Rescore>
     Score         DG    S(hbond)    S(metal)    S(lipo)     H(rot)  DE(clash)    DE(int)     intcor
     10.12     -13.57       1.81        0.00      61.69       2.02       0.08       3.37       ----

> <Gold.Chemscore.Fitness>
10.1216

> <Gold.Chemscore.DG>
-13.5684

> <Gold.Chemscore.ZeroCoef>
-5.4800

> <Gold.Chemscore.Hbond>
1.8066

> <Gold.Chemscore.Metal>
0.0000

> <Gold.Chemscore.Lipo>
61.6916

> <Gold.Chemscore.Internal_Hbond>
0.0000

> <Gold.Chemscore.DEClash>
0.0802

> <Gold.Chemscore.DEInternal>
3.3666

> <Gold.Chemscore.Rot>
2.0170

> <Gold.Chemscore.Internal.Correction>
   9.000000E+99

> <Gold.Chemscore.Hbonds>
donor molecule, donor type, donor heavy atom, donor atom, acceptor molecule, acceptor atom, score
      L1  H     7    33       P1  7948  0.87
      P1  H  6896  6908       L1    21  1.00

> <Gold.Chemscore.Hbond.Weighted>
-6.0340

> <Gold.Chemscore.Metal.Weighted>
-0.0000

> <Gold.Chemscore.Lipo.Weighted>
-7.2179

> <Gold.Chemscore.Internal_Hbond.Weighted>
0.0000

> <Gold.Chemscore.DEClash.Weighted>
0.0802

> <Gold.Chemscore.DEInternal.Weighted>
3.3666

> <Gold.Chemscore.Rot.Weighted>
5.1636

> <Gold.Chemscore.Internal.Correction.Weighted>
   9.000000E+99

> <Gold.Protein.RotatedTorsions>
[ 6907 6896 6895 6894 ] final   72.77 input  -60.11 | X-H torsion
[ 7974 7965 7964 7962 ] final -178.68 input  175.53 | X-H torsion
[ 8008 7997 7996 7995 ] final -162.51 input   59.86 | X-H torsion
[ 10167 10162 10161 10158 ] final  -18.50 input  -65.29 | X-H torsion
[ 10718 10713 10712 10709 ] final -158.92 input   66.30 | X-H torsion
[ 10763 10752 10751 10750 ] final   -3.02 input  -60.55 | X-H torsion
[ 11005 11000 10999 10996 ] final  -84.50 input  -57.11 | X-H torsion

> <Gold.Protein.ActiveResidues>
 VAL166  LYS551  ARG553  GLY616  TRP617  ASP618  TYR619  PRO620  LYS621  CYS622 
 ASP623  PHE694  ASN695  SER759  ASP760  ASP761  ALA762  ILE779  LEU786  VAL792 
 PHE793  MET794  SER795  GLU796  ALA797  LYS798  CYS799  TRP800  GLU811  SER814 

> <Gold.Protein.RotatedAtoms>
  152.4887  134.4521  159.9577 H   0  0  0  0  0  0  0  0  0  0  0  0  # atno 6907 bound_to 6896
  151.4512  133.3611  159.2803 H   0  0  0  0  0  0  0  0  0  0  0  0  # atno 6908 bound_to 6896
  150.9020  134.8457  159.7427 H   0  0  0  0  0  0  0  0  0  0  0  0  # atno 6909 bound_to 6896
  144.7132  140.0832  143.6424 H   0  0  0  0  0  0  0  0  0  0  0  0  # atno 7974 bound_to 7965
  155.8078  140.0901  157.1921 H   0  0  0  0  0  0  0  0  0  0  0  0  # atno 8008 bound_to 7997
  154.3980  140.1460  156.3410 H   0  0  0  0  0  0  0  0  0  0  0  0  # atno 8009 bound_to 7997
  155.8396  140.3439  155.5626 H   0  0  0  0  0  0  0  0  0  0  0  0  # atno 8010 bound_to 7997
  140.7259  143.4910  150.9991 H   0  0  0  0  0  0  0  0  0  0  0  0  # atno 10167 bound_to 10162
  156.5609  130.8646  151.2809 H   0  0  0  0  0  0  0  0  0  0  0  0  # atno 10718 bound_to 10713
  153.3657  135.6992  153.6677 H   0  0  0  0  0  0  0  0  0  0  0  0  # atno 10763 bound_to 10752
  153.5347  135.3585  155.2692 H   0  0  0  0  0  0  0  0  0  0  0  0  # atno 10764 bound_to 10752
  154.8674  135.4189  154.2925 H   0  0  0  0  0  0  0  0  0  0  0  0  # atno 10765 bound_to 10752
  141.1650  133.7349  156.8876 H   0  0  0  0  0  0  0  0  0  0  0  0  # atno 11005 bound_to 11000
  145.9684  139.2852  143.1113 LP  0  0  0  0  0  0  0  0  0  0  0  0  # atno 17320 bound_to 7965
  145.9143  140.9158  143.0437 LP  0  0  0  0  0  0  0  0  0  0  0  0  # atno 17321 bound_to 7965
  139.8615  143.7309  152.3173 LP  0  0  0  0  0  0  0  0  0  0  0  0  # atno 17342 bound_to 10162
  139.7526  144.7530  151.0484 LP  0  0  0  0  0  0  0  0  0  0  0  0  # atno 17343 bound_to 10162
  157.7369  130.9786  150.2160 LP  0  0  0  0  0  0  0  0  0  0  0  0  # atno 17370 bound_to 10713
  156.2800  130.3732  149.7945 LP  0  0  0  0  0  0  0  0  0  0  0  0  # atno 17371 bound_to 10713
  140.1671  134.9126  157.2787 LP  0  0  0  0  0  0  0  0  0  0  0  0  # atno 17394 bound_to 11000
  140.2545  134.3644  155.7429 LP  0  0  0  0  0  0  0  0  0  0  0  0  # atno 17395 bound_to 11000

$$$$
