AV-unprocessed.smi:1682|AV-procd|sdf|6743|dock3
  -GOLD-   22720 7493D 1   1.00000     0.00000
 Structure written by MMmdl.
 38 39  0  0  0  0  0  0  0  0  1 V2000
  150.8876  140.6401  154.8936 O   0  0  0  0  0  0  0  0  0  0  0  0
  149.7904  141.0772  155.2429 C   0  0  0  0  0  0  0  0  0  0  0  0
  149.6314  141.9295  156.2669 N   0  0  0  0  0  0  0  0  0  0  0  0
  150.7106  142.4284  157.1114 C   0  0  0  0  0  0  0  0  0  0  0  0
  151.3667  141.2932  157.9153 C   0  0  0  0  0  0  0  0  0  0  0  0
  152.0139  141.7915  159.1932 C   0  0  0  0  0  0  0  0  0  0  0  0
  153.2640  141.2866  159.6099 C   0  0  0  0  0  0  0  0  0  0  0  0
  153.8243  141.7837  160.8024 C   0  0  0  0  0  0  0  0  0  0  0  0
  153.1174  142.7619  161.5276 C   0  0  0  0  0  0  0  0  0  0  0  0
  151.8766  143.2021  161.0253 C   0  0  0  0  0  0  0  0  0  0  0  0
  151.3305  142.7325  159.8827 N   0  0  0  0  0  0  0  0  0  0  0  0
  148.5149  140.6455  154.5022 C   0  0  2  0  0  0  0  0  0  0  0  0
  147.8305  141.8464  153.8190 C   0  0  0  0  0  0  0  0  0  0  0  0
  146.5636  142.0566  154.6319 C   0  0  0  0  0  0  0  0  0  0  0  0
  145.8035  143.0055  154.4474 O   0  0  0  0  0  0  0  0  0  0  0  0
  146.4172  141.0935  155.5479 N   0  0  0  0  0  0  0  0  0  0  0  0
  145.3323  140.9752  156.5197 C   0  0  0  0  0  0  0  0  0  0  0  0
  145.2816  142.1726  157.4857 C   0  0  0  0  0  0  0  0  0  0  0  0
  144.4100  141.9089  158.4580 F   0  0  0  0  0  0  0  0  0  0  0  0
  146.4797  142.3766  158.0334 F   0  0  0  0  0  0  0  0  0  0  0  0
  144.8923  143.2820  156.8583 F   0  0  0  0  0  0  0  0  0  0  0  0
  147.4466  140.0713  155.4571 C   0  0  0  0  0  0  0  0  0  0  0  0
  148.6971  142.2433  156.4858 H   0  0  0  0  0  0  0  0  0  0  0  0
  151.4546  142.9443  156.5018 H   0  0  0  0  0  0  0  0  0  0  0  0
  150.2939  143.1739  157.7894 H   0  0  0  0  0  0  0  0  0  0  0  0
  150.6233  140.5353  158.1668 H   0  0  0  0  0  0  0  0  0  0  0  0
  152.1223  140.7901  157.3106 H   0  0  0  0  0  0  0  0  0  0  0  0
  153.7828  140.5370  159.0306 H   0  0  0  0  0  0  0  0  0  0  0  0
  154.7789  141.4211  161.1542 H   0  0  0  0  0  0  0  0  0  0  0  0
  153.5162  143.1651  162.4465 H   0  0  0  0  0  0  0  0  0  0  0  0
  151.3081  143.9517  161.5554 H   0  0  0  0  0  0  0  0  0  0  0  0
  148.7759  139.8941  153.7549 H   0  0  0  0  0  0  0  0  0  0  0  0
  148.4369  142.7539  153.8135 H   0  0  0  0  0  0  0  0  0  0  0  0
  147.5646  141.6132  152.7876 H   0  0  0  0  0  0  0  0  0  0  0  0
  144.3801  140.8774  155.9958 H   0  0  0  0  0  0  0  0  0  0  0  0
  145.4630  140.0520  157.0859 H   0  0  0  0  0  0  0  0  0  0  0  0
  147.0125  139.1590  155.0460 H   0  0  0  0  0  0  0  0  0  0  0  0
  147.8411  139.8306  156.4457 H   0  0  0  0  0  0  0  0  0  0  0  0
  1  2  2  0  0  0  0
  2  3  1  0  0  0  0
  2 12  1  0  0  0  0
  3  4  1  0  0  0  0
  3 23  1  0  0  0  0
  4  5  1  0  0  0  0
  4 24  1  0  0  0  0
  4 25  1  0  0  0  0
  5  6  1  0  0  0  0
  5 26  1  0  0  0  0
  5 27  1  0  0  0  0
  6 11  1  0  0  0  0
  6  7  2  0  0  0  0
  7  8  1  0  0  0  0
  7 28  1  0  0  0  0
  8  9  2  0  0  0  0
  8 29  1  0  0  0  0
  9 10  1  0  0  0  0
  9 30  1  0  0  0  0
 10 11  2  0  0  0  0
 10 31  1  0  0  0  0
 12 22  1  0  0  0  0
 12 13  1  0  0  0  0
 12 32  1  0  0  0  0
 13 14  1  0  0  0  0
 13 33  1  0  0  0  0
 13 34  1  0  0  0  0
 14 15  2  0  0  0  0
 14 16  1  0  0  0  0
 16 17  1  0  0  0  0
 16 22  1  0  0  0  0
 17 18  1  0  0  0  0
 17 35  1  0  0  0  0
 17 36  1  0  0  0  0
 18 19  1  0  0  0  0
 18 20  1  0  0  0  0
 18 21  1  0  0  0  0
 22 37  1  0  0  0  0
 22 38  1  0  0  0  0
M  END
> <s_m_source_file>
AV-unprocessed.smi

> <i_m_source_file_index>
1682

> <i_lp_mmshare_version>
43012

> <i_f3d_flags>
0

> <s_epik_input>
RkMoRikoRilbQ0gyXU4oW0NIMl0xKUMoPU8pW0NIMl1bQ0BIXTFDKD1PKVtOSF1bQ0gyXVtDSDJdYzJbY0hdW2NIXVtjSF1bY0hdbjI=

> <s_epik_cmdline>
J2VwaWtfcHl0aG9uJywgJy1waCcsICc3LjAnLCAnLXRuJywgJzgnLCAnLW1hJywgJzIwMCcsICctbWV0YWxfYmluZGluZycsICctaW1hZScsICc8aW5maWxlLm1hZT4nLCAnLW9tYWUnLCAnPG91dGZpbGUubWFlPic=

> <r_epik_Ionization_Penalty>
0.0252359

> <r_epik_Ionization_Penalty_Charging>
0

> <r_epik_Ionization_Penalty_Neutral>
0.0252359

> <r_epik_State_Penalty>
0.020532

> <r_epik_Charging_Adjusted_Penalty>
0.020532

> <i_epik_Tot_Q>
0

> <i_epik_Tot_abs_Q>
0

> <r_epik_Metal_State_Penalty>
0.0196899

> <b_epik_Metal_Only>
0

> <s_lp_Force_Field>
OPLS_2005

> <r_lp_Energy>
9.5977

> <b_lp_Chiralities_Consistent>
1

> <s_lp_Variant>
AV-unprocessed.smi:1682-1

> <Gold.Version>
5.8.1

> <Gold.Id.Protein>
6NUR|6NUR_protein|mol2

> <Gold.PLP.Fitness>
41.7779

> <Gold.PLP.PLP>
-39.7437

> <Gold.PLP.part.hbond>
-2.3093

> <Gold.PLP.part.metal>
0.0000

> <Gold.PLP.part.buried>
-6.6734

> <Gold.PLP.part.nonpolar>
-30.9407

> <Gold.PLP.part.repulsive>
0.3550

> <Gold.PLP.ligand.clash>
0.0000

> <Gold.PLP.ligand.torsion>
0.5345

> <Gold.PLP.Chemscore.Hbond>
1.0000

> <Gold.PLP.Chemscore.CHOScore>
0.0000

> <Gold.PLP.Chemscore.Metal>
0.0000

> <Gold.Chemscore.Hbonds>
donor molecule, donor type, donor heavy atom, donor atom, acceptor molecule, acceptor atom, score
      P1  H  7989  7998       L1     1  0.96

> <Gold.PLP.Chemscore.Internal.Correction>
0.1031

> <Gold.Rescore>
     Score         DG    S(hbond)    S(metal)    S(lipo)     H(rot)  DE(clash)    DE(int)     intcor
     11.41     -13.35       0.94        0.00      86.14       2.09       0.01       1.93       ----

> <Gold.Chemscore.Fitness>
11.4095

> <Gold.Chemscore.DG>
-13.3456

> <Gold.Chemscore.ZeroCoef>
-5.4800

> <Gold.Chemscore.Hbond>
0.9381

> <Gold.Chemscore.Metal>
0.0000

> <Gold.Chemscore.Lipo>
86.1440

> <Gold.Chemscore.Internal_Hbond>
0.0000

> <Gold.Chemscore.DEClash>
0.0102

> <Gold.Chemscore.DEInternal>
1.9258

> <Gold.Chemscore.Rot>
2.0884

> <Gold.Chemscore.Internal.Correction>
   9.000000E+99

> <Gold.Chemscore.Hbonds>
donor molecule, donor type, donor heavy atom, donor atom, acceptor molecule, acceptor atom, score
      P1  H  7989  7998       L1     1  0.91

> <Gold.Chemscore.Hbond.Weighted>
-3.1331

> <Gold.Chemscore.Metal.Weighted>
-0.0000

> <Gold.Chemscore.Lipo.Weighted>
-10.0788

> <Gold.Chemscore.Internal_Hbond.Weighted>
0.0000

> <Gold.Chemscore.DEClash.Weighted>
0.0102

> <Gold.Chemscore.DEInternal.Weighted>
1.9258

> <Gold.Chemscore.Rot.Weighted>
5.3464

> <Gold.Chemscore.Internal.Correction.Weighted>
   9.000000E+99

> <Gold.Protein.RotatedTorsions>
[ 6907 6896 6895 6894 ] final  124.50 input  -60.11 | X-H torsion
[ 7974 7965 7964 7962 ] final  -79.41 input  175.53 | X-H torsion
[ 8008 7997 7996 7995 ] final -145.02 input   59.86 | X-H torsion
[ 10167 10162 10161 10158 ] final   76.48 input  -65.29 | X-H torsion
[ 10718 10713 10712 10709 ] final   68.98 input   66.30 | X-H torsion
[ 10763 10752 10751 10750 ] final  -49.61 input  -60.55 | X-H torsion
[ 11005 11000 10999 10996 ] final   44.30 input  -57.11 | X-H torsion

> <Gold.Protein.ActiveResidues>
 VAL166  LYS551  ARG553  GLY616  TRP617  ASP618  TYR619  PRO620  LYS621  CYS622 
 ASP623  PHE694  ASN695  SER759  ASP760  ASP761  ALA762  ILE779  LEU786  VAL792 
 PHE793  MET794  SER795  GLU796  ALA797  LYS798  CYS799  TRP800  GLU811  SER814 

> <Gold.Protein.RotatedAtoms>
  152.4073  133.6908  159.6366 H   0  0  0  0  0  0  0  0  0  0  0  0  # atno 6907 bound_to 6896
  150.7956  133.8687  159.3261 H   0  0  0  0  0  0  0  0  0  0  0  0  # atno 6908 bound_to 6896
  151.6438  135.1011  160.0198 H   0  0  0  0  0  0  0  0  0  0  0  0  # atno 6909 bound_to 6896
  145.5736  140.9461  143.1382 H   0  0  0  0  0  0  0  0  0  0  0  0  # atno 7974 bound_to 7965
  155.5364  140.0604  157.2879 H   0  0  0  0  0  0  0  0  0  0  0  0  # atno 8008 bound_to 7997
  154.4467  140.1927  156.0590 H   0  0  0  0  0  0  0  0  0  0  0  0  # atno 8009 bound_to 7997
  156.0616  140.3271  155.7472 H   0  0  0  0  0  0  0  0  0  0  0  0  # atno 8010 bound_to 7997
  139.9918  144.5751  150.7811 H   0  0  0  0  0  0  0  0  0  0  0  0  # atno 10167 bound_to 10162
  157.6320  130.9402  150.0451 H   0  0  0  0  0  0  0  0  0  0  0  0  # atno 10718 bound_to 10713
  154.0969  135.6569  153.4862 H   0  0  0  0  0  0  0  0  0  0  0  0  # atno 10763 bound_to 10752
  153.0302  135.5216  154.7325 H   0  0  0  0  0  0  0  0  0  0  0  0  # atno 10764 bound_to 10752
  154.6465  135.2995  155.0008 H   0  0  0  0  0  0  0  0  0  0  0  0  # atno 10765 bound_to 10752
  140.1564  134.4396  155.8347 H   0  0  0  0  0  0  0  0  0  0  0  0  # atno 11005 bound_to 11000
  144.7426  139.7407  143.7305 LP  0  0  0  0  0  0  0  0  0  0  0  0  # atno 17320 bound_to 7965
  146.1766  139.4940  142.9893 LP  0  0  0  0  0  0  0  0  0  0  0  0  # atno 17321 bound_to 7965
  140.7452  143.2871  151.3432 LP  0  0  0  0  0  0  0  0  0  0  0  0  # atno 17342 bound_to 10162
  139.6334  144.0677  152.2495 LP  0  0  0  0  0  0  0  0  0  0  0  0  # atno 17343 bound_to 10162
  156.1530  130.3642  149.9410 LP  0  0  0  0  0  0  0  0  0  0  0  0  # atno 17370 bound_to 10713
  156.7425  130.9085  151.3633 LP  0  0  0  0  0  0  0  0  0  0  0  0  # atno 17371 bound_to 10713
  141.2205  133.6894  156.7515 LP  0  0  0  0  0  0  0  0  0  0  0  0  # atno 17394 bound_to 11000
  140.2542  134.8517  157.3697 LP  0  0  0  0  0  0  0  0  0  0  0  0  # atno 17395 bound_to 11000

$$$$
