AV-unprocessed.smi:1831|AV-procd|sdf|7463|dock2
  -GOLD-   22720 9153D 1   1.00000     0.00000
 Structure written by MMmdl.
 40 41  0  0  0  0  0  0  0  0  3 V2000
  154.1454  140.5733  160.4481 C   0  0  0  0  0  0  0  0  0  0  0  0
  153.2461  140.5074  159.2616 C   0  0  0  0  0  0  0  0  0  0  0  0
  153.4078  139.6175  158.2795 N   0  0  0  0  0  0  0  0  0  0  0  0
  152.4472  139.7526  157.2880 N   0  0  0  0  0  0  0  0  0  0  0  0
  151.5677  140.7324  157.5384 C   0  0  0  0  0  0  0  0  0  0  0  0
  150.5578  141.0250  156.7024 N   0  5  0  0  0  0  0  0  0  0  0  0
  150.3835  140.2971  155.5775 C   0  0  0  0  0  0  0  0  0  0  0  0
  151.2733  139.7718  154.9029 O   0  0  0  0  0  0  0  0  0  0  0  0
  149.0980  140.1456  155.2236 N   0  0  0  0  0  0  0  0  0  0  0  0
  148.6132  139.3908  154.0711 C   0  0  0  0  0  0  0  0  0  0  0  0
  147.0966  139.5748  153.8260 C   0  0  1  0  0  0  0  0  0  0  0  0
  146.8182  140.0122  152.3866 C   0  0  0  0  0  0  0  0  0  0  0  0
  146.6167  138.7028  151.6063 C   0  0  0  0  0  0  0  0  0  0  0  0
  146.4876  137.6166  152.6096 N   0  3  2  0  0  0  0  0  0  0  0  0
  145.5206  136.5366  152.2686 C   0  0  0  0  0  0  0  0  0  0  0  0
  145.6562  135.3325  153.2202 C   0  0  0  0  0  0  0  0  0  0  0  0
  145.7086  136.0660  150.8143 C   0  0  0  0  0  0  0  0  0  0  0  0
  146.2746  138.2841  153.9094 C   0  0  0  0  0  0  0  0  0  0  0  0
  151.8826  141.5918  159.0460 S   0  0  0  0  0  0  0  0  0  0  0  0
  153.7717  139.9170  161.2339 H   0  0  0  0  0  0  0  0  0  0  0  0
  154.1883  141.5923  160.8326 H   0  0  0  0  0  0  0  0  0  0  0  0
  155.1547  140.2606  160.1786 H   0  0  0  0  0  0  0  0  0  0  0  0
  148.4026  140.5920  155.8040 H   0  0  0  0  0  0  0  0  0  0  0  0
  149.1634  139.7389  153.1966 H   0  0  0  0  0  0  0  0  0  0  0  0
  148.8630  138.3334  154.1728 H   0  0  0  0  0  0  0  0  0  0  0  0
  146.7159  140.3107  154.5355 H   0  0  0  0  0  0  0  0  0  0  0  0
  145.8974  140.5964  152.3571 H   0  0  0  0  0  0  0  0  0  0  0  0
  147.6101  140.6340  151.9669 H   0  0  0  0  0  0  0  0  0  0  0  0
  145.7288  138.7807  150.9773 H   0  0  0  0  0  0  0  0  0  0  0  0
  147.4683  138.4910  150.9589 H   0  0  0  0  0  0  0  0  0  0  0  0
  144.5112  136.9378  152.3717 H   0  0  0  0  0  0  0  0  0  0  0  0
  144.9919  134.5212  152.9219 H   0  0  0  0  0  0  0  0  0  0  0  0
  145.3938  135.5909  154.2461 H   0  0  0  0  0  0  0  0  0  0  0  0
  146.6747  134.9417  153.2227 H   0  0  0  0  0  0  0  0  0  0  0  0
  145.0147  135.2608  150.5716 H   0  0  0  0  0  0  0  0  0  0  0  0
  146.7192  135.6912  150.6486 H   0  0  0  0  0  0  0  0  0  0  0  0
  145.5285  136.8662  150.0969 H   0  0  0  0  0  0  0  0  0  0  0  0
  146.5348  137.6512  154.7558 H   0  0  0  0  0  0  0  0  0  0  0  0
  145.2176  138.5355  154.0126 H   0  0  0  0  0  0  0  0  0  0  0  0
  147.3993  137.1860  152.6770 H   0  0  0  0  0  0  0  0  0  0  0  0
  1  2  1  0  0  0  0
  1 20  1  0  0  0  0
  1 21  1  0  0  0  0
  1 22  1  0  0  0  0
  2 19  1  0  0  0  0
  2  3  2  0  0  0  0
  3  4  1  0  0  0  0
  4  5  2  0  0  0  0
  5  6  1  0  0  0  0
  5 19  1  0  0  0  0
  6  7  1  0  0  0  0
  7  8  2  0  0  0  0
  7  9  1  0  0  0  0
  9 10  1  0  0  0  0
  9 23  1  0  0  0  0
 10 11  1  0  0  0  0
 10 24  1  0  0  0  0
 10 25  1  0  0  0  0
 11 18  1  0  0  0  0
 11 12  1  0  0  0  0
 11 26  1  0  0  0  0
 12 13  1  0  0  0  0
 12 27  1  0  0  0  0
 12 28  1  0  0  0  0
 13 14  1  0  0  0  0
 13 29  1  0  0  0  0
 13 30  1  0  0  0  0
 14 15  1  0  0  0  0
 14 18  1  0  0  0  0
 14 40  1  0  0  0  0
 15 16  1  0  0  0  0
 15 17  1  0  0  0  0
 15 31  1  0  0  0  0
 16 32  1  0  0  0  0
 16 33  1  0  0  0  0
 16 34  1  0  0  0  0
 17 35  1  0  0  0  0
 17 36  1  0  0  0  0
 17 37  1  0  0  0  0
 18 38  1  0  0  0  0
 18 39  1  0  0  0  0
M  CHG  1   6  -1
M  CHG  1  14   1
M  END
> <s_m_source_file>
AV-unprocessed.smi

> <i_m_source_file_index>
1831

> <i_lp_mmshare_version>
43012

> <i_f3d_flags>
0

> <s_epik_input>
W0NIM11jMW5uYyhzMSlbTkhdQyg9TylbTkhdW0NIMl1bQ0BASF0yW0NIMl1bQ0gyXU4oW0NIMl0yKVtDSF0oW0NIM10pW0NIM10=

> <s_epik_cmdline>
J2VwaWtfcHl0aG9uJywgJy1waCcsICc3LjAnLCAnLXRuJywgJzgnLCAnLW1hJywgJzIwMCcsICctbWV0YWxfYmluZGluZycsICctaW1hZScsICc8aW5maWxlLm1hZT4nLCAnLW9tYWUnLCAnPG91dGZpbGUubWFlPic=

> <r_lp_tautomer_probability>
1

> <r_epik_Ionization_Penalty>
4.24531

> <r_epik_Ionization_Penalty_Charging>
4.11954

> <r_epik_Ionization_Penalty_Neutral>
0.125766

> <r_epik_State_Penalty>
4.11879

> <r_epik_Charging_Adjusted_Penalty>
8.23833

> <i_epik_Tot_Q>
0

> <i_epik_Tot_abs_Q>
2

> <r_epik_Metal_State_Penalty>
0.659341

> <b_epik_Metal_Only>
1

> <s_lp_Force_Field>
OPLS_2005

> <r_lp_Energy>
23.48

> <b_lp_Chiralities_Consistent>
1

> <s_lp_Variant>
AV-unprocessed.smi:1831-8

> <Gold.Version>
5.8.1

> <Gold.Id.Protein>
6NUR|6NUR_protein|mol2

> <Gold.PLP.Fitness>
40.1124

> <Gold.PLP.PLP>
-30.4011

> <Gold.PLP.part.hbond>
-4.0000

> <Gold.PLP.part.metal>
0.0000

> <Gold.PLP.part.buried>
-0.9584

> <Gold.PLP.part.nonpolar>
-26.8599

> <Gold.PLP.part.repulsive>
0.2188

> <Gold.PLP.ligand.clash>
0.0000

> <Gold.PLP.ligand.torsion>
1.1027

> <Gold.PLP.Chemscore.Hbond>
3.9280

> <Gold.PLP.Chemscore.CHOScore>
0.0000

> <Gold.PLP.Chemscore.Metal>
0.0000

> <Gold.Chemscore.Hbonds>
donor molecule, donor type, donor heavy atom, donor atom, acceptor molecule, acceptor atom, score
      L1  H    14    40       P1  7948  2.00
      P1  H  7989  7998       L1     8  1.00
      P1  H  7997  8009       L1     3  0.88

> <Gold.PLP.Chemscore.Internal.Correction>
0.1327

> <Gold.Rescore>
     Score         DG    S(hbond)    S(metal)    S(lipo)     H(rot)  DE(clash)    DE(int)     intcor
     15.25     -18.04       2.38        0.00      72.64       1.51       0.15       2.65       ----

> <Gold.Chemscore.Fitness>
15.2474

> <Gold.Chemscore.DG>
-18.0407

> <Gold.Chemscore.ZeroCoef>
-5.4800

> <Gold.Chemscore.Hbond>
2.3757

> <Gold.Chemscore.Metal>
0.0000

> <Gold.Chemscore.Lipo>
72.6450

> <Gold.Chemscore.Internal_Hbond>
0.0000

> <Gold.Chemscore.DEClash>
0.1454

> <Gold.Chemscore.DEInternal>
2.6478

> <Gold.Chemscore.Rot>
1.5131

> <Gold.Chemscore.Internal.Correction>
   9.000000E+99

> <Gold.Chemscore.Hbonds>
donor molecule, donor type, donor heavy atom, donor atom, acceptor molecule, acceptor atom, score
      L1  H    14    40       P1  7948  0.92
      P1  H  7989  7998       L1     8  0.65
      P1  H  7997  8009       L1     3  0.13

> <Gold.Chemscore.Hbond.Weighted>
-7.9347

> <Gold.Chemscore.Metal.Weighted>
-0.0000

> <Gold.Chemscore.Lipo.Weighted>
-8.4995

> <Gold.Chemscore.Internal_Hbond.Weighted>
0.0000

> <Gold.Chemscore.DEClash.Weighted>
0.1454

> <Gold.Chemscore.DEInternal.Weighted>
2.6478

> <Gold.Chemscore.Rot.Weighted>
3.8735

> <Gold.Chemscore.Internal.Correction.Weighted>
   9.000000E+99

> <Gold.Protein.RotatedTorsions>
[ 6907 6896 6895 6894 ] final  174.64 input  -60.11 | X-H torsion
[ 7974 7965 7964 7962 ] final   74.90 input  175.53 | X-H torsion
[ 8008 7997 7996 7995 ] final  132.31 input   59.86 | X-H torsion
[ 10167 10162 10161 10158 ] final  -78.30 input  -65.29 | X-H torsion
[ 10718 10713 10712 10709 ] final  -36.49 input   66.30 | X-H torsion
[ 10763 10752 10751 10750 ] final -118.18 input  -60.55 | X-H torsion
[ 11005 11000 10999 10996 ] final -140.59 input  -57.11 | X-H torsion

> <Gold.Protein.ActiveResidues>
 VAL166  LYS551  ARG553  GLY616  TRP617  ASP618  TYR619  PRO620  LYS621  CYS622 
 ASP623  PHE694  ASN695  SER759  ASP760  ASP761  ALA762  ILE779  LEU786  VAL792 
 PHE793  MET794  SER795  GLU796  ALA797  LYS798  CYS799  TRP800  GLU811  SER814 

> <Gold.Protein.RotatedAtoms>
  151.7490  133.3326  159.3385 H   0  0  0  0  0  0  0  0  0  0  0  0  # atno 6907 bound_to 6896
  150.7543  134.6210  159.6145 H   0  0  0  0  0  0  0  0  0  0  0  0  # atno 6908 bound_to 6896
  152.3481  134.7045  160.0296 H   0  0  0  0  0  0  0  0  0  0  0  0  # atno 6909 bound_to 6896
  145.7225  139.2653  143.1588 H   0  0  0  0  0  0  0  0  0  0  0  0  # atno 7974 bound_to 7965
  156.2981  140.2549  156.3068 H   0  0  0  0  0  0  0  0  0  0  0  0  # atno 8008 bound_to 7997
  154.9364  140.0397  157.2093 H   0  0  0  0  0  0  0  0  0  0  0  0  # atno 8009 bound_to 7997
  154.8168  140.2853  155.5819 H   0  0  0  0  0  0  0  0  0  0  0  0  # atno 8010 bound_to 7997
  140.4695  143.2431  151.8227 H   0  0  0  0  0  0  0  0  0  0  0  0  # atno 10167 bound_to 10162
  156.3263  130.4273  149.7914 H   0  0  0  0  0  0  0  0  0  0  0  0  # atno 10718 bound_to 10713
  154.8579  135.4283  154.2098 H   0  0  0  0  0  0  0  0  0  0  0  0  # atno 10763 bound_to 10752
  153.3126  135.6977  153.7108 H   0  0  0  0  0  0  0  0  0  0  0  0  # atno 10764 bound_to 10752
  153.6194  135.3504  155.2980 H   0  0  0  0  0  0  0  0  0  0  0  0  # atno 10765 bound_to 10752
  140.8407  134.2405  157.4811 H   0  0  0  0  0  0  0  0  0  0  0  0  # atno 11005 bound_to 11000
  146.0613  140.7968  142.9733 LP  0  0  0  0  0  0  0  0  0  0  0  0  # atno 17320 bound_to 7965
  144.6913  140.3201  143.7234 LP  0  0  0  0  0  0  0  0  0  0  0  0  # atno 17321 bound_to 7965
  139.4816  144.4910  151.9185 LP  0  0  0  0  0  0  0  0  0  0  0  0  # atno 17342 bound_to 10162
  140.3995  144.2512  150.5894 LP  0  0  0  0  0  0  0  0  0  0  0  0  # atno 17343 bound_to 10162
  156.5203  130.8212  151.3201 LP  0  0  0  0  0  0  0  0  0  0  0  0  # atno 17370 bound_to 10713
  157.7422  130.9885  150.2498 LP  0  0  0  0  0  0  0  0  0  0  0  0  # atno 17371 bound_to 10713
  139.8703  134.9634  156.4461 LP  0  0  0  0  0  0  0  0  0  0  0  0  # atno 17394 bound_to 11000
  140.8898  133.7857  155.9559 LP  0  0  0  0  0  0  0  0  0  0  0  0  # atno 17395 bound_to 11000

$$$$
