#       Name:                AV-unprocessed.smi:1295
#       Creating user name   scv26
#       Creation time:       Fri Mar 27 04:56:50 2020


#       File generated by GOLD software.
#

@<TRIPOS>MOLECULE
AV-unprocessed.smi:1295
    48    49     1
SMALL
NO_CHARGES


@<TRIPOS>ATOM
      1 ****        -6.5392  -1.5346  -1.2516 C.3            1 S1                 0.0000
      2 ****        -5.0271  -1.4721  -1.2712 C.2            1 S1                 0.0000
      3 ****        -4.4504  -0.3646  -1.5455 N.2            1 S1                 0.0000
      4 ****        -3.0467  -0.3012  -1.5603 C.2            1 S1                 0.0000
      5 ****        -2.4473   1.0534  -1.8969 C.3            1 S1                 0.0000
      6 ****        -2.2876  -1.4005  -1.2850 C.2            1 S1                 0.0000
      7 ****        -0.7595  -1.3811  -1.2879 C.3            1 S1                 0.0000
      8 ****        -0.1026  -0.8007  -0.0339 C.2            1 S1                 0.0000
      9 ****        -0.5810  -1.0235   1.0781 O.2            1 S1                 0.0000
     10 ****         0.9942  -0.0533  -0.2335 N.am           1 S1                 0.0000
     11 ****         1.7631   0.6386   0.7996 C.3            1 S1                 0.0000
     12 ****         1.9207   2.1148   0.3849 C.3            1 S1                 0.0000
     13 ****         2.7781   2.9010   1.3868 C.3            1 S1                 0.0000
     14 ****         4.1484   2.2373   1.5759 C.3            1 S1                 0.0000
     15 ****         3.9937   0.7730   2.0121 C.3            1 S1                 0.0000
     16 ****         3.1413  -0.0388   1.0156 C.3            1 S1                 0.0000
     17 ****         3.0202  -1.5008   1.4818 C.3            1 S1                 0.0000
     18 ****        -2.9913  -2.6571  -0.9718 C.2            1 S1                 0.0000
     19 ****        -2.3556  -3.6763  -0.7056 O.2            1 S1                 0.0000
     20 ****        -4.3547  -2.6393  -0.9870 N.pl3          1 S1                -1.0000
     21 ****        -6.9745  -0.5354  -1.2952 H              1 S1                 0.0000
     22 ****        -6.8885  -2.0179  -0.3386 H              1 S1                 0.0000
     23 ****        -6.9023  -2.1056  -2.1063 H              1 S1                 0.0000
     24 ****        -1.8577   0.9942  -2.8119 H              1 S1                 0.0000
     25 ****        -1.8029   1.4006  -1.0890 H              1 S1                 0.0000
     26 ****        -3.2255   1.8027  -2.0478 H              1 S1                 0.0000
     27 ****        -0.3570  -2.3815  -1.4488 H              1 S1                 0.0000
     28 ****        -0.4299  -0.8103  -2.1567 H              1 S1                 0.0000
     29 ****         1.3103   0.0655  -1.1849 H              1 S1                 0.0000
     30 ****         1.2203   0.6191   1.7466 H              1 S1                 0.0000
     31 ****         2.3787   2.1747  -0.6036 H              1 S1                 0.0000
     32 ****         0.9393   2.5833   0.2982 H              1 S1                 0.0000
     33 ****         2.9060   3.9273   1.0418 H              1 S1                 0.0000
     34 ****         2.2622   2.9576   2.3462 H              1 S1                 0.0000
     35 ****         4.7126   2.2852   0.6435 H              1 S1                 0.0000
     36 ****         4.7285   2.7869   2.3177 H              1 S1                 0.0000
     37 ****         4.9803   0.3199   2.1142 H              1 S1                 0.0000
     38 ****         3.5356   0.7371   3.0016 H              1 S1                 0.0000
     39 ****         3.6691  -0.0436   0.0606 H              1 S1                 0.0000
     40 ****         2.4571  -1.5727   2.4127 H              1 S1                 0.0000
     41 ****         4.0030  -1.9405   1.6534 H              1 S1                 0.0000
     42 ****         2.5168  -2.1207   0.7399 H              1 S1                 0.0000
     43 ****        -4.9938   0.4501  -1.7479 LP             1 S1                 0.0000
     44 ****        -1.4030  -1.5863   1.1652 LP             1 S1                 0.0000
     45 ****        -0.1476  -0.6417   1.8945 LP             1 S1                 0.0000
     46 ****        -1.3558  -3.6551  -0.7009 LP             1 S1                 0.0000
     47 ****        -2.8386  -4.5259  -0.4939 LP             1 S1                 0.0000
     48 ****        -4.8670  -3.4755  -0.7913 LP             1 S1                 0.0000
@<TRIPOS>BOND
    1    1    2 1     
    2    1   21 1     
    3    1   22 1     
    4    1   23 1     
    5    2   20 1     
    6    2    3 2     
    7    3    4 1     
    8    4    5 1     
    9    4    6 2     
   10    5   24 1     
   11    5   25 1     
   12    5   26 1     
   13    6    7 1     
   14    6   18 1     
   15    7    8 1     
   16    7   27 1     
   17    7   28 1     
   18    8    9 2     
   19    8   10 am    
   20   10   11 1     
   21   10   29 1     
   22   11   16 1     
   23   11   12 1     
   24   11   30 1     
   25   12   13 1     
   26   12   31 1     
   27   12   32 1     
   28   13   14 1     
   29   13   33 1     
   30   13   34 1     
   31   14   15 1     
   32   14   35 1     
   33   14   36 1     
   34   15   16 1     
   35   15   37 1     
   36   15   38 1     
   37   16   17 1     
   38   16   39 1     
   39   17   40 1     
   40   17   41 1     
   41   17   42 1     
   42   18   19 2     
   43   18   20 1     
   44    3   43 1     
   45    9   44 1     
   46    9   45 1     
   47   19   46 1     
   48   19   47 1     
   49   20   48 1     
@<TRIPOS>SUBSTRUCTURE
      1 S1             1
@<TRIPOS>SET
LONE_PAIRS      STATIC     ATOMS    <user>   **** ""
6 43 44 45 46 47 48
DONOR_HYDROGENS      STATIC     ATOMS    <user>   **** ""
1 29
ATOM$BLUE        STATIC     ATOMS    COLORGROUP SYSTEM
6 43 44 45 46 47 48
ATOM$RED        STATIC     ATOMS    COLORGROUP SYSTEM
1 29
