#       Name:                AV-unprocessed.smi:2821
#       Creating user name   scv26
#       Creation time:       Fri Mar 27 15:30:11 2020


#       File generated by GOLD software.
#

@<TRIPOS>MOLECULE
AV-unprocessed.smi:2821
    42    43     1
SMALL
NO_CHARGES


@<TRIPOS>ATOM
      1 ****        -3.5207   2.7456   0.7086 C.3            1 S1                 0.0000
      2 ****        -2.5301   1.5795   0.7354 C.3            1 S1                 0.0000
      3 ****        -3.2606   0.3564   0.7290 O.3            1 S1                 0.0000
      4 ****        -2.5510  -0.8267   0.7155 C.ar           1 S1                 0.0000
      5 ****        -3.2426  -2.0552   0.6532 C.ar           1 S1                 0.0000
      6 ****        -2.5938  -3.2402   0.6214 N.ar           1 S1                 0.0000
      7 ****        -1.2434  -3.1923   0.6490 C.ar           1 S1                 0.0000
      8 ****        -0.5370  -1.9709   0.7134 C.ar           1 S1                 0.0000
      9 ****         0.8660  -1.9882   0.7366 N.pl3          1 S1                 0.0000
     10 ****         1.6618  -0.7647   0.6757 C.3            1 S1                 0.0000
     11 ****         2.9912  -1.0036   1.4101 C.3            1 S1                 0.0000
     12 ****         1.8882  -0.3189  -0.7882 C.3            1 S1                 0.0000
     13 ****         2.7265   0.9533  -0.9378 C.3            1 S1                 0.0000
     14 ****         2.2771   1.4716  -2.2837 C.3            1 S1                 0.0000
     15 ****         0.7864   1.1596  -2.2474 C.3            1 S1                 0.0000
     16 ****         0.6537  -0.0003  -1.4314 O.3            1 S1                 0.0000
     17 ****        -1.1957  -0.7883   0.7558 N.ar           1 S1                 0.0000
     18 ****        -2.9966   3.7014   0.7132 H              1 S1                 0.0000
     19 ****        -4.1786   2.7202   1.5775 H              1 S1                 0.0000
     20 ****        -4.1429   2.7096  -0.1859 H              1 S1                 0.0000
     21 ****        -1.8753   1.6374  -0.1357 H              1 S1                 0.0000
     22 ****        -1.9087   1.6464   1.6298 H              1 S1                 0.0000
     23 ****        -4.3216  -2.0869   0.6232 H              1 S1                 0.0000
     24 ****        -0.7236  -4.1389   0.6183 H              1 S1                 0.0000
     25 ****         1.3459  -2.8739   0.6687 H              1 S1                 0.0000
     26 ****         1.1409   0.0310   1.2092 H              1 S1                 0.0000
     27 ****         3.5916  -0.0953   1.4604 H              1 S1                 0.0000
     28 ****         3.5878  -1.7703   0.9145 H              1 S1                 0.0000
     29 ****         2.8179  -1.3292   2.4364 H              1 S1                 0.0000
     30 ****         2.3593  -1.1212  -1.3585 H              1 S1                 0.0000
     31 ****         2.4731   1.6743  -0.1591 H              1 S1                 0.0000
     32 ****         3.7995   0.7644  -0.8939 H              1 S1                 0.0000
     33 ****         2.4886   2.5311  -2.4308 H              1 S1                 0.0000
     34 ****         2.7613   0.9087  -3.0828 H              1 S1                 0.0000
     35 ****         0.2362   1.9763  -1.7784 H              1 S1                 0.0000
     36 ****         0.3709   0.9974  -3.2421 H              1 S1                 0.0000
     37 ****        -3.8422   0.3627  -0.0845 LP             1 S1                 0.0000
     38 ****        -3.8338   0.3491   1.5484 LP             1 S1                 0.0000
     39 ****        -3.0879  -4.1086   0.5796 LP             1 S1                 0.0000
     40 ****        -0.0438   0.1682  -0.7348 LP             1 S1                 0.0000
     41 ****         0.3743  -0.7718  -2.0030 LP             1 S1                 0.0000
     42 ****        -0.7022   0.0794   0.8146 LP             1 S1                 0.0000
@<TRIPOS>BOND
    1    1    2 1     
    2    1   18 1     
    3    1   19 1     
    4    1   20 1     
    5    2    3 1     
    6    2   21 1     
    7    2   22 1     
    8    3    4 1     
    9    4   17 ar    
   10    4    5 ar    
   11    5    6 ar    
   12    5   23 1     
   13    6    7 ar    
   14    7    8 ar    
   15    7   24 1     
   16    8    9 1     
   17    8   17 ar    
   18    9   10 1     
   19    9   25 1     
   20   10   11 1     
   21   10   12 1     
   22   10   26 1     
   23   11   27 1     
   24   11   28 1     
   25   11   29 1     
   26   12   16 1     
   27   12   13 1     
   28   12   30 1     
   29   13   14 1     
   30   13   31 1     
   31   13   32 1     
   32   14   15 1     
   33   14   33 1     
   34   14   34 1     
   35   15   16 1     
   36   15   35 1     
   37   15   36 1     
   38    3   37 1     
   39    3   38 1     
   40    6   39 1     
   41   16   40 1     
   42   16   41 1     
   43   17   42 1     
@<TRIPOS>SUBSTRUCTURE
      1 S1             1
@<TRIPOS>SET
LONE_PAIRS      STATIC     ATOMS    <user>   **** ""
6 37 38 39 40 41 42
DONOR_HYDROGENS      STATIC     ATOMS    <user>   **** ""
1 25
ATOM$BLUE        STATIC     ATOMS    COLORGROUP SYSTEM
6 37 38 39 40 41 42
ATOM$RED        STATIC     ATOMS    COLORGROUP SYSTEM
1 25
