AV-unprocessed.smi:72|AV-procd|sdf|728|dock7
  -GOLD-   2262017 53D 1   1.00000     0.00000
 Structure written by MMmdl.
 28 29  0  0  0  0  0  0  0  0  2 V2000
  154.7420  137.7134  155.8104 N   0  0  0  0  0  0  0  0  0  0  0  0
  153.4918  137.8608  155.7410 C   0  0  0  0  0  0  0  0  0  0  0  0
  152.6148  136.7486  156.0360 N   0  0  0  0  0  0  0  0  0  0  0  0
  151.3353  136.9467  155.9473 C   0  0  0  0  0  0  0  0  0  0  0  0
  150.7826  138.2385  155.5603 N   0  0  0  0  0  0  0  0  0  0  0  0
  149.2864  138.4787  155.4578 C   0  0  1  0  0  0  0  0  0  0  0  0
  148.9690  139.7396  155.9801 O   0  0  0  0  0  0  0  0  0  0  0  0
  148.5055  140.5878  154.9368 C   0  0  2  0  0  0  0  0  0  0  0  0
  147.6535  141.7372  155.5041 C   0  0  0  0  0  0  0  0  0  0  0  0
  148.1723  142.2362  156.7199 O   0  0  0  0  0  0  0  0  0  0  0  0
  147.8251  139.6303  153.9586 C   0  0  1  0  0  0  0  0  0  0  0  0
  147.6659  140.1814  152.6642 O   0  0  0  0  0  0  0  0  0  0  0  0
  148.7594  138.4243  154.0004 C   0  0  1  0  0  0  0  0  0  0  0  0
  149.7855  138.5080  153.0220 O   0  0  0  0  0  0  0  0  0  0  0  0
  151.6675  139.3147  155.2864 C   0  0  0  0  0  0  0  0  0  0  0  0
  151.1784  140.4033  154.9831 O   0  0  0  0  0  0  0  0  0  0  0  0
  153.0092  139.0999  155.3818 N   0  5  0  0  0  0  0  0  0  0  0  0
  148.8230  137.7369  156.1103 H   0  0  0  0  0  0  0  0  0  0  0  0
  149.3893  141.0153  154.4597 H   0  0  0  0  0  0  0  0  0  0  0  0
  146.8491  139.3252  154.3371 H   0  0  0  0  0  0  0  0  0  0  0  0
  148.2166  137.4913  153.8457 H   0  0  0  0  0  0  0  0  0  0  0  0
  155.2484  138.5570  155.5844 H   0  0  0  0  0  0  0  0  0  0  0  0
  150.6055  136.1651  156.1581 H   0  0  0  0  0  0  0  0  0  0  0  0
  147.5749  142.5485  154.7800 H   0  0  0  0  0  0  0  0  0  0  0  0
  146.6408  141.3817  155.6954 H   0  0  0  0  0  0  0  0  0  0  0  0
  148.7054  142.9930  156.5301 H   0  0  0  0  0  0  0  0  0  0  0  0
  148.5234  140.3166  152.2914 H   0  0  0  0  0  0  0  0  0  0  0  0
  149.7132  139.3441  152.5863 H   0  0  0  0  0  0  0  0  0  0  0  0
  1  2  2  0  0  0  0
  1 22  1  0  0  0  0
  2 17  1  0  0  0  0
  2  3  1  0  0  0  0
  3  4  2  0  0  0  0
  4  5  1  0  0  0  0
  4 23  1  0  0  0  0
  5  6  1  0  0  0  0
  5 15  1  0  0  0  0
  6 18  1  0  0  0  0
  6 13  1  0  0  0  0
  6  7  1  0  0  0  0
  7  8  1  0  0  0  0
  8 19  1  0  0  0  0
  8  9  1  0  0  0  0
  8 11  1  0  0  0  0
  9 10  1  0  0  0  0
  9 24  1  0  0  0  0
  9 25  1  0  0  0  0
 10 26  1  0  0  0  0
 11 20  1  0  0  0  0
 11 12  1  0  0  0  0
 11 13  1  0  0  0  0
 12 27  1  0  0  0  0
 13 21  1  0  0  0  0
 13 14  1  0  0  0  0
 14 28  1  0  0  0  0
 15 16  2  0  0  0  0
 15 17  1  0  0  0  0
M  CHG  1  17  -1
M  END
> <s_m_source_file>
AV-unprocessed.smi

> <i_m_source_file_index>
72

> <i_lp_mmshare_version>
43012

> <i_f3d_flags>
0

> <s_epik_input>
W05IMl1jMW5bY0hdbihjKD1PKW4xKVtDQEBIXTJPW0NASF0oW0NIMl1bT0hdKVtDQEBIXShbT0hdKVtDQEhdMltPSF0=

> <s_epik_cmdline>
J2VwaWtfcHl0aG9uJywgJy1waCcsICc3LjAnLCAnLXRuJywgJzgnLCAnLW1hJywgJzIwMCcsICctbWV0YWxfYmluZGluZycsICctaW1hZScsICc8aW5maWxlLm1hZT4nLCAnLW9tYWUnLCAnPG91dGZpbGUubWFlPic=

> <r_lp_tautomer_probability>
7.17554e-07

> <r_epik_Ionization_Penalty>
12.8705

> <r_epik_Ionization_Penalty_Charging>
5.64144

> <r_epik_Ionization_Penalty_Neutral>
7.22905

> <r_epik_State_Penalty>
3.30104

> <r_epik_Charging_Adjusted_Penalty>
8.94249

> <i_epik_Tot_Q>
-1

> <i_epik_Tot_abs_Q>
1

> <r_epik_Metal_State_Penalty>
0.529074

> <b_epik_Metal_Only>
1

> <s_epik_Chemistry_Notes>
This compound contains an acetal/aminal-like group ( X-CH(R)-Y where X, Y are N, S, or O) that may be acid/base labile, releasing an aldehyde.

> <s_lp_Force_Field>
OPLS_2005

> <r_lp_Energy>
43.5119

> <b_lp_Chiralities_Consistent>
1

> <s_lp_Variant>
AV-unprocessed.smi:72-66

> <Gold.Version>
5.8.1

> <Gold.Id.Protein>
6NUR|6NUR_protein|mol2

> <Gold.PLP.Fitness>
37.0898

> <Gold.PLP.PLP>
-20.2441

> <Gold.PLP.part.hbond>
-8.6034

> <Gold.PLP.part.metal>
0.0000

> <Gold.PLP.part.buried>
-0.1038

> <Gold.PLP.part.nonpolar>
-11.3852

> <Gold.PLP.part.repulsive>
0.0499

> <Gold.PLP.ligand.clash>
2.5243

> <Gold.PLP.ligand.torsion>
0.7788

> <Gold.PLP.Chemscore.Hbond>
6.9680

> <Gold.PLP.Chemscore.CHOScore>
0.0000

> <Gold.PLP.Chemscore.Metal>
0.0000

> <Gold.Chemscore.Hbonds>
donor molecule, donor type, donor heavy atom, donor atom, acceptor molecule, acceptor atom, score
      L1  H    10    26       P1  8028  0.96
      L1  H    12    27       P1  7957  1.00
      L1  H    14    28       P1  7957  0.85
      P1  H  7989  7998       L1    16  1.00
      P1  H  7997  8009       L1    17  2.00
      P1  H 10752 10765       L1     3  0.93

> <Gold.PLP.Chemscore.Internal.Correction>
0.0236

> <Gold.Rescore>
     Score         DG    S(hbond)    S(metal)    S(lipo)     H(rot)  DE(clash)    DE(int)     intcor
      7.35     -11.77       4.25        0.00      20.73       4.04       0.26       4.17       ----

> <Gold.Chemscore.Fitness>
7.3475

> <Gold.Chemscore.DG>
-11.7713

> <Gold.Chemscore.ZeroCoef>
-5.4800

> <Gold.Chemscore.Hbond>
4.2543

> <Gold.Chemscore.Metal>
0.0000

> <Gold.Chemscore.Lipo>
20.7251

> <Gold.Chemscore.Internal_Hbond>
0.0000

> <Gold.Chemscore.DEClash>
0.2557

> <Gold.Chemscore.DEInternal>
4.1681

> <Gold.Chemscore.Rot>
4.0403

> <Gold.Chemscore.Internal.Correction>
   9.000000E+99

> <Gold.Chemscore.Hbonds>
donor molecule, donor type, donor heavy atom, donor atom, acceptor molecule, acceptor atom, score
      L1  H    10    26       P1  8028  0.85
      L1  H    12    27       P1  7957  0.92
      L1  H    14    28       P1  7957  0.82
      P1  H  7989  7998       L1    16  0.79
      P1  H  7997  8009       L1    17  0.25
      P1  H 10752 10765       L1     3  0.36

> <Gold.Chemscore.Hbond.Weighted>
-14.2095

> <Gold.Chemscore.Metal.Weighted>
-0.0000

> <Gold.Chemscore.Lipo.Weighted>
-2.4248

> <Gold.Chemscore.Internal_Hbond.Weighted>
0.0000

> <Gold.Chemscore.DEClash.Weighted>
0.2557

> <Gold.Chemscore.DEInternal.Weighted>
4.1681

> <Gold.Chemscore.Rot.Weighted>
10.3431

> <Gold.Chemscore.Internal.Correction.Weighted>
   9.000000E+99

> <Gold.Protein.RotatedTorsions>
[ 6907 6896 6895 6894 ] final   19.40 input  -60.11 | X-H torsion
[ 7974 7965 7964 7962 ] final   95.82 input  175.53 | X-H torsion
[ 8008 7997 7996 7995 ] final -134.53 input   59.86 | X-H torsion
[ 10167 10162 10161 10158 ] final  144.88 input  -65.29 | X-H torsion
[ 10718 10713 10712 10709 ] final   53.12 input   66.30 | X-H torsion
[ 10763 10752 10751 10750 ] final -147.80 input  -60.55 | X-H torsion
[ 11005 11000 10999 10996 ] final  133.34 input  -57.11 | X-H torsion

> <Gold.Protein.ActiveResidues>
 VAL166  LYS551  ARG553  GLY616  TRP617  ASP618  TYR619  PRO620  LYS621  CYS622 
 ASP623  PHE694  ASN695  SER759  ASP760  ASP761  ALA762  ILE779  LEU786  VAL792 
 PHE793  MET794  SER795  GLU796  ALA797  LYS798  CYS799  TRP800  GLU811  SER814 

> <Gold.Protein.RotatedAtoms>
  151.8802  135.0456  160.0487 H   0  0  0  0  0  0  0  0  0  0  0  0  # atno 6907 bound_to 6896
  152.2518  133.5217  159.5338 H   0  0  0  0  0  0  0  0  0  0  0  0  # atno 6908 bound_to 6896
  150.7086  134.0865  159.3959 H   0  0  0  0  0  0  0  0  0  0  0  0  # atno 6909 bound_to 6896
  145.4471  139.2296  143.3060 H   0  0  0  0  0  0  0  0  0  0  0  0  # atno 7974 bound_to 7965
  155.3636  140.0484  157.3046 H   0  0  0  0  0  0  0  0  0  0  0  0  # atno 8008 bound_to 7997
  154.5165  140.2210  155.9019 H   0  0  0  0  0  0  0  0  0  0  0  0  # atno 8009 bound_to 7997
  156.1643  140.3110  155.8866 H   0  0  0  0  0  0  0  0  0  0  0  0  # atno 8010 bound_to 7997
  139.4937  144.5941  151.6620 H   0  0  0  0  0  0  0  0  0  0  0  0  # atno 10167 bound_to 10162
  157.5138  130.8518  149.8469 H   0  0  0  0  0  0  0  0  0  0  0  0  # atno 10718 bound_to 10713
  154.8267  135.3351  154.6875 H   0  0  0  0  0  0  0  0  0  0  0  0  # atno 10763 bound_to 10752
  153.7500  135.6940  153.4952 H   0  0  0  0  0  0  0  0  0  0  0  0  # atno 10764 bound_to 10752
  153.2183  135.4458  155.0411 H   0  0  0  0  0  0  0  0  0  0  0  0  # atno 10765 bound_to 10752
  139.9845  134.9537  156.9710 H   0  0  0  0  0  0  0  0  0  0  0  0  # atno 11005 bound_to 11000
  146.2525  140.5225  142.8887 LP  0  0  0  0  0  0  0  0  0  0  0  0  # atno 17320 bound_to 7965
  144.8085  140.6343  143.6431 LP  0  0  0  0  0  0  0  0  0  0  0  0  # atno 17321 bound_to 7965
  140.5574  144.0324  150.6154 LP  0  0  0  0  0  0  0  0  0  0  0  0  # atno 17342 bound_to 10162
  140.3399  143.3026  152.0599 LP  0  0  0  0  0  0  0  0  0  0  0  0  # atno 17343 bound_to 10162
  156.0306  130.3765  150.1697 LP  0  0  0  0  0  0  0  0  0  0  0  0  # atno 17370 bound_to 10713
  156.9886  130.9886  151.3420 LP  0  0  0  0  0  0  0  0  0  0  0  0  # atno 17371 bound_to 10713
  140.5029  134.1079  155.7254 LP  0  0  0  0  0  0  0  0  0  0  0  0  # atno 17394 bound_to 11000
  141.1512  133.8964  157.2092 LP  0  0  0  0  0  0  0  0  0  0  0  0  # atno 17395 bound_to 11000

$$$$
