AV-unprocessed.smi:1093|AV-procd|sdf|4743|dock7
  -GOLD-   22720 3273D 1   1.00000     0.00000
 Structure written by MMmdl.
 47 48  0  0  0  0  0  0  0  0  2 V2000
  151.1350  135.6328  149.0573 C   0  0  0  0  0  0  0  0  0  0  0  0
  149.6908  135.5085  148.5504 C   0  0  0  0  0  0  0  0  0  0  0  0
  148.8131  136.5817  149.0798 N   0  3  2  0  0  0  0  0  0  0  0  0
  147.3704  136.2901  148.8736 C   0  0  0  0  0  0  0  0  0  0  0  0
  146.4847  137.3404  149.5671 C   0  0  0  0  0  0  0  0  0  0  0  0
  146.8480  138.7671  149.1203 C   0  0  0  0  0  0  0  0  0  0  0  0
  148.3542  139.0322  149.2944 C   0  0  1  0  0  0  0  0  0  0  0  0
  148.6854  139.1011  150.7185 N   0  0  0  0  0  0  0  0  0  0  0  0
  148.9071  140.2271  151.4116 C   0  0  0  0  0  0  0  0  0  0  0  0
  148.8471  141.3506  150.9138 O   0  0  0  0  0  0  0  0  0  0  0  0
  149.1859  139.9581  152.6983 N   0  0  0  0  0  0  0  0  0  0  0  0
  149.5551  140.8588  153.7340 C   0  0  0  0  0  0  0  0  0  0  0  0
  150.3609  140.5166  154.8443 C   0  0  0  0  0  0  0  0  0  0  0  0
  150.6348  141.4956  155.8186 C   0  0  0  0  0  0  0  0  0  0  0  0
  150.0934  142.7966  155.6691 C   0  0  0  0  0  0  0  0  0  0  0  0
  150.3386  143.8119  156.6218 N   0  0  0  0  0  0  0  0  0  0  0  0
  149.5243  145.0232  156.6189 C   0  0  0  0  0  0  0  0  0  0  0  0
  151.3958  143.6490  157.6120 C   0  0  0  0  0  0  0  0  0  0  0  0
  149.3137  143.1146  154.6070 N   0  0  0  0  0  0  0  0  0  0  0  0
  149.0535  142.1737  153.6760 C   0  0  0  0  0  0  0  0  0  0  0  0
  149.1624  137.9335  148.5679 C   0  0  0  0  0  0  0  0  0  0  0  0
  151.7310  134.7818  148.7268 H   0  0  0  0  0  0  0  0  0  0  0  0
  151.1696  135.6555  150.1469 H   0  0  0  0  0  0  0  0  0  0  0  0
  151.6258  136.5323  148.6871 H   0  0  0  0  0  0  0  0  0  0  0  0
  149.6620  135.5022  147.4600 H   0  0  0  0  0  0  0  0  0  0  0  0
  149.3096  134.5395  148.8747 H   0  0  0  0  0  0  0  0  0  0  0  0
  147.1540  136.2609  147.8044 H   0  0  0  0  0  0  0  0  0  0  0  0
  147.1310  135.3035  149.2723 H   0  0  0  0  0  0  0  0  0  0  0  0
  145.4347  137.1407  149.3514 H   0  0  0  0  0  0  0  0  0  0  0  0
  146.5950  137.2525  150.6486 H   0  0  0  0  0  0  0  0  0  0  0  0
  146.5784  138.8940  148.0708 H   0  0  0  0  0  0  0  0  0  0  0  0
  146.2619  139.4996  149.6766 H   0  0  0  0  0  0  0  0  0  0  0  0
  148.5871  140.0001  148.8468 H   0  0  0  0  0  0  0  0  0  0  0  0
  148.7385  138.2236  151.2151 H   0  0  0  0  0  0  0  0  0  0  0  0
  149.1021  138.9921  152.9795 H   0  0  0  0  0  0  0  0  0  0  0  0
  150.7621  139.5248  154.9805 H   0  0  0  0  0  0  0  0  0  0  0  0
  151.2505  141.2256  156.6631 H   0  0  0  0  0  0  0  0  0  0  0  0
  148.4724  144.7781  156.7692 H   0  0  0  0  0  0  0  0  0  0  0  0
  149.6254  145.5502  155.6696 H   0  0  0  0  0  0  0  0  0  0  0  0
  149.8234  145.7069  157.4134 H   0  0  0  0  0  0  0  0  0  0  0  0
  151.2047  142.7757  158.2366 H   0  0  0  0  0  0  0  0  0  0  0  0
  151.4636  144.5175  158.2672 H   0  0  0  0  0  0  0  0  0  0  0  0
  152.3629  143.5256  157.1238 H   0  0  0  0  0  0  0  0  0  0  0  0
  148.4226  142.4843  152.8560 H   0  0  0  0  0  0  0  0  0  0  0  0
  150.2285  138.1228  148.6846 H   0  0  0  0  0  0  0  0  0  0  0  0
  148.9652  137.9749  147.4954 H   0  0  0  0  0  0  0  0  0  0  0  0
  148.9582  136.5996  150.0792 H   0  0  0  0  0  0  0  0  0  0  0  0
  1  2  1  0  0  0  0
  1 22  1  0  0  0  0
  1 23  1  0  0  0  0
  1 24  1  0  0  0  0
  2  3  1  0  0  0  0
  2 25  1  0  0  0  0
  2 26  1  0  0  0  0
  3 21  1  0  0  0  0
  3  4  1  0  0  0  0
  3 47  1  0  0  0  0
  4  5  1  0  0  0  0
  4 27  1  0  0  0  0
  4 28  1  0  0  0  0
  5  6  1  0  0  0  0
  5 29  1  0  0  0  0
  5 30  1  0  0  0  0
  6  7  1  0  0  0  0
  6 31  1  0  0  0  0
  6 32  1  0  0  0  0
  7  8  1  0  0  0  0
  7 21  1  0  0  0  0
  7 33  1  0  0  0  0
  8  9  1  0  0  0  0
  8 34  1  0  0  0  0
  9 10  2  0  0  0  0
  9 11  1  0  0  0  0
 11 12  1  0  0  0  0
 11 35  1  0  0  0  0
 12 20  1  0  0  0  0
 12 13  2  0  0  0  0
 13 14  1  0  0  0  0
 13 36  1  0  0  0  0
 14 15  2  0  0  0  0
 14 37  1  0  0  0  0
 15 16  1  0  0  0  0
 15 19  1  0  0  0  0
 16 17  1  0  0  0  0
 16 18  1  0  0  0  0
 17 38  1  0  0  0  0
 17 39  1  0  0  0  0
 17 40  1  0  0  0  0
 18 41  1  0  0  0  0
 18 42  1  0  0  0  0
 18 43  1  0  0  0  0
 19 20  2  0  0  0  0
 20 44  1  0  0  0  0
 21 45  1  0  0  0  0
 21 46  1  0  0  0  0
M  CHG  1   3   1
M  END
> <s_m_source_file>
AV-unprocessed.smi

> <i_m_source_file_index>
1093

> <i_lp_mmshare_version>
43012

> <i_f3d_flags>
0

> <s_epik_input>
W0NIM11bQ0gyXU4xW0NIMl1bQ0gyXVtDSDJdW0NASF0oW0NIMl0xKVtOSF1DKD1PKVtOSF1jMltjSF1bY0hdYyhOKFtDSDNdKVtDSDNdKW5bY0hdMg==

> <s_epik_cmdline>
J2VwaWtfcHl0aG9uJywgJy1waCcsICc3LjAnLCAnLXRuJywgJzgnLCAnLW1hJywgJzIwMCcsICctbWV0YWxfYmluZGluZycsICctaW1hZScsICc8aW5maWxlLm1hZT4nLCAnLW9tYWUnLCAnPG91dGZpbGUubWFlPic=

> <r_lp_tautomer_probability>
1

> <r_epik_Ionization_Penalty>
0.489418

> <r_epik_Ionization_Penalty_Charging>
0.00268196

> <r_epik_Ionization_Penalty_Neutral>
0.486736

> <r_epik_State_Penalty>
0.491157

> <r_epik_Charging_Adjusted_Penalty>
0.493839

> <i_epik_Tot_Q>
1

> <i_epik_Tot_abs_Q>
1

> <r_epik_Metal_State_Penalty>
0.266953

> <b_epik_Metal_Only>
0

> <s_lp_Force_Field>
OPLS_2005

> <r_lp_Energy>
27.714

> <b_lp_Chiralities_Consistent>
1

> <s_lp_Variant>
AV-unprocessed.smi:1093-6

> <Gold.Version>
5.8.1

> <Gold.Id.Protein>
6NUR|6NUR_protein|mol2

> <Gold.PLP.Fitness>
40.2446

> <Gold.PLP.PLP>
-32.3270

> <Gold.PLP.part.hbond>
-2.0000

> <Gold.PLP.part.metal>
0.0000

> <Gold.PLP.part.buried>
-2.3400

> <Gold.PLP.part.nonpolar>
-26.8546

> <Gold.PLP.part.repulsive>
0.0108

> <Gold.PLP.ligand.clash>
0.0000

> <Gold.PLP.ligand.torsion>
0.5512

> <Gold.PLP.Chemscore.Hbond>
3.0000

> <Gold.PLP.Chemscore.CHOScore>
0.0000

> <Gold.PLP.Chemscore.Metal>
0.0000

> <Gold.Chemscore.Hbonds>
donor molecule, donor type, donor heavy atom, donor atom, acceptor molecule, acceptor atom, score
      L1  H     8    34       P1  7948  0.98
      P1  H  8011  8017       L1    10  0.37
      P1  H  8022  8030       L1    19  0.91

> <Gold.PLP.Chemscore.Internal.Correction>
0.0200

> <Gold.Rescore>
     Score         DG    S(hbond)    S(metal)    S(lipo)     H(rot)  DE(clash)    DE(int)     intcor
     16.38     -18.19       1.98        0.00      78.10       1.18       0.06       1.75       ----

> <Gold.Chemscore.Fitness>
16.3773

> <Gold.Chemscore.DG>
-18.1887

> <Gold.Chemscore.ZeroCoef>
-5.4800

> <Gold.Chemscore.Hbond>
1.9769

> <Gold.Chemscore.Metal>
0.0000

> <Gold.Chemscore.Lipo>
78.0982

> <Gold.Chemscore.Internal_Hbond>
0.0000

> <Gold.Chemscore.DEClash>
0.0589

> <Gold.Chemscore.DEInternal>
1.7526

> <Gold.Chemscore.Rot>
1.1842

> <Gold.Chemscore.Internal.Correction>
   9.000000E+99

> <Gold.Chemscore.Hbonds>
donor molecule, donor type, donor heavy atom, donor atom, acceptor molecule, acceptor atom, score
      L1  H     8    34       P1  7948  0.55
      P1  H  8011  8017       L1    10  0.12
      P1  H  8022  8030       L1    19  0.20

> <Gold.Chemscore.Hbond.Weighted>
-6.6029

> <Gold.Chemscore.Metal.Weighted>
-0.0000

> <Gold.Chemscore.Lipo.Weighted>
-9.1375

> <Gold.Chemscore.Internal_Hbond.Weighted>
0.0000

> <Gold.Chemscore.DEClash.Weighted>
0.0589

> <Gold.Chemscore.DEInternal.Weighted>
1.7526

> <Gold.Chemscore.Rot.Weighted>
3.0317

> <Gold.Chemscore.Internal.Correction.Weighted>
   9.000000E+99

> <Gold.Protein.RotatedTorsions>
[ 6907 6896 6895 6894 ] final   41.20 input  -60.11 | X-H torsion
[ 7974 7965 7964 7962 ] final   91.14 input  175.53 | X-H torsion
[ 8008 7997 7996 7995 ] final   39.38 input   59.86 | X-H torsion
[ 10167 10162 10161 10158 ] final  121.69 input  -65.29 | X-H torsion
[ 10718 10713 10712 10709 ] final   80.05 input   66.30 | X-H torsion
[ 10763 10752 10751 10750 ] final  -22.14 input  -60.55 | X-H torsion
[ 11005 11000 10999 10996 ] final  -16.91 input  -57.11 | X-H torsion

> <Gold.Protein.ActiveResidues>
 VAL166  LYS551  ARG553  GLY616  TRP617  ASP618  TYR619  PRO620  LYS621  CYS622 
 ASP623  PHE694  ASN695  SER759  ASP760  ASP761  ALA762  ILE779  LEU786  VAL792 
 PHE793  MET794  SER795  GLU796  ALA797  LYS798  CYS799  TRP800  GLU811  SER814 

> <Gold.Protein.RotatedAtoms>
  152.1922  134.8662  160.0516 H   0  0  0  0  0  0  0  0  0  0  0  0  # atno 6907 bound_to 6896
  151.9546  133.3671  159.4021 H   0  0  0  0  0  0  0  0  0  0  0  0  # atno 6908 bound_to 6896
  150.6937  134.4228  159.5257 H   0  0  0  0  0  0  0  0  0  0  0  0  # atno 6909 bound_to 6896
  145.5096  139.2277  143.2732 H   0  0  0  0  0  0  0  0  0  0  0  0  # atno 7974 bound_to 7965
  155.2357  140.3341  155.4298 H   0  0  0  0  0  0  0  0  0  0  0  0  # atno 8008 bound_to 7997
  156.2276  140.1836  156.7368 H   0  0  0  0  0  0  0  0  0  0  0  0  # atno 8009 bound_to 7997
  154.5925  140.0636  156.9243 H   0  0  0  0  0  0  0  0  0  0  0  0  # atno 8010 bound_to 7997
  139.5904  144.7023  151.3305 H   0  0  0  0  0  0  0  0  0  0  0  0  # atno 10167 bound_to 10162
  157.6795  130.9942  150.2022 H   0  0  0  0  0  0  0  0  0  0  0  0  # atno 10718 bound_to 10713
  153.6472  135.6982  153.5221 H   0  0  0  0  0  0  0  0  0  0  0  0  # atno 10763 bound_to 10752
  153.2735  135.4207  155.1010 H   0  0  0  0  0  0  0  0  0  0  0  0  # atno 10764 bound_to 10752
  154.8485  135.3584  154.6016 H   0  0  0  0  0  0  0  0  0  0  0  0  # atno 10765 bound_to 10752
  140.8115  133.8137  155.9568 H   0  0  0  0  0  0  0  0  0  0  0  0  # atno 11005 bound_to 11000
  146.2175  140.5902  142.9032 LP  0  0  0  0  0  0  0  0  0  0  0  0  # atno 17320 bound_to 7965
  144.7734  140.5688  143.6654 LP  0  0  0  0  0  0  0  0  0  0  0  0  # atno 17321 bound_to 7965
  140.7168  143.7245  150.7670 LP  0  0  0  0  0  0  0  0  0  0  0  0  # atno 17342 bound_to 10162
  140.0799  143.4979  152.2535 LP  0  0  0  0  0  0  0  0  0  0  0  0  # atno 17343 bound_to 10162
  156.2710  130.3722  149.8031 LP  0  0  0  0  0  0  0  0  0  0  0  0  # atno 17370 bound_to 10713
  156.5748  130.8440  151.3367 LP  0  0  0  0  0  0  0  0  0  0  0  0  # atno 17371 bound_to 10713
  140.9193  134.2162  157.4937 LP  0  0  0  0  0  0  0  0  0  0  0  0  # atno 17394 bound_to 11000
  139.8714  134.9785  156.5000 LP  0  0  0  0  0  0  0  0  0  0  0  0  # atno 17395 bound_to 11000

$$$$
