#       Name:                AV-unprocessed.smi:3216
#       Creating user name   scv26
#       Creation time:       Fri Mar 27 18:13:01 2020


#       File generated by GOLD software.
#

@<TRIPOS>MOLECULE
AV-unprocessed.smi:3216
    40    40     1
SMALL
NO_CHARGES


@<TRIPOS>ATOM
      1 ****        -2.1381  -0.1809  -4.1372 C.3            1 S1                 0.0000
      2 ****        -2.2536  -1.1147  -2.9195 C.3            1 S1                 0.0000
      3 ****        -3.5777  -1.8917  -2.9576 C.3            1 S1                 0.0000
      4 ****        -2.1025  -0.3590  -1.5854 C.3            1 S1                 0.0000
      5 ****        -0.8007   0.2874  -1.4788 N.am           1 S1                 0.0000
      6 ****        -0.4353   1.0975  -0.4754 C.2            1 S1                 0.0000
      7 ****        -1.1725   1.3789   0.4695 O.2            1 S1                 0.0000
      8 ****         0.9843   1.6730  -0.5419 C.3            1 S1                 0.0000
      9 ****         1.8230   1.3618   0.6266 N.3            1 S1                 0.0000
     10 ****         2.0469  -0.0672   0.8229 C.3            1 S1                 0.0000
     11 ****         2.9920  -0.3018   2.0132 C.3            1 S1                 0.0000
     12 ****         2.3970   0.0940   3.2778 N.pl3          1 S1                 0.0000
     13 ****         1.4020  -0.5407   3.9914 C.2            1 S1                 0.0000
     14 ****         1.1705   0.2010   5.1142 C.2            1 S1                 0.0000
     15 ****         2.0867   1.2836   4.9983 C.2            1 S1                 0.0000
     16 ****         2.8218   1.2151   3.9001 N.2            1 S1                 0.0000
     17 ****        -2.9067   0.5923  -4.1161 H              1 S1                 0.0000
     18 ****        -2.2521  -0.7363  -5.0687 H              1 S1                 0.0000
     19 ****        -1.1680   0.3153  -4.1745 H              1 S1                 0.0000
     20 ****        -1.4464  -1.8458  -2.9842 H              1 S1                 0.0000
     21 ****        -4.4338  -1.2189  -2.8972 H              1 S1                 0.0000
     22 ****        -3.6465  -2.5934  -2.1259 H              1 S1                 0.0000
     23 ****        -3.6705  -2.4666  -3.8794 H              1 S1                 0.0000
     24 ****        -2.8913   0.3891  -1.4883 H              1 S1                 0.0000
     25 ****        -2.2159  -1.0510  -0.7493 H              1 S1                 0.0000
     26 ****        -0.1343   0.1056  -2.2151 H              1 S1                 0.0000
     27 ****         1.4892   1.3308  -1.4470 H              1 S1                 0.0000
     28 ****         0.9026   2.7568  -0.6289 H              1 S1                 0.0000
     29 ****         2.7130   1.8367   0.5794 H              1 S1                 0.0000
     30 ****         1.1082  -0.5964   0.9911 H              1 S1                 0.0000
     31 ****         2.4944  -0.4845  -0.0800 H              1 S1                 0.0000
     32 ****         3.2429  -1.3610   2.0795 H              1 S1                 0.0000
     33 ****         3.9336   0.2315   1.8699 H              1 S1                 0.0000
     34 ****         0.9449  -1.4548   3.6423 H              1 S1                 0.0000
     35 ****         0.4550   0.0015   5.8980 H              1 S1                 0.0000
     36 ****         2.2393   2.1111   5.6754 H              1 S1                 0.0000
     37 ****        -2.0956   0.9970   0.5145 LP             1 S1                 0.0000
     38 ****        -0.8483   1.9895   1.1921 LP             1 S1                 0.0000
     39 ****         1.3044   1.6935   1.4147 LP             1 S1                 0.0000
     40 ****         3.5324   1.8508   3.5986 LP             1 S1                 0.0000
@<TRIPOS>BOND
    1    1    2 1     
    2    1   17 1     
    3    1   18 1     
    4    1   19 1     
    5    2    3 1     
    6    2    4 1     
    7    2   20 1     
    8    3   21 1     
    9    3   22 1     
   10    3   23 1     
   11    4    5 1     
   12    4   24 1     
   13    4   25 1     
   14    5    6 am    
   15    5   26 1     
   16    6    7 2     
   17    6    8 1     
   18    8    9 1     
   19    8   27 1     
   20    8   28 1     
   21    9   10 1     
   22    9   29 1     
   23   10   11 1     
   24   10   30 1     
   25   10   31 1     
   26   11   12 1     
   27   11   32 1     
   28   11   33 1     
   29   12   16 1     
   30   12   13 1     
   31   13   14 2     
   32   13   34 1     
   33   14   15 1     
   34   14   35 1     
   35   15   16 2     
   36   15   36 1     
   37    7   37 1     
   38    7   38 1     
   39    9   39 1     
   40   16   40 1     
@<TRIPOS>SUBSTRUCTURE
      1 S1             1
@<TRIPOS>SET
LONE_PAIRS      STATIC     ATOMS    <user>   **** ""
4 37 38 39 40
DONOR_HYDROGENS      STATIC     ATOMS    <user>   **** ""
2 26 29
ATOM$BLUE        STATIC     ATOMS    COLORGROUP SYSTEM
4 37 38 39 40
ATOM$RED        STATIC     ATOMS    COLORGROUP SYSTEM
2 26 29
