AV-unprocessed.smi:1686|AV-procd|sdf|6760|dock4
  -GOLD-   22720 7523D 1   1.00000     0.00000
 Structure written by MMmdl.
 41 43  0  0  0  0  0  0  0  0  1 V2000
  150.9722  139.0495  158.6147 C   0  0  0  0  0  0  0  0  0  0  0  0
  151.9897  138.0142  158.2297 C   0  0  0  0  0  0  0  0  0  0  0  0
  151.8567  137.3691  157.0785 N   0  0  0  0  0  0  0  0  0  0  0  0
  152.9409  136.4884  156.9923 O   0  0  0  0  0  0  0  0  0  0  0  0
  153.6764  136.6546  158.1152 C   0  0  0  0  0  0  0  0  0  0  0  0
  155.1216  135.7710  158.4068 Cl  0  0  0  0  0  0  0  0  0  0  0  0
  153.1478  137.5974  158.9496 C   0  0  0  0  0  0  0  0  0  0  0  0
  153.6595  138.0967  160.2791 C   0  0  0  0  0  0  0  0  0  0  0  0
  154.0401  139.5731  160.1593 C   0  0  0  0  0  0  0  0  0  0  0  0
  154.7458  139.9538  159.2263 O   0  0  0  0  0  0  0  0  0  0  0  0
  153.5406  140.3907  161.0993 N   0  0  0  0  0  0  0  0  0  0  0  0
  153.6175  141.8483  161.1042 C   0  0  2  0  0  0  0  0  0  0  0  0
  153.7179  142.3316  162.5600 C   0  0  0  0  0  0  0  0  0  0  0  0
  152.3835  142.4253  160.3683 C   0  0  1  0  0  0  0  0  0  0  0  0
  152.0621  143.8920  160.7443 C   0  0  0  0  0  0  0  0  0  0  0  0
  151.9986  144.6015  159.3802 C   0  0  2  0  0  0  0  0  0  0  0  0
  150.7553  144.1256  158.6064 C   0  0  0  0  0  0  0  0  0  0  0  0
  151.1410  142.6927  158.1949 C   0  0  0  0  0  0  0  0  0  0  0  0
  152.5355  142.5232  158.8262 C   0  0  1  0  0  0  0  0  0  0  0  0
  153.1287  143.9136  158.6264 C   0  0  0  0  0  0  0  0  0  0  0  0
  151.4271  139.8552  159.1905 H   0  0  0  0  0  0  0  0  0  0  0  0
  150.1821  138.6104  159.2241 H   0  0  0  0  0  0  0  0  0  0  0  0
  150.5058  139.4986  157.7371 H   0  0  0  0  0  0  0  0  0  0  0  0
  152.9112  137.9890  161.0648 H   0  0  0  0  0  0  0  0  0  0  0  0
  154.5290  137.5258  160.6072 H   0  0  0  0  0  0  0  0  0  0  0  0
  152.9825  139.9717  161.8287 H   0  0  0  0  0  0  0  0  0  0  0  0
  154.5161  142.1730  160.5771 H   0  0  0  0  0  0  0  0  0  0  0  0
  153.8056  143.4163  162.6185 H   0  0  0  0  0  0  0  0  0  0  0  0
  154.5949  141.9088  163.0513 H   0  0  0  0  0  0  0  0  0  0  0  0
  152.8404  142.0385  163.1372 H   0  0  0  0  0  0  0  0  0  0  0  0
  151.5269  141.7913  160.6036 H   0  0  0  0  0  0  0  0  0  0  0  0
  151.1305  143.9826  161.3040 H   0  0  0  0  0  0  0  0  0  0  0  0
  152.8546  144.3326  161.3503 H   0  0  0  0  0  0  0  0  0  0  0  0
  152.0834  145.6865  159.4481 H   0  0  0  0  0  0  0  0  0  0  0  0
  149.8526  144.1546  159.2177 H   0  0  0  0  0  0  0  0  0  0  0  0
  150.5840  144.7442  157.7247 H   0  0  0  0  0  0  0  0  0  0  0  0
  150.4273  141.9474  158.5480 H   0  0  0  0  0  0  0  0  0  0  0  0
  151.1975  142.6093  157.1087 H   0  0  0  0  0  0  0  0  0  0  0  0
  153.1073  141.7173  158.3667 H   0  0  0  0  0  0  0  0  0  0  0  0
  153.1934  144.2101  157.5780 H   0  0  0  0  0  0  0  0  0  0  0  0
  154.1060  144.0424  159.0944 H   0  0  0  0  0  0  0  0  0  0  0  0
  1  2  1  0  0  0  0
  1 21  1  0  0  0  0
  1 22  1  0  0  0  0
  1 23  1  0  0  0  0
  2  7  1  0  0  0  0
  2  3  2  0  0  0  0
  3  4  1  0  0  0  0
  4  5  1  0  0  0  0
  5  6  1  0  0  0  0
  5  7  2  0  0  0  0
  7  8  1  0  0  0  0
  8  9  1  0  0  0  0
  8 24  1  0  0  0  0
  8 25  1  0  0  0  0
  9 10  2  0  0  0  0
  9 11  1  0  0  0  0
 11 12  1  0  0  0  0
 11 26  1  0  0  0  0
 12 13  1  0  0  0  0
 12 14  1  0  0  0  0
 12 27  1  0  0  0  0
 13 28  1  0  0  0  0
 13 29  1  0  0  0  0
 13 30  1  0  0  0  0
 14 19  1  0  0  0  0
 14 15  1  0  0  0  0
 14 31  1  0  0  0  0
 15 16  1  0  0  0  0
 15 32  1  0  0  0  0
 15 33  1  0  0  0  0
 16 20  1  0  0  0  0
 16 17  1  0  0  0  0
 16 34  1  0  0  0  0
 17 18  1  0  0  0  0
 17 35  1  0  0  0  0
 17 36  1  0  0  0  0
 18 19  1  0  0  0  0
 18 37  1  0  0  0  0
 18 38  1  0  0  0  0
 19 20  1  0  0  0  0
 19 39  1  0  0  0  0
 20 40  1  0  0  0  0
 20 41  1  0  0  0  0
M  END
> <s_m_source_file>
AV-unprocessed.smi

> <i_m_source_file_index>
1686

> <i_lp_mmshare_version>
43012

> <i_f3d_flags>
0

> <s_epik_input>
W0NIM11jMW5vYyhDbCljMVtDSDJdQyg9TylbTkhdW0NASF0oW0NIM10pW0NASF0oW0NIMl1bQ0BIXTIzKVtDQEhdKFtDSDJdMylbQ0gyXVtDSDJdMg==

> <s_epik_cmdline>
J2VwaWtfcHl0aG9uJywgJy1waCcsICc3LjAnLCAnLXRuJywgJzgnLCAnLW1hJywgJzIwMCcsICctbWV0YWxfYmluZGluZycsICctaW1hZScsICc8aW5maWxlLm1hZT4nLCAnLW9tYWUnLCAnPG91dGZpbGUubWFlPic=

> <r_lp_tautomer_probability>
1

> <r_epik_Ionization_Penalty>
2.01576e-08

> <r_epik_Ionization_Penalty_Charging>
0

> <r_epik_Ionization_Penalty_Neutral>
2.01576e-08

> <r_epik_State_Penalty>
-0

> <r_epik_Charging_Adjusted_Penalty>
0

> <i_epik_Tot_Q>
0

> <i_epik_Tot_abs_Q>
0

> <r_epik_Metal_State_Penalty>
-0

> <b_epik_Metal_Only>
0

> <s_lp_Force_Field>
OPLS_2005

> <r_lp_Energy>
45.33

> <b_lp_Chiralities_Consistent>
1

> <s_lp_Variant>
AV-unprocessed.smi:1686-3

> <Gold.Version>
5.8.1

> <Gold.Id.Protein>
6NUR|6NUR_protein|mol2

> <Gold.PLP.Fitness>
43.1405

> <Gold.PLP.PLP>
-39.1417

> <Gold.PLP.part.hbond>
-2.0000

> <Gold.PLP.part.metal>
0.0000

> <Gold.PLP.part.buried>
-4.1540

> <Gold.PLP.part.nonpolar>
-32.4972

> <Gold.PLP.part.repulsive>
0.0556

> <Gold.PLP.ligand.clash>
0.0000

> <Gold.PLP.ligand.torsion>
1.0099

> <Gold.PLP.Chemscore.Hbond>
2.0000

> <Gold.PLP.Chemscore.CHOScore>
0.0000

> <Gold.PLP.Chemscore.Metal>
0.0000

> <Gold.Chemscore.Hbonds>
donor molecule, donor type, donor heavy atom, donor atom, acceptor molecule, acceptor atom, score
      P1  H  7997  8010       L1    10  1.00
      P1  H 10752 10765       L1     4  0.84

> <Gold.PLP.Chemscore.Internal.Correction>
0.0186

> <Gold.Rescore>
     Score         DG    S(hbond)    S(metal)    S(lipo)     H(rot)  DE(clash)    DE(int)     intcor
     21.73     -22.68       1.96        0.00     123.13       1.46       0.05       0.90       ----

> <Gold.Chemscore.Fitness>
21.7319

> <Gold.Chemscore.DG>
-22.6800

> <Gold.Chemscore.ZeroCoef>
-5.4800

> <Gold.Chemscore.Hbond>
1.9591

> <Gold.Chemscore.Metal>
0.0000

> <Gold.Chemscore.Lipo>
123.1334

> <Gold.Chemscore.Internal_Hbond>
0.0000

> <Gold.Chemscore.DEClash>
0.0492

> <Gold.Chemscore.DEInternal>
0.8989

> <Gold.Chemscore.Rot>
1.4648

> <Gold.Chemscore.Internal.Correction>
   9.000000E+99

> <Gold.Chemscore.Hbonds>
donor molecule, donor type, donor heavy atom, donor atom, acceptor molecule, acceptor atom, score
      P1  H  7997  8010       L1    10  0.97
      P1  H 10752 10765       L1     4  0.79

> <Gold.Chemscore.Hbond.Weighted>
-6.5434

> <Gold.Chemscore.Metal.Weighted>
-0.0000

> <Gold.Chemscore.Lipo.Weighted>
-14.4066

> <Gold.Chemscore.Internal_Hbond.Weighted>
0.0000

> <Gold.Chemscore.DEClash.Weighted>
0.0492

> <Gold.Chemscore.DEInternal.Weighted>
0.8989

> <Gold.Chemscore.Rot.Weighted>
3.7500

> <Gold.Chemscore.Internal.Correction.Weighted>
   9.000000E+99

> <Gold.Protein.RotatedTorsions>
[ 6907 6896 6895 6894 ] final   12.31 input  -60.11 | X-H torsion
[ 7974 7965 7964 7962 ] final -179.05 input  175.53 | X-H torsion
[ 8008 7997 7996 7995 ] final    0.57 input   59.86 | X-H torsion
[ 10167 10162 10161 10158 ] final  169.01 input  -65.29 | X-H torsion
[ 10718 10713 10712 10709 ] final   13.63 input   66.30 | X-H torsion
[ 10763 10752 10751 10750 ] final -114.17 input  -60.55 | X-H torsion
[ 11005 11000 10999 10996 ] final -111.22 input  -57.11 | X-H torsion

> <Gold.Protein.ActiveResidues>
 VAL166  LYS551  ARG553  GLY616  TRP617  ASP618  TYR619  PRO620  LYS621  CYS622 
 ASP623  PHE694  ASN695  SER759  ASP760  ASP761  ALA762  ILE779  LEU786  VAL792 
 PHE793  MET794  SER795  GLU796  ALA797  LYS798  CYS799  TRP800  GLU811  SER814 

> <Gold.Protein.RotatedAtoms>
  151.7682  135.0793  160.0355 H   0  0  0  0  0  0  0  0  0  0  0  0  # atno 6907 bound_to 6896
  152.3306  133.5950  159.5816 H   0  0  0  0  0  0  0  0  0  0  0  0  # atno 6908 bound_to 6896
  150.7421  133.9789  159.3611 H   0  0  0  0  0  0  0  0  0  0  0  0  # atno 6909 bound_to 6896
  144.7134  140.0775  143.6427 H   0  0  0  0  0  0  0  0  0  0  0  0  # atno 7974 bound_to 7965
  154.6696  140.2609  155.7021 H   0  0  0  0  0  0  0  0  0  0  0  0  # atno 8008 bound_to 7997
  156.2653  140.2832  156.1122 H   0  0  0  0  0  0  0  0  0  0  0  0  # atno 8009 bound_to 7997
  155.1188  140.0376  157.2734 H   0  0  0  0  0  0  0  0  0  0  0  0  # atno 8010 bound_to 7997
  139.4982  144.3752  151.9681 H   0  0  0  0  0  0  0  0  0  0  0  0  # atno 10167 bound_to 10162
  157.0275  130.6179  149.5730 H   0  0  0  0  0  0  0  0  0  0  0  0  # atno 10718 bound_to 10713
  154.8428  135.4428  154.1463 H   0  0  0  0  0  0  0  0  0  0  0  0  # atno 10763 bound_to 10752
  153.2635  135.6938  153.7559 H   0  0  0  0  0  0  0  0  0  0  0  0  # atno 10764 bound_to 10752
  153.6827  135.3400  155.3157 H   0  0  0  0  0  0  0  0  0  0  0  0  # atno 10765 bound_to 10752
  141.0747  133.9322  157.2415 H   0  0  0  0  0  0  0  0  0  0  0  0  # atno 11005 bound_to 11000
  145.9730  139.2884  143.1087 LP  0  0  0  0  0  0  0  0  0  0  0  0  # atno 17320 bound_to 7965
  145.9095  140.9189  143.0461 LP  0  0  0  0  0  0  0  0  0  0  0  0  # atno 17321 bound_to 7965
  140.3189  144.3451  150.6014 LP  0  0  0  0  0  0  0  0  0  0  0  0  # atno 17342 bound_to 10162
  140.5739  143.2178  151.7550 LP  0  0  0  0  0  0  0  0  0  0  0  0  # atno 17343 bound_to 10162
  156.0081  130.5170  150.7898 LP  0  0  0  0  0  0  0  0  0  0  0  0  # atno 17370 bound_to 10713
  157.5203  131.0931  151.0087 LP  0  0  0  0  0  0  0  0  0  0  0  0  # atno 17371 bound_to 10713
  139.9559  135.0165  156.9126 LP  0  0  0  0  0  0  0  0  0  0  0  0  # atno 17394 bound_to 11000
  140.5599  134.0545  155.7395 LP  0  0  0  0  0  0  0  0  0  0  0  0  # atno 17395 bound_to 11000

$$$$
