AV-unprocessed.smi:1383|AV-procd|sdf|5624|dock1
  -GOLD-   22720 5233D 1   1.00000     0.00000
 Structure written by MMmdl.
 30 30  0  0  0  0  0  0  0  0  2 V2000
  152.2335  144.3218  157.9794 C   0  0  0  0  0  0  0  0  0  0  0  0
  151.7242  143.7122  159.2950 C   0  0  0  0  0  0  0  0  0  0  0  0
  152.2047  142.2661  159.5524 C   0  0  2  0  0  0  0  0  0  0  0  0
  153.7356  142.2054  159.6908 C   0  0  0  0  0  0  0  0  0  0  0  0
  151.7378  141.2991  158.4473 C   0  0  0  0  0  0  0  0  0  0  0  0
  152.5773  140.6509  157.8193 O   0  0  0  0  0  0  0  0  0  0  0  0
  150.3899  141.2946  158.3074 N   0  5  0  0  0  0  0  0  0  0  0  0
  149.8468  140.9252  157.1373 C   0  0  0  0  0  0  0  0  0  0  0  0
  148.6333  141.3233  156.7407 N   0  0  0  0  0  0  0  0  0  0  0  0
  148.2543  140.8122  155.4957 C   0  0  0  0  0  0  0  0  0  0  0  0
  146.9178  141.1714  154.9129 C   0  0  0  0  0  0  0  0  0  0  0  0
  145.8973  141.4376  156.0224 C   0  0  0  0  0  0  0  0  0  0  0  0
  144.7050  140.8444  155.9137 N   0  0  0  0  0  0  0  0  0  0  0  0
  146.1857  142.1610  156.9738 O   0  0  0  0  0  0  0  0  0  0  0  0
  149.2104  140.0051  154.9343 C   0  0  0  0  0  0  0  0  0  0  0  0
  150.6093  139.8553  155.9589 S   0  0  0  0  0  0  0  0  0  0  0  0
  151.8145  145.3166  157.8274 H   0  0  0  0  0  0  0  0  0  0  0  0
  151.9482  143.7066  157.1258 H   0  0  0  0  0  0  0  0  0  0  0  0
  153.3194  144.4194  157.9738 H   0  0  0  0  0  0  0  0  0  0  0  0
  152.0133  144.3564  160.1266 H   0  0  0  0  0  0  0  0  0  0  0  0
  150.6340  143.7235  159.2764 H   0  0  0  0  0  0  0  0  0  0  0  0
  151.7891  141.9525  160.5128 H   0  0  0  0  0  0  0  0  0  0  0  0
  154.0773  141.1841  159.8640 H   0  0  0  0  0  0  0  0  0  0  0  0
  154.0752  142.8091  160.5327 H   0  0  0  0  0  0  0  0  0  0  0  0
  154.2344  142.5770  158.7949 H   0  0  0  0  0  0  0  0  0  0  0  0
  146.9931  142.0562  154.2796 H   0  0  0  0  0  0  0  0  0  0  0  0
  146.5535  140.3666  154.2733 H   0  0  0  0  0  0  0  0  0  0  0  0
  144.0112  140.9789  156.6357 H   0  0  0  0  0  0  0  0  0  0  0  0
  144.5089  140.2490  155.1226 H   0  0  0  0  0  0  0  0  0  0  0  0
  149.1750  139.4877  153.9875 H   0  0  0  0  0  0  0  0  0  0  0  0
  1  2  1  0  0  0  0
  1 17  1  0  0  0  0
  1 18  1  0  0  0  0
  1 19  1  0  0  0  0
  2  3  1  0  0  0  0
  2 20  1  0  0  0  0
  2 21  1  0  0  0  0
  3  4  1  0  0  0  0
  3  5  1  0  0  0  0
  3 22  1  0  0  0  0
  4 23  1  0  0  0  0
  4 24  1  0  0  0  0
  4 25  1  0  0  0  0
  5  6  2  0  0  0  0
  5  7  1  0  0  0  0
  7  8  1  0  0  0  0
  8 16  1  0  0  0  0
  8  9  2  0  0  0  0
  9 10  1  0  0  0  0
 10 11  1  0  0  0  0
 10 15  2  0  0  0  0
 11 12  1  0  0  0  0
 11 26  1  0  0  0  0
 11 27  1  0  0  0  0
 12 13  1  0  0  0  0
 12 14  2  0  0  0  0
 13 28  1  0  0  0  0
 13 29  1  0  0  0  0
 15 16  1  0  0  0  0
 15 30  1  0  0  0  0
M  CHG  1   7  -1
M  END
> <s_m_source_file>
AV-unprocessed.smi

> <i_m_source_file_index>
1383

> <i_lp_mmshare_version>
43012

> <i_f3d_flags>
0

> <s_epik_input>
W0NIM11bQ0gyXVtDQEhdKFtDSDNdKUMoPU8pW05IXWMxbmMoW2NIXXMxKVtDSDJdQyg9TylbTkgyXQ==

> <s_epik_cmdline>
J2VwaWtfcHl0aG9uJywgJy1waCcsICc3LjAnLCAnLXRuJywgJzgnLCAnLW1hJywgJzIwMCcsICctbWV0YWxfYmluZGluZycsICctaW1hZScsICc8aW5maWxlLm1hZT4nLCAnLW9tYWUnLCAnPG91dGZpbGUubWFlPic=

> <r_lp_tautomer_probability>
1

> <r_epik_Ionization_Penalty>
5.3563

> <r_epik_Ionization_Penalty_Charging>
4.90463

> <r_epik_Ionization_Penalty_Neutral>
0.451677

> <r_epik_State_Penalty>
4.90447

> <r_epik_Charging_Adjusted_Penalty>
9.8091

> <i_epik_Tot_Q>
-1

> <i_epik_Tot_abs_Q>
1

> <r_epik_Metal_State_Penalty>
1.05508

> <b_epik_Metal_Only>
1

> <s_lp_Force_Field>
OPLS_2005

> <r_lp_Energy>
-0.655456

> <b_lp_Chiralities_Consistent>
1

> <s_lp_Variant>
AV-unprocessed.smi:1383-3

> <Gold.Version>
5.8.1

> <Gold.Id.Protein>
6NUR|6NUR_protein|mol2

> <Gold.PLP.Fitness>
38.8014

> <Gold.PLP.PLP>
-32.8618

> <Gold.PLP.part.hbond>
-1.9890

> <Gold.PLP.part.metal>
0.0000

> <Gold.PLP.part.buried>
-1.0058

> <Gold.PLP.part.nonpolar>
-30.0202

> <Gold.PLP.part.repulsive>
1.2201

> <Gold.PLP.ligand.clash>
0.0000

> <Gold.PLP.ligand.torsion>
0.7858

> <Gold.PLP.Chemscore.Hbond>
1.4368

> <Gold.PLP.Chemscore.CHOScore>
1.0000

> <Gold.PLP.Chemscore.Metal>
0.0000

> <Gold.Chemscore.Hbonds>
donor molecule, donor type, donor heavy atom, donor atom, acceptor molecule, acceptor atom, score
      P1  H  7997  8008       L1     6  0.47
      L1  C    15    30       P1  7957  0.05

> <Gold.PLP.Chemscore.Internal.Correction>
0.2008

> <Gold.Rescore>
     Score         DG    S(hbond)    S(metal)    S(lipo)     H(rot)  DE(clash)    DE(int)     intcor
      9.67     -13.86       1.54        0.00      74.69       2.15       0.43       3.75       ----

> <Gold.Chemscore.Fitness>
9.6746

> <Gold.Chemscore.DG>
-13.8591

> <Gold.Chemscore.ZeroCoef>
-5.4800

> <Gold.Chemscore.Hbond>
1.5426

> <Gold.Chemscore.Metal>
0.0000

> <Gold.Chemscore.Lipo>
74.6927

> <Gold.Chemscore.Internal_Hbond>
0.0000

> <Gold.Chemscore.DEClash>
0.4337

> <Gold.Chemscore.DEInternal>
3.7509

> <Gold.Chemscore.Rot>
2.1532

> <Gold.Chemscore.Internal.Correction>
   9.000000E+99

> <Gold.Chemscore.Hbonds>
donor molecule, donor type, donor heavy atom, donor atom, acceptor molecule, acceptor atom, score
      P1  H  7997  8008       L1     6  0.47

> <Gold.Chemscore.Hbond.Weighted>
-5.1524

> <Gold.Chemscore.Metal.Weighted>
-0.0000

> <Gold.Chemscore.Lipo.Weighted>
-8.7390

> <Gold.Chemscore.Internal_Hbond.Weighted>
0.0000

> <Gold.Chemscore.DEClash.Weighted>
0.4337

> <Gold.Chemscore.DEInternal.Weighted>
3.7509

> <Gold.Chemscore.Rot.Weighted>
5.5123

> <Gold.Chemscore.Internal.Correction.Weighted>
   9.000000E+99

> <Gold.Protein.RotatedTorsions>
[ 6907 6896 6895 6894 ] final  -16.91 input  -60.11 | X-H torsion
[ 7974 7965 7964 7962 ] final   21.17 input  175.53 | X-H torsion
[ 8008 7997 7996 7995 ] final  -66.67 input   59.86 | X-H torsion
[ 10167 10162 10161 10158 ] final  142.12 input  -65.29 | X-H torsion
[ 10718 10713 10712 10709 ] final -115.22 input   66.30 | X-H torsion
[ 10763 10752 10751 10750 ] final -120.41 input  -60.55 | X-H torsion
[ 11005 11000 10999 10996 ] final -145.02 input  -57.11 | X-H torsion

> <Gold.Protein.ActiveResidues>
 VAL166  LYS551  ARG553  GLY616  TRP617  ASP618  TYR619  PRO620  LYS621  CYS622 
 ASP623  PHE694  ASN695  SER759  ASP760  ASP761  ALA762  ILE779  LEU786  VAL792 
 PHE793  MET794  SER795  GLU796  ALA797  LYS798  CYS799  TRP800  GLU811  SER814 

> <Gold.Protein.RotatedAtoms>
  151.3014  135.0769  159.9239 H   0  0  0  0  0  0  0  0  0  0  0  0  # atno 6907 bound_to 6896
  152.5297  133.9829  159.7825 H   0  0  0  0  0  0  0  0  0  0  0  0  # atno 6908 bound_to 6896
  151.0117  133.5908  159.2712 H   0  0  0  0  0  0  0  0  0  0  0  0  # atno 6909 bound_to 6896
  146.2082  139.8066  142.8709 H   0  0  0  0  0  0  0  0  0  0  0  0  # atno 7974 bound_to 7965
  154.4750  140.0908  156.7238 H   0  0  0  0  0  0  0  0  0  0  0  0  # atno 8008 bound_to 7997
  155.4622  140.3461  155.4296 H   0  0  0  0  0  0  0  0  0  0  0  0  # atno 8009 bound_to 7997
  156.1101  140.1445  156.9339 H   0  0  0  0  0  0  0  0  0  0  0  0  # atno 8010 bound_to 7997
  139.5002  144.6127  151.6234 H   0  0  0  0  0  0  0  0  0  0  0  0  # atno 10167 bound_to 10162
  156.0881  130.6069  150.8878 H   0  0  0  0  0  0  0  0  0  0  0  0  # atno 10718 bound_to 10713
  154.8643  135.4204  154.2454 H   0  0  0  0  0  0  0  0  0  0  0  0  # atno 10763 bound_to 10752
  153.3411  135.6993  153.6872 H   0  0  0  0  0  0  0  0  0  0  0  0  # atno 10764 bound_to 10752
  153.5850  135.3565  155.2862 H   0  0  0  0  0  0  0  0  0  0  0  0  # atno 10765 bound_to 10752
  140.7965  134.2907  157.4994 H   0  0  0  0  0  0  0  0  0  0  0  0  # atno 11005 bound_to 11000
  145.3240  141.0251  143.3484 LP  0  0  0  0  0  0  0  0  0  0  0  0  # atno 17320 bound_to 7965
  144.8846  139.4857  143.6707 LP  0  0  0  0  0  0  0  0  0  0  0  0  # atno 17321 bound_to 7965
  140.5806  143.9952  150.6266 LP  0  0  0  0  0  0  0  0  0  0  0  0  # atno 17342 bound_to 10162
  140.3100  143.3204  152.0888 LP  0  0  0  0  0  0  0  0  0  0  0  0  # atno 17343 bound_to 10162
  157.6022  131.0940  150.8940 LP  0  0  0  0  0  0  0  0  0  0  0  0  # atno 17370 bound_to 10713
  156.9095  130.5275  149.5280 LP  0  0  0  0  0  0  0  0  0  0  0  0  # atno 17371 bound_to 10713
  139.8726  134.9405  156.3771 LP  0  0  0  0  0  0  0  0  0  0  0  0  # atno 17394 bound_to 11000
  140.9337  133.7561  156.0057 LP  0  0  0  0  0  0  0  0  0  0  0  0  # atno 17395 bound_to 11000

$$$$
