#       Name:                AV-unprocessed.smi:1917
#       Creating user name   scv26
#       Creation time:       Fri Mar 27 09:51:27 2020


#       File generated by GOLD software.
#

@<TRIPOS>MOLECULE
AV-unprocessed.smi:1917
    52    53     1
SMALL
NO_CHARGES


@<TRIPOS>ATOM
      1 ****        -3.5058  -1.8646  -3.8537 C.3            1 S1                 0.0000
      2 ****        -3.5675  -0.7720  -2.7824 C.2            1 S1                 0.0000
      3 ****        -4.2027   0.2526  -3.0351 O.2            1 S1                 0.0000
      4 ****        -2.9304  -0.9599  -1.6007 N.am           1 S1                 0.0000
      5 ****        -2.9639   0.0946  -0.5828 C.3            1 S1                 0.0000
      6 ****        -2.1614  -2.1663  -1.2559 C.3            1 S1                 0.0000
      7 ****        -0.6655  -2.0218  -1.5651 C.2            1 S1                 0.0000
      8 ****        -0.2795  -1.3389  -2.5144 O.2            1 S1                 0.0000
      9 ****         0.1712  -2.6769  -0.7459 N.am           1 S1                 0.0000
     10 ****         1.6284  -2.6270  -0.8240 C.3            1 S1                 0.0000
     11 ****         2.2612  -1.3352  -0.3160 C.ar           1 S1                 0.0000
     12 ****         3.6079  -1.0608  -0.6220 C.ar           1 S1                 0.0000
     13 ****         4.1758   0.1341  -0.1447 C.ar           1 S1                 0.0000
     14 ****         3.4936   1.0349   0.5919 N.ar           1 S1                 0.0000
     15 ****         2.1969   0.7885   0.8975 C.ar           1 S1                 0.0000
     16 ****         1.5251   1.7780   1.6498 N.3            1 S1                 0.0000
     17 ****         0.0795   1.6663   1.8273 C.3            1 S1                 0.0000
     18 ****        -0.5032   2.9880   2.3548 C.3            1 S1                 0.0000
     19 ****         0.1772   3.3727   3.5442 O.3            1 S1                 0.0000
     20 ****         1.5619   3.6033   3.3072 C.3            1 S1                 0.0000
     21 ****         2.2312   2.3085   2.8150 C.3            1 S1                 0.0000
     22 ****         1.5491  -0.3969   0.4668 C.ar           1 S1                 0.0000
     23 ****        -2.4747  -2.1333  -4.0834 H              1 S1                 0.0000
     24 ****        -3.9706  -1.5205  -4.7782 H              1 S1                 0.0000
     25 ****        -4.0394  -2.7567  -3.5254 H              1 S1                 0.0000
     26 ****        -3.9844   0.2608  -0.2348 H              1 S1                 0.0000
     27 ****        -2.5815   1.0337  -0.9862 H              1 S1                 0.0000
     28 ****        -2.3544  -0.1528   0.2870 H              1 S1                 0.0000
     29 ****        -2.2898  -2.3753  -0.1926 H              1 S1                 0.0000
     30 ****        -2.5405  -3.0546  -1.7607 H              1 S1                 0.0000
     31 ****        -0.2269  -3.2218   0.0051 H              1 S1                 0.0000
     32 ****         2.0256  -3.4543  -0.2356 H              1 S1                 0.0000
     33 ****         1.9441  -2.8023  -1.8540 H              1 S1                 0.0000
     34 ****         4.1956  -1.7492  -1.2116 H              1 S1                 0.0000
     35 ****         5.2059   0.3749  -0.3621 H              1 S1                 0.0000
     36 ****        -0.4009   1.4245   0.8788 H              1 S1                 0.0000
     37 ****        -0.1370   0.8562   2.5249 H              1 S1                 0.0000
     38 ****        -0.4216   3.7758   1.6041 H              1 S1                 0.0000
     39 ****        -1.5642   2.8679   2.5743 H              1 S1                 0.0000
     40 ****         1.6886   4.4066   2.5793 H              1 S1                 0.0000
     41 ****         2.0298   3.9376   4.2332 H              1 S1                 0.0000
     42 ****         2.2174   1.5568   3.6052 H              1 S1                 0.0000
     43 ****         3.2775   2.5174   2.5918 H              1 S1                 0.0000
     44 ****         0.5217  -0.5937   0.7294 H              1 S1                 0.0000
     45 ****        -4.6593   0.3526  -3.9191 LP             1 S1                 0.0000
     46 ****        -4.2618   0.9845  -2.3562 LP             1 S1                 0.0000
     47 ****        -0.9442  -0.8695  -3.0957 LP             1 S1                 0.0000
     48 ****         0.6987  -1.2537  -2.7040 LP             1 S1                 0.0000
     49 ****         3.9387   1.8728   0.9080 LP             1 S1                 0.0000
     50 ****         1.5802   2.5083   0.9688 LP             1 S1                 0.0000
     51 ****         0.0814   2.6442   4.2225 LP             1 S1                 0.0000
     52 ****        -0.2356   4.2126   3.8965 LP             1 S1                 0.0000
@<TRIPOS>BOND
    1    1    2 1     
    2    1   23 1     
    3    1   24 1     
    4    1   25 1     
    5    2    3 2     
    6    2    4 am    
    7    4    5 1     
    8    4    6 1     
    9    5   26 1     
   10    5   27 1     
   11    5   28 1     
   12    6    7 1     
   13    6   29 1     
   14    6   30 1     
   15    7    8 2     
   16    7    9 am    
   17    9   10 1     
   18    9   31 1     
   19   10   11 1     
   20   10   32 1     
   21   10   33 1     
   22   11   22 ar    
   23   11   12 ar    
   24   12   13 ar    
   25   12   34 1     
   26   13   14 ar    
   27   13   35 1     
   28   14   15 ar    
   29   15   16 1     
   30   15   22 ar    
   31   16   21 1     
   32   16   17 1     
   33   17   18 1     
   34   17   36 1     
   35   17   37 1     
   36   18   19 1     
   37   18   38 1     
   38   18   39 1     
   39   19   20 1     
   40   20   21 1     
   41   20   40 1     
   42   20   41 1     
   43   21   42 1     
   44   21   43 1     
   45   22   44 1     
   46    3   45 1     
   47    3   46 1     
   48    8   47 1     
   49    8   48 1     
   50   14   49 1     
   51   16   50 1     
   52   19   51 1     
   53   19   52 1     
@<TRIPOS>SUBSTRUCTURE
      1 S1             1
@<TRIPOS>SET
LONE_PAIRS      STATIC     ATOMS    <user>   **** ""
8 45 46 47 48 49 50 51 52
DONOR_HYDROGENS      STATIC     ATOMS    <user>   **** ""
1 31
ATOM$BLUE        STATIC     ATOMS    COLORGROUP SYSTEM
8 45 46 47 48 49 50 51 52
ATOM$RED        STATIC     ATOMS    COLORGROUP SYSTEM
1 31
