AV-unprocessed.smi:1803|AV-procd|sdf|7284|dock8
  -GOLD-   22720 8543D 1   1.00000     0.00000
 Structure written by MMmdl.
 36 38  0  0  0  0  0  0  0  0  2 V2000
  150.6754  133.6606  155.6278 O   0  0  0  0  0  0  0  0  0  0  0  0
  149.7288  134.3922  155.3437 C   0  0  0  0  0  0  0  0  0  0  0  0
  149.5210  135.5501  156.0070 N   0  0  0  0  0  0  0  0  0  0  0  0
  150.2340  136.1742  157.0726 C   0  0  0  0  0  0  0  0  0  0  0  0
  151.4577  135.8078  157.4885 N   0  0  0  0  0  0  0  0  0  0  0  0
  151.9035  136.5820  158.5511 N   0  0  0  0  0  0  0  0  0  0  0  0
  150.9979  137.4990  158.9021 C   0  0  0  0  0  0  0  0  0  0  0  0
  149.5127  137.5053  157.9672 S   0  0  0  0  0  0  0  0  0  0  0  0
  148.8500  134.0940  154.3728 N   0  0  0  0  0  0  0  0  0  0  0  0
  148.8879  132.9069  153.5251 C   0  0  1  0  0  0  0  0  0  0  0  0
  149.2670  131.6323  154.3003 C   0  0  0  0  0  0  0  0  0  0  0  0
  148.3926  130.5131  153.7013 C   0  0  0  0  0  0  0  0  0  0  0  0
  147.6634  131.1427  152.5841 N   0  3  1  0  0  0  0  0  0  0  0  0
  146.3883  130.5156  152.1728 C   0  0  0  0  0  0  0  0  0  0  0  0
  145.8274  131.2623  150.9461 C   0  0  0  0  0  0  0  0  0  0  0  0
  145.7136  132.7789  151.2025 C   0  0  0  0  0  0  0  0  0  0  0  0
  147.0449  133.3579  151.7196 C   0  0  0  0  0  0  0  0  0  0  0  0
  147.5130  132.5597  152.9483 C   0  0  2  0  0  0  0  0  0  0  0  0
  148.6953  136.0524  155.7142 H   0  0  0  0  0  0  0  0  0  0  0  0
  151.2054  138.1754  159.7181 H   0  0  0  0  0  0  0  0  0  0  0  0
  148.0985  134.7488  154.2065 H   0  0  0  0  0  0  0  0  0  0  0  0
  149.6034  133.0385  152.7104 H   0  0  0  0  0  0  0  0  0  0  0  0
  150.3309  131.4148  154.1993 H   0  0  0  0  0  0  0  0  0  0  0  0
  149.0542  131.7340  155.3657 H   0  0  0  0  0  0  0  0  0  0  0  0
  148.9825  129.6661  153.3500 H   0  0  0  0  0  0  0  0  0  0  0  0
  147.6878  130.1483  154.4503 H   0  0  0  0  0  0  0  0  0  0  0  0
  146.5575  129.4660  151.9301 H   0  0  0  0  0  0  0  0  0  0  0  0
  145.6755  130.5459  152.9985 H   0  0  0  0  0  0  0  0  0  0  0  0
  146.4828  131.0916  150.0910 H   0  0  0  0  0  0  0  0  0  0  0  0
  144.8538  130.8547  150.6727 H   0  0  0  0  0  0  0  0  0  0  0  0
  145.4098  133.2925  150.2899 H   0  0  0  0  0  0  0  0  0  0  0  0
  144.9286  132.9642  151.9370 H   0  0  0  0  0  0  0  0  0  0  0  0
  147.7998  133.3155  150.9332 H   0  0  0  0  0  0  0  0  0  0  0  0
  146.9165  134.4099  151.9752 H   0  0  0  0  0  0  0  0  0  0  0  0
  146.7628  132.6373  153.7391 H   0  0  0  0  0  0  0  0  0  0  0  0
  148.2825  131.1179  151.7865 H   0  0  0  0  0  0  0  0  0  0  0  0
  1  2  2  0  0  0  0
  2  3  1  0  0  0  0
  2  9  1  0  0  0  0
  3  4  1  0  0  0  0
  3 19  1  0  0  0  0
  4  8  1  0  0  0  0
  4  5  2  0  0  0  0
  5  6  1  0  0  0  0
  6  7  2  0  0  0  0
  7  8  1  0  0  0  0
  7 20  1  0  0  0  0
  9 10  1  0  0  0  0
  9 21  1  0  0  0  0
 10 18  1  0  0  0  0
 10 11  1  0  0  0  0
 10 22  1  0  0  0  0
 11 12  1  0  0  0  0
 11 23  1  0  0  0  0
 11 24  1  0  0  0  0
 12 13  1  0  0  0  0
 12 25  1  0  0  0  0
 12 26  1  0  0  0  0
 13 18  1  0  0  0  0
 13 14  1  0  0  0  0
 13 36  1  0  0  0  0
 14 15  1  0  0  0  0
 14 27  1  0  0  0  0
 14 28  1  0  0  0  0
 15 16  1  0  0  0  0
 15 29  1  0  0  0  0
 15 30  1  0  0  0  0
 16 17  1  0  0  0  0
 16 31  1  0  0  0  0
 16 32  1  0  0  0  0
 17 18  1  0  0  0  0
 17 33  1  0  0  0  0
 17 34  1  0  0  0  0
 18 35  1  0  0  0  0
M  CHG  1  13   1
M  END
> <s_m_source_file>
AV-unprocessed.smi

> <i_m_source_file_index>
1803

> <i_lp_mmshare_version>
43012

> <i_f3d_flags>
0

> <s_epik_input>
czFbY0hdbm5jMVtOSF1DKD1PKVtOSF1bQ0BIXShbQ0gyXVtDSDJdMilbQ0BASF0oTjIzKVtDSDJdW0NIMl1bQ0gyXVtDSDJdMw==

> <s_epik_cmdline>
J2VwaWtfcHl0aG9uJywgJy1waCcsICc3LjAnLCAnLXRuJywgJzgnLCAnLW1hJywgJzIwMCcsICctbWV0YWxfYmluZGluZycsICctaW1hZScsICc8aW5maWxlLm1hZT4nLCAnLW9tYWUnLCAnPG91dGZpbGUubWFlPic=

> <r_lp_tautomer_probability>
1

> <r_epik_Ionization_Penalty>
0.00213286

> <r_epik_Ionization_Penalty_Charging>
0.00107044

> <r_epik_Ionization_Penalty_Neutral>
0.00106242

> <r_epik_State_Penalty>
-0

> <r_epik_Charging_Adjusted_Penalty>
0.00107044

> <i_epik_Tot_Q>
1

> <i_epik_Tot_abs_Q>
1

> <r_epik_Metal_State_Penalty>
0.292783

> <b_epik_Metal_Only>
0

> <s_lp_Force_Field>
OPLS_2005

> <r_lp_Energy>
35.8309

> <b_lp_Chiralities_Consistent>
1

> <s_lp_Variant>
AV-unprocessed.smi:1803-6

> <Gold.Version>
5.8.1

> <Gold.Id.Protein>
6NUR|6NUR_protein|mol2

> <Gold.PLP.Fitness>
32.9452

> <Gold.PLP.PLP>
-29.0402

> <Gold.PLP.part.hbond>
-3.2293

> <Gold.PLP.part.metal>
0.0000

> <Gold.PLP.part.buried>
-4.1805

> <Gold.PLP.part.nonpolar>
-21.8960

> <Gold.PLP.part.repulsive>
0.0577

> <Gold.PLP.ligand.clash>
0.0000

> <Gold.PLP.ligand.torsion>
0.3394

> <Gold.PLP.Chemscore.Hbond>
1.5248

> <Gold.PLP.Chemscore.CHOScore>
0.0000

> <Gold.PLP.Chemscore.Metal>
0.0000

> <Gold.Chemscore.Hbonds>
donor molecule, donor type, donor heavy atom, donor atom, acceptor molecule, acceptor atom, score
      L1  H    13    36       P1 10747  1.00
      P1  H  6896  6909       L1     6  0.52

> <Gold.PLP.Chemscore.Internal.Correction>
0.0095

> <Gold.Rescore>
     Score         DG    S(hbond)    S(metal)    S(lipo)     H(rot)  DE(clash)    DE(int)     intcor
     11.43     -14.48       1.27        0.00      62.57       1.00       0.00       3.05       ----

> <Gold.Chemscore.Fitness>
11.4347

> <Gold.Chemscore.DG>
-14.4849

> <Gold.Chemscore.ZeroCoef>
-5.4800

> <Gold.Chemscore.Hbond>
1.2707

> <Gold.Chemscore.Metal>
0.0000

> <Gold.Chemscore.Lipo>
62.5714

> <Gold.Chemscore.Internal_Hbond>
0.0000

> <Gold.Chemscore.DEClash>
0.0021

> <Gold.Chemscore.DEInternal>
3.0481

> <Gold.Chemscore.Rot>
1.0000

> <Gold.Chemscore.Internal.Correction>
   9.000000E+99

> <Gold.Chemscore.Hbonds>
donor molecule, donor type, donor heavy atom, donor atom, acceptor molecule, acceptor atom, score
      L1  H    13    36       P1 10747  1.00
      P1  H  6896  6909       L1     6  0.03

> <Gold.Chemscore.Hbond.Weighted>
-4.2441

> <Gold.Chemscore.Metal.Weighted>
-0.0000

> <Gold.Chemscore.Lipo.Weighted>
-7.3208

> <Gold.Chemscore.Internal_Hbond.Weighted>
0.0000

> <Gold.Chemscore.DEClash.Weighted>
0.0021

> <Gold.Chemscore.DEInternal.Weighted>
3.0481

> <Gold.Chemscore.Rot.Weighted>
2.5600

> <Gold.Chemscore.Internal.Correction.Weighted>
   9.000000E+99

> <Gold.Protein.RotatedTorsions>
[ 6907 6896 6895 6894 ] final  122.69 input  -60.11 | X-H torsion
[ 7974 7965 7964 7962 ] final   75.43 input  175.53 | X-H torsion
[ 8008 7997 7996 7995 ] final   -4.20 input   59.86 | X-H torsion
[ 10167 10162 10161 10158 ] final  166.55 input  -65.29 | X-H torsion
[ 10718 10713 10712 10709 ] final   54.30 input   66.30 | X-H torsion
[ 10763 10752 10751 10750 ] final   17.52 input  -60.55 | X-H torsion
[ 11005 11000 10999 10996 ] final -135.93 input  -57.11 | X-H torsion

> <Gold.Protein.ActiveResidues>
 VAL166  LYS551  ARG553  GLY616  TRP617  ASP618  TYR619  PRO620  LYS621  CYS622 
 ASP623  PHE694  ASN695  SER759  ASP760  ASP761  ALA762  ILE779  LEU786  VAL792 
 PHE793  MET794  SER795  GLU796  ALA797  LYS798  CYS799  TRP800  GLU811  SER814 

> <Gold.Protein.RotatedAtoms>
  152.4223  133.7136  159.6492 H   0  0  0  0  0  0  0  0  0  0  0  0  # atno 6907 bound_to 6896
  150.8099  133.8431  159.3193 H   0  0  0  0  0  0  0  0  0  0  0  0  # atno 6908 bound_to 6896
  151.6144  135.1039  160.0139 H   0  0  0  0  0  0  0  0  0  0  0  0  # atno 6909 bound_to 6896
  145.7157  139.2630  143.1625 H   0  0  0  0  0  0  0  0  0  0  0  0  # atno 7974 bound_to 7965
  154.6168  140.2490  155.7599 H   0  0  0  0  0  0  0  0  0  0  0  0  # atno 8008 bound_to 7997
  156.2403  140.2935  156.0376 H   0  0  0  0  0  0  0  0  0  0  0  0  # atno 8009 bound_to 7997
  155.1962  140.0393  157.2899 H   0  0  0  0  0  0  0  0  0  0  0  0  # atno 8010 bound_to 7997
  139.4927  144.4016  151.9403 H   0  0  0  0  0  0  0  0  0  0  0  0  # atno 10167 bound_to 10162
  157.5244  130.8587  149.8602 H   0  0  0  0  0  0  0  0  0  0  0  0  # atno 10718 bound_to 10713
  153.1331  135.6744  153.9146 H   0  0  0  0  0  0  0  0  0  0  0  0  # atno 10763 bound_to 10752
  153.8626  135.3079  155.3440 H   0  0  0  0  0  0  0  0  0  0  0  0  # atno 10764 bound_to 10752
  154.7725  135.4932  153.9759 H   0  0  0  0  0  0  0  0  0  0  0  0  # atno 10765 bound_to 10752
  140.8852  134.1881  157.4564 H   0  0  0  0  0  0  0  0  0  0  0  0  # atno 11005 bound_to 11000
  146.0671  140.7908  142.9706 LP  0  0  0  0  0  0  0  0  0  0  0  0  # atno 17320 bound_to 7965
  144.6930  140.3286  143.7220 LP  0  0  0  0  0  0  0  0  0  0  0  0  # atno 17321 bound_to 7965
  140.3455  144.3152  150.5959 LP  0  0  0  0  0  0  0  0  0  0  0  0  # atno 17342 bound_to 10162
  140.5530  143.2203  151.7895 LP  0  0  0  0  0  0  0  0  0  0  0  0  # atno 17343 bound_to 10162
  156.0376  130.3747  150.1518 LP  0  0  0  0  0  0  0  0  0  0  0  0  # atno 17370 bound_to 10713
  156.9705  130.9833  151.3460 LP  0  0  0  0  0  0  0  0  0  0  0  0  # atno 17371 bound_to 10713
  139.8723  134.9835  156.5200 LP  0  0  0  0  0  0  0  0  0  0  0  0  # atno 17394 bound_to 11000
  140.8413  133.8203  155.9077 LP  0  0  0  0  0  0  0  0  0  0  0  0  # atno 17395 bound_to 11000

$$$$
