#       Name:                AV-unprocessed.smi:1224
#       Creating user name   scv26
#       Creation time:       Fri Mar 27 04:19:15 2020


#       File generated by GOLD software.
#

@<TRIPOS>MOLECULE
AV-unprocessed.smi:1224
    47    49     1
SMALL
NO_CHARGES


@<TRIPOS>ATOM
      1 ****        -3.7052   4.7735   1.4208 C.3            1 S1                 0.0000
      2 ****        -3.2489   3.5000   0.7308 C.ar           1 S1                 0.0000
      3 ****        -3.4949   3.3415  -0.6519 C.ar           1 S1                 0.0000
      4 ****        -3.0861   2.1728  -1.3310 C.ar           1 S1                 0.0000
      5 ****        -3.2209   1.8117  -2.6608 N.2            1 S1                 0.0000
      6 ****        -2.6419   0.6143  -2.6731 C.2            1 S1                 0.0000
      7 ****        -2.1483   0.1563  -1.5066 N.pl3          1 S1                 0.0000
      8 ****        -1.4799  -1.1115  -1.2727 C.3            1 S1                 0.0000
      9 ****         0.0524  -0.9669  -1.2087 C.3            1 S1                 0.0000
     10 ****         0.5194  -0.4801  -2.4518 O.3            1 S1                 0.0000
     11 ****         0.7400  -2.3125  -0.9258 C.3            1 S1                 0.0000
     12 ****         2.1059  -2.1182  -0.4487 N.3            1 S1                 0.0000
     13 ****         2.7826  -3.3661  -0.1150 C.3            1 S1                 0.0000
     14 ****         4.1936  -3.1348   0.3108 C.2            1 S1                 0.0000
     15 ****         5.2365  -2.6777  -0.4544 C.2            1 S1                 0.0000
     16 ****         6.4586  -2.5664   0.2716 C.2            1 S1                 0.0000
     17 ****         6.3325  -2.9404   1.5831 C.2            1 S1                 0.0000
     18 ****         4.7040  -3.4379   1.9525 S.3            1 S1                 0.0000
     19 ****        -2.4195   1.1590  -0.5828 C.ar           1 S1                 0.0000
     20 ****        -2.1684   1.3049   0.7928 C.ar           1 S1                 0.0000
     21 ****        -2.5833   2.4789   1.4557 C.ar           1 S1                 0.0000
     22 ****        -2.3058   2.6280   2.9410 C.3            1 S1                 0.0000
     23 ****        -4.2022   5.4483   0.7234 H              1 S1                 0.0000
     24 ****        -2.8533   5.3024   1.8485 H              1 S1                 0.0000
     25 ****        -4.4088   4.5435   2.2210 H              1 S1                 0.0000
     26 ****        -4.0009   4.1191  -1.2050 H              1 S1                 0.0000
     27 ****        -2.5698   0.0364  -3.5830 H              1 S1                 0.0000
     28 ****        -1.8591  -1.5246  -0.3372 H              1 S1                 0.0000
     29 ****        -1.7662  -1.8100  -2.0605 H              1 S1                 0.0000
     30 ****         0.3082  -0.2473  -0.4291 H              1 S1                 0.0000
     31 ****         1.4600  -0.3994  -2.4039 H              1 S1                 0.0000
     32 ****         0.1740  -2.8436  -0.1593 H              1 S1                 0.0000
     33 ****         0.7237  -2.9456  -1.8142 H              1 S1                 0.0000
     34 ****         2.0898  -1.5171   0.3691 H              1 S1                 0.0000
     35 ****         2.2400  -3.8826   0.6778 H              1 S1                 0.0000
     36 ****         2.7757  -4.0339  -0.9771 H              1 S1                 0.0000
     37 ****         5.1639  -2.4200  -1.5006 H              1 S1                 0.0000
     38 ****         7.3733  -2.2202  -0.1864 H              1 S1                 0.0000
     39 ****         7.0922  -2.9538   2.3508 H              1 S1                 0.0000
     40 ****        -1.6593   0.5195   1.3317 H              1 S1                 0.0000
     41 ****        -1.8060   1.7462   3.3429 H              1 S1                 0.0000
     42 ****        -3.2360   2.7654   3.4927 H              1 S1                 0.0000
     43 ****        -1.6633   3.4896   3.1237 H              1 S1                 0.0000
     44 ****        -3.6423   2.3176  -3.4134 LP             1 S1                 0.0000
     45 ****         0.1123   0.4138  -2.6396 LP             1 S1                 0.0000
     46 ****         0.2714  -1.1190  -3.1801 LP             1 S1                 0.0000
     47 ****         2.6210  -1.6991  -1.1964 LP             1 S1                 0.0000
@<TRIPOS>BOND
    1    1    2 1     
    2    1   23 1     
    3    1   24 1     
    4    1   25 1     
    5    2   21 ar    
    6    2    3 ar    
    7    3    4 ar    
    8    3   26 1     
    9    4   19 ar    
   10    4    5 1     
   11    5    6 2     
   12    6    7 1     
   13    6   27 1     
   14    7    8 1     
   15    7   19 1     
   16    8    9 1     
   17    8   28 1     
   18    8   29 1     
   19    9   10 1     
   20    9   11 1     
   21    9   30 1     
   22   10   31 1     
   23   11   12 1     
   24   11   32 1     
   25   11   33 1     
   26   12   13 1     
   27   12   34 1     
   28   13   14 1     
   29   13   35 1     
   30   13   36 1     
   31   14   18 1     
   32   14   15 2     
   33   15   16 1     
   34   15   37 1     
   35   16   17 2     
   36   16   38 1     
   37   17   18 1     
   38   17   39 1     
   39   19   20 ar    
   40   20   21 ar    
   41   20   40 1     
   42   21   22 1     
   43   22   41 1     
   44   22   42 1     
   45   22   43 1     
   46    5   44 1     
   47   10   45 1     
   48   10   46 1     
   49   12   47 1     
@<TRIPOS>SUBSTRUCTURE
      1 S1             1
@<TRIPOS>SET
LONE_PAIRS      STATIC     ATOMS    <user>   **** ""
4 44 45 46 47
DONOR_HYDROGENS      STATIC     ATOMS    <user>   **** ""
2 31 34
ATOM$BLUE        STATIC     ATOMS    COLORGROUP SYSTEM
4 44 45 46 47
ATOM$RED        STATIC     ATOMS    COLORGROUP SYSTEM
2 31 34
