AV-unprocessed.smi:299|AV-procd|sdf|2267|dock8
  -GOLD-   2262022153D 1   1.00000     0.00000
 Structure written by MMmdl.
 42 43  0  0  0  0  0  0  0  0  2 V2000
  151.9017  141.8963  158.3208 C   0  0  0  0  0  0  0  0  0  0  0  0
  151.2215  143.0685  157.5803 C   0  0  2  0  0  0  0  0  0  0  0  0
  152.0999  144.3374  157.5593 C   0  0  0  0  0  0  0  0  0  0  0  0
  152.1542  145.0254  158.9314 C   0  0  0  0  0  0  0  0  0  0  0  0
  150.7332  145.3073  159.4336 C   0  0  0  0  0  0  0  0  0  0  0  0
  149.8824  144.0268  159.4445 C   0  0  0  0  0  0  0  0  0  0  0  0
  149.8573  143.3881  158.0998 N   0  3  2  0  0  0  0  0  0  0  0  0
  148.8987  142.2571  157.9932 C   0  0  0  0  0  0  0  0  0  0  0  0
  147.4416  142.7009  158.2066 C   0  0  0  0  0  0  0  0  0  0  0  0
  146.4344  141.6660  157.6773 C   0  0  0  0  0  0  0  0  0  0  0  0
  146.7425  141.2653  156.3099 N   0  0  0  0  0  0  0  0  0  0  0  0
  146.5577  142.0273  155.2203 C   0  0  0  0  0  0  0  0  0  0  0  0
  146.1097  143.1728  155.2623 O   0  0  0  0  0  0  0  0  0  0  0  0
  146.9300  141.3999  153.8762 C   0  0  0  0  0  0  0  0  0  0  0  0
  148.1624  140.6415  153.9801 N   0  0  0  0  0  0  0  0  0  0  0  0
  148.3786  139.3277  154.0705 C   0  0  0  0  0  0  0  0  0  0  0  0
  149.6700  139.0507  154.1679 N   0  0  0  0  0  0  0  0  0  0  0  0
  150.2641  140.3010  154.1293 N   0  0  0  0  0  0  0  0  0  0  0  0
  149.3747  141.2491  154.0186 N   0  0  0  0  0  0  0  0  0  0  0  0
  152.8819  141.6881  157.8906 H   0  0  0  0  0  0  0  0  0  0  0  0
  151.3215  140.9772  158.2431 H   0  0  0  0  0  0  0  0  0  0  0  0
  152.0523  142.1041  159.3796 H   0  0  0  0  0  0  0  0  0  0  0  0
  151.1009  142.7578  156.5414 H   0  0  0  0  0  0  0  0  0  0  0  0
  153.1083  144.0953  157.2217 H   0  0  0  0  0  0  0  0  0  0  0  0
  151.6978  145.0392  156.8270 H   0  0  0  0  0  0  0  0  0  0  0  0
  152.6841  144.3968  159.6477 H   0  0  0  0  0  0  0  0  0  0  0  0
  152.7184  145.9561  158.8615 H   0  0  0  0  0  0  0  0  0  0  0  0
  150.7702  145.7387  160.4343 H   0  0  0  0  0  0  0  0  0  0  0  0
  150.2606  146.0533  158.7927 H   0  0  0  0  0  0  0  0  0  0  0  0
  150.2615  143.3250  160.1879 H   0  0  0  0  0  0  0  0  0  0  0  0
  148.8721  144.2874  159.7569 H   0  0  0  0  0  0  0  0  0  0  0  0
  148.9730  141.8205  156.9962 H   0  0  0  0  0  0  0  0  0  0  0  0
  149.1684  141.4695  158.6984 H   0  0  0  0  0  0  0  0  0  0  0  0
  147.2467  142.8717  159.2649 H   0  0  0  0  0  0  0  0  0  0  0  0
  147.2819  143.6564  157.7050 H   0  0  0  0  0  0  0  0  0  0  0  0
  146.4068  140.7879  158.3250 H   0  0  0  0  0  0  0  0  0  0  0  0
  145.4294  142.0890  157.6842 H   0  0  0  0  0  0  0  0  0  0  0  0
  147.1166  140.3359  156.1796 H   0  0  0  0  0  0  0  0  0  0  0  0
  146.1355  140.7318  153.5411 H   0  0  0  0  0  0  0  0  0  0  0  0
  147.0416  142.1756  153.1169 H   0  0  0  0  0  0  0  0  0  0  0  0
  147.5972  138.5822  154.0711 H   0  0  0  0  0  0  0  0  0  0  0  0
  149.5036  144.0944  157.4702 H   0  0  0  0  0  0  0  0  0  0  0  0
  1  2  1  0  0  0  0
  1 20  1  0  0  0  0
  1 21  1  0  0  0  0
  1 22  1  0  0  0  0
  2  7  1  0  0  0  0
  2  3  1  0  0  0  0
  2 23  1  0  0  0  0
  3  4  1  0  0  0  0
  3 24  1  0  0  0  0
  3 25  1  0  0  0  0
  4  5  1  0  0  0  0
  4 26  1  0  0  0  0
  4 27  1  0  0  0  0
  5  6  1  0  0  0  0
  5 28  1  0  0  0  0
  5 29  1  0  0  0  0
  6  7  1  0  0  0  0
  6 30  1  0  0  0  0
  6 31  1  0  0  0  0
  7  8  1  0  0  0  0
  7 42  1  0  0  0  0
  8  9  1  0  0  0  0
  8 32  1  0  0  0  0
  8 33  1  0  0  0  0
  9 10  1  0  0  0  0
  9 34  1  0  0  0  0
  9 35  1  0  0  0  0
 10 11  1  0  0  0  0
 10 36  1  0  0  0  0
 10 37  1  0  0  0  0
 11 12  1  0  0  0  0
 11 38  1  0  0  0  0
 12 13  2  0  0  0  0
 12 14  1  0  0  0  0
 14 15  1  0  0  0  0
 14 39  1  0  0  0  0
 14 40  1  0  0  0  0
 15 19  1  0  0  0  0
 15 16  1  0  0  0  0
 16 17  2  0  0  0  0
 16 41  1  0  0  0  0
 17 18  1  0  0  0  0
 18 19  2  0  0  0  0
M  CHG  1   7   1
M  END
> <s_m_source_file>
AV-unprocessed.smi

> <i_m_source_file_index>
299

> <i_lp_mmshare_version>
43012

> <i_f3d_flags>
0

> <s_epik_input>
W0NIM11bQ0BASF0xW0NIMl1bQ0gyXVtDSDJdW0NIMl1OMVtDSDJdW0NIMl1bQ0gyXVtOSF1DKD1PKVtDSDJdbjJbY0hdbm5uMg==

> <s_epik_cmdline>
J2VwaWtfcHl0aG9uJywgJy1waCcsICc3LjAnLCAnLXRuJywgJzgnLCAnLW1hJywgJzIwMCcsICctbWV0YWxfYmluZGluZycsICctaW1hZScsICc8aW5maWxlLm1hZT4nLCAnLW9tYWUnLCAnPG91dGZpbGUubWFlPic=

> <r_lp_tautomer_probability>
1

> <r_epik_Ionization_Penalty>
0.000544863

> <r_epik_Ionization_Penalty_Charging>
0.000543475

> <r_epik_Ionization_Penalty_Neutral>
1.38784e-06

> <r_epik_State_Penalty>
0.000340025

> <r_epik_Charging_Adjusted_Penalty>
0.0008835

> <i_epik_Tot_Q>
1

> <i_epik_Tot_abs_Q>
1

> <r_epik_Metal_State_Penalty>
-0

> <b_epik_Metal_Only>
0

> <s_lp_Force_Field>
OPLS_2005

> <r_lp_Energy>
22.352

> <b_lp_Chiralities_Consistent>
1

> <s_lp_Variant>
AV-unprocessed.smi:299-3

> <Gold.Version>
5.8.1

> <Gold.Id.Protein>
6NUR|6NUR_protein|mol2

> <Gold.PLP.Fitness>
45.6643

> <Gold.PLP.PLP>
-36.0027

> <Gold.PLP.part.hbond>
-3.7825

> <Gold.PLP.part.metal>
0.0000

> <Gold.PLP.part.buried>
-4.3644

> <Gold.PLP.part.nonpolar>
-28.1577

> <Gold.PLP.part.repulsive>
1.3355

> <Gold.PLP.ligand.clash>
0.0000

> <Gold.PLP.ligand.torsion>
0.7247

> <Gold.PLP.Chemscore.Hbond>
3.6752

> <Gold.PLP.Chemscore.CHOScore>
0.0000

> <Gold.PLP.Chemscore.Metal>
0.0000

> <Gold.Chemscore.Hbonds>
donor molecule, donor type, donor heavy atom, donor atom, acceptor molecule, acceptor atom, score
      L1  H     7    42       P1  8028  1.90
      P1  H  7989  7998       L1    18  0.94
      P1  H  8011  8017       L1    19  0.66

> <Gold.PLP.Chemscore.Internal.Correction>
0.0854

> <Gold.Rescore>
     Score         DG    S(hbond)    S(metal)    S(lipo)     H(rot)  DE(clash)    DE(int)     intcor
     10.37     -11.32       1.35        0.00      76.37       2.97       0.20       0.75       ----

> <Gold.Chemscore.Fitness>
10.3719

> <Gold.Chemscore.DG>
-11.3208

> <Gold.Chemscore.ZeroCoef>
-5.4800

> <Gold.Chemscore.Hbond>
1.3484

> <Gold.Chemscore.Metal>
0.0000

> <Gold.Chemscore.Lipo>
76.3689

> <Gold.Chemscore.Internal_Hbond>
0.0000

> <Gold.Chemscore.DEClash>
0.2036

> <Gold.Chemscore.DEInternal>
0.7453

> <Gold.Chemscore.Rot>
2.9680

> <Gold.Chemscore.Internal.Correction>
   9.000000E+99

> <Gold.Chemscore.Hbonds>
donor molecule, donor type, donor heavy atom, donor atom, acceptor molecule, acceptor atom, score
      L1  H     7    42       P1  8028  0.20
      P1  H  7989  7998       L1    18  0.50
      P1  H  8011  8017       L1    19  0.43

> <Gold.Chemscore.Hbond.Weighted>
-4.5036

> <Gold.Chemscore.Metal.Weighted>
-0.0000

> <Gold.Chemscore.Lipo.Weighted>
-8.9352

> <Gold.Chemscore.Internal_Hbond.Weighted>
0.0000

> <Gold.Chemscore.DEClash.Weighted>
0.2036

> <Gold.Chemscore.DEInternal.Weighted>
0.7453

> <Gold.Chemscore.Rot.Weighted>
7.5980

> <Gold.Chemscore.Internal.Correction.Weighted>
   9.000000E+99

> <Gold.Protein.RotatedTorsions>
[ 6907 6896 6895 6894 ] final    8.79 input  -60.11 | X-H torsion
[ 7974 7965 7964 7962 ] final   39.05 input  175.53 | X-H torsion
[ 8008 7997 7996 7995 ] final -130.01 input   59.86 | X-H torsion
[ 10167 10162 10161 10158 ] final   84.57 input  -65.29 | X-H torsion
[ 10718 10713 10712 10709 ] final -159.56 input   66.30 | X-H torsion
[ 10763 10752 10751 10750 ] final  103.60 input  -60.55 | X-H torsion
[ 11005 11000 10999 10996 ] final  111.38 input  -57.11 | X-H torsion

> <Gold.Protein.ActiveResidues>
 VAL166  LYS551  ARG553  GLY616  TRP617  ASP618  TYR619  PRO620  LYS621  CYS622 
 ASP623  PHE694  ASN695  SER759  ASP760  ASP761  ALA762  ILE779  LEU786  VAL792 
 PHE793  MET794  SER795  GLU796  ALA797  LYS798  CYS799  TRP800  GLU811  SER814 

> <Gold.Protein.RotatedAtoms>
  151.7118  135.0911  160.0268 H   0  0  0  0  0  0  0  0  0  0  0  0  # atno 6907 bound_to 6896
  152.3657  133.6349  159.6057 H   0  0  0  0  0  0  0  0  0  0  0  0  # atno 6908 bound_to 6896
  150.7636  133.9268  159.3456 H   0  0  0  0  0  0  0  0  0  0  0  0  # atno 6909 bound_to 6896
  146.1014  139.5698  142.9411 H   0  0  0  0  0  0  0  0  0  0  0  0  # atno 7974 bound_to 7965
  155.2886  140.0447  157.3021 H   0  0  0  0  0  0  0  0  0  0  0  0  # atno 8008 bound_to 7997
  154.5554  140.2330  155.8386 H   0  0  0  0  0  0  0  0  0  0  0  0  # atno 8009 bound_to 7997
  156.2003  140.3027  155.9519 H   0  0  0  0  0  0  0  0  0  0  0  0  # atno 8010 bound_to 7997
  139.9067  144.6297  150.8580 H   0  0  0  0  0  0  0  0  0  0  0  0  # atno 10167 bound_to 10162
  156.5699  130.8684  151.2834 H   0  0  0  0  0  0  0  0  0  0  0  0  # atno 10718 bound_to 10713
  153.3548  135.3971  155.1674 H   0  0  0  0  0  0  0  0  0  0  0  0  # atno 10763 bound_to 10752
  154.8669  135.3665  154.5175 H   0  0  0  0  0  0  0  0  0  0  0  0  # atno 10764 bound_to 10752
  153.5629  135.7080  153.5599 H   0  0  0  0  0  0  0  0  0  0  0  0  # atno 10765 bound_to 10752
  139.8902  134.9506  156.6423 H   0  0  0  0  0  0  0  0  0  0  0  0  # atno 11005 bound_to 11000
  145.5846  141.0378  143.2103 LP  0  0  0  0  0  0  0  0  0  0  0  0  # atno 17320 bound_to 7965
  144.7436  139.7381  143.7301 LP  0  0  0  0  0  0  0  0  0  0  0  0  # atno 17321 bound_to 7965
  140.7695  143.3396  151.2236 LP  0  0  0  0  0  0  0  0  0  0  0  0  # atno 17342 bound_to 10162
  139.6978  143.9584  152.2891 LP  0  0  0  0  0  0  0  0  0  0  0  0  # atno 17343 bound_to 10162
  157.7350  130.9756  150.2061 LP  0  0  0  0  0  0  0  0  0  0  0  0  # atno 17370 bound_to 10713
  156.2724  130.3723  149.8018 LP  0  0  0  0  0  0  0  0  0  0  0  0  # atno 17371 bound_to 10713
  140.7584  133.8838  155.8399 LP  0  0  0  0  0  0  0  0  0  0  0  0  # atno 17394 bound_to 11000
  140.9942  134.1237  157.4379 LP  0  0  0  0  0  0  0  0  0  0  0  0  # atno 17395 bound_to 11000

$$$$
