#       Name:                AV-unprocessed.smi:671
#       Creating user name   scv26
#       Creation time:       Fri Mar 27 00:23:31 2020


#       File generated by GOLD software.
#

@<TRIPOS>MOLECULE
AV-unprocessed.smi:671
    52    53     1
SMALL
NO_CHARGES


@<TRIPOS>ATOM
      1 ****        -1.5483  -4.3672  -4.7096 C.3            1 S1                 0.0000
      2 ****        -2.8246  -3.9431  -4.0404 C.2            1 S1                 0.0000
      3 ****        -3.9636  -4.4874  -4.4336 N.2            1 S1                 0.0000
      4 ****        -4.9055  -3.9124  -3.6599 N.pl3          1 S1                 0.0000
      5 ****        -6.2949  -4.2909  -3.8310 C.3            1 S1                 0.0000
      6 ****        -4.3611  -3.0007  -2.7767 C.2            1 S1                 0.0000
      7 ****        -5.2050  -2.2347  -1.8095 C.3            1 S1                 0.0000
      8 ****        -3.0083  -2.9926  -2.9925 C.2            1 S1                 0.0000
      9 ****        -1.9436  -2.1806  -2.2983 C.3            1 S1                 0.0000
     10 ****        -1.2066  -2.9816  -1.2074 C.3            1 S1                 0.0000
     11 ****        -2.1309  -3.4084  -0.0521 C.3            1 S1                 0.0000
     12 ****        -0.0998  -2.1730  -0.6898 N.am           1 S1                 0.0000
     13 ****         1.0784  -2.5907  -0.1920 C.2            1 S1                 0.0000
     14 ****         1.3632  -3.7845  -0.1194 O.2            1 S1                 0.0000
     15 ****         1.8970  -1.6030   0.2070 N.am           1 S1                 0.0000
     16 ****         3.2060  -1.7645   0.8389 C.3            1 S1                 0.0000
     17 ****         4.2845  -1.0158   0.0285 C.3            1 S1                 0.0000
     18 ****         4.9141   0.0087   0.9787 C.3            1 S1                 0.0000
     19 ****         3.8689   0.2306   2.0679 C.3            1 S1                 0.0000
     20 ****         3.2423  -1.1513   2.2585 C.3            1 S1                 0.0000
     21 ****         1.9143  -1.1282   3.0369 C.3            1 S1                 0.0000
     22 ****        -0.6726  -3.9976  -4.1767 H              1 S1                 0.0000
     23 ****        -1.4981  -3.9869  -5.7299 H              1 S1                 0.0000
     24 ****        -1.4699  -5.4538  -4.7542 H              1 S1                 0.0000
     25 ****        -6.6974  -4.6485  -2.8832 H              1 S1                 0.0000
     26 ****        -6.3911  -5.0828  -4.5749 H              1 S1                 0.0000
     27 ****        -6.8715  -3.4262  -4.1602 H              1 S1                 0.0000
     28 ****        -4.6049  -1.5502  -1.2110 H              1 S1                 0.0000
     29 ****        -5.7181  -2.9106  -1.1254 H              1 S1                 0.0000
     30 ****        -5.9587  -1.6470  -2.3341 H              1 S1                 0.0000
     31 ****        -1.2156  -1.8282  -3.0301 H              1 S1                 0.0000
     32 ****        -2.3652  -1.2749  -1.8615 H              1 S1                 0.0000
     33 ****        -0.8063  -3.8792  -1.6817 H              1 S1                 0.0000
     34 ****        -2.9303  -4.0617  -0.4015 H              1 S1                 0.0000
     35 ****        -2.5925  -2.5433   0.4249 H              1 S1                 0.0000
     36 ****        -1.5819  -3.9561   0.7143 H              1 S1                 0.0000
     37 ****        -0.2266  -1.1730  -0.7510 H              1 S1                 0.0000
     38 ****         1.5707  -0.6546   0.0927 H              1 S1                 0.0000
     39 ****         3.4678  -2.8219   0.9049 H              1 S1                 0.0000
     40 ****         5.0371  -1.6983  -0.3677 H              1 S1                 0.0000
     41 ****         3.8445  -0.4991  -0.8264 H              1 S1                 0.0000
     42 ****         5.8176  -0.4115   1.4226 H              1 S1                 0.0000
     43 ****         5.1940   0.9329   0.4727 H              1 S1                 0.0000
     44 ****         4.3011   0.6259   2.9877 H              1 S1                 0.0000
     45 ****         3.1176   0.9402   1.7182 H              1 S1                 0.0000
     46 ****         3.9497  -1.7436   2.8414 H              1 S1                 0.0000
     47 ****         1.1701  -0.4937   2.5547 H              1 S1                 0.0000
     48 ****         2.0648  -0.7443   4.0460 H              1 S1                 0.0000
     49 ****         1.4957  -2.1311   3.1243 H              1 S1                 0.0000
     50 ****        -4.0969  -5.1746  -5.1478 LP             1 S1                 0.0000
     51 ****         0.7114  -4.4741  -0.4350 LP             1 S1                 0.0000
     52 ****         2.2467  -4.0659   0.2552 LP             1 S1                 0.0000
@<TRIPOS>BOND
    1    1    2 1     
    2    1   22 1     
    3    1   23 1     
    4    1   24 1     
    5    2    8 1     
    6    2    3 2     
    7    3    4 1     
    8    4    5 1     
    9    4    6 1     
   10    5   25 1     
   11    5   26 1     
   12    5   27 1     
   13    6    7 1     
   14    6    8 2     
   15    7   28 1     
   16    7   29 1     
   17    7   30 1     
   18    8    9 1     
   19    9   10 1     
   20    9   31 1     
   21    9   32 1     
   22   10   11 1     
   23   10   12 1     
   24   10   33 1     
   25   11   34 1     
   26   11   35 1     
   27   11   36 1     
   28   12   13 am    
   29   12   37 1     
   30   13   14 2     
   31   13   15 am    
   32   15   16 1     
   33   15   38 1     
   34   16   20 1     
   35   16   17 1     
   36   16   39 1     
   37   17   18 1     
   38   17   40 1     
   39   17   41 1     
   40   18   19 1     
   41   18   42 1     
   42   18   43 1     
   43   19   20 1     
   44   19   44 1     
   45   19   45 1     
   46   20   21 1     
   47   20   46 1     
   48   21   47 1     
   49   21   48 1     
   50   21   49 1     
   51    3   50 1     
   52   14   51 1     
   53   14   52 1     
@<TRIPOS>SUBSTRUCTURE
      1 S1             1
@<TRIPOS>SET
LONE_PAIRS      STATIC     ATOMS    <user>   **** ""
3 50 51 52
DONOR_HYDROGENS      STATIC     ATOMS    <user>   **** ""
2 37 38
ATOM$BLUE        STATIC     ATOMS    COLORGROUP SYSTEM
3 50 51 52
ATOM$RED        STATIC     ATOMS    COLORGROUP SYSTEM
2 37 38
