AV-unprocessed.smi:2309|AV-procd|sdf|9253|dock8
  -GOLD-   2272012473D 1   1.00000     0.00000
 Structure written by MMmdl.
 34 35  0  0  0  0  0  0  0  0  1 V2000
  149.0024  141.3048  154.0045 C   0  0  0  0  0  0  0  0  0  0  0  0
  149.7885  140.8405  155.2179 C   0  0  0  0  0  0  0  0  0  0  0  0
  149.7257  141.6789  156.3346 N   0  0  0  0  0  0  0  0  0  0  0  0
  150.3650  141.3642  157.4131 C   0  0  0  0  0  0  0  0  0  0  0  0
  151.1309  140.1894  157.5024 N   0  0  0  0  0  0  0  0  0  0  0  0
  151.8145  139.9509  158.7856 C   0  0  0  0  0  0  0  0  0  0  0  0
  153.1080  140.7848  158.9267 C   0  0  2  0  0  0  0  0  0  0  0  0
  154.1833  139.9127  159.2185 O   0  0  0  0  0  0  0  0  0  0  0  0
  152.9417  141.8619  159.9977 C   0  0  0  0  0  0  0  0  0  0  0  0
  152.4324  143.1339  159.6459 C   0  0  0  0  0  0  0  0  0  0  0  0
  152.2810  144.1413  160.6175 C   0  0  0  0  0  0  0  0  0  0  0  0
  151.6554  145.6853  160.1691 Cl  0  0  0  0  0  0  0  0  0  0  0  0
  152.6428  143.8895  161.9532 C   0  0  0  0  0  0  0  0  0  0  0  0
  153.1625  142.6326  162.3126 C   0  0  0  0  0  0  0  0  0  0  0  0
  153.3182  141.6209  161.3437 C   0  0  0  0  0  0  0  0  0  0  0  0
  153.9879  140.1055  161.8399 Cl  0  0  0  0  0  0  0  0  0  0  0  0
  151.2460  139.3168  156.4599 C   0  0  0  0  0  0  0  0  0  0  0  0
  151.9204  138.2889  156.5455 O   0  0  0  0  0  0  0  0  0  0  0  0
  150.5132  139.6887  155.2384 C   0  0  0  0  0  0  0  0  0  0  0  0
  150.6193  138.7381  154.0523 C   0  0  0  0  0  0  0  0  0  0  0  0
  149.6627  141.4316  153.1460 H   0  0  0  0  0  0  0  0  0  0  0  0
  148.5113  142.2607  154.1910 H   0  0  0  0  0  0  0  0  0  0  0  0
  148.2313  140.5776  153.7487 H   0  0  0  0  0  0  0  0  0  0  0  0
  150.3531  141.9859  158.3102 H   0  0  0  0  0  0  0  0  0  0  0  0
  151.1275  140.2187  159.5915 H   0  0  0  0  0  0  0  0  0  0  0  0
  152.0191  138.8921  158.9546 H   0  0  0  0  0  0  0  0  0  0  0  0
  153.3564  141.2617  157.9792 H   0  0  0  0  0  0  0  0  0  0  0  0
  154.0833  139.5975  160.1038 H   0  0  0  0  0  0  0  0  0  0  0  0
  152.1578  143.3481  158.6233 H   0  0  0  0  0  0  0  0  0  0  0  0
  152.5286  144.6603  162.7013 H   0  0  0  0  0  0  0  0  0  0  0  0
  153.4478  142.4460  163.3376 H   0  0  0  0  0  0  0  0  0  0  0  0
  150.2567  137.7478  154.3300 H   0  0  0  0  0  0  0  0  0  0  0  0
  151.6597  138.6421  153.7399 H   0  0  0  0  0  0  0  0  0  0  0  0
  150.0458  139.0652  153.1865 H   0  0  0  0  0  0  0  0  0  0  0  0
  1  2  1  0  0  0  0
  1 21  1  0  0  0  0
  1 22  1  0  0  0  0
  1 23  1  0  0  0  0
  2 19  2  0  0  0  0
  2  3  1  0  0  0  0
  3  4  2  0  0  0  0
  4  5  1  0  0  0  0
  4 24  1  0  0  0  0
  5  6  1  0  0  0  0
  5 17  1  0  0  0  0
  6  7  1  0  0  0  0
  6 25  1  0  0  0  0
  6 26  1  0  0  0  0
  7  8  1  0  0  0  0
  7  9  1  0  0  0  0
  7 27  1  0  0  0  0
  8 28  1  0  0  0  0
  9 15  1  0  0  0  0
  9 10  2  0  0  0  0
 10 11  1  0  0  0  0
 10 29  1  0  0  0  0
 11 12  1  0  0  0  0
 11 13  2  0  0  0  0
 13 14  1  0  0  0  0
 13 30  1  0  0  0  0
 14 15  2  0  0  0  0
 14 31  1  0  0  0  0
 15 16  1  0  0  0  0
 17 18  2  0  0  0  0
 17 19  1  0  0  0  0
 19 20  1  0  0  0  0
 20 32  1  0  0  0  0
 20 33  1  0  0  0  0
 20 34  1  0  0  0  0
M  END
> <s_m_source_file>
AV-unprocessed.smi

> <i_m_source_file_index>
2309

> <i_lp_mmshare_version>
43012

> <i_f3d_flags>
0

> <s_epik_input>
W0NIM11jMW5bY0hdbihjKD1PKWMxW0NIM10pW0NIMl1bQ0BIXShbT0hdKWMyW2NIXWMoQ2wpW2NIXVtjSF1jMkNs

> <s_epik_cmdline>
J2VwaWtfcHl0aG9uJywgJy1waCcsICc3LjAnLCAnLXRuJywgJzgnLCAnLW1hJywgJzIwMCcsICctbWV0YWxfYmluZGluZycsICctaW1hZScsICc8aW5maWxlLm1hZT4nLCAnLW9tYWUnLCAnPG91dGZpbGUubWFlPic=

> <r_lp_tautomer_probability>
1

> <r_epik_Ionization_Penalty>
5.09224e-05

> <r_epik_Ionization_Penalty_Charging>
7.56727e-08

> <r_epik_Ionization_Penalty_Neutral>
5.08468e-05

> <r_epik_State_Penalty>
-0

> <r_epik_Charging_Adjusted_Penalty>
7.56727e-08

> <i_epik_Tot_Q>
0

> <i_epik_Tot_abs_Q>
0

> <r_epik_Metal_State_Penalty>
-0

> <b_epik_Metal_Only>
0

> <s_lp_Force_Field>
OPLS_2005

> <r_lp_Energy>
19.5674

> <b_lp_Chiralities_Consistent>
1

> <s_lp_Variant>
AV-unprocessed.smi:2309-1

> <Gold.Version>
5.8.1

> <Gold.Id.Protein>
6NUR|6NUR_protein|mol2

> <Gold.PLP.Fitness>
47.3632

> <Gold.PLP.PLP>
-48.1837

> <Gold.PLP.part.hbond>
-1.0000

> <Gold.PLP.part.metal>
0.0000

> <Gold.PLP.part.buried>
-3.0807

> <Gold.PLP.part.nonpolar>
-41.6945

> <Gold.PLP.part.repulsive>
0.0741

> <Gold.PLP.ligand.clash>
0.0000

> <Gold.PLP.ligand.torsion>
1.7342

> <Gold.PLP.Chemscore.Hbond>
0.8800

> <Gold.PLP.Chemscore.CHOScore>
0.0000

> <Gold.PLP.Chemscore.Metal>
0.0000

> <Gold.Chemscore.Hbonds>
donor molecule, donor type, donor heavy atom, donor atom, acceptor molecule, acceptor atom, score
      P1  H  7997  8009       L1     8  0.62

> <Gold.PLP.Chemscore.Internal.Correction>
0.0079

> <Gold.Rescore>
     Score         DG    S(hbond)    S(metal)    S(lipo)     H(rot)  DE(clash)    DE(int)     intcor
     12.86     -17.14       0.23        0.00     135.26       1.93       1.01       3.27       ----

> <Gold.Chemscore.Fitness>
12.8599

> <Gold.Chemscore.DG>
-17.1361

> <Gold.Chemscore.ZeroCoef>
-5.4800

> <Gold.Chemscore.Hbond>
0.2284

> <Gold.Chemscore.Metal>
0.0000

> <Gold.Chemscore.Lipo>
135.2554

> <Gold.Chemscore.Internal_Hbond>
0.0000

> <Gold.Chemscore.DEClash>
1.0100

> <Gold.Chemscore.DEInternal>
3.2662

> <Gold.Chemscore.Rot>
1.9265

> <Gold.Chemscore.Internal.Correction>
   9.000000E+99

> <Gold.Chemscore.Hbonds>
donor molecule, donor type, donor heavy atom, donor atom, acceptor molecule, acceptor atom, score
      P1  H  7997  8009       L1     8  0.14

> <Gold.Chemscore.Hbond.Weighted>
-0.7630

> <Gold.Chemscore.Metal.Weighted>
-0.0000

> <Gold.Chemscore.Lipo.Weighted>
-15.8249

> <Gold.Chemscore.Internal_Hbond.Weighted>
0.0000

> <Gold.Chemscore.DEClash.Weighted>
1.0100

> <Gold.Chemscore.DEInternal.Weighted>
3.2662

> <Gold.Chemscore.Rot.Weighted>
4.9317

> <Gold.Chemscore.Internal.Correction.Weighted>
   9.000000E+99

> <Gold.Protein.RotatedTorsions>
[ 6907 6896 6895 6894 ] final   93.89 input  -60.11 | X-H torsion
[ 7974 7965 7964 7962 ] final  118.58 input  175.53 | X-H torsion
[ 8008 7997 7996 7995 ] final  111.00 input   59.86 | X-H torsion
[ 10167 10162 10161 10158 ] final  140.36 input  -65.29 | X-H torsion
[ 10718 10713 10712 10709 ] final   30.70 input   66.30 | X-H torsion
[ 10763 10752 10751 10750 ] final -127.62 input  -60.55 | X-H torsion
[ 11005 11000 10999 10996 ] final  105.77 input  -57.11 | X-H torsion

> <Gold.Protein.ActiveResidues>
 VAL166  LYS551  ARG553  GLY616  TRP617  ASP618  TYR619  PRO620  LYS621  CYS622 
 ASP623  PHE694  ASN695  SER759  ASP760  ASP761  ALA762  ILE779  LEU786  VAL792 
 PHE793  MET794  SER795  GLU796  ALA797  LYS798  CYS799  TRP800  GLU811  SER814 

> <Gold.Protein.RotatedAtoms>
  152.5451  134.1278  159.8426 H   0  0  0  0  0  0  0  0  0  0  0  0  # atno 6907 bound_to 6896
  151.1327  133.5018  159.2606 H   0  0  0  0  0  0  0  0  0  0  0  0  # atno 6908 bound_to 6896
  151.1657  135.0304  159.8784 H   0  0  0  0  0  0  0  0  0  0  0  0  # atno 6909 bound_to 6896
  145.1535  139.3196  143.4554 H   0  0  0  0  0  0  0  0  0  0  0  0  # atno 7974 bound_to 7965
  156.2093  140.3028  155.9697 H   0  0  0  0  0  0  0  0  0  0  0  0  # atno 8008 bound_to 7997
  155.2763  140.0436  157.3028 H   0  0  0  0  0  0  0  0  0  0  0  0  # atno 8009 bound_to 7997
  154.5677  140.2339  155.8247 H   0  0  0  0  0  0  0  0  0  0  0  0  # atno 8010 bound_to 7997
  139.5051  144.6238  151.5986 H   0  0  0  0  0  0  0  0  0  0  0  0  # atno 10167 bound_to 10162
  157.2630  130.7170  149.6464 H   0  0  0  0  0  0  0  0  0  0  0  0  # atno 10718 bound_to 10713
  154.8753  135.3956  154.3623 H   0  0  0  0  0  0  0  0  0  0  0  0  # atno 10763 bound_to 10752
  153.4394  135.7026  153.6184 H   0  0  0  0  0  0  0  0  0  0  0  0  # atno 10764 bound_to 10752
  153.4772  135.3777  155.2392 H   0  0  0  0  0  0  0  0  0  0  0  0  # atno 10765 bound_to 10752
  139.8806  134.9347  156.5565 H   0  0  0  0  0  0  0  0  0  0  0  0  # atno 11005 bound_to 11000
  146.3491  140.1619  142.8590 LP  0  0  0  0  0  0  0  0  0  0  0  0  # atno 17320 bound_to 7965
  145.0405  140.8942  143.5055 LP  0  0  0  0  0  0  0  0  0  0  0  0  # atno 17321 bound_to 7965
  140.5949  143.9714  150.6348 LP  0  0  0  0  0  0  0  0  0  0  0  0  # atno 17342 bound_to 10162
  140.2906  143.3326  152.1065 LP  0  0  0  0  0  0  0  0  0  0  0  0  # atno 17343 bound_to 10162
  155.9664  130.4391  150.5246 LP  0  0  0  0  0  0  0  0  0  0  0  0  # atno 17370 bound_to 10713
  157.3155  131.0672  151.1970 LP  0  0  0  0  0  0  0  0  0  0  0  0  # atno 17371 bound_to 10713
  140.8201  133.8360  155.8888 LP  0  0  0  0  0  0  0  0  0  0  0  0  # atno 17394 bound_to 11000
  140.9426  134.1881  157.4786 LP  0  0  0  0  0  0  0  0  0  0  0  0  # atno 17395 bound_to 11000

$$$$
