AV-unprocessed.smi:170|AV-procd|sdf|1408|dock6
  -GOLD-   2262019163D 1   1.00000     0.00000
 Structure written by MMmdl.
 57 61  0  0  0  0  0  0  0  0  1 V2000
  144.0194  133.8292  153.3588 O   0  0  0  0  0  0  0  0  0  0  0  0
  145.0979  133.0843  152.8245 C   0  0  2  0  0  0  0  0  0  0  0  0
  146.4118  133.5445  153.4860 C   0  0  0  0  0  0  0  0  0  0  0  0
  146.5262  133.0967  154.8625 N   0  0  0  0  0  0  0  0  0  0  0  0
  145.6063  132.3553  155.5697 C   0  0  0  0  0  0  0  0  0  0  0  0
  145.9435  132.0769  156.7999 N   0  0  0  0  0  0  0  0  0  0  0  0
  147.1902  132.6715  156.9485 C   0  0  0  0  0  0  0  0  0  0  0  0
  148.1176  132.7629  158.0201 C   0  0  0  0  0  0  0  0  0  0  0  0
  147.8844  132.1740  159.2179 N   0  0  0  0  0  0  0  0  0  0  0  0
  148.8302  131.0815  159.4220 C   0  0  0  0  0  0  0  0  0  0  0  0
  148.4754  130.2905  160.6872 C   0  0  0  0  0  0  0  0  0  0  0  0
  148.4518  131.1824  161.7921 O   0  0  0  0  0  0  0  0  0  0  0  0
  147.4494  132.1803  161.6419 C   0  0  0  0  0  0  0  0  0  0  0  0
  147.7190  133.0481  160.3887 C   0  0  2  0  0  0  0  0  0  0  0  0
  146.5910  134.0943  160.1834 C   0  0  0  0  0  0  0  0  0  0  0  0
  146.6071  135.2407  161.1935 C   0  0  0  0  0  0  0  0  0  0  0  0
  147.8647  136.1110  161.3394 C   0  0  0  0  0  0  0  0  0  0  0  0
  147.5547  136.2248  162.8347 C   0  0  0  0  0  0  0  0  0  0  0  0
  146.7353  134.9393  162.6946 C   0  0  0  0  0  0  0  0  0  0  0  0
  149.2804  133.4322  157.7962 N   0  0  0  0  0  0  0  0  0  0  0  0
  149.5108  133.9927  156.6047 C   0  0  0  0  0  0  0  0  0  0  0  0
  148.7336  133.9973  155.5191 N   0  0  0  0  0  0  0  0  0  0  0  0
  147.5726  133.3160  155.7394 C   0  0  0  0  0  0  0  0  0  0  0  0
  145.1417  133.2320  151.2896 C   0  0  2  0  0  0  0  0  0  0  0  0
  143.8665  132.8809  150.5153 C   0  0  0  0  0  0  0  0  0  0  0  0
  144.4332  132.5459  149.1541 C   0  0  0  0  0  0  0  0  0  0  0  0
  145.7248  131.8222  149.5264 C   0  0  0  0  0  0  0  0  0  0  0  0
  146.1833  132.4379  150.7274 O   0  0  0  0  0  0  0  0  0  0  0  0
  143.4528  133.2350  153.8273 H   0  0  0  0  0  0  0  0  0  0  0  0
  144.9354  132.0337  153.0690 H   0  0  0  0  0  0  0  0  0  0  0  0
  147.2686  133.1597  152.9318 H   0  0  0  0  0  0  0  0  0  0  0  0
  146.4918  134.6322  153.4669 H   0  0  0  0  0  0  0  0  0  0  0  0
  144.6727  132.0230  155.1393 H   0  0  0  0  0  0  0  0  0  0  0  0
  148.8271  130.4112  158.5612 H   0  0  0  0  0  0  0  0  0  0  0  0
  149.8391  131.4877  159.5098 H   0  0  0  0  0  0  0  0  0  0  0  0
  147.5121  129.7890  160.5809 H   0  0  0  0  0  0  0  0  0  0  0  0
  149.2218  129.5175  160.8695 H   0  0  0  0  0  0  0  0  0  0  0  0
  146.4657  131.7106  161.5869 H   0  0  0  0  0  0  0  0  0  0  0  0
  147.4594  132.7910  162.5442 H   0  0  0  0  0  0  0  0  0  0  0  0
  148.6613  133.5747  160.5467 H   0  0  0  0  0  0  0  0  0  0  0  0
  146.6528  134.5204  159.1826 H   0  0  0  0  0  0  0  0  0  0  0  0
  145.6248  133.5898  160.2220 H   0  0  0  0  0  0  0  0  0  0  0  0
  145.7534  135.9044  161.0432 H   0  0  0  0  0  0  0  0  0  0  0  0
  148.7884  135.5638  161.1433 H   0  0  0  0  0  0  0  0  0  0  0  0
  147.8336  137.0543  160.7935 H   0  0  0  0  0  0  0  0  0  0  0  0
  148.4227  136.1457  163.4899 H   0  0  0  0  0  0  0  0  0  0  0  0
  146.9405  137.0941  163.0752 H   0  0  0  0  0  0  0  0  0  0  0  0
  145.7916  134.9348  163.2409 H   0  0  0  0  0  0  0  0  0  0  0  0
  147.3213  134.0410  162.8972 H   0  0  0  0  0  0  0  0  0  0  0  0
  150.4539  134.5100  156.5067 H   0  0  0  0  0  0  0  0  0  0  0  0
  145.4077  134.2627  151.0489 H   0  0  0  0  0  0  0  0  0  0  0  0
  143.3690  132.0031  150.9284 H   0  0  0  0  0  0  0  0  0  0  0  0
  143.1465  133.6993  150.4894 H   0  0  0  0  0  0  0  0  0  0  0  0
  143.7631  131.9377  148.5459 H   0  0  0  0  0  0  0  0  0  0  0  0
  144.6592  133.4615  148.6058 H   0  0  0  0  0  0  0  0  0  0  0  0
  145.5225  130.7706  149.7332 H   0  0  0  0  0  0  0  0  0  0  0  0
  146.4759  131.8740  148.7377 H   0  0  0  0  0  0  0  0  0  0  0  0
  1  2  1  0  0  0  0
  1 29  1  0  0  0  0
  2  3  1  0  0  0  0
  2 24  1  0  0  0  0
  2 30  1  0  0  0  0
  3  4  1  0  0  0  0
  3 31  1  0  0  0  0
  3 32  1  0  0  0  0
  4 23  1  0  0  0  0
  4  5  1  0  0  0  0
  5  6  2  0  0  0  0
  5 33  1  0  0  0  0
  6  7  1  0  0  0  0
  7 23  2  0  0  0  0
  7  8  1  0  0  0  0
  8  9  1  0  0  0  0
  8 20  2  0  0  0  0
  9 14  1  0  0  0  0
  9 10  1  0  0  0  0
 10 11  1  0  0  0  0
 10 34  1  0  0  0  0
 10 35  1  0  0  0  0
 11 12  1  0  0  0  0
 11 36  1  0  0  0  0
 11 37  1  0  0  0  0
 12 13  1  0  0  0  0
 13 14  1  0  0  0  0
 13 38  1  0  0  0  0
 13 39  1  0  0  0  0
 14 15  1  0  0  0  0
 14 40  1  0  0  0  0
 15 16  1  0  0  0  0
 15 41  1  0  0  0  0
 15 42  1  0  0  0  0
 16 19  1  0  0  0  0
 16 17  1  0  0  0  0
 16 43  1  0  0  0  0
 17 18  1  0  0  0  0
 17 44  1  0  0  0  0
 17 45  1  0  0  0  0
 18 19  1  0  0  0  0
 18 46  1  0  0  0  0
 18 47  1  0  0  0  0
 19 48  1  0  0  0  0
 19 49  1  0  0  0  0
 20 21  1  0  0  0  0
 21 22  2  0  0  0  0
 21 50  1  0  0  0  0
 22 23  1  0  0  0  0
 24 28  1  0  0  0  0
 24 25  1  0  0  0  0
 24 51  1  0  0  0  0
 25 26  1  0  0  0  0
 25 52  1  0  0  0  0
 25 53  1  0  0  0  0
 26 27  1  0  0  0  0
 26 54  1  0  0  0  0
 26 55  1  0  0  0  0
 27 28  1  0  0  0  0
 27 56  1  0  0  0  0
 27 57  1  0  0  0  0
M  END
> <s_m_source_file>
AV-unprocessed.smi

> <i_m_source_file_index>
170

> <i_lp_mmshare_version>
43012

> <i_f3d_flags>
0

> <s_epik_input>
TzFbQ0gyXVtDSDJdW0NIMl1bQ0BIXTFbQ0BIXShbT0hdKVtDSDJdbihbY0hdbjIpYyhjMjMpbltjSF1uYzNONFtDSDJdW0NIMl1PW0NIMl1bQ0BIXTRbQ0gyXVtDSF01W0NIMl1bQ0gyXVtDSDJdNQ==

> <s_epik_cmdline>
J2VwaWtfcHl0aG9uJywgJy1waCcsICc3LjAnLCAnLXRuJywgJzgnLCAnLW1hJywgJzIwMCcsICctbWV0YWxfYmluZGluZycsICctaW1hZScsICc8aW5maWxlLm1hZT4nLCAnLW9tYWUnLCAnPG91dGZpbGUubWFlPic=

> <r_lp_tautomer_probability>
1

> <r_epik_Ionization_Penalty>
4.98275e-05

> <r_epik_Ionization_Penalty_Charging>
0

> <r_epik_Ionization_Penalty_Neutral>
4.98275e-05

> <r_epik_State_Penalty>
-0

> <r_epik_Charging_Adjusted_Penalty>
0

> <i_epik_Tot_Q>
0

> <i_epik_Tot_abs_Q>
0

> <r_epik_Metal_State_Penalty>
-0

> <b_epik_Metal_Only>
0

> <s_lp_Force_Field>
OPLS_2005

> <r_lp_Energy>
52.7672

> <b_lp_Chiralities_Consistent>
1

> <s_lp_Variant>
AV-unprocessed.smi:170-3

> <Gold.Version>
5.8.1

> <Gold.Id.Protein>
6NUR|6NUR_protein|mol2

> <Gold.PLP.Fitness>
48.0604

> <Gold.PLP.PLP>
-39.4176

> <Gold.PLP.part.hbond>
-2.0000

> <Gold.PLP.part.metal>
0.0000

> <Gold.PLP.part.buried>
-5.4933

> <Gold.PLP.part.nonpolar>
-32.6090

> <Gold.PLP.part.repulsive>
0.4489

> <Gold.PLP.ligand.clash>
0.0000

> <Gold.PLP.ligand.torsion>
0.3144

> <Gold.PLP.Chemscore.Hbond>
2.0000

> <Gold.PLP.Chemscore.CHOScore>
1.0000

> <Gold.PLP.Chemscore.Metal>
0.0000

> <Gold.Chemscore.Hbonds>
donor molecule, donor type, donor heavy atom, donor atom, acceptor molecule, acceptor atom, score
      L1  H     1    29       P1 10957  1.00
      P1  H  6896  6908       L1    20  0.75
      L1  C     5    33       P1 10957  0.97

> <Gold.PLP.Chemscore.Internal.Correction>
0.2715

> <Gold.Rescore>
     Score         DG    S(hbond)    S(metal)    S(lipo)     H(rot)  DE(clash)    DE(int)     intcor
     17.12     -17.52       1.95        0.00     104.37       2.61       0.02       0.38       ----

> <Gold.Chemscore.Fitness>
17.1201

> <Gold.Chemscore.DG>
-17.5215

> <Gold.Chemscore.ZeroCoef>
-5.4800

> <Gold.Chemscore.Hbond>
1.9530

> <Gold.Chemscore.Metal>
0.0000

> <Gold.Chemscore.Lipo>
104.3728

> <Gold.Chemscore.Internal_Hbond>
0.0000

> <Gold.Chemscore.DEClash>
0.0174

> <Gold.Chemscore.DEInternal>
0.3841

> <Gold.Chemscore.Rot>
2.6144

> <Gold.Chemscore.Internal.Correction>
   9.000000E+99

> <Gold.Chemscore.Hbonds>
donor molecule, donor type, donor heavy atom, donor atom, acceptor molecule, acceptor atom, score
      L1  H     1    29       P1 10957  0.99
      P1  H  6896  6908       L1    20  0.68

> <Gold.Chemscore.Hbond.Weighted>
-6.5229

> <Gold.Chemscore.Metal.Weighted>
-0.0000

> <Gold.Chemscore.Lipo.Weighted>
-12.2116

> <Gold.Chemscore.Internal_Hbond.Weighted>
0.0000

> <Gold.Chemscore.DEClash.Weighted>
0.0174

> <Gold.Chemscore.DEInternal.Weighted>
0.3841

> <Gold.Chemscore.Rot.Weighted>
6.6929

> <Gold.Chemscore.Internal.Correction.Weighted>
   9.000000E+99

> <Gold.Protein.RotatedTorsions>
[ 6907 6896 6895 6894 ] final  126.48 input  -60.11 | X-H torsion
[ 7974 7965 7964 7962 ] final  -12.55 input  175.53 | X-H torsion
[ 8008 7997 7996 7995 ] final  172.10 input   59.86 | X-H torsion
[ 10167 10162 10161 10158 ] final -175.35 input  -65.29 | X-H torsion
[ 10718 10713 10712 10709 ] final  -50.52 input   66.30 | X-H torsion
[ 10763 10752 10751 10750 ] final   67.27 input  -60.55 | X-H torsion
[ 11005 11000 10999 10996 ] final  113.47 input  -57.11 | X-H torsion

> <Gold.Protein.ActiveResidues>
 VAL166  LYS551  ARG553  GLY616  TRP617  ASP618  TYR619  PRO620  LYS621  CYS622 
 ASP623  PHE694  ASN695  SER759  ASP760  ASP761  ALA762  ILE779  LEU786  VAL792 
 PHE793  MET794  SER795  GLU796  ALA797  LYS798  CYS799  TRP800  GLU811  SER814 

> <Gold.Protein.RotatedAtoms>
  152.3899  133.6664  159.6229 H   0  0  0  0  0  0  0  0  0  0  0  0  # atno 6907 bound_to 6896
  150.7810  133.8971  159.3339 H   0  0  0  0  0  0  0  0  0  0  0  0  # atno 6908 bound_to 6896
  151.6760  135.0970  160.0258 H   0  0  0  0  0  0  0  0  0  0  0  0  # atno 6909 bound_to 6896
  146.2148  140.3074  142.8380 H   0  0  0  0  0  0  0  0  0  0  0  0  # atno 7974 bound_to 7965
  156.1208  140.1495  156.9208 H   0  0  0  0  0  0  0  0  0  0  0  0  # atno 8008 bound_to 7997
  154.4834  140.0872  156.7472 H   0  0  0  0  0  0  0  0  0  0  0  0  # atno 8009 bound_to 7997
  155.4432  140.3432  155.4294 H   0  0  0  0  0  0  0  0  0  0  0  0  # atno 8010 bound_to 7997
  139.5586  144.1927  152.1200 H   0  0  0  0  0  0  0  0  0  0  0  0  # atno 10167 bound_to 10162
  156.1793  130.4150  149.9530 H   0  0  0  0  0  0  0  0  0  0  0  0  # atno 10718 bound_to 10713
  153.0178  135.5290  154.6953 H   0  0  0  0  0  0  0  0  0  0  0  0  # atno 10763 bound_to 10752
  154.6077  135.2875  155.0469 H   0  0  0  0  0  0  0  0  0  0  0  0  # atno 10764 bound_to 10752
  154.1502  135.6564  153.5014 H   0  0  0  0  0  0  0  0  0  0  0  0  # atno 10765 bound_to 10752
  139.8954  134.9550  156.6743 H   0  0  0  0  0  0  0  0  0  0  0  0  # atno 11005 bound_to 11000
  144.9013  140.7646  143.5865 LP  0  0  0  0  0  0  0  0  0  0  0  0  # atno 17320 bound_to 7965
  145.3000  139.1854  143.4695 LP  0  0  0  0  0  0  0  0  0  0  0  0  # atno 17321 bound_to 7965
  140.1436  144.5179  150.6729 LP  0  0  0  0  0  0  0  0  0  0  0  0  # atno 17342 bound_to 10162
  140.6862  143.2351  151.5254 LP  0  0  0  0  0  0  0  0  0  0  0  0  # atno 17343 bound_to 10162
  156.7306  130.9042  151.3625 LP  0  0  0  0  0  0  0  0  0  0  0  0  # atno 17370 bound_to 10713
  157.6857  130.9183  150.0381 LP  0  0  0  0  0  0  0  0  0  0  0  0  # atno 17371 bound_to 10713
  140.7349  133.9027  155.8237 LP  0  0  0  0  0  0  0  0  0  0  0  0  # atno 17394 bound_to 11000
  141.0124  134.1002  157.4207 LP  0  0  0  0  0  0  0  0  0  0  0  0  # atno 17395 bound_to 11000

$$$$
