#       Name:                AV-unprocessed.smi:2482
#       Creating user name   scv26
#       Creation time:       Fri Mar 27 13:42:08 2020


#       File generated by GOLD software.
#

@<TRIPOS>MOLECULE
AV-unprocessed.smi:2482
    40    41     1
SMALL
NO_CHARGES


@<TRIPOS>ATOM
      1 ****        -5.1945   2.5321  -0.8761 C.3            1 S1                 0.0000
      2 ****        -4.4139   1.2362  -0.7595 C.ar           1 S1                 0.0000
      3 ****        -5.1570   0.1104  -0.6851 N.ar           1 S1                 0.0000
      4 ****        -4.5125  -1.0703  -0.5895 C.ar           1 S1                 0.0000
      5 ****        -3.1100  -1.1872  -0.5573 C.ar           1 S1                 0.0000
      6 ****        -2.3284  -0.0086  -0.6177 C.ar           1 S1                 0.0000
      7 ****        -0.9061  -0.0119  -0.6140 N.am           1 S1                 0.0000
      8 ****        -0.0613  -0.9313  -0.1106 C.2            1 S1                 0.0000
      9 ****        -0.4163  -1.9713   0.4448 O.2            1 S1                 0.0000
     10 ****         1.4332  -0.6141  -0.2667 C.3            1 S1                 0.0000
     11 ****         2.3205  -1.3821   0.7397 C.3            1 S1                 0.0000
     12 ****         3.7251  -1.0133   0.6154 N.3            1 S1                 0.0000
     13 ****         4.5553  -1.7365   1.5664 C.3            1 S1                 0.0000
     14 ****         3.8689   0.4284   0.7638 C.3            1 S1                 0.0000
     15 ****         2.9875   1.1915  -0.2386 C.3            1 S1                 0.0000
     16 ****         1.6304   0.7890  -0.0819 O.3            1 S1                 0.0000
     17 ****        -2.9994   1.2314  -0.7350 C.ar           1 S1                 0.0000
     18 ****        -2.1094   2.7139  -0.8406 Cl             1 S1                 0.0000
     19 ****        -4.9653   3.1895  -0.0371 H              1 S1                 0.0000
     20 ****        -6.2708   2.3535  -0.8788 H              1 S1                 0.0000
     21 ****        -4.9363   3.0488  -1.8008 H              1 S1                 0.0000
     22 ****        -5.1343  -1.9522  -0.5450 H              1 S1                 0.0000
     23 ****        -2.6678  -2.1697  -0.5013 H              1 S1                 0.0000
     24 ****        -0.4726   0.8302  -0.9651 H              1 S1                 0.0000
     25 ****         1.7209  -0.8801  -1.2855 H              1 S1                 0.0000
     26 ****         1.9767  -1.1835   1.7564 H              1 S1                 0.0000
     27 ****         2.2133  -2.4557   0.5785 H              1 S1                 0.0000
     28 ****         5.6061  -1.4748   1.4390 H              1 S1                 0.0000
     29 ****         4.4616  -2.8130   1.4203 H              1 S1                 0.0000
     30 ****         4.2697  -1.5068   2.5937 H              1 S1                 0.0000
     31 ****         3.5995   0.7247   1.7787 H              1 S1                 0.0000
     32 ****         4.9118   0.7133   0.6213 H              1 S1                 0.0000
     33 ****         3.0627   2.2658  -0.0697 H              1 S1                 0.0000
     34 ****         3.3136   1.0035  -1.2626 H              1 S1                 0.0000
     35 ****        -6.1561   0.1514  -0.7005 LP             1 S1                 0.0000
     36 ****        -1.3897  -2.1774   0.5452 LP             1 S1                 0.0000
     37 ****         0.2687  -2.6098   0.7955 LP             1 S1                 0.0000
     38 ****         4.0441  -1.2732  -0.2960 LP             1 S1                 0.0000
     39 ****         1.3312   1.0330   0.8406 LP             1 S1                 0.0000
     40 ****         1.0742   1.2790  -0.7531 LP             1 S1                 0.0000
@<TRIPOS>BOND
    1    1    2 1     
    2    1   19 1     
    3    1   20 1     
    4    1   21 1     
    5    2   17 ar    
    6    2    3 ar    
    7    3    4 ar    
    8    4    5 ar    
    9    4   22 1     
   10    5    6 ar    
   11    5   23 1     
   12    6    7 1     
   13    6   17 ar    
   14    7    8 am    
   15    7   24 1     
   16    8    9 2     
   17    8   10 1     
   18   10   16 1     
   19   10   11 1     
   20   10   25 1     
   21   11   12 1     
   22   11   26 1     
   23   11   27 1     
   24   12   13 1     
   25   12   14 1     
   26   13   28 1     
   27   13   29 1     
   28   13   30 1     
   29   14   15 1     
   30   14   31 1     
   31   14   32 1     
   32   15   16 1     
   33   15   33 1     
   34   15   34 1     
   35   17   18 1     
   36    3   35 1     
   37    9   36 1     
   38    9   37 1     
   39   12   38 1     
   40   16   39 1     
   41   16   40 1     
@<TRIPOS>SUBSTRUCTURE
      1 S1             1
@<TRIPOS>SET
LONE_PAIRS      STATIC     ATOMS    <user>   **** ""
6 35 36 37 38 39 40
DONOR_HYDROGENS      STATIC     ATOMS    <user>   **** ""
1 24
ATOM$BLUE        STATIC     ATOMS    COLORGROUP SYSTEM
6 35 36 37 38 39 40
ATOM$RED        STATIC     ATOMS    COLORGROUP SYSTEM
1 24
