#       Name:                AV-unprocessed.smi:2985
#       Creating user name   scv26
#       Creation time:       Fri Mar 27 16:30:02 2020


#       File generated by GOLD software.
#

@<TRIPOS>MOLECULE
AV-unprocessed.smi:2985
    38    39     1
SMALL
NO_CHARGES


@<TRIPOS>ATOM
      1 ****        -3.8978   1.5933  -0.2472 C.3            1 S1                 0.0000
      2 ****        -3.1957   0.4998  -0.8118 O.3            1 S1                 0.0000
      3 ****        -1.8129   0.5269  -0.5036 C.3            1 S1                 0.0000
      4 ****        -1.1379  -0.6960  -1.1374 C.3            1 S1                 0.0000
      5 ****         0.2867  -0.7278  -0.8487 N.pl3          1 S1                 0.0000
      6 ****         0.8971  -1.1984   0.2656 C.2            1 S1                 0.0000
      7 ****        -0.0184  -1.8901   1.6030 S.3            1 S1                 0.0000
      8 ****         0.5709  -0.7790   2.9122 C.3            1 S1                 0.0000
      9 ****        -0.2335  -0.9126   4.2028 C.2            1 S1                 0.0000
     10 ****        -1.5259  -0.5787   4.1519 N.am           1 S1                 0.0000
     11 ****         0.3049  -1.3016   5.2367 O.2            1 S1                 0.0000
     12 ****         2.2262  -1.0959   0.2837 N.2            1 S1                 0.0000
     13 ****         2.5028  -0.5008  -0.9318 C.ar           1 S1                 0.0000
     14 ****         3.7356  -0.1222  -1.5100 C.ar           1 S1                 0.0000
     15 ****         3.7702   0.4858  -2.7821 C.ar           1 S1                 0.0000
     16 ****         2.5757   0.7242  -3.4923 C.ar           1 S1                 0.0000
     17 ****         1.3367   0.3540  -2.9347 C.ar           1 S1                 0.0000
     18 ****         1.3080  -0.2543  -1.6655 C.ar           1 S1                 0.0000
     19 ****        -4.9523   1.5299  -0.5152 H              1 S1                 0.0000
     20 ****        -3.5128   2.5438  -0.6189 H              1 S1                 0.0000
     21 ****        -3.8260   1.5881   0.8411 H              1 S1                 0.0000
     22 ****        -1.3621   1.4443  -0.8860 H              1 S1                 0.0000
     23 ****        -1.6736   0.5176   0.5787 H              1 S1                 0.0000
     24 ****        -1.5965  -1.6181  -0.7795 H              1 S1                 0.0000
     25 ****        -1.2777  -0.6834  -2.2187 H              1 S1                 0.0000
     26 ****         1.6238  -0.9841   3.1098 H              1 S1                 0.0000
     27 ****         0.5053   0.2521   2.5622 H              1 S1                 0.0000
     28 ****        -2.0953  -0.6388   4.9836 H              1 S1                 0.0000
     29 ****        -1.9257  -0.2551   3.2830 H              1 S1                 0.0000
     30 ****         4.6560  -0.2990  -0.9732 H              1 S1                 0.0000
     31 ****         4.7179   0.7718  -3.2142 H              1 S1                 0.0000
     32 ****         2.6109   1.1917  -4.4655 H              1 S1                 0.0000
     33 ****         0.4207   0.5372  -3.4763 H              1 S1                 0.0000
     34 ****        -3.3036   0.5278  -1.8056 LP             1 S1                 0.0000
     35 ****        -3.5867  -0.3498  -0.4579 LP             1 S1                 0.0000
     36 ****         1.2776  -1.5336   5.2372 LP             1 S1                 0.0000
     37 ****        -0.2297  -1.3861   6.0776 LP             1 S1                 0.0000
     38 ****         2.8644  -1.3794   0.9995 LP             1 S1                 0.0000
@<TRIPOS>BOND
    1    1    2 1     
    2    1   19 1     
    3    1   20 1     
    4    1   21 1     
    5    2    3 1     
    6    3    4 1     
    7    3   22 1     
    8    3   23 1     
    9    4    5 1     
   10    4   24 1     
   11    4   25 1     
   12    5   18 1     
   13    5    6 1     
   14    6    7 1     
   15    6   12 2     
   16    7    8 1     
   17    8    9 1     
   18    8   26 1     
   19    8   27 1     
   20    9   10 am    
   21    9   11 2     
   22   10   28 1     
   23   10   29 1     
   24   12   13 1     
   25   13   18 ar    
   26   13   14 ar    
   27   14   15 ar    
   28   14   30 1     
   29   15   16 ar    
   30   15   31 1     
   31   16   17 ar    
   32   16   32 1     
   33   17   18 ar    
   34   17   33 1     
   35    2   34 1     
   36    2   35 1     
   37   11   36 1     
   38   11   37 1     
   39   12   38 1     
@<TRIPOS>SUBSTRUCTURE
      1 S1             1
@<TRIPOS>SET
LONE_PAIRS      STATIC     ATOMS    <user>   **** ""
5 34 35 36 37 38
DONOR_HYDROGENS      STATIC     ATOMS    <user>   **** ""
2 28 29
ATOM$BLUE        STATIC     ATOMS    COLORGROUP SYSTEM
5 34 35 36 37 38
ATOM$RED        STATIC     ATOMS    COLORGROUP SYSTEM
2 28 29
