AV-unprocessed.smi:1240|AV-procd|sdf|5213|dock7
  -GOLD-   22720 4303D 1   1.00000     0.00000
 Structure written by MMmdl.
 48 50  0  0  0  0  0  0  0  0  4 V2000
  153.4306  140.6870  159.5533 O   0  0  0  0  0  0  0  0  0  0  0  0
  153.8943  141.3862  160.4613 C   0  0  0  0  0  0  0  0  0  0  0  0
  154.9679  141.1173  161.2509 N   0  5  0  0  0  0  0  0  0  0  0  0
  154.8929  140.5248  162.5863 C   0  0  0  0  0  0  0  0  0  0  0  0
  156.0650  139.5069  162.8210 C   0  0  2  0  0  0  0  0  0  0  0  0
  155.7842  138.0884  162.2300 C   0  0  1  0  0  0  0  0  0  0  0  0
  154.9179  137.1580  163.0755 C   0  0  0  0  0  0  0  0  0  0  0  0
  154.4405  136.1283  162.0571 C   0  0  0  0  0  0  0  0  0  0  0  0
  154.3753  136.8149  160.8129 O   0  0  0  0  0  0  0  0  0  0  0  0
  154.9436  138.1120  160.9461 C   0  0  0  0  0  0  0  0  0  0  0  0
  156.5310  139.3614  164.2477 N   0  3  0  0  0  0  0  0  0  0  0  0
  155.4762  139.1422  165.2713 C   0  0  0  0  0  0  0  0  0  0  0  0
  156.0576  139.3776  166.6745 C   0  0  0  0  0  0  0  0  0  0  0  0
  157.1761  138.5218  166.8811 O   0  0  0  0  0  0  0  0  0  0  0  0
  158.2256  138.7725  165.9529 C   0  0  0  0  0  0  0  0  0  0  0  0
  157.7263  138.5155  164.5218 C   0  0  0  0  0  0  0  0  0  0  0  0
  153.3061  142.5511  160.7869 N   0  0  0  0  0  0  0  0  0  0  0  0
  152.2045  143.1977  160.1649 C   0  0  0  0  0  0  0  0  0  0  0  0
  151.9360  144.5359  160.5277 C   0  0  0  0  0  0  0  0  0  0  0  0
  150.8671  145.2201  159.9144 C   0  0  0  0  0  0  0  0  0  0  0  0
  150.1192  144.5979  158.9776 N   0  3  0  0  0  0  0  0  0  0  0  0
  150.3497  143.3262  158.5854 C   0  0  0  0  0  0  0  0  0  0  0  0
  151.4039  142.5913  159.1643 C   0  0  0  0  0  0  0  0  0  0  0  0
  154.9131  141.2732  163.3794 H   0  0  0  0  0  0  0  0  0  0  0  0
  153.9439  140.0038  162.7106 H   0  0  0  0  0  0  0  0  0  0  0  0
  156.9226  139.8837  162.2610 H   0  0  0  0  0  0  0  0  0  0  0  0
  156.7211  137.5737  162.0066 H   0  0  0  0  0  0  0  0  0  0  0  0
  155.4541  136.6941  163.9040 H   0  0  0  0  0  0  0  0  0  0  0  0
  154.0641  137.7002  163.4850 H   0  0  0  0  0  0  0  0  0  0  0  0
  155.1648  135.3181  161.9670 H   0  0  0  0  0  0  0  0  0  0  0  0
  153.4771  135.6943  162.3255 H   0  0  0  0  0  0  0  0  0  0  0  0
  154.1304  138.8345  161.0306 H   0  0  0  0  0  0  0  0  0  0  0  0
  155.5312  138.3701  160.0647 H   0  0  0  0  0  0  0  0  0  0  0  0
  154.6391  139.8200  165.1023 H   0  0  0  0  0  0  0  0  0  0  0  0
  155.0880  138.1255  165.2111 H   0  0  0  0  0  0  0  0  0  0  0  0
  156.3536  140.4201  166.8036 H   0  0  0  0  0  0  0  0  0  0  0  0
  155.3047  139.1643  167.4333 H   0  0  0  0  0  0  0  0  0  0  0  0
  158.5855  139.7970  166.0609 H   0  0  0  0  0  0  0  0  0  0  0  0
  159.0644  138.1151  166.1819 H   0  0  0  0  0  0  0  0  0  0  0  0
  157.4794  137.4584  164.4134 H   0  0  0  0  0  0  0  0  0  0  0  0
  158.5230  138.7376  163.8121 H   0  0  0  0  0  0  0  0  0  0  0  0
  153.6694  143.0040  161.6125 H   0  0  0  0  0  0  0  0  0  0  0  0
  152.5385  145.0330  161.2743 H   0  0  0  0  0  0  0  0  0  0  0  0
  150.5924  146.2397  160.1413 H   0  0  0  0  0  0  0  0  0  0  0  0
  149.6936  142.9387  157.8200 H   0  0  0  0  0  0  0  0  0  0  0  0
  151.5904  141.5837  158.8243 H   0  0  0  0  0  0  0  0  0  0  0  0
  156.8505  140.2953  164.4581 H   0  0  0  0  0  0  0  0  0  0  0  0
  149.3518  145.1117  158.5438 H   0  0  0  0  0  0  0  0  0  0  0  0
  1  2  2  0  0  0  0
  2  3  1  0  0  0  0
  2 17  1  0  0  0  0
  3  4  1  0  0  0  0
  4  5  1  0  0  0  0
  4 24  1  0  0  0  0
  4 25  1  0  0  0  0
  5  6  1  0  0  0  0
  5 11  1  0  0  0  0
  5 26  1  0  0  0  0
  6 10  1  0  0  0  0
  6  7  1  0  0  0  0
  6 27  1  0  0  0  0
  7  8  1  0  0  0  0
  7 28  1  0  0  0  0
  7 29  1  0  0  0  0
  8  9  1  0  0  0  0
  8 30  1  0  0  0  0
  8 31  1  0  0  0  0
  9 10  1  0  0  0  0
 10 32  1  0  0  0  0
 10 33  1  0  0  0  0
 11 16  1  0  0  0  0
 11 12  1  0  0  0  0
 11 47  1  0  0  0  0
 12 13  1  0  0  0  0
 12 34  1  0  0  0  0
 12 35  1  0  0  0  0
 13 14  1  0  0  0  0
 13 36  1  0  0  0  0
 13 37  1  0  0  0  0
 14 15  1  0  0  0  0
 15 16  1  0  0  0  0
 15 38  1  0  0  0  0
 15 39  1  0  0  0  0
 16 40  1  0  0  0  0
 16 41  1  0  0  0  0
 17 18  1  0  0  0  0
 17 42  1  0  0  0  0
 18 23  1  0  0  0  0
 18 19  2  0  0  0  0
 19 20  1  0  0  0  0
 19 43  1  0  0  0  0
 20 21  2  0  0  0  0
 20 44  1  0  0  0  0
 21 22  1  0  0  0  0
 21 48  1  0  0  0  0
 22 23  2  0  0  0  0
 22 45  1  0  0  0  0
 23 46  1  0  0  0  0
M  CHG  1   3  -1
M  CHG  1  11   1
M  CHG  1  21   1
M  END
> <s_m_source_file>
AV-unprocessed.smi

> <i_m_source_file_index>
1240

> <i_lp_mmshare_version>
43012

> <i_f3d_flags>
0

> <s_epik_input>
W2NIXTFbY0hdbltjSF1bY0hdYzFbTkhdQyg9TylbTkhdW0NIMl1bQ0BIXShbQ0BASF0yW0NIMl1bQ0gyXU9bQ0gyXTIpTjNbQ0gyXVtDSDJdT1tDSDJdW0NIMl0z

> <s_epik_cmdline>
J2VwaWtfcHl0aG9uJywgJy1waCcsICc3LjAnLCAnLXRuJywgJzgnLCAnLW1hJywgJzIwMCcsICctbWV0YWxfYmluZGluZycsICctaW1hZScsICc8aW5maWxlLm1hZT4nLCAnLW9tYWUnLCAnPG91dGZpbGUubWFlPic=

> <r_epik_Ionization_Penalty>
8.41087

> <r_epik_Ionization_Penalty_Charging>
8.41087

> <r_epik_Ionization_Penalty_Neutral>
3.12936e-06

> <r_epik_State_Penalty>
8.81894

> <r_epik_Charging_Adjusted_Penalty>
17.2298

> <i_epik_Tot_Q>
1

> <i_epik_Tot_abs_Q>
3

> <r_epik_Metal_State_Penalty>
4.82983

> <b_epik_Metal_Only>
1

> <s_lp_Force_Field>
OPLS_2005

> <r_lp_Energy>
48.3521

> <b_lp_Chiralities_Consistent>
1

> <s_lp_Variant>
AV-unprocessed.smi:1240-19

> <Gold.Version>
5.8.1

> <Gold.Id.Protein>
6NUR|6NUR_protein|mol2

> <Gold.PLP.Fitness>
41.4413

> <Gold.PLP.PLP>
-38.3582

> <Gold.PLP.part.hbond>
-2.3308

> <Gold.PLP.part.metal>
0.0000

> <Gold.PLP.part.buried>
-5.2922

> <Gold.PLP.part.nonpolar>
-30.6110

> <Gold.PLP.part.repulsive>
0.1922

> <Gold.PLP.ligand.clash>
0.0000

> <Gold.PLP.ligand.torsion>
1.7046

> <Gold.PLP.Chemscore.Hbond>
2.0000

> <Gold.PLP.Chemscore.CHOScore>
0.0000

> <Gold.PLP.Chemscore.Metal>
0.0000

> <Gold.Chemscore.Hbonds>
donor molecule, donor type, donor heavy atom, donor atom, acceptor molecule, acceptor atom, score
      L1  H    21    48       P1  8029  1.66

> <Gold.PLP.Chemscore.Internal.Correction>
0.4923

> <Gold.Rescore>
     Score         DG    S(hbond)    S(metal)    S(lipo)     H(rot)  DE(clash)    DE(int)     intcor
     11.27     -15.67       0.79        0.00     101.77       1.70       0.75       3.65       ----

> <Gold.Chemscore.Fitness>
11.2743

> <Gold.Chemscore.DG>
-15.6737

> <Gold.Chemscore.ZeroCoef>
-5.4800

> <Gold.Chemscore.Hbond>
0.7918

> <Gold.Chemscore.Metal>
0.0000

> <Gold.Chemscore.Lipo>
101.7656

> <Gold.Chemscore.Internal_Hbond>
0.0000

> <Gold.Chemscore.DEClash>
0.7533

> <Gold.Chemscore.DEInternal>
3.6461

> <Gold.Chemscore.Rot>
1.7021

> <Gold.Chemscore.Internal.Correction>
   9.000000E+99

> <Gold.Chemscore.Hbonds>
donor molecule, donor type, donor heavy atom, donor atom, acceptor molecule, acceptor atom, score
      L1  H    21    48       P1  8029  0.68

> <Gold.Chemscore.Hbond.Weighted>
-2.6447

> <Gold.Chemscore.Metal.Weighted>
-0.0000

> <Gold.Chemscore.Lipo.Weighted>
-11.9066

> <Gold.Chemscore.Internal_Hbond.Weighted>
0.0000

> <Gold.Chemscore.DEClash.Weighted>
0.7533

> <Gold.Chemscore.DEInternal.Weighted>
3.6461

> <Gold.Chemscore.Rot.Weighted>
4.3575

> <Gold.Chemscore.Internal.Correction.Weighted>
   9.000000E+99

> <Gold.Protein.RotatedTorsions>
[ 6907 6896 6895 6894 ] final -110.49 input  -60.11 | X-H torsion
[ 7974 7965 7964 7962 ] final   50.51 input  175.53 | X-H torsion
[ 8008 7997 7996 7995 ] final  126.38 input   59.86 | X-H torsion
[ 10167 10162 10161 10158 ] final  -40.61 input  -65.29 | X-H torsion
[ 10718 10713 10712 10709 ] final  -51.46 input   66.30 | X-H torsion
[ 10763 10752 10751 10750 ] final   98.65 input  -60.55 | X-H torsion
[ 11005 11000 10999 10996 ] final  134.22 input  -57.11 | X-H torsion

> <Gold.Protein.ActiveResidues>
 VAL166  LYS551  ARG553  GLY616  TRP617  ASP618  TYR619  PRO620  LYS621  CYS622 
 ASP623  PHE694  ASN695  SER759  ASP760  ASP761  ALA762  ILE779  LEU786  VAL792 
 PHE793  MET794  SER795  GLU796  ALA797  LYS798  CYS799  TRP800  GLU811  SER814 

> <Gold.Protein.RotatedAtoms>
  150.7628  133.9374  159.3445 H   0  0  0  0  0  0  0  0  0  0  0  0  # atno 6907 bound_to 6896
  151.7279  135.0879  160.0304 H   0  0  0  0  0  0  0  0  0  0  0  0  # atno 6908 bound_to 6896
  152.3609  133.6257  159.6050 H   0  0  0  0  0  0  0  0  0  0  0  0  # atno 6909 bound_to 6896
  146.0005  139.4434  143.0018 H   0  0  0  0  0  0  0  0  0  0  0  0  # atno 7974 bound_to 7965
  156.2862  140.2694  156.2101 H   0  0  0  0  0  0  0  0  0  0  0  0  # atno 8008 bound_to 7997
  155.0273  140.0386  157.2478 H   0  0  0  0  0  0  0  0  0  0  0  0  # atno 8009 bound_to 7997
  154.7384  140.2720  155.6399 H   0  0  0  0  0  0  0  0  0  0  0  0  # atno 8010 bound_to 7997
  140.7029  143.3143  151.2949 H   0  0  0  0  0  0  0  0  0  0  0  0  # atno 10167 bound_to 10162
  156.1708  130.4149  149.9650 H   0  0  0  0  0  0  0  0  0  0  0  0  # atno 10718 bound_to 10713
  153.2917  135.4141  155.1173 H   0  0  0  0  0  0  0  0  0  0  0  0  # atno 10763 bound_to 10752
  154.8522  135.3520  154.5972 H   0  0  0  0  0  0  0  0  0  0  0  0  # atno 10764 bound_to 10752
  153.6395  135.7057  153.5304 H   0  0  0  0  0  0  0  0  0  0  0  0  # atno 10765 bound_to 10752
  139.9901  134.9518  156.9836 H   0  0  0  0  0  0  0  0  0  0  0  0  # atno 11005 bound_to 11000
  145.7495  140.9978  143.1258 LP  0  0  0  0  0  0  0  0  0  0  0  0  # atno 17320 bound_to 7965
  144.6918  139.9197  143.7467 LP  0  0  0  0  0  0  0  0  0  0  0  0  # atno 17321 bound_to 7965
  139.6576  144.0247  152.2671 LP  0  0  0  0  0  0  0  0  0  0  0  0  # atno 17342 bound_to 10162
  139.9804  144.6432  150.7906 LP  0  0  0  0  0  0  0  0  0  0  0  0  # atno 17343 bound_to 10162
  156.7451  130.9094  151.3634 LP  0  0  0  0  0  0  0  0  0  0  0  0  # atno 17370 bound_to 10713
  157.6801  130.9132  150.0246 LP  0  0  0  0  0  0  0  0  0  0  0  0  # atno 17371 bound_to 10713
  140.4925  134.1178  155.7235 LP  0  0  0  0  0  0  0  0  0  0  0  0  # atno 17394 bound_to 11000
  141.1558  133.8885  157.1980 LP  0  0  0  0  0  0  0  0  0  0  0  0  # atno 17395 bound_to 11000

$$$$
