#       Name:                AV-unprocessed.smi:3127
#       Creating user name   scv26
#       Creation time:       Fri Mar 27 17:29:48 2020


#       File generated by GOLD software.
#

@<TRIPOS>MOLECULE
AV-unprocessed.smi:3127
    37    38     1
SMALL
NO_CHARGES


@<TRIPOS>ATOM
      1 ****        -2.6711   1.6419  -0.4843 C.3            1 S1                 0.0000
      2 ****        -2.3870   0.4533  -1.4239 C.3            1 S1                 0.0000
      3 ****        -3.0969  -0.8104  -0.8997 C.3            1 S1                 0.0000
      4 ****        -2.9770   0.7904  -2.8100 C.3            1 S1                 0.0000
      5 ****        -0.8936   0.2078  -1.5100 C.2            1 S1                 0.0000
      6 ****        -0.0869   0.2592  -2.6238 C.2            1 S1                 0.0000
      7 ****         1.5790  -0.0881  -2.2515 S.3            1 S1                 0.0000
      8 ****         1.1246  -0.3164  -0.5696 C.2            1 S1                 0.0000
      9 ****         2.1155  -0.6374   0.5031 C.3            1 S1                 0.0000
     10 ****         2.6409   0.6267   1.2106 C.3            1 S1                 0.0000
     11 ****         3.5421   0.2588   2.3015 N.3            1 S1                 0.0000
     12 ****         2.8957  -0.6660   3.2316 C.3            1 S1                 0.0000
     13 ****         2.3586  -1.8962   2.4777 C.3            1 S1                 0.0000
     14 ****         1.4632  -1.4759   1.4540 O.3            1 S1                 0.0000
     15 ****        -0.1776  -0.1136  -0.3494 N.2            1 S1                 0.0000
     16 ****        -3.7395   1.8511  -0.4193 H              1 S1                 0.0000
     17 ****        -2.1789   2.5500  -0.8343 H              1 S1                 0.0000
     18 ****        -2.3182   1.4471   0.5290 H              1 S1                 0.0000
     19 ****        -2.7529  -1.0796   0.0998 H              1 S1                 0.0000
     20 ****        -2.9146  -1.6661  -1.5511 H              1 S1                 0.0000
     21 ****        -4.1761  -0.6650  -0.8416 H              1 S1                 0.0000
     22 ****        -4.0524   0.9631  -2.7522 H              1 S1                 0.0000
     23 ****        -2.8180  -0.0209  -3.5214 H              1 S1                 0.0000
     24 ****        -2.5271   1.6917  -3.2281 H              1 S1                 0.0000
     25 ****        -0.3653   0.4833  -3.6426 H              1 S1                 0.0000
     26 ****         2.9425  -1.1836   0.0456 H              1 S1                 0.0000
     27 ****         3.1587   1.2688   0.4978 H              1 S1                 0.0000
     28 ****         1.8033   1.2045   1.6036 H              1 S1                 0.0000
     29 ****         3.8319   1.0947   2.7992 H              1 S1                 0.0000
     30 ****         3.6017  -0.9772   4.0018 H              1 S1                 0.0000
     31 ****         2.0741  -0.1639   3.7438 H              1 S1                 0.0000
     32 ****         3.1753  -2.4795   2.0492 H              1 S1                 0.0000
     33 ****         1.8250  -2.5532   3.1647 H              1 S1                 0.0000
     34 ****         4.3402  -0.1982   1.9089 LP             1 S1                 0.0000
     35 ****         1.1046  -2.2826   0.9843 LP             1 S1                 0.0000
     36 ****         0.7081  -0.9694   1.8702 LP             1 S1                 0.0000
     37 ****        -0.5994  -0.1842   0.5545 LP             1 S1                 0.0000
@<TRIPOS>BOND
    1    1    2 1     
    2    1   16 1     
    3    1   17 1     
    4    1   18 1     
    5    2    3 1     
    6    2    4 1     
    7    2    5 1     
    8    3   19 1     
    9    3   20 1     
   10    3   21 1     
   11    4   22 1     
   12    4   23 1     
   13    4   24 1     
   14    5   15 1     
   15    5    6 2     
   16    6    7 1     
   17    6   25 1     
   18    7    8 1     
   19    8    9 1     
   20    8   15 2     
   21    9   14 1     
   22    9   10 1     
   23    9   26 1     
   24   10   11 1     
   25   10   27 1     
   26   10   28 1     
   27   11   12 1     
   28   11   29 1     
   29   12   13 1     
   30   12   30 1     
   31   12   31 1     
   32   13   14 1     
   33   13   32 1     
   34   13   33 1     
   35   11   34 1     
   36   14   35 1     
   37   14   36 1     
   38   15   37 1     
@<TRIPOS>SUBSTRUCTURE
      1 S1             1
@<TRIPOS>SET
LONE_PAIRS      STATIC     ATOMS    <user>   **** ""
4 34 35 36 37
DONOR_HYDROGENS      STATIC     ATOMS    <user>   **** ""
1 29
ATOM$BLUE        STATIC     ATOMS    COLORGROUP SYSTEM
4 34 35 36 37
ATOM$RED        STATIC     ATOMS    COLORGROUP SYSTEM
1 29
