AV-unprocessed.smi:830|AV-procd|sdf|3870|dock8
  -GOLD-   22720 1323D 1   1.00000     0.00000
 Structure written by MMmdl.
 52 54  0  0  0  0  0  0  0  0  1 V2000
  152.6415  138.1038  153.8423 C   0  0  0  0  0  0  0  0  0  0  0  0
  151.4926  137.8609  154.8356 C   0  0  2  0  0  0  0  0  0  0  0  0
  150.6411  136.7675  154.3705 N   0  0  0  0  0  0  0  0  0  0  0  0
  150.6004  135.5315  154.8867 C   0  0  0  0  0  0  0  0  0  0  0  0
  151.2830  135.1671  155.8444 O   0  0  0  0  0  0  0  0  0  0  0  0
  149.7418  134.7527  154.2087 N   0  0  0  0  0  0  0  0  0  0  0  0
  149.5021  133.3629  154.3919 C   0  0  0  0  0  0  0  0  0  0  0  0
  150.2978  132.5937  155.2750 C   0  0  0  0  0  0  0  0  0  0  0  0
  149.9833  131.2401  155.4844 C   0  0  0  0  0  0  0  0  0  0  0  0
  148.8708  130.7056  154.8137 C   0  0  0  0  0  0  0  0  0  0  0  0
  148.0962  131.4281  153.9799 N   0  0  0  0  0  0  0  0  0  0  0  0
  148.3952  132.7316  153.7548 C   0  0  0  0  0  0  0  0  0  0  0  0
  147.5577  133.4320  152.8555 N   0  0  0  0  0  0  0  0  0  0  0  0
  146.8302  134.6196  153.2916 C   0  0  0  0  0  0  0  0  0  0  0  0
  145.7697  134.8513  152.2188 C   0  0  0  0  0  0  0  0  0  0  0  0
  145.3973  133.4280  151.8163 C   0  0  0  0  0  0  0  0  0  0  0  0
  146.7167  132.6600  151.9447 C   0  0  0  0  0  0  0  0  0  0  0  0
  150.6695  139.1191  155.1376 C   0  0  0  0  0  0  0  0  0  0  0  0
  150.0758  139.7139  154.2367 O   0  0  0  0  0  0  0  0  0  0  0  0
  150.6520  139.5215  156.4177 N   0  0  0  0  0  0  0  0  0  0  0  0
  149.9278  140.6842  156.9228 C   0  0  0  0  0  0  0  0  0  0  0  0
  150.4096  141.9668  156.2218 C   0  0  0  0  0  0  0  0  0  0  0  0
  151.2488  142.7180  157.2552 C   0  0  0  0  0  0  0  0  0  0  0  0
  150.6003  142.3607  158.5890 C   0  0  0  0  0  0  0  0  0  0  0  0
  150.1814  140.8976  158.4298 C   0  0  0  0  0  0  0  0  0  0  0  0
  153.2941  138.9094  154.1798 H   0  0  0  0  0  0  0  0  0  0  0  0
  152.2618  138.3748  152.8565 H   0  0  0  0  0  0  0  0  0  0  0  0
  153.2587  137.2123  153.7269 H   0  0  0  0  0  0  0  0  0  0  0  0
  151.9362  137.5580  155.7864 H   0  0  0  0  0  0  0  0  0  0  0  0
  150.0380  136.9744  153.5875 H   0  0  0  0  0  0  0  0  0  0  0  0
  149.3210  135.1616  153.3871 H   0  0  0  0  0  0  0  0  0  0  0  0
  151.1285  133.0284  155.8101 H   0  0  0  0  0  0  0  0  0  0  0  0
  150.5730  130.6306  156.1529 H   0  0  0  0  0  0  0  0  0  0  0  0
  148.5914  129.6718  154.9538 H   0  0  0  0  0  0  0  0  0  0  0  0
  146.3417  134.4432  154.2506 H   0  0  0  0  0  0  0  0  0  0  0  0
  147.4948  135.4775  153.3966 H   0  0  0  0  0  0  0  0  0  0  0  0
  144.9198  135.4311  152.5795 H   0  0  0  0  0  0  0  0  0  0  0  0
  146.2057  135.3772  151.3682 H   0  0  0  0  0  0  0  0  0  0  0  0
  144.6693  133.0267  152.5225 H   0  0  0  0  0  0  0  0  0  0  0  0
  144.9658  133.3656  150.8170 H   0  0  0  0  0  0  0  0  0  0  0  0
  147.2094  132.6066  150.9737 H   0  0  0  0  0  0  0  0  0  0  0  0
  146.5514  131.6410  152.2975 H   0  0  0  0  0  0  0  0  0  0  0  0
  151.1714  138.9790  157.0928 H   0  0  0  0  0  0  0  0  0  0  0  0
  148.8598  140.5611  156.7319 H   0  0  0  0  0  0  0  0  0  0  0  0
  150.9624  141.7775  155.3005 H   0  0  0  0  0  0  0  0  0  0  0  0
  149.5446  142.5755  155.9553 H   0  0  0  0  0  0  0  0  0  0  0  0
  152.2754  142.3501  157.2340 H   0  0  0  0  0  0  0  0  0  0  0  0
  151.2746  143.7927  157.0739 H   0  0  0  0  0  0  0  0  0  0  0  0
  151.2681  142.5161  159.4369 H   0  0  0  0  0  0  0  0  0  0  0  0
  149.7163  142.9807  158.7435 H   0  0  0  0  0  0  0  0  0  0  0  0
  149.3030  140.6597  159.0304 H   0  0  0  0  0  0  0  0  0  0  0  0
  150.9917  140.2557  158.7799 H   0  0  0  0  0  0  0  0  0  0  0  0
  1  2  1  0  0  0  0
  1 26  1  0  0  0  0
  1 27  1  0  0  0  0
  1 28  1  0  0  0  0
  2  3  1  0  0  0  0
  2 18  1  0  0  0  0
  2 29  1  0  0  0  0
  3  4  1  0  0  0  0
  3 30  1  0  0  0  0
  4  5  2  0  0  0  0
  4  6  1  0  0  0  0
  6  7  1  0  0  0  0
  6 31  1  0  0  0  0
  7 12  1  0  0  0  0
  7  8  2  0  0  0  0
  8  9  1  0  0  0  0
  8 32  1  0  0  0  0
  9 10  2  0  0  0  0
  9 33  1  0  0  0  0
 10 11  1  0  0  0  0
 10 34  1  0  0  0  0
 11 12  2  0  0  0  0
 12 13  1  0  0  0  0
 13 17  1  0  0  0  0
 13 14  1  0  0  0  0
 14 15  1  0  0  0  0
 14 35  1  0  0  0  0
 14 36  1  0  0  0  0
 15 16  1  0  0  0  0
 15 37  1  0  0  0  0
 15 38  1  0  0  0  0
 16 17  1  0  0  0  0
 16 39  1  0  0  0  0
 16 40  1  0  0  0  0
 17 41  1  0  0  0  0
 17 42  1  0  0  0  0
 18 19  2  0  0  0  0
 18 20  1  0  0  0  0
 20 21  1  0  0  0  0
 20 43  1  0  0  0  0
 21 25  1  0  0  0  0
 21 22  1  0  0  0  0
 21 44  1  0  0  0  0
 22 23  1  0  0  0  0
 22 45  1  0  0  0  0
 22 46  1  0  0  0  0
 23 24  1  0  0  0  0
 23 47  1  0  0  0  0
 23 48  1  0  0  0  0
 24 25  1  0  0  0  0
 24 49  1  0  0  0  0
 24 50  1  0  0  0  0
 25 51  1  0  0  0  0
 25 52  1  0  0  0  0
M  END
> <s_m_source_file>
AV-unprocessed.smi

> <i_m_source_file_index>
830

> <i_lp_mmshare_version>
43012

> <i_f3d_flags>
0

> <s_epik_input>
W0NIMl0xW0NIMl1bQ0gyXVtDSDJdW0NIXTFbTkhdQyg9TylbQ0BIXShbQ0gzXSlbTkhdQyg9TylbTkhdYzJbY0hdW2NIXVtjSF1uYzJOM1tDSDJdW0NIMl1bQ0gyXVtDSDJdMw==

> <s_epik_cmdline>
J2VwaWtfcHl0aG9uJywgJy1waCcsICc3LjAnLCAnLXRuJywgJzgnLCAnLW1hJywgJzIwMCcsICctbWV0YWxfYmluZGluZycsICctaW1hZScsICc8aW5maWxlLm1hZT4nLCAnLW9tYWUnLCAnPG91dGZpbGUubWFlPic=

> <r_lp_tautomer_probability>
1

> <r_epik_Ionization_Penalty>
0.0827694

> <r_epik_Ionization_Penalty_Charging>
0

> <r_epik_Ionization_Penalty_Neutral>
0.0827694

> <r_epik_State_Penalty>
0.0729202

> <r_epik_Charging_Adjusted_Penalty>
0.0729202

> <i_epik_Tot_Q>
0

> <i_epik_Tot_abs_Q>
0

> <r_epik_Metal_State_Penalty>
0.0639723

> <b_epik_Metal_Only>
0

> <s_lp_Force_Field>
OPLS_2005

> <r_lp_Energy>
46.0812

> <b_lp_Chiralities_Consistent>
1

> <s_lp_Variant>
AV-unprocessed.smi:830-1

> <Gold.Version>
5.8.1

> <Gold.Id.Protein>
6NUR|6NUR_protein|mol2

> <Gold.PLP.Fitness>
44.1680

> <Gold.PLP.PLP>
-34.5688

> <Gold.PLP.part.hbond>
-5.3593

> <Gold.PLP.part.metal>
0.0000

> <Gold.PLP.part.buried>
-1.9756

> <Gold.PLP.part.nonpolar>
-28.0389

> <Gold.PLP.part.repulsive>
1.2336

> <Gold.PLP.ligand.clash>
0.0000

> <Gold.PLP.ligand.torsion>
0.4003

> <Gold.PLP.Chemscore.Hbond>
3.3206

> <Gold.PLP.Chemscore.CHOScore>
0.0000

> <Gold.PLP.Chemscore.Metal>
0.0000

> <Gold.Chemscore.Hbonds>
donor molecule, donor type, donor heavy atom, donor atom, acceptor molecule, acceptor atom, score
      L1  H     3    30       P1  7948  0.72
      L1  H     6    31       P1  7948  0.75
      P1  H  7989  7998       L1    19  0.91
      P1  H 10752 10764       L1     5  0.80

> <Gold.PLP.Chemscore.Internal.Correction>
0.4379

> <Gold.Rescore>
     Score         DG    S(hbond)    S(metal)    S(lipo)     H(rot)  DE(clash)    DE(int)     intcor
     13.11     -16.66       1.95        0.00      75.75       1.64       0.07       3.47       ----

> <Gold.Chemscore.Fitness>
13.1138

> <Gold.Chemscore.DG>
-16.6592

> <Gold.Chemscore.ZeroCoef>
-5.4800

> <Gold.Chemscore.Hbond>
1.9492

> <Gold.Chemscore.Metal>
0.0000

> <Gold.Chemscore.Lipo>
75.7484

> <Gold.Chemscore.Internal_Hbond>
0.0000

> <Gold.Chemscore.DEClash>
0.0710

> <Gold.Chemscore.DEInternal>
3.4743

> <Gold.Chemscore.Rot>
1.6382

> <Gold.Chemscore.Internal.Correction>
   9.000000E+99

> <Gold.Chemscore.Hbonds>
donor molecule, donor type, donor heavy atom, donor atom, acceptor molecule, acceptor atom, score
      L1  H     3    30       P1  7948  0.17
      L1  H     6    31       P1  7948  0.09
      P1  H  7989  7998       L1    19  0.22
      P1  H 10752 10764       L1     5  0.11

> <Gold.Chemscore.Hbond.Weighted>
-6.5103

> <Gold.Chemscore.Metal.Weighted>
-0.0000

> <Gold.Chemscore.Lipo.Weighted>
-8.8626

> <Gold.Chemscore.Internal_Hbond.Weighted>
0.0000

> <Gold.Chemscore.DEClash.Weighted>
0.0710

> <Gold.Chemscore.DEInternal.Weighted>
3.4743

> <Gold.Chemscore.Rot.Weighted>
4.1937

> <Gold.Chemscore.Internal.Correction.Weighted>
   9.000000E+99

> <Gold.Protein.RotatedTorsions>
[ 6907 6896 6895 6894 ] final  167.59 input  -60.11 | X-H torsion
[ 7974 7965 7964 7962 ] final   22.91 input  175.53 | X-H torsion
[ 8008 7997 7996 7995 ] final  155.17 input   59.86 | X-H torsion
[ 10167 10162 10161 10158 ] final -125.14 input  -65.29 | X-H torsion
[ 10718 10713 10712 10709 ] final   48.28 input   66.30 | X-H torsion
[ 10763 10752 10751 10750 ] final  -35.55 input  -60.55 | X-H torsion
[ 11005 11000 10999 10996 ] final   -7.01 input  -57.11 | X-H torsion

> <Gold.Protein.ActiveResidues>
 VAL166  LYS551  ARG553  GLY616  TRP617  ASP618  TYR619  PRO620  LYS621  CYS622 
 ASP623  PHE694  ASN695  SER759  ASP760  ASP761  ALA762  ILE779  LEU786  VAL792 
 PHE793  MET794  SER795  GLU796  ALA797  LYS798  CYS799  TRP800  GLU811  SER814 

> <Gold.Protein.RotatedAtoms>
  151.8609  133.3457  159.3703 H   0  0  0  0  0  0  0  0  0  0  0  0  # atno 6907 bound_to 6896
  150.7179  134.5207  159.5662 H   0  0  0  0  0  0  0  0  0  0  0  0  # atno 6908 bound_to 6896
  152.2720  134.7922  160.0463 H   0  0  0  0  0  0  0  0  0  0  0  0  # atno 6909 bound_to 6896
  146.2008  139.7819  142.8763 H   0  0  0  0  0  0  0  0  0  0  0  0  # atno 7974 bound_to 7965
  156.2492  140.1946  156.6760 H   0  0  0  0  0  0  0  0  0  0  0  0  # atno 8008 bound_to 7997
  154.6357  140.0590  156.9812 H   0  0  0  0  0  0  0  0  0  0  0  0  # atno 8009 bound_to 7997
  155.1641  140.3262  155.4408 H   0  0  0  0  0  0  0  0  0  0  0  0  # atno 8010 bound_to 7997
  139.9853  143.5698  152.2363 H   0  0  0  0  0  0  0  0  0  0  0  0  # atno 10167 bound_to 10162
  157.4671  130.8232  149.7948 H   0  0  0  0  0  0  0  0  0  0  0  0  # atno 10718 bound_to 10713
  153.8650  135.6836  153.4779 H   0  0  0  0  0  0  0  0  0  0  0  0  # atno 10763 bound_to 10752
  153.1320  135.4694  154.9361 H   0  0  0  0  0  0  0  0  0  0  0  0  # atno 10764 bound_to 10752
  154.7741  135.3247  154.8079 H   0  0  0  0  0  0  0  0  0  0  0  0  # atno 10765 bound_to 10752
  140.7082  133.8931  155.8731 H   0  0  0  0  0  0  0  0  0  0  0  0  # atno 11005 bound_to 11000
  145.3490  141.0303  143.3349 LP  0  0  0  0  0  0  0  0  0  0  0  0  # atno 17320 bound_to 7965
  144.8679  139.5080  143.6781 LP  0  0  0  0  0  0  0  0  0  0  0  0  # atno 17321 bound_to 7965
  139.6379  144.7652  151.2399 LP  0  0  0  0  0  0  0  0  0  0  0  0  # atno 17342 bound_to 10162
  140.7474  143.6366  150.8373 LP  0  0  0  0  0  0  0  0  0  0  0  0  # atno 17343 bound_to 10162
  156.0055  130.3857  150.2446 LP  0  0  0  0  0  0  0  0  0  0  0  0  # atno 17370 bound_to 10713
  157.0626  131.0094  151.3217 LP  0  0  0  0  0  0  0  0  0  0  0  0  # atno 17371 bound_to 10713
  141.0107  134.1025  157.4224 LP  0  0  0  0  0  0  0  0  0  0  0  0  # atno 17394 bound_to 11000
  139.8878  135.0093  156.6585 LP  0  0  0  0  0  0  0  0  0  0  0  0  # atno 17395 bound_to 11000

$$$$
