#       Name:                AV-unprocessed.smi:605
#       Creating user name   scv26
#       Creation time:       Thu Mar 26 23:55:54 2020


#       File generated by GOLD software.
#

@<TRIPOS>MOLECULE
AV-unprocessed.smi:605
    39    40     1
SMALL
NO_CHARGES


@<TRIPOS>ATOM
      1 ****        -1.2037   7.0342  -3.8438 C.3            1 S1                 0.0000
      2 ****        -1.5836   6.5585  -2.4337 C.3            1 S1                 0.0000
      3 ****        -1.7579   7.7112  -1.4345 C.3            1 S1                 0.0000
      4 ****        -0.6506   5.5052  -1.9223 C.2            1 S1                 0.0000
      5 ****         0.6533   5.7265  -1.7094 N.2            1 S1                 0.0000
      6 ****         1.3082   4.6017  -1.2308 N.2            1 S1                 0.0000
      7 ****         0.4813   3.5546  -1.1001 C.2            1 S1                 0.0000
      8 ****         0.8698   2.2717  -0.6146 N.am           1 S1                 0.0000
      9 ****         2.0833   1.7444  -0.3446 C.2            1 S1                 0.0000
     10 ****         3.1073   2.4073  -0.5005 O.2            1 S1                 0.0000
     11 ****         2.0936   0.4801   0.1089 N.am           1 S1                 0.0000
     12 ****         3.2742  -0.2998   0.4721 C.3            1 S1                 0.0000
     13 ****         3.4005  -1.5487  -0.4231 C.3            1 S1                 0.0000
     14 ****         3.5297  -2.7437   0.5247 C.3            1 S1                 0.0000
     15 ****         2.8099  -2.3033   1.7954 C.3            1 S1                 0.0000
     16 ****         3.1488  -0.8182   1.9156 C.3            1 S1                 0.0000
     17 ****        -1.1883   3.8733  -1.5393 S.3            1 S1                 0.0000
     18 ****        -1.1789   6.2004  -4.5459 H              1 S1                 0.0000
     19 ****        -0.2208   7.5066  -3.8521 H              1 S1                 0.0000
     20 ****        -1.9233   7.7615  -4.2203 H              1 S1                 0.0000
     21 ****        -2.5613   6.0839  -2.5257 H              1 S1                 0.0000
     22 ****        -2.1122   7.3441  -0.4707 H              1 S1                 0.0000
     23 ****        -2.4842   8.4387  -1.7976 H              1 S1                 0.0000
     24 ****        -0.8173   8.2365  -1.2660 H              1 S1                 0.0000
     25 ****         0.0969   1.6503  -0.4256 H              1 S1                 0.0000
     26 ****         1.2021   0.0150   0.2067 H              1 S1                 0.0000
     27 ****         4.1808   0.3024   0.3928 H              1 S1                 0.0000
     28 ****         2.5086  -1.6756  -1.0392 H              1 S1                 0.0000
     29 ****         4.2507  -1.4800  -1.1025 H              1 S1                 0.0000
     30 ****         3.1155  -3.6602   0.1033 H              1 S1                 0.0000
     31 ****         4.5823  -2.9251   0.7457 H              1 S1                 0.0000
     32 ****         1.7332  -2.4264   1.6706 H              1 S1                 0.0000
     33 ****         3.1134  -2.8763   2.6719 H              1 S1                 0.0000
     34 ****         4.1103  -0.7114   2.4197 H              1 S1                 0.0000
     35 ****         2.4148  -0.2729   2.5106 H              1 S1                 0.0000
     36 ****         1.1035   6.6037  -1.8766 LP             1 S1                 0.0000
     37 ****         2.2830   4.5748  -1.0093 LP             1 S1                 0.0000
     38 ****         3.0477   3.3492  -0.8311 LP             1 S1                 0.0000
     39 ****         3.9996   2.0045  -0.2967 LP             1 S1                 0.0000
@<TRIPOS>BOND
    1    1    2 1     
    2    1   18 1     
    3    1   19 1     
    4    1   20 1     
    5    2    3 1     
    6    2    4 1     
    7    2   21 1     
    8    3   22 1     
    9    3   23 1     
   10    3   24 1     
   11    4   17 1     
   12    4    5 2     
   13    5    6 1     
   14    6    7 2     
   15    7    8 1     
   16    7   17 1     
   17    8    9 am    
   18    8   25 1     
   19    9   10 2     
   20    9   11 am    
   21   11   12 1     
   22   11   26 1     
   23   12   16 1     
   24   12   13 1     
   25   12   27 1     
   26   13   14 1     
   27   13   28 1     
   28   13   29 1     
   29   14   15 1     
   30   14   30 1     
   31   14   31 1     
   32   15   16 1     
   33   15   32 1     
   34   15   33 1     
   35   16   34 1     
   36   16   35 1     
   37    5   36 1     
   38    6   37 1     
   39   10   38 1     
   40   10   39 1     
@<TRIPOS>SUBSTRUCTURE
      1 S1             1
@<TRIPOS>SET
LONE_PAIRS      STATIC     ATOMS    <user>   **** ""
4 36 37 38 39
DONOR_HYDROGENS      STATIC     ATOMS    <user>   **** ""
2 25 26
ATOM$BLUE        STATIC     ATOMS    COLORGROUP SYSTEM
4 36 37 38 39
ATOM$RED        STATIC     ATOMS    COLORGROUP SYSTEM
2 25 26
