AV-unprocessed.smi:1167|AV-procd|sdf|4938|dock5
  -GOLD-   22720 3523D 1   1.00000     0.00000
 Structure written by MMmdl.
 41 42  0  0  0  0  0  0  0  0  1 V2000
  146.0246  136.9264  152.4444 C   0  0  0  0  0  0  0  0  0  0  0  0
  146.2645  138.2217  151.9054 O   0  0  0  0  0  0  0  0  0  0  0  0
  146.9315  139.1433  152.6862 C   0  0  0  0  0  0  0  0  0  0  0  0
  146.6499  140.5112  152.5036 C   0  0  0  0  0  0  0  0  0  0  0  0
  147.3274  141.4596  153.2942 C   0  0  0  0  0  0  0  0  0  0  0  0
  148.2712  141.0073  154.2486 C   0  0  0  0  0  0  0  0  0  0  0  0
  149.0278  141.8464  155.1136 N   0  0  0  0  0  0  0  0  0  0  0  0
  150.1610  141.5850  155.7884 C   0  0  0  0  0  0  0  0  0  0  0  0
  150.7767  140.5200  155.7746 O   0  0  0  0  0  0  0  0  0  0  0  0
  150.5532  142.6522  156.4990 N   0  0  0  0  0  0  0  0  0  0  0  0
  151.7413  142.7113  157.3452 C   0  0  0  0  0  0  0  0  0  0  0  0
  151.7327  141.5250  158.3332 C   0  0  0  0  0  0  0  0  0  0  0  0
  152.8631  141.6511  159.3701 C   0  0  0  0  0  0  0  0  0  0  0  0
  152.7335  142.9409  160.0579 N   0  0  0  0  0  0  0  0  0  0  0  0
  152.3404  143.0461  161.3501 C   0  0  0  0  0  0  0  0  0  0  0  0
  152.1651  144.4348  161.9689 C   0  0  0  0  0  0  0  0  0  0  0  0
  152.1137  142.0649  162.0584 O   0  0  0  0  0  0  0  0  0  0  0  0
  152.9414  144.0664  159.1382 C   0  0  0  0  0  0  0  0  0  0  0  0
  151.8150  144.0651  158.0894 C   0  0  0  0  0  0  0  0  0  0  0  0
  148.4768  139.6158  154.3534 C   0  0  0  0  0  0  0  0  0  0  0  0
  147.8317  138.7016  153.5986 N   0  0  0  0  0  0  0  0  0  0  0  0
  145.4937  136.3226  151.7084 H   0  0  0  0  0  0  0  0  0  0  0  0
  145.4048  136.9753  153.3409 H   0  0  0  0  0  0  0  0  0  0  0  0
  146.9581  136.4137  152.6815 H   0  0  0  0  0  0  0  0  0  0  0  0
  145.9259  140.8296  151.7680 H   0  0  0  0  0  0  0  0  0  0  0  0
  147.1015  142.5026  153.1449 H   0  0  0  0  0  0  0  0  0  0  0  0
  148.6492  142.7734  155.2421 H   0  0  0  0  0  0  0  0  0  0  0  0
  149.9882  143.4876  156.4523 H   0  0  0  0  0  0  0  0  0  0  0  0
  152.6310  142.6126  156.7201 H   0  0  0  0  0  0  0  0  0  0  0  0
  150.7751  141.4840  158.8551 H   0  0  0  0  0  0  0  0  0  0  0  0
  151.8296  140.5842  157.7904 H   0  0  0  0  0  0  0  0  0  0  0  0
  152.8351  140.8023  160.0546 H   0  0  0  0  0  0  0  0  0  0  0  0
  153.8340  141.6004  158.8752 H   0  0  0  0  0  0  0  0  0  0  0  0
  151.4235  145.0138  161.4178 H   0  0  0  0  0  0  0  0  0  0  0  0
  153.1104  144.9784  161.9719 H   0  0  0  0  0  0  0  0  0  0  0  0
  151.8244  144.3549  163.0018 H   0  0  0  0  0  0  0  0  0  0  0  0
  152.9840  145.0349  159.6342 H   0  0  0  0  0  0  0  0  0  0  0  0
  153.9075  143.9514  158.6448 H   0  0  0  0  0  0  0  0  0  0  0  0
  151.9714  144.8778  157.3793 H   0  0  0  0  0  0  0  0  0  0  0  0
  150.8645  144.2673  158.5856 H   0  0  0  0  0  0  0  0  0  0  0  0
  149.1843  139.2193  155.0673 H   0  0  0  0  0  0  0  0  0  0  0  0
  1  2  1  0  0  0  0
  1 22  1  0  0  0  0
  1 23  1  0  0  0  0
  1 24  1  0  0  0  0
  2  3  1  0  0  0  0
  3 21  1  0  0  0  0
  3  4  2  0  0  0  0
  4  5  1  0  0  0  0
  4 25  1  0  0  0  0
  5  6  2  0  0  0  0
  5 26  1  0  0  0  0
  6  7  1  0  0  0  0
  6 20  1  0  0  0  0
  7  8  1  0  0  0  0
  7 27  1  0  0  0  0
  8  9  2  0  0  0  0
  8 10  1  0  0  0  0
 10 11  1  0  0  0  0
 10 28  1  0  0  0  0
 11 19  1  0  0  0  0
 11 12  1  0  0  0  0
 11 29  1  0  0  0  0
 12 13  1  0  0  0  0
 12 30  1  0  0  0  0
 12 31  1  0  0  0  0
 13 14  1  0  0  0  0
 13 32  1  0  0  0  0
 13 33  1  0  0  0  0
 14 15  1  0  0  0  0
 14 18  1  0  0  0  0
 15 16  1  0  0  0  0
 15 17  2  0  0  0  0
 16 34  1  0  0  0  0
 16 35  1  0  0  0  0
 16 36  1  0  0  0  0
 18 19  1  0  0  0  0
 18 37  1  0  0  0  0
 18 38  1  0  0  0  0
 19 39  1  0  0  0  0
 19 40  1  0  0  0  0
 20 21  2  0  0  0  0
 20 41  1  0  0  0  0
M  END
> <s_m_source_file>
AV-unprocessed.smi

> <i_m_source_file_index>
1167

> <i_lp_mmshare_version>
43012

> <i_f3d_flags>
0

> <s_epik_input>
W0NIM11PYzFbY0hdW2NIXWMoW2NIXW4xKVtOSF1DKD1PKVtOSF1bQ0hdMltDSDJdW0NIMl1OKEMoPU8pW0NIM10pW0NIMl1bQ0gyXTI=

> <s_epik_cmdline>
J2VwaWtfcHl0aG9uJywgJy1waCcsICc3LjAnLCAnLXRuJywgJzgnLCAnLW1hJywgJzIwMCcsICctbWV0YWxfYmluZGluZycsICctaW1hZScsICc8aW5maWxlLm1hZT4nLCAnLW9tYWUnLCAnPG91dGZpbGUubWFlPic=

> <r_lp_tautomer_probability>
1

> <r_epik_Ionization_Penalty>
9.6092e-05

> <r_epik_Ionization_Penalty_Charging>
0

> <r_epik_Ionization_Penalty_Neutral>
9.6092e-05

> <r_epik_State_Penalty>
-0

> <r_epik_Charging_Adjusted_Penalty>
0

> <i_epik_Tot_Q>
0

> <i_epik_Tot_abs_Q>
0

> <r_epik_Metal_State_Penalty>
-0

> <b_epik_Metal_Only>
0

> <s_lp_Force_Field>
OPLS_2005

> <r_lp_Energy>
24.5609

> <b_lp_Chiralities_Consistent>
1

> <s_lp_Variant>
AV-unprocessed.smi:1167-1

> <Gold.Version>
5.8.1

> <Gold.Id.Protein>
6NUR|6NUR_protein|mol2

> <Gold.PLP.Fitness>
46.2917

> <Gold.PLP.PLP>
-38.5569

> <Gold.PLP.part.hbond>
-3.0000

> <Gold.PLP.part.metal>
0.0000

> <Gold.PLP.part.buried>
-2.3593

> <Gold.PLP.part.nonpolar>
-34.5313

> <Gold.PLP.part.repulsive>
0.9227

> <Gold.PLP.ligand.clash>
0.0000

> <Gold.PLP.ligand.torsion>
0.4982

> <Gold.PLP.Chemscore.Hbond>
2.9048

> <Gold.PLP.Chemscore.CHOScore>
0.0000

> <Gold.PLP.Chemscore.Metal>
0.0000

> <Gold.Chemscore.Hbonds>
donor molecule, donor type, donor heavy atom, donor atom, acceptor molecule, acceptor atom, score
      L1  H     7    27       P1  8028  1.00
      L1  H    10    28       P1  8028  1.00
      P1  H  6933  6945       L1    17  0.81

> <Gold.PLP.Chemscore.Internal.Correction>
0.0168

> <Gold.Rescore>
     Score         DG    S(hbond)    S(metal)    S(lipo)     H(rot)  DE(clash)    DE(int)     intcor
     17.07     -23.46       2.81        0.00     101.32       1.27       3.29       3.09       ----

> <Gold.Chemscore.Fitness>
17.0699

> <Gold.Chemscore.DG>
-23.4551

> <Gold.Chemscore.ZeroCoef>
-5.4800

> <Gold.Chemscore.Hbond>
2.8093

> <Gold.Chemscore.Metal>
0.0000

> <Gold.Chemscore.Lipo>
101.3239

> <Gold.Chemscore.Internal_Hbond>
0.0000

> <Gold.Chemscore.DEClash>
3.2909

> <Gold.Chemscore.DEInternal>
3.0943

> <Gold.Chemscore.Rot>
1.2746

> <Gold.Chemscore.Internal.Correction>
   9.000000E+99

> <Gold.Chemscore.Hbonds>
donor molecule, donor type, donor heavy atom, donor atom, acceptor molecule, acceptor atom, score
      L1  H     7    27       P1  8028  0.93
      L1  H    10    28       P1  8028  0.99
      P1  H  6933  6945       L1    17  0.59

> <Gold.Chemscore.Hbond.Weighted>
-9.3832

> <Gold.Chemscore.Metal.Weighted>
-0.0000

> <Gold.Chemscore.Lipo.Weighted>
-11.8549

> <Gold.Chemscore.Internal_Hbond.Weighted>
0.0000

> <Gold.Chemscore.DEClash.Weighted>
3.2909

> <Gold.Chemscore.DEInternal.Weighted>
3.0943

> <Gold.Chemscore.Rot.Weighted>
3.2630

> <Gold.Chemscore.Internal.Correction.Weighted>
   9.000000E+99

> <Gold.Protein.RotatedTorsions>
[ 6907 6896 6895 6894 ] final -117.23 input  -60.11 | X-H torsion
[ 7974 7965 7964 7962 ] final   51.82 input  175.53 | X-H torsion
[ 8008 7997 7996 7995 ] final  -56.58 input   59.86 | X-H torsion
[ 10167 10162 10161 10158 ] final   -6.40 input  -65.29 | X-H torsion
[ 10718 10713 10712 10709 ] final -118.33 input   66.30 | X-H torsion
[ 10763 10752 10751 10750 ] final -128.00 input  -60.55 | X-H torsion
[ 11005 11000 10999 10996 ] final -141.09 input  -57.11 | X-H torsion

> <Gold.Protein.ActiveResidues>
 VAL166  LYS551  ARG553  GLY616  TRP617  ASP618  TYR619  PRO620  LYS621  CYS622 
 ASP623  PHE694  ASN695  SER759  ASP760  ASP761  ALA762  ILE779  LEU786  VAL792 
 PHE793  MET794  SER795  GLU796  ALA797  LYS798  CYS799  TRP800  GLU811  SER814 

> <Gold.Protein.RotatedAtoms>
  150.8119  133.8406  159.3177 H   0  0  0  0  0  0  0  0  0  0  0  0  # atno 6907 bound_to 6896
  151.6188  135.1032  160.0107 H   0  0  0  0  0  0  0  0  0  0  0  0  # atno 6908 bound_to 6896
  152.4211  133.7078  159.6518 H   0  0  0  0  0  0  0  0  0  0  0  0  # atno 6909 bound_to 6896
  145.9876  139.4305  143.0094 H   0  0  0  0  0  0  0  0  0  0  0  0  # atno 7974 bound_to 7965
  154.4235  140.1126  156.5660 H   0  0  0  0  0  0  0  0  0  0  0  0  # atno 8008 bound_to 7997
  155.6262  140.3495  155.4649 H   0  0  0  0  0  0  0  0  0  0  0  0  # atno 8009 bound_to 7997
  155.9985  140.1194  157.0560 H   0  0  0  0  0  0  0  0  0  0  0  0  # atno 8010 bound_to 7997
  140.6995  143.6198  150.8623 H   0  0  0  0  0  0  0  0  0  0  0  0  # atno 10167 bound_to 10162
  156.1099  130.6240  150.9278 H   0  0  0  0  0  0  0  0  0  0  0  0  # atno 10718 bound_to 10713
  154.8755  135.3943  154.3685 H   0  0  0  0  0  0  0  0  0  0  0  0  # atno 10763 bound_to 10752
  153.4448  135.7027  153.6151 H   0  0  0  0  0  0  0  0  0  0  0  0  # atno 10764 bound_to 10752
  153.4716  135.3789  155.2363 H   0  0  0  0  0  0  0  0  0  0  0  0  # atno 10765 bound_to 10752
  140.8358  134.2461  157.4834 H   0  0  0  0  0  0  0  0  0  0  0  0  # atno 11005 bound_to 11000
  145.7678  140.9909  143.1165 LP  0  0  0  0  0  0  0  0  0  0  0  0  # atno 17320 bound_to 7965
  144.6879  139.9410  143.7475 LP  0  0  0  0  0  0  0  0  0  0  0  0  # atno 17321 bound_to 7965
  139.9919  143.5837  152.2907 LP  0  0  0  0  0  0  0  0  0  0  0  0  # atno 17342 bound_to 10162
  139.6496  144.7660  151.2175 LP  0  0  0  0  0  0  0  0  0  0  0  0  # atno 17343 bound_to 10162
  157.6279  131.0924  150.8498 LP  0  0  0  0  0  0  0  0  0  0  0  0  # atno 17370 bound_to 10713
  156.8611  130.5113  149.5303 LP  0  0  0  0  0  0  0  0  0  0  0  0  # atno 17371 bound_to 10713
  139.8704  134.9610  156.4382 LP  0  0  0  0  0  0  0  0  0  0  0  0  # atno 17394 bound_to 11000
  140.8948  133.7822  155.9613 LP  0  0  0  0  0  0  0  0  0  0  0  0  # atno 17395 bound_to 11000

$$$$
