AV-unprocessed.smi:2591|AV-procd|sdf|10153|dock5
  -GOLD-   2272014163D 1   1.00000     0.00000
 Structure written by MMmdl.
 35 36  0  0  0  0  0  0  0  0  2 V2000
  144.8755  142.4620  155.8358 C   0  0  0  0  0  0  0  0  0  0  0  0
  146.0689  141.8035  155.2629 N   0  3  1  0  0  0  0  0  0  0  0  0
  146.3783  142.2748  153.8946 C   0  0  0  0  0  0  0  0  0  0  0  0
  147.5989  141.5258  153.3384 C   0  0  0  0  0  0  0  0  0  0  0  0
  148.7057  141.7093  154.2123 O   0  0  0  0  0  0  0  0  0  0  0  0
  148.4682  141.1803  155.5169 C   0  0  1  0  0  0  0  0  0  0  0  0
  149.7460  141.3342  156.3570 C   0  0  0  0  0  0  0  0  0  0  0  0
  150.4627  140.3541  156.5628 O   0  0  0  0  0  0  0  0  0  0  0  0
  150.0128  142.5761  156.8068 N   0  0  0  0  0  0  0  0  0  0  0  0
  151.1065  143.0105  157.6016 C   0  0  0  0  0  0  0  0  0  0  0  0
  151.7073  142.0060  158.3922 C   0  0  0  0  0  0  0  0  0  0  0  0
  152.8050  142.3279  159.2183 C   0  0  0  0  0  0  0  0  0  0  0  0
  153.4570  141.2534  160.0744 C   0  0  0  0  0  0  0  0  0  0  0  0
  152.9739  140.0415  159.7987 F   0  0  0  0  0  0  0  0  0  0  0  0
  154.7709  141.2496  159.8530 F   0  0  0  0  0  0  0  0  0  0  0  0
  153.2393  141.5110  161.3639 F   0  0  0  0  0  0  0  0  0  0  0  0
  153.2647  143.6609  159.2295 C   0  0  0  0  0  0  0  0  0  0  0  0
  152.6096  144.5994  158.4118 C   0  0  0  0  0  0  0  0  0  0  0  0
  151.5626  144.2870  157.6205 N   0  0  0  0  0  0  0  0  0  0  0  0
  147.2559  141.9107  156.1420 C   0  0  0  0  0  0  0  0  0  0  0  0
  145.0350  143.5353  155.9465 H   0  0  0  0  0  0  0  0  0  0  0  0
  144.6420  142.0475  156.8169 H   0  0  0  0  0  0  0  0  0  0  0  0
  144.0073  142.3092  155.1941 H   0  0  0  0  0  0  0  0  0  0  0  0
  145.5168  142.1151  153.2451 H   0  0  0  0  0  0  0  0  0  0  0  0
  146.5746  143.3482  153.9111 H   0  0  0  0  0  0  0  0  0  0  0  0
  147.3854  140.4625  153.2185 H   0  0  0  0  0  0  0  0  0  0  0  0
  147.8595  141.9118  152.3529 H   0  0  0  0  0  0  0  0  0  0  0  0
  148.2562  140.1126  155.4374 H   0  0  0  0  0  0  0  0  0  0  0  0
  149.3445  143.2912  156.5601 H   0  0  0  0  0  0  0  0  0  0  0  0
  151.3325  140.9927  158.3693 H   0  0  0  0  0  0  0  0  0  0  0  0
  154.0975  143.9656  159.8457 H   0  0  0  0  0  0  0  0  0  0  0  0
  152.9339  145.6294  158.3932 H   0  0  0  0  0  0  0  0  0  0  0  0
  147.4907  142.9641  156.3062 H   0  0  0  0  0  0  0  0  0  0  0  0
  147.0147  141.4799  157.1152 H   0  0  0  0  0  0  0  0  0  0  0  0
  145.8497  140.8201  155.1897 H   0  0  0  0  0  0  0  0  0  0  0  0
  1  2  1  0  0  0  0
  1 21  1  0  0  0  0
  1 22  1  0  0  0  0
  1 23  1  0  0  0  0
  2 20  1  0  0  0  0
  2  3  1  0  0  0  0
  2 35  1  0  0  0  0
  3  4  1  0  0  0  0
  3 24  1  0  0  0  0
  3 25  1  0  0  0  0
  4  5  1  0  0  0  0
  4 26  1  0  0  0  0
  4 27  1  0  0  0  0
  5  6  1  0  0  0  0
  6  7  1  0  0  0  0
  6 20  1  0  0  0  0
  6 28  1  0  0  0  0
  7  8  2  0  0  0  0
  7  9  1  0  0  0  0
  9 10  1  0  0  0  0
  9 29  1  0  0  0  0
 10 19  1  0  0  0  0
 10 11  2  0  0  0  0
 11 12  1  0  0  0  0
 11 30  1  0  0  0  0
 12 13  1  0  0  0  0
 12 17  2  0  0  0  0
 13 14  1  0  0  0  0
 13 15  1  0  0  0  0
 13 16  1  0  0  0  0
 17 18  1  0  0  0  0
 17 31  1  0  0  0  0
 18 19  2  0  0  0  0
 18 32  1  0  0  0  0
 20 33  1  0  0  0  0
 20 34  1  0  0  0  0
M  CHG  1   2   1
M  END
> <s_m_source_file>
AV-unprocessed.smi

> <i_m_source_file_index>
2591

> <i_lp_mmshare_version>
43012

> <i_f3d_flags>
0

> <s_epik_input>
W0NIM11OMVtDSDJdW0NIMl1PW0NASF0oW0NIMl0xKUMoPU8pW05IXWMyW2NIXWMoQyhGKShGKUYpW2NIXVtjSF1uMg==

> <s_epik_cmdline>
J2VwaWtfcHl0aG9uJywgJy1waCcsICc3LjAnLCAnLXRuJywgJzgnLCAnLW1hJywgJzIwMCcsICctbWV0YWxfYmluZGluZycsICctaW1hZScsICc8aW5maWxlLm1hZT4nLCAnLW9tYWUnLCAnPG91dGZpbGUubWFlPic=

> <r_epik_Ionization_Penalty>
0.314028

> <r_epik_Ionization_Penalty_Charging>
0.314023

> <r_epik_Ionization_Penalty_Neutral>
5.2303e-06

> <r_epik_State_Penalty>
0.308208

> <r_epik_Charging_Adjusted_Penalty>
0.62223

> <i_epik_Tot_Q>
1

> <i_epik_Tot_abs_Q>
1

> <r_epik_Metal_State_Penalty>
0.308209

> <b_epik_Metal_Only>
0

> <s_lp_Force_Field>
OPLS_2005

> <r_lp_Energy>
17.8582

> <b_lp_Chiralities_Consistent>
1

> <s_lp_Variant>
AV-unprocessed.smi:2591-1

> <Gold.Version>
5.8.1

> <Gold.Id.Protein>
6NUR|6NUR_protein|mol2

> <Gold.PLP.Fitness>
43.0589

> <Gold.PLP.PLP>
-42.0194

> <Gold.PLP.part.hbond>
-2.0000

> <Gold.PLP.part.metal>
0.0000

> <Gold.PLP.part.buried>
-6.2142

> <Gold.PLP.part.nonpolar>
-32.8678

> <Gold.PLP.part.repulsive>
0.3719

> <Gold.PLP.ligand.clash>
0.7973

> <Gold.PLP.ligand.torsion>
0.6908

> <Gold.PLP.Chemscore.Hbond>
1.0716

> <Gold.PLP.Chemscore.CHOScore>
0.0000

> <Gold.PLP.Chemscore.Metal>
0.0000

> <Gold.Chemscore.Hbonds>
donor molecule, donor type, donor heavy atom, donor atom, acceptor molecule, acceptor atom, score
      L1  H     9    29       P1  8028  1.00
      P1  H  8011  8017       L1     5  0.05

> <Gold.PLP.Chemscore.Internal.Correction>
0.0034

> <Gold.Rescore>
     Score         DG    S(hbond)    S(metal)    S(lipo)     H(rot)  DE(clash)    DE(int)     intcor
     13.88     -16.03       1.00        0.00      83.65       1.00       0.00       2.15       ----

> <Gold.Chemscore.Fitness>
13.8824

> <Gold.Chemscore.DG>
-16.0308

> <Gold.Chemscore.ZeroCoef>
-5.4800

> <Gold.Chemscore.Hbond>
0.9950

> <Gold.Chemscore.Metal>
0.0000

> <Gold.Chemscore.Lipo>
83.6539

> <Gold.Chemscore.Internal_Hbond>
0.0000

> <Gold.Chemscore.DEClash>
0.0020

> <Gold.Chemscore.DEInternal>
2.1465

> <Gold.Chemscore.Rot>
1.0000

> <Gold.Chemscore.Internal.Correction>
   9.000000E+99

> <Gold.Chemscore.Hbonds>
donor molecule, donor type, donor heavy atom, donor atom, acceptor molecule, acceptor atom, score
      L1  H     9    29       P1  8028  0.96

> <Gold.Chemscore.Hbond.Weighted>
-3.3233

> <Gold.Chemscore.Metal.Weighted>
-0.0000

> <Gold.Chemscore.Lipo.Weighted>
-9.7875

> <Gold.Chemscore.Internal_Hbond.Weighted>
0.0000

> <Gold.Chemscore.DEClash.Weighted>
0.0020

> <Gold.Chemscore.DEInternal.Weighted>
2.1465

> <Gold.Chemscore.Rot.Weighted>
2.5600

> <Gold.Chemscore.Internal.Correction.Weighted>
   9.000000E+99

> <Gold.Protein.RotatedTorsions>
[ 6907 6896 6895 6894 ] final   90.20 input  -60.11 | X-H torsion
[ 7974 7965 7964 7962 ] final -149.53 input  175.53 | X-H torsion
[ 8008 7997 7996 7995 ] final  109.57 input   59.86 | X-H torsion
[ 10167 10162 10161 10158 ] final  159.14 input  -65.29 | X-H torsion
[ 10718 10713 10712 10709 ] final   82.82 input   66.30 | X-H torsion
[ 10763 10752 10751 10750 ] final  135.55 input  -60.55 | X-H torsion
[ 11005 11000 10999 10996 ] final  -62.78 input  -57.11 | X-H torsion

> <Gold.Protein.ActiveResidues>
 VAL166  LYS551  ARG553  GLY616  TRP617  ASP618  TYR619  PRO620  LYS621  CYS622 
 ASP623  PHE694  ASN695  SER759  ASP760  ASP761  ALA762  ILE779  LEU786  VAL792 
 PHE793  MET794  SER795  GLU796  ALA797  LYS798  CYS799  TRP800  GLU811  SER814 

> <Gold.Protein.RotatedAtoms>
  152.5443  134.1848  159.8649 H   0  0  0  0  0  0  0  0  0  0  0  0  # atno 6907 bound_to 6896
  151.1848  133.4696  159.2602 H   0  0  0  0  0  0  0  0  0  0  0  0  # atno 6908 bound_to 6896
  151.1142  135.0055  159.8563 H   0  0  0  0  0  0  0  0  0  0  0  0  # atno 6909 bound_to 6896
  144.7961  140.5052  143.5739 H   0  0  0  0  0  0  0  0  0  0  0  0  # atno 7974 bound_to 7965
  156.1989  140.3055  155.9485 H   0  0  0  0  0  0  0  0  0  0  0  0  # atno 8008 bound_to 7997
  155.3000  140.0446  157.3046 H   0  0  0  0  0  0  0  0  0  0  0  0  # atno 8009 bound_to 7997
  154.5545  140.2301  155.8440 H   0  0  0  0  0  0  0  0  0  0  0  0  # atno 8010 bound_to 7997
  139.4830  144.4758  151.8513 H   0  0  0  0  0  0  0  0  0  0  0  0  # atno 10167 bound_to 10162
  157.6865  131.0064  150.2431 H   0  0  0  0  0  0  0  0  0  0  0  0  # atno 10718 bound_to 10713
  153.8420  135.3090  155.3427 H   0  0  0  0  0  0  0  0  0  0  0  0  # atno 10763 bound_to 10752
  154.7929  135.4772  154.0096 H   0  0  0  0  0  0  0  0  0  0  0  0  # atno 10764 bound_to 10752
  153.1570  135.6854  153.8890 H   0  0  0  0  0  0  0  0  0  0  0  0  # atno 10765 bound_to 10752
  141.1371  133.6644  156.5580 H   0  0  0  0  0  0  0  0  0  0  0  0  # atno 11005 bound_to 11000
  145.5669  139.1481  143.3310 LP  0  0  0  0  0  0  0  0  0  0  0  0  # atno 17320 bound_to 7965
  146.2230  140.5803  142.9009 LP  0  0  0  0  0  0  0  0  0  0  0  0  # atno 17321 bound_to 7965
  140.4230  144.2218  150.5887 LP  0  0  0  0  0  0  0  0  0  0  0  0  # atno 17342 bound_to 10162
  140.4855  143.2365  151.8894 LP  0  0  0  0  0  0  0  0  0  0  0  0  # atno 17343 bound_to 10162
  156.3042  130.3762  149.7722 LP  0  0  0  0  0  0  0  0  0  0  0  0  # atno 17370 bound_to 10713
  156.5343  130.8271  151.3247 LP  0  0  0  0  0  0  0  0  0  0  0  0  # atno 17371 bound_to 10713
  140.4011  134.7356  157.4780 LP  0  0  0  0  0  0  0  0  0  0  0  0  # atno 17394 bound_to 11000
  140.0496  134.6150  155.8879 LP  0  0  0  0  0  0  0  0  0  0  0  0  # atno 17395 bound_to 11000

$$$$
