#       Name:                AV-unprocessed.smi:3033
#       Creating user name   scv26
#       Creation time:       Fri Mar 27 16:53:57 2020


#       File generated by GOLD software.
#

@<TRIPOS>MOLECULE
AV-unprocessed.smi:3033
    41    42     1
SMALL
NO_CHARGES


@<TRIPOS>ATOM
      1 ****        -4.8135   2.7482  -0.1045 C.3            1 S1                 0.0000
      2 ****        -3.4167   2.5226  -0.2262 O.3            1 S1                 0.0000
      3 ****        -2.9803   1.2239  -0.3776 C.ar           1 S1                 0.0000
      4 ****        -3.8376   0.0959  -0.4224 C.ar           1 S1                 0.0000
      5 ****        -3.3038  -1.1977  -0.5765 C.ar           1 S1                 0.0000
      6 ****        -1.9137  -1.3809  -0.6898 C.ar           1 S1                 0.0000
      7 ****        -1.0481  -0.2677  -0.6515 C.ar           1 S1                 0.0000
      8 ****         0.4575  -0.4535  -0.7646 C.3            1 S1                 0.0000
      9 ****         0.7845  -1.2842  -1.8609 O.3            1 S1                 0.0000
     10 ****         1.0375  -1.0636   0.5303 C.3            1 S1                 0.0000
     11 ****         2.4454  -0.7954   0.7030 N.am           1 S1                 0.0000
     12 ****         2.9046   0.3792   1.2791 C.2            1 S1                 0.0000
     13 ****         4.2194   0.6690   1.4306 C.2            1 S1                 0.0000
     14 ****         4.7112   2.1575   2.1560 Cl             1 S1                 0.0000
     15 ****         5.2345  -0.2796   0.9744 C.2            1 S1                 0.0000
     16 ****         6.4502  -0.1202   1.0643 O.2            1 S1                 0.0000
     17 ****         4.7265  -1.4460   0.3942 N.am           1 S1                 0.0000
     18 ****         3.3747  -1.7512   0.2309 C.2            1 S1                 0.0000
     19 ****         3.0484  -2.8102  -0.3048 O.2            1 S1                 0.0000
     20 ****        -1.5890   1.0256  -0.4927 C.ar           1 S1                 0.0000
     21 ****         5.3956  -2.1254   0.0625 H              1 S1                 0.0000
     22 ****        -4.9967   3.8160   0.0145 H              1 S1                 0.0000
     23 ****        -5.2245   2.2440   0.7713 H              1 S1                 0.0000
     24 ****        -5.3494   2.4192  -0.9958 H              1 S1                 0.0000
     25 ****        -4.9091   0.1961  -0.3392 H              1 S1                 0.0000
     26 ****        -3.9632  -2.0524  -0.6075 H              1 S1                 0.0000
     27 ****        -1.5141  -2.3782  -0.8046 H              1 S1                 0.0000
     28 ****         0.9103   0.5228  -0.9441 H              1 S1                 0.0000
     29 ****         0.4908  -0.8629  -2.6540 H              1 S1                 0.0000
     30 ****         0.5706  -0.6005   1.4019 H              1 S1                 0.0000
     31 ****         0.8509  -2.1344   0.6373 H              1 S1                 0.0000
     32 ****         2.1790   1.1035   1.6219 H              1 S1                 0.0000
     33 ****        -0.9312   1.8819  -0.4568 H              1 S1                 0.0000
     34 ****        -2.9840   2.8872   0.5983 LP             1 S1                 0.0000
     35 ****        -3.1011   3.0369  -1.0236 LP             1 S1                 0.0000
     36 ****         0.3301  -2.1694  -1.7608 LP             1 S1                 0.0000
     37 ****         1.7745  -1.4201  -1.8977 LP             1 S1                 0.0000
     38 ****         6.8159   0.7138   1.4775 LP             1 S1                 0.0000
     39 ****         7.0733  -0.8246   0.7244 LP             1 S1                 0.0000
     40 ****         2.0808  -3.0322  -0.4254 LP             1 S1                 0.0000
     41 ****         3.7508  -3.4487  -0.6193 LP             1 S1                 0.0000
@<TRIPOS>BOND
    1    1    2 1     
    2    1   22 1     
    3    1   23 1     
    4    1   24 1     
    5    2    3 1     
    6    3   20 ar    
    7    3    4 ar    
    8    4    5 ar    
    9    4   25 1     
   10    5    6 ar    
   11    5   26 1     
   12    6    7 ar    
   13    6   27 1     
   14    7    8 1     
   15    7   20 ar    
   16    8    9 1     
   17    8   10 1     
   18    8   28 1     
   19    9   29 1     
   20   10   11 1     
   21   10   30 1     
   22   10   31 1     
   23   11   18 1     
   24   11   12 1     
   25   12   13 2     
   26   12   32 1     
   27   13   14 1     
   28   13   15 1     
   29   15   16 2     
   30   15   17 1     
   31   17   21 1     
   32   17   18 1     
   33   18   19 2     
   34   20   33 1     
   35    2   34 1     
   36    2   35 1     
   37    9   36 1     
   38    9   37 1     
   39   16   38 1     
   40   16   39 1     
   41   19   40 1     
   42   19   41 1     
@<TRIPOS>SUBSTRUCTURE
      1 S1             1
@<TRIPOS>SET
LONE_PAIRS      STATIC     ATOMS    <user>   **** ""
8 34 35 36 37 38 39 40 41
DONOR_HYDROGENS      STATIC     ATOMS    <user>   **** ""
2 29 21
ATOM$BLUE        STATIC     ATOMS    COLORGROUP SYSTEM
8 34 35 36 37 38 39 40 41
ATOM$RED        STATIC     ATOMS    COLORGROUP SYSTEM
2 29 21
