#       Name:                AV-unprocessed.smi:3002
#       Creating user name   scv26
#       Creation time:       Fri Mar 27 16:36:33 2020


#       File generated by GOLD software.
#

@<TRIPOS>MOLECULE
AV-unprocessed.smi:3002
    38    39     1
SMALL
NO_CHARGES


@<TRIPOS>ATOM
      1 ****        -2.5929  -2.2892   0.7724 C.3            1 S1                 0.0000
      2 ****        -2.1451  -1.2996  -0.3225 C.3            1 S1                 0.0000
      3 ****        -0.6247  -1.0806  -0.3307 C.2            1 S1                 0.0000
      4 ****         0.1426  -1.9850   0.0010 O.2            1 S1                 0.0000
      5 ****        -0.2016   0.1352  -0.7108 N.am           1 S1                 0.0000
      6 ****         1.1938   0.5568  -0.7701 C.3            1 S1                 0.0000
      7 ****         1.7622   0.8799   0.6259 C.3            1 S1                 0.0000
      8 ****         3.2312   1.3415   0.5722 C.3            1 S1                 0.0000
      9 ****         3.6205   1.8890   1.9490 C.3            1 S1                 0.0000
     10 ****         2.1072   2.6809   2.6101 S.o2           1 S1                 0.0000
     11 ****         1.8188   2.1274   3.9418 O.2            1 S1                 0.0000
     12 ****         2.1773   4.1337   2.3920 O.2            1 S1                 0.0000
     13 ****         0.9586   1.9524   1.3817 C.3            1 S1                 0.0000
     14 ****        -2.6033  -1.6937  -1.6488 N.pl3          1 S1                 0.0000
     15 ****        -3.0916  -0.9486  -2.6431 C.2            1 S1                 0.0000
     16 ****        -3.3692  -1.6330  -3.7439 N.2            1 S1                 0.0000
     17 ****        -2.9898  -2.8809  -3.3377 C.2            1 S1                 0.0000
     18 ****        -2.5129  -2.9711  -2.0965 N.2            1 S1                 0.0000
     19 ****        -2.2807  -1.9482   1.7601 H              1 S1                 0.0000
     20 ****        -2.1770  -3.2861   0.6216 H              1 S1                 0.0000
     21 ****        -3.6790  -2.3842   0.7888 H              1 S1                 0.0000
     22 ****        -2.6133  -0.3400  -0.0963 H              1 S1                 0.0000
     23 ****        -0.8964   0.8213  -0.9675 H              1 S1                 0.0000
     24 ****         1.7932  -0.2156  -1.2551 H              1 S1                 0.0000
     25 ****         1.2511   1.4373  -1.4107 H              1 S1                 0.0000
     26 ****         1.7397  -0.0283   1.2300 H              1 S1                 0.0000
     27 ****         3.8971   0.5357   0.2621 H              1 S1                 0.0000
     28 ****         3.3311   2.1392  -0.1652 H              1 S1                 0.0000
     29 ****         3.8986   1.0781   2.6227 H              1 S1                 0.0000
     30 ****         4.4390   2.6080   1.9098 H              1 S1                 0.0000
     31 ****         0.6389   2.7506   0.7114 H              1 S1                 0.0000
     32 ****         0.0799   1.5485   1.8850 H              1 S1                 0.0000
     33 ****        -3.2441   0.1176  -2.5611 H              1 S1                 0.0000
     34 ****        -3.0608  -3.7477  -3.9782 H              1 S1                 0.0000
     35 ****        -0.2223  -2.8734   0.2796 LP             1 S1                 0.0000
     36 ****         1.1307  -1.8310  -0.0082 LP             1 S1                 0.0000
     37 ****        -3.7465  -1.3254  -4.6174 LP             1 S1                 0.0000
     38 ****        -2.1730  -3.7791  -1.6151 LP             1 S1                 0.0000
@<TRIPOS>BOND
    1    1    2 1     
    2    1   19 1     
    3    1   20 1     
    4    1   21 1     
    5    2    3 1     
    6    2   14 1     
    7    2   22 1     
    8    3    4 2     
    9    3    5 am    
   10    5    6 1     
   11    5   23 1     
   12    6    7 1     
   13    6   24 1     
   14    6   25 1     
   15    7   13 1     
   16    7    8 1     
   17    7   26 1     
   18    8    9 1     
   19    8   27 1     
   20    8   28 1     
   21    9   10 1     
   22    9   29 1     
   23    9   30 1     
   24   10   11 2     
   25   10   12 2     
   26   10   13 1     
   27   13   31 1     
   28   13   32 1     
   29   14   18 1     
   30   14   15 1     
   31   15   16 2     
   32   15   33 1     
   33   16   17 1     
   34   17   18 2     
   35   17   34 1     
   36    4   35 1     
   37    4   36 1     
   38   16   37 1     
   39   18   38 1     
@<TRIPOS>SUBSTRUCTURE
      1 S1             1
@<TRIPOS>SET
LONE_PAIRS      STATIC     ATOMS    <user>   **** ""
6 35 36 11 12 37 38
DONOR_HYDROGENS      STATIC     ATOMS    <user>   **** ""
1 23
ATOM$BLUE        STATIC     ATOMS    COLORGROUP SYSTEM
6 35 36 11 12 37 38
ATOM$RED        STATIC     ATOMS    COLORGROUP SYSTEM
1 23
