AV-unprocessed.smi:3245|AV-procd|sdf|12407|dock6
  -GOLD-   2272018283D 1   1.00000     0.00000
 Structure written by MMmdl.
 35 36  0  0  0  0  0  0  0  0  3 V2000
  146.7315  139.3885  151.7357 C   0  0  0  0  0  0  0  0  0  0  0  0
  147.2851  139.2517  153.1603 C   0  0  1  0  0  0  0  0  0  0  0  0
  146.3603  138.3648  154.0222 C   0  0  0  0  0  0  0  0  0  0  0  0
  145.8740  137.1960  153.3113 N   0  0  0  0  0  0  0  0  0  0  0  0
  144.8659  137.1187  152.3737 C   0  0  0  0  0  0  0  0  0  0  0  0
  144.7511  135.8078  152.0094 C   0  0  0  0  0  0  0  0  0  0  0  0
  145.7467  135.1516  152.7857 C   0  0  0  0  0  0  0  0  0  0  0  0
  146.4196  135.9860  153.5618 N   0  0  0  0  0  0  0  0  0  0  0  0
  148.6577  138.6987  153.1045 N   0  3  0  0  0  0  0  0  0  0  0  0
  149.4683  138.9270  154.3177 C   0  0  0  0  0  0  0  0  0  0  0  0
  150.7915  138.1528  154.2477 C   0  0  0  0  0  0  0  0  0  0  0  0
  151.6098  138.4077  155.4354 N   0  0  0  0  0  0  0  0  0  0  0  0
  152.1616  137.4538  156.1910 C   0  0  0  0  0  0  0  0  0  0  0  0
  152.0803  136.2341  156.0460 O   0  0  0  0  0  0  0  0  0  0  0  0
  152.9463  138.1383  157.2856 C   0  0  0  0  0  0  0  0  0  0  0  0
  152.7400  139.5372  156.9842 N   0  5  0  0  0  0  0  0  0  0  0  0
  151.9513  139.6289  155.8889 C   0  0  0  0  0  0  0  0  0  0  0  0
  151.5759  140.6620  155.3353 O   0  0  0  0  0  0  0  0  0  0  0  0
  145.7321  139.8244  151.7436 H   0  0  0  0  0  0  0  0  0  0  0  0
  146.6671  138.4199  151.2385 H   0  0  0  0  0  0  0  0  0  0  0  0
  147.3659  140.0342  151.1274 H   0  0  0  0  0  0  0  0  0  0  0  0
  147.3201  140.2539  153.5914 H   0  0  0  0  0  0  0  0  0  0  0  0
  146.8947  138.0175  154.9073 H   0  0  0  0  0  0  0  0  0  0  0  0
  145.5063  138.9401  154.3840 H   0  0  0  0  0  0  0  0  0  0  0  0
  144.3158  137.9909  152.0529 H   0  0  0  0  0  0  0  0  0  0  0  0
  144.0590  135.3805  151.2990 H   0  0  0  0  0  0  0  0  0  0  0  0
  145.9965  134.1011  152.8106 H   0  0  0  0  0  0  0  0  0  0  0  0
  148.5904  137.7043  152.9398 H   0  0  0  0  0  0  0  0  0  0  0  0
  149.6571  139.9960  154.4228 H   0  0  0  0  0  0  0  0  0  0  0  0
  148.9105  138.6159  155.2006 H   0  0  0  0  0  0  0  0  0  0  0  0
  150.5948  137.0826  154.1616 H   0  0  0  0  0  0  0  0  0  0  0  0
  151.3392  138.4275  153.3445 H   0  0  0  0  0  0  0  0  0  0  0  0
  152.5562  137.8454  158.2610 H   0  0  0  0  0  0  0  0  0  0  0  0
  153.9929  137.8365  157.2360 H   0  0  0  0  0  0  0  0  0  0  0  0
  149.1450  139.1219  152.3279 H   0  0  0  0  0  0  0  0  0  0  0  0
  1  2  1  0  0  0  0
  1 19  1  0  0  0  0
  1 20  1  0  0  0  0
  1 21  1  0  0  0  0
  2  3  1  0  0  0  0
  2  9  1  0  0  0  0
  2 22  1  0  0  0  0
  3  4  1  0  0  0  0
  3 23  1  0  0  0  0
  3 24  1  0  0  0  0
  4  8  1  0  0  0  0
  4  5  1  0  0  0  0
  5  6  2  0  0  0  0
  5 25  1  0  0  0  0
  6  7  1  0  0  0  0
  6 26  1  0  0  0  0
  7  8  2  0  0  0  0
  7 27  1  0  0  0  0
  9 10  1  0  0  0  0
  9 28  1  0  0  0  0
  9 35  1  0  0  0  0
 10 11  1  0  0  0  0
 10 29  1  0  0  0  0
 10 30  1  0  0  0  0
 11 12  1  0  0  0  0
 11 31  1  0  0  0  0
 11 32  1  0  0  0  0
 12 17  1  0  0  0  0
 12 13  1  0  0  0  0
 13 14  2  0  0  0  0
 13 15  1  0  0  0  0
 15 16  1  0  0  0  0
 15 33  1  0  0  0  0
 15 34  1  0  0  0  0
 16 17  1  0  0  0  0
 17 18  2  0  0  0  0
M  CHG  1   9   1
M  CHG  1  16  -1
M  END
> <s_m_source_file>
AV-unprocessed.smi

> <i_m_source_file_index>
3245

> <i_lp_mmshare_version>
43012

> <i_f3d_flags>
0

> <s_epik_input>
bjFbY0hdW2NIXVtjSF1uMVtDSDJdW0NAQEhdKFtDSDNdKVtOSF1bQ0gyXVtDSDJdTjJDKD1PKVtDSDJdW05IXUMyPU8=

> <s_epik_cmdline>
J2VwaWtfcHl0aG9uJywgJy1waCcsICc3LjAnLCAnLXRuJywgJzgnLCAnLW1hJywgJzIwMCcsICctbWV0YWxfYmluZGluZycsICctaW1hZScsICc8aW5maWxlLm1hZT4nLCAnLW9tYWUnLCAnPG91dGZpbGUubWFlPic=

> <r_lp_tautomer_probability>
1

> <r_epik_Ionization_Penalty>
5.1873

> <r_epik_Ionization_Penalty_Charging>
5.18729

> <r_epik_Ionization_Penalty_Neutral>
3.83745e-06

> <r_epik_State_Penalty>
5.18822

> <r_epik_Charging_Adjusted_Penalty>
10.3755

> <i_epik_Tot_Q>
0

> <i_epik_Tot_abs_Q>
2

> <r_epik_Metal_State_Penalty>
1.25934

> <b_epik_Metal_Only>
1

> <s_lp_Force_Field>
OPLS_2005

> <r_lp_Energy>
10.2516

> <b_lp_Chiralities_Consistent>
1

> <s_lp_Variant>
AV-unprocessed.smi:3245-6

> <Gold.Version>
5.8.1

> <Gold.Id.Protein>
6NUR|6NUR_protein|mol2

> <Gold.PLP.Fitness>
52.0542

> <Gold.PLP.PLP>
-27.4270

> <Gold.PLP.part.hbond>
-4.9766

> <Gold.PLP.part.metal>
0.0000

> <Gold.PLP.part.buried>
0.5954

> <Gold.PLP.part.nonpolar>
-23.3685

> <Gold.PLP.part.repulsive>
0.8805

> <Gold.PLP.ligand.clash>
0.0000

> <Gold.PLP.ligand.torsion>
0.6420

> <Gold.PLP.Chemscore.Hbond>
6.7520

> <Gold.PLP.Chemscore.CHOScore>
1.8590

> <Gold.PLP.Chemscore.Metal>
0.0000

> <Gold.Chemscore.Hbonds>
donor molecule, donor type, donor heavy atom, donor atom, acceptor molecule, acceptor atom, score
      L1  H     9    28       P1  7948  1.92
      L1  H     9    35       P1  7957  1.00
      P1  H  7989  7998       L1    18  0.74
      P1  H  7997  8010       L1    16  2.00
      P1  H 10752 10764       L1    14  1.00
      L1  C     5    25       P1 10171  0.93
      L1  C     5    25       P1 10175  0.92

> <Gold.PLP.Chemscore.Internal.Correction>
0.0782

> <Gold.Rescore>
     Score         DG    S(hbond)    S(metal)    S(lipo)     H(rot)  DE(clash)    DE(int)     intcor
     15.60     -18.19       4.14        0.00      48.72       2.66       0.11       2.48       ----

> <Gold.Chemscore.Fitness>
15.5999

> <Gold.Chemscore.DG>
-18.1859

> <Gold.Chemscore.ZeroCoef>
-5.4800

> <Gold.Chemscore.Hbond>
4.1363

> <Gold.Chemscore.Metal>
0.0000

> <Gold.Chemscore.Lipo>
48.7216

> <Gold.Chemscore.Internal_Hbond>
0.0000

> <Gold.Chemscore.DEClash>
0.1097

> <Gold.Chemscore.DEInternal>
2.4763

> <Gold.Chemscore.Rot>
2.6601

> <Gold.Chemscore.Internal.Correction>
   9.000000E+99

> <Gold.Chemscore.Hbonds>
donor molecule, donor type, donor heavy atom, donor atom, acceptor molecule, acceptor atom, score
      L1  H     9    28       P1  7948  0.92
      L1  H     9    35       P1  7957  0.93
      P1  H  7989  7998       L1    18  0.73
      P1  H  7997  8010       L1    16  0.28
      P1  H 10752 10764       L1    14  0.93

> <Gold.Chemscore.Hbond.Weighted>
-13.8152

> <Gold.Chemscore.Metal.Weighted>
-0.0000

> <Gold.Chemscore.Lipo.Weighted>
-5.7004

> <Gold.Chemscore.Internal_Hbond.Weighted>
0.0000

> <Gold.Chemscore.DEClash.Weighted>
0.1097

> <Gold.Chemscore.DEInternal.Weighted>
2.4763

> <Gold.Chemscore.Rot.Weighted>
6.8098

> <Gold.Chemscore.Internal.Correction.Weighted>
   9.000000E+99

> <Gold.Protein.RotatedTorsions>
[ 6907 6896 6895 6894 ] final  -65.75 input  -60.11 | X-H torsion
[ 7974 7965 7964 7962 ] final -157.73 input  175.53 | X-H torsion
[ 8008 7997 7996 7995 ] final   58.85 input   59.86 | X-H torsion
[ 10167 10162 10161 10158 ] final   32.01 input  -65.29 | X-H torsion
[ 10718 10713 10712 10709 ] final  133.70 input   66.30 | X-H torsion
[ 10763 10752 10751 10750 ] final  -47.15 input  -60.55 | X-H torsion
[ 11005 11000 10999 10996 ] final -116.35 input  -57.11 | X-H torsion

> <Gold.Protein.ActiveResidues>
 VAL166  LYS551  ARG553  GLY616  TRP617  ASP618  TYR619  PRO620  LYS621  CYS622 
 ASP623  PHE694  ASN695  SER759  ASP760  ASP761  ALA762  ILE779  LEU786  VAL792 
 PHE793  MET794  SER795  GLU796  ALA797  LYS798  CYS799  TRP800  GLU811  SER814 

> <Gold.Protein.RotatedAtoms>
  150.7506  134.6117  159.6089 H   0  0  0  0  0  0  0  0  0  0  0  0  # atno 6907 bound_to 6896
  152.3449  134.7081  160.0262 H   0  0  0  0  0  0  0  0  0  0  0  0  # atno 6908 bound_to 6896
  151.7521  133.3292  159.3431 H   0  0  0  0  0  0  0  0  0  0  0  0  # atno 6909 bound_to 6896
  144.7536  140.3928  143.6029 H   0  0  0  0  0  0  0  0  0  0  0  0  # atno 7974 bound_to 7965
  155.5568  140.3487  155.4481 H   0  0  0  0  0  0  0  0  0  0  0  0  # atno 8008 bound_to 7997
  156.0543  140.1325  157.0040 H   0  0  0  0  0  0  0  0  0  0  0  0  # atno 8009 bound_to 7997
  154.4449  140.0998  156.6408 H   0  0  0  0  0  0  0  0  0  0  0  0  # atno 8010 bound_to 7997
  140.4537  144.1009  150.6197 H   0  0  0  0  0  0  0  0  0  0  0  0  # atno 10167 bound_to 10162
  157.4746  131.1082  150.9759 H   0  0  0  0  0  0  0  0  0  0  0  0  # atno 10718 bound_to 10713
  154.0567  135.6623  153.4807 H   0  0  0  0  0  0  0  0  0  0  0  0  # atno 10763 bound_to 10752
  153.0442  135.5125  154.7698 H   0  0  0  0  0  0  0  0  0  0  0  0  # atno 10764 bound_to 10752
  154.6722  135.3031  154.9693 H   0  0  0  0  0  0  0  0  0  0  0  0  # atno 10765 bound_to 10752
  141.0427  133.9810  157.2968 H   0  0  0  0  0  0  0  0  0  0  0  0  # atno 11005 bound_to 11000
  145.6858  139.1628  143.2675 LP  0  0  0  0  0  0  0  0  0  0  0  0  # atno 17320 bound_to 7965
  146.1518  140.6915  142.9319 LP  0  0  0  0  0  0  0  0  0  0  0  0  # atno 17321 bound_to 7965
  140.4176  143.2627  151.9755 LP  0  0  0  0  0  0  0  0  0  0  0  0  # atno 17342 bound_to 10162
  139.4799  144.5860  151.7853 LP  0  0  0  0  0  0  0  0  0  0  0  0  # atno 17343 bound_to 10162
  157.0513  130.5788  149.5371 LP  0  0  0  0  0  0  0  0  0  0  0  0  # atno 17370 bound_to 10713
  156.0090  130.5180  150.7927 LP  0  0  0  0  0  0  0  0  0  0  0  0  # atno 17371 bound_to 10713
  139.9288  135.0201  156.8329 LP  0  0  0  0  0  0  0  0  0  0  0  0  # atno 17394 bound_to 11000
  140.6204  133.9999  155.7615 LP  0  0  0  0  0  0  0  0  0  0  0  0  # atno 17395 bound_to 11000

$$$$
