AV-unprocessed.smi:3319|AV-procd|sdf|12767|dock10
  -GOLD-   2272019103D 1   1.00000     0.00000
 Structure written by MMmdl.
 40 41  0  0  0  0  0  0  0  0  2 V2000
  150.8032  141.7468  155.7444 C   0  0  0  0  0  0  0  0  0  0  0  0
  149.7843  141.6311  155.0812 C   0  0  0  0  0  0  0  0  0  0  0  0
  148.5479  141.4819  154.2919 C   0  0  0  0  0  0  0  0  0  0  0  0
  148.2691  140.0959  153.9159 N   0  0  0  0  0  0  0  0  0  0  0  0
  147.0617  140.0648  153.0882 C   0  0  0  0  0  0  0  0  0  0  0  0
  146.7968  138.6349  152.5859 C   0  0  0  0  0  0  0  0  0  0  0  0
  146.6252  137.6576  153.7584 C   0  0  0  0  0  0  0  0  0  0  0  0
  146.4639  136.2774  153.2496 N   0  3  0  0  0  0  0  0  0  0  0  0
  145.2046  136.0137  152.5220 C   0  0  0  0  0  0  0  0  0  0  0  0
  145.4846  135.6356  151.0614 C   0  0  0  0  0  0  0  0  0  0  0  0
  145.0943  134.2025  150.7551 C   0  0  0  0  0  0  0  0  0  0  0  0
  143.7449  133.7963  150.8070 C   0  0  0  0  0  0  0  0  0  0  0  0
  143.4360  132.4523  150.5139 C   0  0  0  0  0  0  0  0  0  0  0  0
  144.3680  131.5328  150.1832 N   0  0  0  0  0  0  0  0  0  0  0  0
  145.6579  131.9293  150.1347 C   0  0  0  0  0  0  0  0  0  0  0  0
  146.0731  133.2481  150.4096 C   0  0  0  0  0  0  0  0  0  0  0  0
  147.8429  137.7903  154.6904 C   0  0  0  0  0  0  0  0  0  0  0  0
  148.0672  139.2558  155.1027 C   0  0  0  0  0  0  0  0  0  0  0  0
  151.6939  141.8439  156.3235 H   0  0  0  0  0  0  0  0  0  0  0  0
  147.7136  141.9148  154.8457 H   0  0  0  0  0  0  0  0  0  0  0  0
  148.6904  142.0868  153.3955 H   0  0  0  0  0  0  0  0  0  0  0  0
  146.2054  140.4371  153.6533 H   0  0  0  0  0  0  0  0  0  0  0  0
  147.1893  140.7251  152.2294 H   0  0  0  0  0  0  0  0  0  0  0  0
  145.9042  138.6276  151.9595 H   0  0  0  0  0  0  0  0  0  0  0  0
  147.6240  138.3165  151.9492 H   0  0  0  0  0  0  0  0  0  0  0  0
  145.7213  137.9343  154.3039 H   0  0  0  0  0  0  0  0  0  0  0  0
  147.2246  136.0973  152.6100 H   0  0  0  0  0  0  0  0  0  0  0  0
  144.6589  135.2060  153.0095 H   0  0  0  0  0  0  0  0  0  0  0  0
  144.5730  136.9022  152.5612 H   0  0  0  0  0  0  0  0  0  0  0  0
  144.9402  136.3012  150.3900 H   0  0  0  0  0  0  0  0  0  0  0  0
  146.5435  135.7696  150.8361 H   0  0  0  0  0  0  0  0  0  0  0  0
  142.9614  134.4936  151.0657 H   0  0  0  0  0  0  0  0  0  0  0  0
  142.4130  132.1074  150.5455 H   0  0  0  0  0  0  0  0  0  0  0  0
  146.3818  131.1734  149.8681 H   0  0  0  0  0  0  0  0  0  0  0  0
  147.1185  133.5153  150.3563 H   0  0  0  0  0  0  0  0  0  0  0  0
  147.7063  137.1881  155.5884 H   0  0  0  0  0  0  0  0  0  0  0  0
  148.7381  137.4109  154.1949 H   0  0  0  0  0  0  0  0  0  0  0  0
  148.9401  139.3064  155.7539 H   0  0  0  0  0  0  0  0  0  0  0  0
  147.2179  139.6216  155.6821 H   0  0  0  0  0  0  0  0  0  0  0  0
  146.5400  135.6347  154.0251 H   0  0  0  0  0  0  0  0  0  0  0  0
  1  2  3  0  0  0  0
  1 19  1  0  0  0  0
  2  3  1  0  0  0  0
  3  4  1  0  0  0  0
  3 20  1  0  0  0  0
  3 21  1  0  0  0  0
  4 18  1  0  0  0  0
  4  5  1  0  0  0  0
  5  6  1  0  0  0  0
  5 22  1  0  0  0  0
  5 23  1  0  0  0  0
  6  7  1  0  0  0  0
  6 24  1  0  0  0  0
  6 25  1  0  0  0  0
  7  8  1  0  0  0  0
  7 17  1  0  0  0  0
  7 26  1  0  0  0  0
  8  9  1  0  0  0  0
  8 27  1  0  0  0  0
  8 40  1  0  0  0  0
  9 10  1  0  0  0  0
  9 28  1  0  0  0  0
  9 29  1  0  0  0  0
 10 11  1  0  0  0  0
 10 30  1  0  0  0  0
 10 31  1  0  0  0  0
 11 16  1  0  0  0  0
 11 12  2  0  0  0  0
 12 13  1  0  0  0  0
 12 32  1  0  0  0  0
 13 14  2  0  0  0  0
 13 33  1  0  0  0  0
 14 15  1  0  0  0  0
 15 16  2  0  0  0  0
 15 34  1  0  0  0  0
 16 35  1  0  0  0  0
 17 18  1  0  0  0  0
 17 36  1  0  0  0  0
 17 37  1  0  0  0  0
 18 38  1  0  0  0  0
 18 39  1  0  0  0  0
M  CHG  1   8   1
M  END
> <s_m_source_file>
AV-unprocessed.smi

> <i_m_source_file_index>
3319

> <i_lp_mmshare_version>
43012

> <i_f3d_flags>
0

> <s_epik_input>
W0NIXSNDW0NIMl1OMVtDSDJdW0NIMl1bQ0hdKFtDSDJdW0NIMl0xKVtOSF1bQ0gyXVtDSDJdYzJbY0hdW2NIXW5bY0hdW2NIXTI=

> <s_epik_cmdline>
J2VwaWtfcHl0aG9uJywgJy1waCcsICc3LjAnLCAnLXRuJywgJzgnLCAnLW1hJywgJzIwMCcsICctbWV0YWxfYmluZGluZycsICctaW1hZScsICc8aW5maWxlLm1hZT4nLCAnLW9tYWUnLCAnPG91dGZpbGUubWFlPic=

> <r_epik_Ionization_Penalty>
0.00927662

> <r_epik_Ionization_Penalty_Charging>
0.000485704

> <r_epik_Ionization_Penalty_Neutral>
0.00879091

> <r_epik_State_Penalty>
0.00559669

> <r_epik_Charging_Adjusted_Penalty>
0.0060824

> <i_epik_Tot_Q>
1

> <i_epik_Tot_abs_Q>
1

> <r_epik_Metal_State_Penalty>
-0

> <b_epik_Metal_Only>
0

> <s_lp_Force_Field>
OPLS_2005

> <r_lp_Energy>
19.7292

> <b_lp_Chiralities_Consistent>
1

> <s_lp_Variant>
AV-unprocessed.smi:3319-1

> <Gold.Version>
5.8.1

> <Gold.Id.Protein>
6NUR|6NUR_protein|mol2

> <Gold.PLP.Fitness>
44.8408

> <Gold.PLP.PLP>
-33.6743

> <Gold.PLP.part.hbond>
-2.0000

> <Gold.PLP.part.metal>
0.0000

> <Gold.PLP.part.buried>
-2.8301

> <Gold.PLP.part.nonpolar>
-30.3473

> <Gold.PLP.part.repulsive>
0.2608

> <Gold.PLP.ligand.clash>
0.0000

> <Gold.PLP.ligand.torsion>
0.8076

> <Gold.PLP.Chemscore.Hbond>
2.1581

> <Gold.PLP.Chemscore.CHOScore>
2.0919

> <Gold.PLP.Chemscore.Metal>
0.0000

> <Gold.Chemscore.Hbonds>
donor molecule, donor type, donor heavy atom, donor atom, acceptor molecule, acceptor atom, score
      L1  H     8    27       P1  7948  2.00
      P1  H 10785 10796       L1    14  0.17
      L1  C    13    33       P1 10186  0.06
      L1  C    13    33       P1 10952  0.93
      L1  C    15    34       P1 10747  0.76

> <Gold.PLP.Chemscore.Internal.Correction>
0.0319

> <Gold.Rescore>
     Score         DG    S(hbond)    S(metal)    S(lipo)     H(rot)  DE(clash)    DE(int)     intcor
     15.66     -16.61       0.99        0.00      98.28       1.44       0.07       0.88       ----

> <Gold.Chemscore.Fitness>
15.6591

> <Gold.Chemscore.DG>
-16.6116

> <Gold.Chemscore.ZeroCoef>
-5.4800

> <Gold.Chemscore.Hbond>
0.9914

> <Gold.Chemscore.Metal>
0.0000

> <Gold.Chemscore.Lipo>
98.2844

> <Gold.Chemscore.Internal_Hbond>
0.0000

> <Gold.Chemscore.DEClash>
0.0725

> <Gold.Chemscore.DEInternal>
0.8800

> <Gold.Chemscore.Rot>
1.4371

> <Gold.Chemscore.Internal.Correction>
   9.000000E+99

> <Gold.Chemscore.Hbonds>
donor molecule, donor type, donor heavy atom, donor atom, acceptor molecule, acceptor atom, score
      L1  H     8    27       P1  7948  0.99
      P1  H 10785 10796       L1    14  0.07

> <Gold.Chemscore.Hbond.Weighted>
-3.3114

> <Gold.Chemscore.Metal.Weighted>
-0.0000

> <Gold.Chemscore.Lipo.Weighted>
-11.4993

> <Gold.Chemscore.Internal_Hbond.Weighted>
0.0000

> <Gold.Chemscore.DEClash.Weighted>
0.0725

> <Gold.Chemscore.DEInternal.Weighted>
0.8800

> <Gold.Chemscore.Rot.Weighted>
3.6790

> <Gold.Chemscore.Internal.Correction.Weighted>
   9.000000E+99

> <Gold.Protein.RotatedTorsions>
[ 6907 6896 6895 6894 ] final  120.93 input  -60.11 | X-H torsion
[ 7974 7965 7964 7962 ] final   25.09 input  175.53 | X-H torsion
[ 8008 7997 7996 7995 ] final  -58.25 input   59.86 | X-H torsion
[ 10167 10162 10161 10158 ] final -118.41 input  -65.29 | X-H torsion
[ 10718 10713 10712 10709 ] final  143.73 input   66.30 | X-H torsion
[ 10763 10752 10751 10750 ] final   72.22 input  -60.55 | X-H torsion
[ 11005 11000 10999 10996 ] final  -51.60 input  -57.11 | X-H torsion

> <Gold.Protein.ActiveResidues>
 VAL166  LYS551  ARG553  GLY616  TRP617  ASP618  TYR619  PRO620  LYS621  CYS622 
 ASP623  PHE694  ASN695  SER759  ASP760  ASP761  ALA762  ILE779  LEU786  VAL792 
 PHE793  MET794  SER795  GLU796  ALA797  LYS798  CYS799  TRP800  GLU811  SER814 

> <Gold.Protein.RotatedAtoms>
  152.4361  133.7363  159.6615 H   0  0  0  0  0  0  0  0  0  0  0  0  # atno 6907 bound_to 6896
  150.8245  133.8185  159.3131 H   0  0  0  0  0  0  0  0  0  0  0  0  # atno 6908 bound_to 6896
  151.5858  135.1058  160.0079 H   0  0  0  0  0  0  0  0  0  0  0  0  # atno 6909 bound_to 6896
  146.1905  139.7513  142.8835 H   0  0  0  0  0  0  0  0  0  0  0  0  # atno 7974 bound_to 7965
  154.4301  140.1088  156.5926 H   0  0  0  0  0  0  0  0  0  0  0  0  # atno 8008 bound_to 7997
  155.5995  140.3493  155.4571 H   0  0  0  0  0  0  0  0  0  0  0  0  # atno 8009 bound_to 7997
  156.0184  140.1234  157.0372 H   0  0  0  0  0  0  0  0  0  0  0  0  # atno 8010 bound_to 7997
  140.0577  143.4998  152.2048 H   0  0  0  0  0  0  0  0  0  0  0  0  # atno 10167 bound_to 10162
  157.3655  131.0971  151.0876 H   0  0  0  0  0  0  0  0  0  0  0  0  # atno 10718 bound_to 10713
  153.0445  135.5108  154.7711 H   0  0  0  0  0  0  0  0  0  0  0  0  # atno 10763 bound_to 10752
  154.6621  135.2940  154.9855 H   0  0  0  0  0  0  0  0  0  0  0  0  # atno 10764 bound_to 10752
  154.0702  135.6678  153.4876 H   0  0  0  0  0  0  0  0  0  0  0  0  # atno 10765 bound_to 10752
  141.0880  133.6638  156.3901 H   0  0  0  0  0  0  0  0  0  0  0  0  # atno 11005 bound_to 11000
  145.3806  141.0357  143.3180 LP  0  0  0  0  0  0  0  0  0  0  0  0  # atno 17320 bound_to 7965
  144.8478  139.5369  143.6870 LP  0  0  0  0  0  0  0  0  0  0  0  0  # atno 17321 bound_to 7965
  139.5913  144.7551  151.3394 LP  0  0  0  0  0  0  0  0  0  0  0  0  # atno 17342 bound_to 10162
  140.7186  143.7197  150.7705 LP  0  0  0  0  0  0  0  0  0  0  0  0  # atno 17343 bound_to 10162
  157.1999  130.6390  149.5735 LP  0  0  0  0  0  0  0  0  0  0  0  0  # atno 17370 bound_to 10713
  155.9745  130.4694  150.6394 LP  0  0  0  0  0  0  0  0  0  0  0  0  # atno 17371 bound_to 10713
  140.5319  134.6204  157.5352 LP  0  0  0  0  0  0  0  0  0  0  0  0  # atno 17394 bound_to 11000
  139.9701  134.7308  156.0059 LP  0  0  0  0  0  0  0  0  0  0  0  0  # atno 17395 bound_to 11000

$$$$
