AV-unprocessed.smi:2362|AV-procd|sdf|9413|dock4
  -GOLD-   2272013 53D 1   1.00000     0.00000
 Structure written by MMmdl.
 45 46  0  0  0  0  0  0  0  0  2 V2000
  151.5076  143.0122  157.5787 C   0  0  0  0  0  0  0  0  0  0  0  0
  151.1031  141.7258  156.8894 C   0  0  0  0  0  0  0  0  0  0  0  0
  151.2090  140.4828  157.5420 C   0  0  0  0  0  0  0  0  0  0  0  0
  150.8197  139.3187  156.8515 C   0  0  0  0  0  0  0  0  0  0  0  0
  150.3338  139.4241  155.5289 C   0  0  0  0  0  0  0  0  0  0  0  0
  149.9718  138.1924  154.9203 N   0  0  0  0  0  0  0  0  0  0  0  0
  149.4866  137.0870  155.5122 C   0  0  0  0  0  0  0  0  0  0  0  0
  149.3072  136.9476  156.7222 O   0  0  0  0  0  0  0  0  0  0  0  0
  149.2020  136.1341  154.6109 N   0  0  0  0  0  0  0  0  0  0  0  0
  148.6795  134.7995  154.9101 C   0  0  2  0  0  0  0  0  0  0  0  0
  149.4936  133.7571  154.1317 C   0  0  0  0  0  0  0  0  0  0  0  0
  147.1724  134.6924  154.5787 C   0  0  0  0  0  0  0  0  0  0  0  0
  146.8947  134.6391  153.1202 N   0  3  0  0  0  0  0  0  0  0  0  0
  146.7891  133.2500  152.6042 C   0  0  0  0  0  0  0  0  0  0  0  0
  146.6647  133.2391  151.0708 C   0  0  0  0  0  0  0  0  0  0  0  0
  145.4747  134.0896  150.6074 C   0  0  0  0  0  0  0  0  0  0  0  0
  145.5857  135.5063  151.1859 C   0  0  0  0  0  0  0  0  0  0  0  0
  145.7257  135.4646  152.7164 C   0  0  0  0  0  0  0  0  0  0  0  0
  150.2374  140.6262  154.9079 N   0  0  0  0  0  0  0  0  0  0  0  0
  150.6103  141.7414  155.5704 C   0  0  0  0  0  0  0  0  0  0  0  0
  151.8244  142.8296  158.6061 H   0  0  0  0  0  0  0  0  0  0  0  0
  150.6701  143.7100  157.5994 H   0  0  0  0  0  0  0  0  0  0  0  0
  152.3337  143.4822  157.0449 H   0  0  0  0  0  0  0  0  0  0  0  0
  151.5819  140.4174  158.5536 H   0  0  0  0  0  0  0  0  0  0  0  0
  150.8951  138.3571  157.3381 H   0  0  0  0  0  0  0  0  0  0  0  0
  150.0840  138.1556  153.9178 H   0  0  0  0  0  0  0  0  0  0  0  0
  149.3825  136.3387  153.6386 H   0  0  0  0  0  0  0  0  0  0  0  0
  148.8317  134.5870  155.9692 H   0  0  0  0  0  0  0  0  0  0  0  0
  149.1621  132.7456  154.3684 H   0  0  0  0  0  0  0  0  0  0  0  0
  150.5538  133.8201  154.3796 H   0  0  0  0  0  0  0  0  0  0  0  0
  149.3938  133.8954  153.0545 H   0  0  0  0  0  0  0  0  0  0  0  0
  146.7892  133.7863  155.0508 H   0  0  0  0  0  0  0  0  0  0  0  0
  146.6189  135.5206  155.0244 H   0  0  0  0  0  0  0  0  0  0  0  0
  147.6735  132.6804  152.8920 H   0  0  0  0  0  0  0  0  0  0  0  0
  145.9293  132.7553  153.0584 H   0  0  0  0  0  0  0  0  0  0  0  0
  147.5839  133.6242  150.6271 H   0  0  0  0  0  0  0  0  0  0  0  0
  146.5533  132.2154  150.7122 H   0  0  0  0  0  0  0  0  0  0  0  0
  145.4392  134.1283  149.5182 H   0  0  0  0  0  0  0  0  0  0  0  0
  144.5420  133.6290  150.9353 H   0  0  0  0  0  0  0  0  0  0  0  0
  146.4495  136.0137  150.7536 H   0  0  0  0  0  0  0  0  0  0  0  0
  144.7101  136.0931  150.9066 H   0  0  0  0  0  0  0  0  0  0  0  0
  144.8179  135.0590  153.1658 H   0  0  0  0  0  0  0  0  0  0  0  0
  145.8338  136.4824  153.0903 H   0  0  0  0  0  0  0  0  0  0  0  0
  150.5128  142.6720  155.0303 H   0  0  0  0  0  0  0  0  0  0  0  0
  147.7027  135.0431  152.6677 H   0  0  0  0  0  0  0  0  0  0  0  0
  1  2  1  0  0  0  0
  1 21  1  0  0  0  0
  1 22  1  0  0  0  0
  1 23  1  0  0  0  0
  2 20  1  0  0  0  0
  2  3  2  0  0  0  0
  3  4  1  0  0  0  0
  3 24  1  0  0  0  0
  4  5  2  0  0  0  0
  4 25  1  0  0  0  0
  5  6  1  0  0  0  0
  5 19  1  0  0  0  0
  6  7  1  0  0  0  0
  6 26  1  0  0  0  0
  7  8  2  0  0  0  0
  7  9  1  0  0  0  0
  9 10  1  0  0  0  0
  9 27  1  0  0  0  0
 10 11  1  0  0  0  0
 10 12  1  0  0  0  0
 10 28  1  0  0  0  0
 11 29  1  0  0  0  0
 11 30  1  0  0  0  0
 11 31  1  0  0  0  0
 12 13  1  0  0  0  0
 12 32  1  0  0  0  0
 12 33  1  0  0  0  0
 13 18  1  0  0  0  0
 13 14  1  0  0  0  0
 13 45  1  0  0  0  0
 14 15  1  0  0  0  0
 14 34  1  0  0  0  0
 14 35  1  0  0  0  0
 15 16  1  0  0  0  0
 15 36  1  0  0  0  0
 15 37  1  0  0  0  0
 16 17  1  0  0  0  0
 16 38  1  0  0  0  0
 16 39  1  0  0  0  0
 17 18  1  0  0  0  0
 17 40  1  0  0  0  0
 17 41  1  0  0  0  0
 18 42  1  0  0  0  0
 18 43  1  0  0  0  0
 19 20  2  0  0  0  0
 20 44  1  0  0  0  0
M  CHG  1  13   1
M  END
> <s_m_source_file>
AV-unprocessed.smi

> <i_m_source_file_index>
2362

> <i_lp_mmshare_version>
43012

> <i_f3d_flags>
0

> <s_epik_input>
W0NIM11jMVtjSF1bY0hdYyhuW2NIXTEpW05IXUMoPU8pW05IXVtDQEhdKFtDSDNdKVtDSDJdTjJbQ0gyXVtDSDJdW0NIMl1bQ0gyXVtDSDJdMg==

> <s_epik_cmdline>
J2VwaWtfcHl0aG9uJywgJy1waCcsICc3LjAnLCAnLXRuJywgJzgnLCAnLW1hJywgJzIwMCcsICctbWV0YWxfYmluZGluZycsICctaW1hZScsICc8aW5maWxlLm1hZT4nLCAnLW9tYWUnLCAnPG91dGZpbGUubWFlPic=

> <r_epik_Ionization_Penalty>
0.00215987

> <r_epik_Ionization_Penalty_Charging>
0.00211816

> <r_epik_Ionization_Penalty_Neutral>
4.17101e-05

> <r_epik_State_Penalty>
0.00145254

> <r_epik_Charging_Adjusted_Penalty>
0.0035707

> <i_epik_Tot_Q>
1

> <i_epik_Tot_abs_Q>
1

> <r_epik_Metal_State_Penalty>
-0

> <b_epik_Metal_Only>
0

> <s_lp_Force_Field>
OPLS_2005

> <r_lp_Energy>
24.6446

> <b_lp_Chiralities_Consistent>
1

> <s_lp_Variant>
AV-unprocessed.smi:2362-1

> <Gold.Version>
5.8.1

> <Gold.Id.Protein>
6NUR|6NUR_protein|mol2

> <Gold.PLP.Fitness>
41.0269

> <Gold.PLP.PLP>
-29.1815

> <Gold.PLP.part.hbond>
-3.0000

> <Gold.PLP.part.metal>
0.0000

> <Gold.PLP.part.buried>
-2.4933

> <Gold.PLP.part.nonpolar>
-22.7486

> <Gold.PLP.part.repulsive>
0.1386

> <Gold.PLP.ligand.clash>
0.0000

> <Gold.PLP.ligand.torsion>
0.9640

> <Gold.PLP.Chemscore.Hbond>
3.6165

> <Gold.PLP.Chemscore.CHOScore>
0.9576

> <Gold.PLP.Chemscore.Metal>
0.0000

> <Gold.Chemscore.Hbonds>
donor molecule, donor type, donor heavy atom, donor atom, acceptor molecule, acceptor atom, score
      L1  H     9    27       P1  7948  1.00
      L1  H    13    45       P1  7948  2.00
      P1  H  7989  7998       L1    19  0.58
      L1  C    20    44       P1  8028  0.59

> <Gold.PLP.Chemscore.Internal.Correction>
0.0511

> <Gold.Rescore>
     Score         DG    S(hbond)    S(metal)    S(lipo)     H(rot)  DE(clash)    DE(int)     intcor
     14.01     -17.28       1.96        0.00      76.38       1.44       0.98       2.29       ----

> <Gold.Chemscore.Fitness>
14.0120

> <Gold.Chemscore.DG>
-17.2765

> <Gold.Chemscore.ZeroCoef>
-5.4800

> <Gold.Chemscore.Hbond>
1.9602

> <Gold.Chemscore.Metal>
0.0000

> <Gold.Chemscore.Lipo>
76.3832

> <Gold.Chemscore.Internal_Hbond>
0.0000

> <Gold.Chemscore.DEClash>
0.9775

> <Gold.Chemscore.DEInternal>
2.2870

> <Gold.Chemscore.Rot>
1.4404

> <Gold.Chemscore.Internal.Correction>
   9.000000E+99

> <Gold.Chemscore.Hbonds>
donor molecule, donor type, donor heavy atom, donor atom, acceptor molecule, acceptor atom, score
      L1  H     9    27       P1  7948  0.80
      L1  H    13    45       P1  7948  0.99
      P1  H  7989  7998       L1    19  0.04

> <Gold.Chemscore.Hbond.Weighted>
-6.5472

> <Gold.Chemscore.Metal.Weighted>
-0.0000

> <Gold.Chemscore.Lipo.Weighted>
-8.9368

> <Gold.Chemscore.Internal_Hbond.Weighted>
0.0000

> <Gold.Chemscore.DEClash.Weighted>
0.9775

> <Gold.Chemscore.DEInternal.Weighted>
2.2870

> <Gold.Chemscore.Rot.Weighted>
3.6875

> <Gold.Chemscore.Internal.Correction.Weighted>
   9.000000E+99

> <Gold.Protein.RotatedTorsions>
[ 6907 6896 6895 6894 ] final  173.27 input  -60.11 | X-H torsion
[ 7974 7965 7964 7962 ] final -120.86 input  175.53 | X-H torsion
[ 8008 7997 7996 7995 ] final -143.81 input   59.86 | X-H torsion
[ 10167 10162 10161 10158 ] final   77.93 input  -65.29 | X-H torsion
[ 10718 10713 10712 10709 ] final -138.62 input   66.30 | X-H torsion
[ 10763 10752 10751 10750 ] final  128.68 input  -60.55 | X-H torsion
[ 11005 11000 10999 10996 ] final  -85.29 input  -57.11 | X-H torsion

> <Gold.Protein.ActiveResidues>
 VAL166  LYS551  ARG553  GLY616  TRP617  ASP618  TYR619  PRO620  LYS621  CYS622 
 ASP623  PHE694  ASN695  SER759  ASP760  ASP761  ALA762  ILE779  LEU786  VAL792 
 PHE793  MET794  SER795  GLU796  ALA797  LYS798  CYS799  TRP800  GLU811  SER814 

> <Gold.Protein.RotatedAtoms>
  151.7711  133.3341  159.3444 H   0  0  0  0  0  0  0  0  0  0  0  0  # atno 6907 bound_to 6896
  150.7461  134.6018  159.6050 H   0  0  0  0  0  0  0  0  0  0  0  0  # atno 6908 bound_to 6896
  152.3341  134.7223  160.0333 H   0  0  0  0  0  0  0  0  0  0  0  0  # atno 6909 bound_to 6896
  145.0467  140.8187  143.4234 H   0  0  0  0  0  0  0  0  0  0  0  0  # atno 7974 bound_to 7965
  155.5167  140.0588  157.2914 H   0  0  0  0  0  0  0  0  0  0  0  0  # atno 8008 bound_to 7997
  154.4532  140.1959  156.0404 H   0  0  0  0  0  0  0  0  0  0  0  0  # atno 8009 bound_to 7997
  156.0747  140.3255  155.7623 H   0  0  0  0  0  0  0  0  0  0  0  0  # atno 8010 bound_to 7997
  139.9763  144.5858  150.7940 H   0  0  0  0  0  0  0  0  0  0  0  0  # atno 10167 bound_to 10162
  156.3014  130.7431  151.1483 H   0  0  0  0  0  0  0  0  0  0  0  0  # atno 10718 bound_to 10713
  153.7295  135.3241  155.3283 H   0  0  0  0  0  0  0  0  0  0  0  0  # atno 10763 bound_to 10752
  154.8330  135.4518  154.1136 H   0  0  0  0  0  0  0  0  0  0  0  0  # atno 10764 bound_to 10752
  153.2280  135.6956  153.8004 H   0  0  0  0  0  0  0  0  0  0  0  0  # atno 10765 bound_to 10752
  141.1642  133.7391  156.8993 H   0  0  0  0  0  0  0  0  0  0  0  0  # atno 11005 bound_to 11000
  145.1579  139.2476  143.5407 LP  0  0  0  0  0  0  0  0  0  0  0  0  # atno 17320 bound_to 7965
  146.3514  140.1298  142.8597 LP  0  0  0  0  0  0  0  0  0  0  0  0  # atno 17321 bound_to 7965
  140.7505  143.2956  151.3214 LP  0  0  0  0  0  0  0  0  0  0  0  0  # atno 17342 bound_to 10162
  139.6443  144.0480  152.2579 LP  0  0  0  0  0  0  0  0  0  0  0  0  # atno 17343 bound_to 10162
  157.7369  131.0558  150.5388 LP  0  0  0  0  0  0  0  0  0  0  0  0  # atno 17370 bound_to 10713
  156.5516  130.4233  149.6105 LP  0  0  0  0  0  0  0  0  0  0  0  0  # atno 17371 bound_to 10713
  140.1594  134.9176  157.2695 LP  0  0  0  0  0  0  0  0  0  0  0  0  # atno 17394 bound_to 11000
  140.2629  134.3550  155.7400 LP  0  0  0  0  0  0  0  0  0  0  0  0  # atno 17395 bound_to 11000

$$$$
