AV-unprocessed.smi:1667|AV-procd|sdf|6673|dock10
  -GOLD-   22720 7383D 1   1.00000     0.00000
 Structure written by MMmdl.
 45 47  0  0  0  0  0  0  0  0  1 V2000
  154.3616  137.3823  161.6337 C   0  0  0  0  0  0  0  0  0  0  0  0
  153.3653  137.5497  160.4919 C   0  0  0  0  0  0  0  0  0  0  0  0
  152.8269  136.5600  159.9989 O   0  0  0  0  0  0  0  0  0  0  0  0
  153.1369  138.8122  160.0920 N   0  0  0  0  0  0  0  0  0  0  0  0
  152.2282  139.2755  159.0401 C   0  0  1  0  0  0  0  0  0  0  0  0
  150.9390  138.4384  158.9279 C   0  0  0  0  0  0  0  0  0  0  0  0
  151.9934  140.7612  159.1834 C   0  0  0  0  0  0  0  0  0  0  0  0
  152.5785  141.4774  160.1464 N   0  0  0  0  0  0  0  0  0  0  0  0
  152.1643  142.7639  159.8740 C   0  0  0  0  0  0  0  0  0  0  0  0
  152.4469  143.9778  160.5399 C   0  0  0  0  0  0  0  0  0  0  0  0
  151.9132  145.1933  160.0649 C   0  0  0  0  0  0  0  0  0  0  0  0
  151.0934  145.2118  158.9183 C   0  0  0  0  0  0  0  0  0  0  0  0
  150.8007  144.0127  158.2407 C   0  0  0  0  0  0  0  0  0  0  0  0
  151.3311  142.8000  158.7219 C   0  0  0  0  0  0  0  0  0  0  0  0
  151.2405  141.4748  158.3018 N   0  0  0  0  0  0  0  0  0  0  0  0
  150.5028  140.9991  157.1331 C   0  0  0  0  0  0  0  0  0  0  0  0
  148.9669  141.1477  157.2482 C   0  0  2  0  0  0  0  0  0  0  0  0
  148.4535  140.2449  158.2077 O   0  0  0  0  0  0  0  0  0  0  0  0
  148.2554  141.0453  155.9053 C   0  0  0  0  0  0  0  0  0  0  0  0
  148.5127  139.9695  155.0253 C   0  0  0  0  0  0  0  0  0  0  0  0
  147.8597  139.8985  153.7797 C   0  0  0  0  0  0  0  0  0  0  0  0
  146.9483  140.9033  153.4036 C   0  0  0  0  0  0  0  0  0  0  0  0
  146.6880  141.9778  154.2752 C   0  0  0  0  0  0  0  0  0  0  0  0
  145.8148  142.9470  153.9132 F   0  0  0  0  0  0  0  0  0  0  0  0
  147.3379  142.0472  155.5228 C   0  0  0  0  0  0  0  0  0  0  0  0
  152.7592  139.1008  158.1081 H   0  0  0  0  0  0  0  0  0  0  0  0
  155.3369  137.7786  161.3504 H   0  0  0  0  0  0  0  0  0  0  0  0
  154.4828  136.3297  161.8914 H   0  0  0  0  0  0  0  0  0  0  0  0
  154.0163  137.9129  162.5213 H   0  0  0  0  0  0  0  0  0  0  0  0
  153.6444  139.5377  160.5770 H   0  0  0  0  0  0  0  0  0  0  0  0
  150.3475  138.7521  158.0680 H   0  0  0  0  0  0  0  0  0  0  0  0
  150.3054  138.5330  159.8096 H   0  0  0  0  0  0  0  0  0  0  0  0
  151.1705  137.3810  158.7984 H   0  0  0  0  0  0  0  0  0  0  0  0
  153.0782  143.9735  161.4161 H   0  0  0  0  0  0  0  0  0  0  0  0
  152.1361  146.1157  160.5807 H   0  0  0  0  0  0  0  0  0  0  0  0
  150.6895  146.1468  158.5588 H   0  0  0  0  0  0  0  0  0  0  0  0
  150.1732  144.0255  157.3622 H   0  0  0  0  0  0  0  0  0  0  0  0
  150.8549  141.5616  156.2676 H   0  0  0  0  0  0  0  0  0  0  0  0
  150.7722  139.9638  156.9268 H   0  0  0  0  0  0  0  0  0  0  0  0
  148.7626  142.1424  157.6461 H   0  0  0  0  0  0  0  0  0  0  0  0
  149.1734  139.7514  158.5698 H   0  0  0  0  0  0  0  0  0  0  0  0
  149.2204  139.1995  155.2959 H   0  0  0  0  0  0  0  0  0  0  0  0
  148.0639  139.0763  153.1100 H   0  0  0  0  0  0  0  0  0  0  0  0
  146.4512  140.8507  152.4463 H   0  0  0  0  0  0  0  0  0  0  0  0
  147.1355  142.8781  156.1827 H   0  0  0  0  0  0  0  0  0  0  0  0
  1  2  1  0  0  0  0
  1 27  1  0  0  0  0
  1 28  1  0  0  0  0
  1 29  1  0  0  0  0
  2  3  2  0  0  0  0
  2  4  1  0  0  0  0
  4  5  1  0  0  0  0
  4 30  1  0  0  0  0
  5 26  1  0  0  0  0
  5  6  1  0  0  0  0
  5  7  1  0  0  0  0
  6 31  1  0  0  0  0
  6 32  1  0  0  0  0
  6 33  1  0  0  0  0
  7 15  1  0  0  0  0
  7  8  2  0  0  0  0
  8  9  1  0  0  0  0
  9 14  2  0  0  0  0
  9 10  1  0  0  0  0
 10 11  2  0  0  0  0
 10 34  1  0  0  0  0
 11 12  1  0  0  0  0
 11 35  1  0  0  0  0
 12 13  2  0  0  0  0
 12 36  1  0  0  0  0
 13 14  1  0  0  0  0
 13 37  1  0  0  0  0
 14 15  1  0  0  0  0
 15 16  1  0  0  0  0
 16 17  1  0  0  0  0
 16 38  1  0  0  0  0
 16 39  1  0  0  0  0
 17 18  1  0  0  0  0
 17 19  1  0  0  0  0
 17 40  1  0  0  0  0
 18 41  1  0  0  0  0
 19 25  1  0  0  0  0
 19 20  2  0  0  0  0
 20 21  1  0  0  0  0
 20 42  1  0  0  0  0
 21 22  2  0  0  0  0
 21 43  1  0  0  0  0
 22 23  1  0  0  0  0
 22 44  1  0  0  0  0
 23 24  1  0  0  0  0
 23 25  2  0  0  0  0
 25 45  1  0  0  0  0
M  END
> <s_m_source_file>
AV-unprocessed.smi

> <i_m_source_file_index>
1667

> <i_lp_mmshare_version>
43012

> <i_f3d_flags>
0

> <s_epik_input>
W0NIM11DKD1PKVtOSF1bQ0BASF0oW0NIM10pYyhuMSluKGMoYzEyKVtjSF1bY0hdW2NIXVtjSF0yKVtDSDJdW0NASF0oW09IXSljM1tjSF1bY0hdW2NIXWMoRilbY0hdMw==

> <s_epik_cmdline>
J2VwaWtfcHl0aG9uJywgJy1waCcsICc3LjAnLCAnLXRuJywgJzgnLCAnLW1hJywgJzIwMCcsICctbWV0YWxfYmluZGluZycsICctaW1hZScsICc8aW5maWxlLm1hZT4nLCAnLW9tYWUnLCAnPG91dGZpbGUubWFlPic=

> <r_epik_Ionization_Penalty>
0.133011

> <r_epik_Ionization_Penalty_Charging>
0

> <r_epik_Ionization_Penalty_Neutral>
0.133011

> <r_epik_State_Penalty>
0.122384

> <r_epik_Charging_Adjusted_Penalty>
0.122384

> <i_epik_Tot_Q>
0

> <i_epik_Tot_abs_Q>
0

> <r_epik_Metal_State_Penalty>
0.0997374

> <b_epik_Metal_Only>
0

> <s_lp_Force_Field>
OPLS_2005

> <r_lp_Energy>
8.264

> <b_lp_Chiralities_Consistent>
1

> <s_lp_Variant>
AV-unprocessed.smi:1667-1

> <Gold.Version>
5.8.1

> <Gold.Id.Protein>
6NUR|6NUR_protein|mol2

> <Gold.PLP.Fitness>
51.3753

> <Gold.PLP.PLP>
-49.6682

> <Gold.PLP.part.hbond>
-1.6813

> <Gold.PLP.part.metal>
0.0000

> <Gold.PLP.part.buried>
-4.6922

> <Gold.PLP.part.nonpolar>
-43.2008

> <Gold.PLP.part.repulsive>
0.0687

> <Gold.PLP.ligand.clash>
0.0000

> <Gold.PLP.ligand.torsion>
0.7521

> <Gold.PLP.Chemscore.Hbond>
1.0000

> <Gold.PLP.Chemscore.CHOScore>
0.0000

> <Gold.PLP.Chemscore.Metal>
0.0000

> <Gold.Chemscore.Hbonds>
donor molecule, donor type, donor heavy atom, donor atom, acceptor molecule, acceptor atom, score
      P1  H  6896  6908       L1     3  1.00

> <Gold.PLP.Chemscore.Internal.Correction>
0.2112

> <Gold.Rescore>
     Score         DG    S(hbond)    S(metal)    S(lipo)     H(rot)  DE(clash)    DE(int)     intcor
     14.46     -16.25       1.00        0.00     117.82       2.48       0.08       1.71       ----

> <Gold.Chemscore.Fitness>
14.4612

> <Gold.Chemscore.DG>
-16.2547

> <Gold.Chemscore.ZeroCoef>
-5.4800

> <Gold.Chemscore.Hbond>
0.9964

> <Gold.Chemscore.Metal>
0.0000

> <Gold.Chemscore.Lipo>
117.8218

> <Gold.Chemscore.Internal_Hbond>
0.0000

> <Gold.Chemscore.DEClash>
0.0797

> <Gold.Chemscore.DEInternal>
1.7138

> <Gold.Chemscore.Rot>
2.4760

> <Gold.Chemscore.Internal.Correction>
   9.000000E+99

> <Gold.Chemscore.Hbonds>
donor molecule, donor type, donor heavy atom, donor atom, acceptor molecule, acceptor atom, score
      P1  H  6896  6908       L1     3  1.00

> <Gold.Chemscore.Hbond.Weighted>
-3.3280

> <Gold.Chemscore.Metal.Weighted>
-0.0000

> <Gold.Chemscore.Lipo.Weighted>
-13.7852

> <Gold.Chemscore.Internal_Hbond.Weighted>
0.0000

> <Gold.Chemscore.DEClash.Weighted>
0.0797

> <Gold.Chemscore.DEInternal.Weighted>
1.7138

> <Gold.Chemscore.Rot.Weighted>
6.3385

> <Gold.Chemscore.Internal.Correction.Weighted>
   9.000000E+99

> <Gold.Protein.RotatedTorsions>
[ 6907 6896 6895 6894 ] final  -84.03 input  -60.11 | X-H torsion
[ 7974 7965 7964 7962 ] final  115.64 input  175.53 | X-H torsion
[ 8008 7997 7996 7995 ] final  177.39 input   59.86 | X-H torsion
[ 10167 10162 10161 10158 ] final -133.14 input  -65.29 | X-H torsion
[ 10718 10713 10712 10709 ] final   80.01 input   66.30 | X-H torsion
[ 10763 10752 10751 10750 ] final  -12.47 input  -60.55 | X-H torsion
[ 11005 11000 10999 10996 ] final   74.85 input  -57.11 | X-H torsion

> <Gold.Protein.ActiveResidues>
 VAL166  LYS551  ARG553  GLY616  TRP617  ASP618  TYR619  PRO620  LYS621  CYS622 
 ASP623  PHE694  ASN695  SER759  ASP760  ASP761  ALA762  ILE779  LEU786  VAL792 
 PHE793  MET794  SER795  GLU796  ALA797  LYS798  CYS799  TRP800  GLU811  SER814 

> <Gold.Protein.RotatedAtoms>
  150.6880  134.3420  159.4871 H   0  0  0  0  0  0  0  0  0  0  0  0  # atno 6907 bound_to 6896
  152.1272  134.9159  160.0569 H   0  0  0  0  0  0  0  0  0  0  0  0  # atno 6908 bound_to 6896
  152.0342  133.3915  159.4347 H   0  0  0  0  0  0  0  0  0  0  0  0  # atno 6909 bound_to 6896
  145.1894  139.3008  143.4376 H   0  0  0  0  0  0  0  0  0  0  0  0  # atno 7974 bound_to 7965
  156.0662  140.1359  156.9883 H   0  0  0  0  0  0  0  0  0  0  0  0  # atno 8008 bound_to 7997
  154.4507  140.0981  156.6661 H   0  0  0  0  0  0  0  0  0  0  0  0  # atno 8009 bound_to 7997
  155.5300  140.3458  155.4426 H   0  0  0  0  0  0  0  0  0  0  0  0  # atno 8010 bound_to 7997
  139.9014  143.6603  152.2594 H   0  0  0  0  0  0  0  0  0  0  0  0  # atno 10167 bound_to 10162
  157.6794  130.9940  150.2016 H   0  0  0  0  0  0  0  0  0  0  0  0  # atno 10718 bound_to 10713
  153.4989  135.7017  153.5843 H   0  0  0  0  0  0  0  0  0  0  0  0  # atno 10763 bound_to 10752
  153.3983  135.3878  155.1970 H   0  0  0  0  0  0  0  0  0  0  0  0  # atno 10764 bound_to 10752
  154.8712  135.3875  154.4457 H   0  0  0  0  0  0  0  0  0  0  0  0  # atno 10765 bound_to 10752
  139.9371  134.7468  156.1198 H   0  0  0  0  0  0  0  0  0  0  0  0  # atno 11005 bound_to 11000
  146.3439  140.2101  142.8590 LP  0  0  0  0  0  0  0  0  0  0  0  0  # atno 17320 bound_to 7965
  145.0056  140.8670  143.5255 LP  0  0  0  0  0  0  0  0  0  0  0  0  # atno 17321 bound_to 7965
  139.7022  144.7633  151.1253 LP  0  0  0  0  0  0  0  0  0  0  0  0  # atno 17342 bound_to 10162
  140.7706  143.5442  150.9278 LP  0  0  0  0  0  0  0  0  0  0  0  0  # atno 17343 bound_to 10162
  156.2706  130.3721  149.8036 LP  0  0  0  0  0  0  0  0  0  0  0  0  # atno 17370 bound_to 10713
  156.5754  130.8442  151.3368 LP  0  0  0  0  0  0  0  0  0  0  0  0  # atno 17371 bound_to 10713
  141.0990  133.6684  156.2711 LP  0  0  0  0  0  0  0  0  0  0  0  0  # atno 17394 bound_to 11000
  140.6047  134.5519  157.5523 LP  0  0  0  0  0  0  0  0  0  0  0  0  # atno 17395 bound_to 11000

$$$$
