AV-unprocessed.smi:490|AV-procd|sdf|2704|dock9
  -GOLD-   2262023143D 1   1.00000     0.00000
 Structure written by MMmdl.
 49 51  0  0  0  0  0  0  0  0  1 V2000
  151.8404  144.6141  158.6713 C   0  0  0  0  0  0  0  0  0  0  0  0
  152.1301  143.1317  158.8339 C   0  0  0  0  0  0  0  0  0  0  0  0
  152.9592  142.7090  159.8927 C   0  0  0  0  0  0  0  0  0  0  0  0
  153.2458  141.3445  160.0718 C   0  0  0  0  0  0  0  0  0  0  0  0
  152.6957  140.3857  159.1994 C   0  0  0  0  0  0  0  0  0  0  0  0
  153.0084  138.9151  159.4027 C   0  0  0  0  0  0  0  0  0  0  0  0
  151.8513  140.7969  158.1436 C   0  0  0  0  0  0  0  0  0  0  0  0
  151.3154  139.8448  157.3136 O   0  0  0  0  0  0  0  0  0  0  0  0
  152.2626  139.2477  156.4377 C   0  0  0  0  0  0  0  0  0  0  0  0
  152.0433  139.8004  155.0170 C   0  0  1  0  0  0  0  0  0  0  0  0
  153.3010  140.1294  154.4649 O   0  0  0  0  0  0  0  0  0  0  0  0
  151.3482  138.8129  154.0547 C   0  0  0  0  0  0  0  0  0  0  0  0
  149.9112  138.7120  154.2830 N   0  0  0  0  0  0  0  0  0  0  0  0
  149.1921  137.6076  154.6097 C   0  0  0  0  0  0  0  0  0  0  0  0
  149.8279  136.2670  154.8204 C   0  0  0  0  0  0  0  0  0  0  0  0
  150.5782  135.8397  153.7039 O   0  0  0  0  0  0  0  0  0  0  0  0
  147.8783  137.7891  154.7460 N   0  0  0  0  0  0  0  0  0  0  0  0
  147.7311  139.1400  154.5029 C   0  0  0  0  0  0  0  0  0  0  0  0
  146.5723  139.9488  154.4937 C   0  0  0  0  0  0  0  0  0  0  0  0
  146.6663  141.3278  154.2150 C   0  0  0  0  0  0  0  0  0  0  0  0
  147.9181  141.9172  153.9446 C   0  0  0  0  0  0  0  0  0  0  0  0
  149.0850  141.1293  153.9487 C   0  0  0  0  0  0  0  0  0  0  0  0
  148.9858  139.7511  154.2211 C   0  0  0  0  0  0  0  0  0  0  0  0
  151.5812  142.1758  157.9432 C   0  0  0  0  0  0  0  0  0  0  0  0
  150.7086  142.6325  156.7805 C   0  0  0  0  0  0  0  0  0  0  0  0
  152.2548  145.1932  159.4970 H   0  0  0  0  0  0  0  0  0  0  0  0
  150.7652  144.7943  158.6457 H   0  0  0  0  0  0  0  0  0  0  0  0
  152.2784  144.9893  157.7464 H   0  0  0  0  0  0  0  0  0  0  0  0
  153.3843  143.4318  160.5735 H   0  0  0  0  0  0  0  0  0  0  0  0
  153.8878  141.0380  160.8848 H   0  0  0  0  0  0  0  0  0  0  0  0
  153.3931  138.4774  158.4812 H   0  0  0  0  0  0  0  0  0  0  0  0
  152.1083  138.3729  159.6920 H   0  0  0  0  0  0  0  0  0  0  0  0
  153.7569  138.7712  160.1819 H   0  0  0  0  0  0  0  0  0  0  0  0
  153.2800  139.4286  156.7872 H   0  0  0  0  0  0  0  0  0  0  0  0
  152.1292  138.1681  156.4471 H   0  0  0  0  0  0  0  0  0  0  0  0
  151.4529  140.7143  155.0748 H   0  0  0  0  0  0  0  0  0  0  0  0
  153.4188  139.6293  153.6716 H   0  0  0  0  0  0  0  0  0  0  0  0
  151.5103  139.1168  153.0202 H   0  0  0  0  0  0  0  0  0  0  0  0
  151.7897  137.8200  154.1480 H   0  0  0  0  0  0  0  0  0  0  0  0
  150.4903  136.3152  155.6855 H   0  0  0  0  0  0  0  0  0  0  0  0
  149.0685  135.5218  155.0520 H   0  0  0  0  0  0  0  0  0  0  0  0
  150.3029  136.3375  152.9493 H   0  0  0  0  0  0  0  0  0  0  0  0
  145.6091  139.5067  154.7017 H   0  0  0  0  0  0  0  0  0  0  0  0
  145.7740  141.9365  154.2096 H   0  0  0  0  0  0  0  0  0  0  0  0
  147.9816  142.9743  153.7322 H   0  0  0  0  0  0  0  0  0  0  0  0
  150.0440  141.5782  153.7363 H   0  0  0  0  0  0  0  0  0  0  0  0
  150.5266  141.8376  156.0580 H   0  0  0  0  0  0  0  0  0  0  0  0
  151.1827  143.4509  156.2389 H   0  0  0  0  0  0  0  0  0  0  0  0
  149.7435  142.9790  157.1502 H   0  0  0  0  0  0  0  0  0  0  0  0
  1  2  1  0  0  0  0
  1 26  1  0  0  0  0
  1 27  1  0  0  0  0
  1 28  1  0  0  0  0
  2 24  1  0  0  0  0
  2  3  2  0  0  0  0
  3  4  1  0  0  0  0
  3 29  1  0  0  0  0
  4  5  2  0  0  0  0
  4 30  1  0  0  0  0
  5  6  1  0  0  0  0
  5  7  1  0  0  0  0
  6 31  1  0  0  0  0
  6 32  1  0  0  0  0
  6 33  1  0  0  0  0
  7  8  1  0  0  0  0
  7 24  2  0  0  0  0
  8  9  1  0  0  0  0
  9 10  1  0  0  0  0
  9 34  1  0  0  0  0
  9 35  1  0  0  0  0
 10 11  1  0  0  0  0
 10 12  1  0  0  0  0
 10 36  1  0  0  0  0
 11 37  1  0  0  0  0
 12 13  1  0  0  0  0
 12 38  1  0  0  0  0
 12 39  1  0  0  0  0
 13 23  1  0  0  0  0
 13 14  1  0  0  0  0
 14 15  1  0  0  0  0
 14 17  2  0  0  0  0
 15 16  1  0  0  0  0
 15 40  1  0  0  0  0
 15 41  1  0  0  0  0
 16 42  1  0  0  0  0
 17 18  1  0  0  0  0
 18 23  2  0  0  0  0
 18 19  1  0  0  0  0
 19 20  2  0  0  0  0
 19 43  1  0  0  0  0
 20 21  1  0  0  0  0
 20 44  1  0  0  0  0
 21 22  2  0  0  0  0
 21 45  1  0  0  0  0
 22 23  1  0  0  0  0
 22 46  1  0  0  0  0
 24 25  1  0  0  0  0
 25 47  1  0  0  0  0
 25 48  1  0  0  0  0
 25 49  1  0  0  0  0
M  END
> <s_m_source_file>
AV-unprocessed.smi

> <i_m_source_file_index>
490

> <i_lp_mmshare_version>
43012

> <i_f3d_flags>
0

> <s_epik_input>
W0NIM11jMVtjSF1bY0hdYyhbQ0gzXSljKGMxW0NIM10pT1tDSDJdW0NASF0oW09IXSlbQ0gyXW4oYyhuMilbQ0gyXVtPSF0pYyhjMjMpW2NIXVtjSF1bY0hdW2NIXTM=

> <s_epik_cmdline>
J2VwaWtfcHl0aG9uJywgJy1waCcsICc3LjAnLCAnLXRuJywgJzgnLCAnLW1hJywgJzIwMCcsICctbWV0YWxfYmluZGluZycsICctaW1hZScsICc8aW5maWxlLm1hZT4nLCAnLW9tYWUnLCAnPG91dGZpbGUubWFlPic=

> <r_lp_tautomer_probability>
1

> <r_epik_Ionization_Penalty>
0.0555874

> <r_epik_Ionization_Penalty_Charging>
0

> <r_epik_Ionization_Penalty_Neutral>
0.0555874

> <r_epik_State_Penalty>
0.0478234

> <r_epik_Charging_Adjusted_Penalty>
0.0478234

> <i_epik_Tot_Q>
0

> <i_epik_Tot_abs_Q>
0

> <r_epik_Metal_State_Penalty>
4.98044e-05

> <b_epik_Metal_Only>
0

> <s_lp_Force_Field>
OPLS_2005

> <r_lp_Energy>
21.221

> <b_lp_Chiralities_Consistent>
1

> <s_lp_Variant>
AV-unprocessed.smi:490-2

> <Gold.Version>
5.8.1

> <Gold.Id.Protein>
6NUR|6NUR_protein|mol2

> <Gold.PLP.Fitness>
54.1497

> <Gold.PLP.PLP>
-51.3044

> <Gold.PLP.part.hbond>
-3.6937

> <Gold.PLP.part.metal>
0.0000

> <Gold.PLP.part.buried>
-3.9768

> <Gold.PLP.part.nonpolar>
-43.4363

> <Gold.PLP.part.repulsive>
0.0524

> <Gold.PLP.ligand.clash>
0.0000

> <Gold.PLP.ligand.torsion>
1.2485

> <Gold.PLP.Chemscore.Hbond>
1.7500

> <Gold.PLP.Chemscore.CHOScore>
0.0000

> <Gold.PLP.Chemscore.Metal>
0.0000

> <Gold.Chemscore.Hbonds>
donor molecule, donor type, donor heavy atom, donor atom, acceptor molecule, acceptor atom, score
      P1  H  7997  8008       L1    11  1.00

> <Gold.PLP.Chemscore.Internal.Correction>
0.0922

> <Gold.Rescore>
     Score         DG    S(hbond)    S(metal)    S(lipo)     H(rot)  DE(clash)    DE(int)     intcor
     15.93     -18.48       1.16        0.00     142.16       2.93       0.12       2.43       ----

> <Gold.Chemscore.Fitness>
15.9280

> <Gold.Chemscore.DG>
-18.4761

> <Gold.Chemscore.ZeroCoef>
-5.4800

> <Gold.Chemscore.Hbond>
1.1552

> <Gold.Chemscore.Metal>
0.0000

> <Gold.Chemscore.Lipo>
142.1634

> <Gold.Chemscore.Internal_Hbond>
0.0000

> <Gold.Chemscore.DEClash>
0.1230

> <Gold.Chemscore.DEInternal>
2.4250

> <Gold.Chemscore.Rot>
2.9279

> <Gold.Chemscore.Internal.Correction>
   9.000000E+99

> <Gold.Chemscore.Hbonds>
donor molecule, donor type, donor heavy atom, donor atom, acceptor molecule, acceptor atom, score
      P1  H  7997  8008       L1    11  0.74
      P1  H 10752 10764       L1    16  0.02

> <Gold.Chemscore.Hbond.Weighted>
-3.8584

> <Gold.Chemscore.Metal.Weighted>
-0.0000

> <Gold.Chemscore.Lipo.Weighted>
-16.6331

> <Gold.Chemscore.Internal_Hbond.Weighted>
0.0000

> <Gold.Chemscore.DEClash.Weighted>
0.1230

> <Gold.Chemscore.DEInternal.Weighted>
2.4250

> <Gold.Chemscore.Rot.Weighted>
7.4954

> <Gold.Chemscore.Internal.Correction.Weighted>
   9.000000E+99

> <Gold.Protein.RotatedTorsions>
[ 6907 6896 6895 6894 ] final -143.99 input  -60.11 | X-H torsion
[ 7974 7965 7964 7962 ] final   44.28 input  175.53 | X-H torsion
[ 8008 7997 7996 7995 ] final   -7.48 input   59.86 | X-H torsion
[ 10167 10162 10161 10158 ] final  130.50 input  -65.29 | X-H torsion
[ 10718 10713 10712 10709 ] final -123.67 input   66.30 | X-H torsion
[ 10763 10752 10751 10750 ] final  -66.15 input  -60.55 | X-H torsion
[ 11005 11000 10999 10996 ] final -124.96 input  -57.11 | X-H torsion

> <Gold.Protein.ActiveResidues>
 VAL166  LYS551  ARG553  GLY616  TRP617  ASP618  TYR619  PRO620  LYS621  CYS622 
 ASP623  PHE694  ASN695  SER759  ASP760  ASP761  ALA762  ILE779  LEU786  VAL792 
 PHE793  MET794  SER795  GLU796  ALA797  LYS798  CYS799  TRP800  GLU811  SER814 

> <Gold.Protein.RotatedAtoms>
  151.1079  133.5194  159.2606 H   0  0  0  0  0  0  0  0  0  0  0  0  # atno 6907 bound_to 6896
  151.2000  135.0438  159.8878 H   0  0  0  0  0  0  0  0  0  0  0  0  # atno 6908 bound_to 6896
  152.5448  134.0909  159.8330 H   0  0  0  0  0  0  0  0  0  0  0  0  # atno 6909 bound_to 6896
  146.0582  139.5092  142.9675 H   0  0  0  0  0  0  0  0  0  0  0  0  # atno 7974 bound_to 7965
  154.5834  140.2406  155.8021 H   0  0  0  0  0  0  0  0  0  0  0  0  # atno 8008 bound_to 7997
  156.2196  140.3001  155.9876 H   0  0  0  0  0  0  0  0  0  0  0  0  # atno 8009 bound_to 7997
  155.2500  140.0410  157.2976 H   0  0  0  0  0  0  0  0  0  0  0  0  # atno 8010 bound_to 7997
  139.5427  144.6745  151.4573 H   0  0  0  0  0  0  0  0  0  0  0  0  # atno 10167 bound_to 10162
  156.1522  130.6543  150.9930 H   0  0  0  0  0  0  0  0  0  0  0  0  # atno 10718 bound_to 10713
  154.3556  135.6127  153.5665 H   0  0  0  0  0  0  0  0  0  0  0  0  # atno 10763 bound_to 10752
  152.9796  135.5803  154.4692 H   0  0  0  0  0  0  0  0  0  0  0  0  # atno 10764 bound_to 10752
  154.4421  135.2850  155.1817 H   0  0  0  0  0  0  0  0  0  0  0  0  # atno 10765 bound_to 10752
  140.9800  134.0687  157.3776 H   0  0  0  0  0  0  0  0  0  0  0  0  # atno 11005 bound_to 11000
  145.6607  141.0241  143.1710 LP  0  0  0  0  0  0  0  0  0  0  0  0  # atno 17320 bound_to 7965
  144.7160  139.8197  143.7398 LP  0  0  0  0  0  0  0  0  0  0  0  0  # atno 17321 bound_to 7965
  140.6663  143.8390  150.6946 LP  0  0  0  0  0  0  0  0  0  0  0  0  # atno 17342 bound_to 10162
  140.1801  143.4122  152.1939 LP  0  0  0  0  0  0  0  0  0  0  0  0  # atno 17343 bound_to 10162
  157.6666  131.0870  150.7713 LP  0  0  0  0  0  0  0  0  0  0  0  0  # atno 17370 bound_to 10713
  156.7780  130.4850  149.5406 LP  0  0  0  0  0  0  0  0  0  0  0  0  # atno 17371 bound_to 10713
  139.8946  135.0137  156.6959 LP  0  0  0  0  0  0  0  0  0  0  0  0  # atno 17394 bound_to 11000
  140.7201  133.9148  155.8141 LP  0  0  0  0  0  0  0  0  0  0  0  0  # atno 17395 bound_to 11000

$$$$
