AV-unprocessed.smi:2351|AV-procd|sdf|9376|dock1
  -GOLD-   2272013 03D 1   1.00000     0.00000
 Structure written by MMmdl.
 47 49  0  0  0  0  0  0  0  0  2 V2000
  144.4518  136.5739  152.5224 O   0  0  0  0  0  0  0  0  0  0  0  0
  145.6705  136.4353  152.4259 C   0  0  0  0  0  0  0  0  0  0  0  0
  146.2961  135.4031  151.8346 N   0  0  0  0  0  0  0  0  0  0  0  0
  145.7346  134.2490  151.2215 C   0  0  0  0  0  0  0  0  0  0  0  0
  144.5038  134.2345  150.5211 C   0  0  0  0  0  0  0  0  0  0  0  0
  144.0676  133.0228  149.9484 C   0  0  0  0  0  0  0  0  0  0  0  0
  144.7649  131.8696  150.0246 N   0  0  0  0  0  0  0  0  0  0  0  0
  145.9437  131.8900  150.6818 C   0  0  0  0  0  0  0  0  0  0  0  0
  146.4709  133.0471  151.2896 C   0  0  0  0  0  0  0  0  0  0  0  0
  147.6636  132.9997  151.9313 F   0  0  0  0  0  0  0  0  0  0  0  0
  146.5528  137.3109  152.9298 N   0  0  0  0  0  0  0  0  0  0  0  0
  146.2114  138.5407  153.6452 C   0  0  2  0  0  0  0  0  0  0  0  0
  146.7777  139.7667  152.9089 C   0  0  0  0  0  0  0  0  0  0  0  0
  148.3106  139.8558  153.0278 C   0  0  0  0  0  0  0  0  0  0  0  0
  148.7466  139.8495  154.4484 N   0  3  2  0  0  0  0  0  0  0  0  0
  150.2091  140.0715  154.5852 C   0  0  0  0  0  0  0  0  0  0  0  0
  150.7085  139.8950  156.0329 C   0  0  2  0  0  0  0  0  0  0  0  0
  150.7788  141.1800  156.8352 C   0  0  0  0  0  0  0  0  0  0  0  0
  151.7348  140.8015  157.9628 C   0  0  0  0  0  0  0  0  0  0  0  0
  152.6060  139.8126  157.4210 O   0  0  0  0  0  0  0  0  0  0  0  0
  152.1588  139.4220  156.1270 C   0  0  0  0  0  0  0  0  0  0  0  0
  148.2638  138.6378  155.1627 C   0  0  0  0  0  0  0  0  0  0  0  0
  146.7305  138.5289  155.0970 C   0  0  0  0  0  0  0  0  0  0  0  0
  147.3041  135.4067  151.8882 H   0  0  0  0  0  0  0  0  0  0  0  0
  143.8955  135.1171  150.4006 H   0  0  0  0  0  0  0  0  0  0  0  0
  143.1329  132.9808  149.4089 H   0  0  0  0  0  0  0  0  0  0  0  0
  146.4844  130.9559  150.7240 H   0  0  0  0  0  0  0  0  0  0  0  0
  147.5352  137.1177  152.7997 H   0  0  0  0  0  0  0  0  0  0  0  0
  145.1231  138.6258  153.6595 H   0  0  0  0  0  0  0  0  0  0  0  0
  146.4829  139.7488  151.8588 H   0  0  0  0  0  0  0  0  0  0  0  0
  146.3366  140.6711  153.3303 H   0  0  0  0  0  0  0  0  0  0  0  0
  148.7824  139.0271  152.4975 H   0  0  0  0  0  0  0  0  0  0  0  0
  148.6492  140.7725  152.5435 H   0  0  0  0  0  0  0  0  0  0  0  0
  150.7452  139.4004  153.9125 H   0  0  0  0  0  0  0  0  0  0  0  0
  150.4518  141.0846  154.2608 H   0  0  0  0  0  0  0  0  0  0  0  0
  150.0894  139.1759  156.5699 H   0  0  0  0  0  0  0  0  0  0  0  0
  151.2095  141.9827  156.2347 H   0  0  0  0  0  0  0  0  0  0  0  0
  149.8064  141.5119  157.2005 H   0  0  0  0  0  0  0  0  0  0  0  0
  152.2913  141.6596  158.3404 H   0  0  0  0  0  0  0  0  0  0  0  0
  151.1865  140.3600  158.7959 H   0  0  0  0  0  0  0  0  0  0  0  0
  152.2591  138.3464  155.9788 H   0  0  0  0  0  0  0  0  0  0  0  0
  152.7810  139.9241  155.3844 H   0  0  0  0  0  0  0  0  0  0  0  0
  148.7251  137.7485  154.7311 H   0  0  0  0  0  0  0  0  0  0  0  0
  148.5632  138.6687  156.2094 H   0  0  0  0  0  0  0  0  0  0  0  0
  146.2924  139.3687  155.6381 H   0  0  0  0  0  0  0  0  0  0  0  0
  146.3974  137.6324  155.6208 H   0  0  0  0  0  0  0  0  0  0  0  0
  148.2978  140.6438  154.8819 H   0  0  0  0  0  0  0  0  0  0  0  0
  1  2  2  0  0  0  0
  2  3  1  0  0  0  0
  2 11  1  0  0  0  0
  3  4  1  0  0  0  0
  3 24  1  0  0  0  0
  4  9  1  0  0  0  0
  4  5  2  0  0  0  0
  5  6  1  0  0  0  0
  5 25  1  0  0  0  0
  6  7  2  0  0  0  0
  6 26  1  0  0  0  0
  7  8  1  0  0  0  0
  8  9  2  0  0  0  0
  8 27  1  0  0  0  0
  9 10  1  0  0  0  0
 11 12  1  0  0  0  0
 11 28  1  0  0  0  0
 12 23  1  0  0  0  0
 12 13  1  0  0  0  0
 12 29  1  0  0  0  0
 13 14  1  0  0  0  0
 13 30  1  0  0  0  0
 13 31  1  0  0  0  0
 14 15  1  0  0  0  0
 14 32  1  0  0  0  0
 14 33  1  0  0  0  0
 15 16  1  0  0  0  0
 15 22  1  0  0  0  0
 15 47  1  0  0  0  0
 16 17  1  0  0  0  0
 16 34  1  0  0  0  0
 16 35  1  0  0  0  0
 17 21  1  0  0  0  0
 17 18  1  0  0  0  0
 17 36  1  0  0  0  0
 18 19  1  0  0  0  0
 18 37  1  0  0  0  0
 18 38  1  0  0  0  0
 19 20  1  0  0  0  0
 19 39  1  0  0  0  0
 19 40  1  0  0  0  0
 20 21  1  0  0  0  0
 21 41  1  0  0  0  0
 21 42  1  0  0  0  0
 22 23  1  0  0  0  0
 22 43  1  0  0  0  0
 22 44  1  0  0  0  0
 23 45  1  0  0  0  0
 23 46  1  0  0  0  0
M  CHG  1  15   1
M  END
> <s_m_source_file>
AV-unprocessed.smi

> <i_m_source_file_index>
2351

> <i_lp_mmshare_version>
43012

> <i_f3d_flags>
0

> <s_epik_input>
RmMxW2NIXW5bY0hdW2NIXWMxW05IXUMoPU8pW05IXVtDSF0yW0NIMl1bQ0gyXU4oW0NIMl1bQ0gyXTIpW0NIMl1bQ0BASF0zW0NIMl1bQ0gyXU9bQ0gyXTM=

> <s_epik_cmdline>
J2VwaWtfcHl0aG9uJywgJy1waCcsICc3LjAnLCAnLXRuJywgJzgnLCAnLW1hJywgJzIwMCcsICctbWV0YWxfYmluZGluZycsICctaW1hZScsICc8aW5maWxlLm1hZT4nLCAnLW9tYWUnLCAnPG91dGZpbGUubWFlPic=

> <r_epik_Ionization_Penalty>
0.0102464

> <r_epik_Ionization_Penalty_Charging>
0.00747775

> <r_epik_Ionization_Penalty_Neutral>
0.00276864

> <r_epik_State_Penalty>
0.00558817

> <r_epik_Charging_Adjusted_Penalty>
0.0130659

> <i_epik_Tot_Q>
1

> <i_epik_Tot_abs_Q>
1

> <r_epik_Metal_State_Penalty>
-0

> <b_epik_Metal_Only>
0

> <s_lp_Force_Field>
OPLS_2005

> <r_lp_Energy>
39.3269

> <b_lp_Chiralities_Consistent>
1

> <s_lp_Variant>
AV-unprocessed.smi:2351-3

> <Gold.Version>
5.8.1

> <Gold.Id.Protein>
6NUR|6NUR_protein|mol2

> <Gold.PLP.Fitness>
44.5664

> <Gold.PLP.PLP>
-31.3653

> <Gold.PLP.part.hbond>
-3.0644

> <Gold.PLP.part.metal>
0.0000

> <Gold.PLP.part.buried>
4.2022

> <Gold.PLP.part.nonpolar>
-33.0596

> <Gold.PLP.part.repulsive>
0.4620

> <Gold.PLP.ligand.clash>
0.0000

> <Gold.PLP.ligand.torsion>
0.6920

> <Gold.PLP.Chemscore.Hbond>
2.9760

> <Gold.PLP.Chemscore.CHOScore>
1.8471

> <Gold.PLP.Chemscore.Metal>
0.0000

> <Gold.Chemscore.Hbonds>
donor molecule, donor type, donor heavy atom, donor atom, acceptor molecule, acceptor atom, score
      L1  H     3    24       P1  7948  1.00
      L1  H    11    28       P1  7948  1.00
      P1  H  7997  8008       L1    20  0.86
      L1  C     6    26       P1 10186  0.90
      L1  C     8    27       P1 10747  0.83

> <Gold.PLP.Chemscore.Internal.Correction>
0.1159

> <Gold.Rescore>
     Score         DG    S(hbond)    S(metal)    S(lipo)     H(rot)  DE(clash)    DE(int)     intcor
     17.88     -21.67       2.46        0.00     100.01       1.45       3.20       0.60       ----

> <Gold.Chemscore.Fitness>
17.8797

> <Gold.Chemscore.DG>
-21.6748

> <Gold.Chemscore.ZeroCoef>
-5.4800

> <Gold.Chemscore.Hbond>
2.4556

> <Gold.Chemscore.Metal>
0.0000

> <Gold.Chemscore.Lipo>
100.0062

> <Gold.Chemscore.Internal_Hbond>
0.0000

> <Gold.Chemscore.DEClash>
3.1984

> <Gold.Chemscore.DEInternal>
0.5967

> <Gold.Chemscore.Rot>
1.4483

> <Gold.Chemscore.Internal.Correction>
   9.000000E+99

> <Gold.Chemscore.Hbonds>
donor molecule, donor type, donor heavy atom, donor atom, acceptor molecule, acceptor atom, score
      L1  H     3    24       P1  7948  0.97
      L1  H    11    28       P1  7948  0.94
      P1  H  7997  8008       L1    20  0.16

> <Gold.Chemscore.Hbond.Weighted>
-8.2018

> <Gold.Chemscore.Metal.Weighted>
-0.0000

> <Gold.Chemscore.Lipo.Weighted>
-11.7007

> <Gold.Chemscore.Internal_Hbond.Weighted>
0.0000

> <Gold.Chemscore.DEClash.Weighted>
3.1984

> <Gold.Chemscore.DEInternal.Weighted>
0.5967

> <Gold.Chemscore.Rot.Weighted>
3.7077

> <Gold.Chemscore.Internal.Correction.Weighted>
   9.000000E+99

> <Gold.Protein.RotatedTorsions>
[ 6907 6896 6895 6894 ] final   -2.97 input  -60.11 | X-H torsion
[ 7974 7965 7964 7962 ] final -117.37 input  175.53 | X-H torsion
[ 8008 7997 7996 7995 ] final  -84.46 input   59.86 | X-H torsion
[ 10167 10162 10161 10158 ] final  160.48 input  -65.29 | X-H torsion
[ 10718 10713 10712 10709 ] final   77.24 input   66.30 | X-H torsion
[ 10763 10752 10751 10750 ] final   11.68 input  -60.55 | X-H torsion
[ 11005 11000 10999 10996 ] final   74.82 input  -57.11 | X-H torsion

> <Gold.Protein.ActiveResidues>
 VAL166  LYS551  ARG553  GLY616  TRP617  ASP618  TYR619  PRO620  LYS621  CYS622 
 ASP623  PHE694  ASN695  SER759  ASP760  ASP761  ALA762  ILE779  LEU786  VAL792 
 PHE793  MET794  SER795  GLU796  ALA797  LYS798  CYS799  TRP800  GLU811  SER814 

> <Gold.Protein.RotatedAtoms>
  151.5213  135.1067  159.9878 H   0  0  0  0  0  0  0  0  0  0  0  0  # atno 6907 bound_to 6896
  152.4619  133.7836  159.6875 H   0  0  0  0  0  0  0  0  0  0  0  0  # atno 6908 bound_to 6896
  150.8585  133.7614  159.3025 H   0  0  0  0  0  0  0  0  0  0  0  0  # atno 6909 bound_to 6896
  145.0860  140.8458  143.4010 H   0  0  0  0  0  0  0  0  0  0  0  0  # atno 7974 bound_to 7965
  154.6300  140.0605  156.9720 H   0  0  0  0  0  0  0  0  0  0  0  0  # atno 8008 bound_to 7997
  155.1681  140.3288  155.4379 H   0  0  0  0  0  0  0  0  0  0  0  0  # atno 8009 bound_to 7997
  156.2478  140.1919  156.6784 H   0  0  0  0  0  0  0  0  0  0  0  0  # atno 8010 bound_to 7997
  139.4840  144.4630  151.8679 H   0  0  0  0  0  0  0  0  0  0  0  0  # atno 10167 bound_to 10162
  157.6703  130.9812  150.1612 H   0  0  0  0  0  0  0  0  0  0  0  0  # atno 10718 bound_to 10713
  153.1901  135.6841  153.8364 H   0  0  0  0  0  0  0  0  0  0  0  0  # atno 10763 bound_to 10752
  153.7667  135.3202  155.3346 H   0  0  0  0  0  0  0  0  0  0  0  0  # atno 10764 bound_to 10752
  154.8112  135.4716  154.0619 H   0  0  0  0  0  0  0  0  0  0  0  0  # atno 10765 bound_to 10752
  139.9372  134.7466  156.1195 H   0  0  0  0  0  0  0  0  0  0  0  0  # atno 11005 bound_to 11000
  145.1121  139.2750  143.5632 LP  0  0  0  0  0  0  0  0  0  0  0  0  # atno 17320 bound_to 7965
  146.3531  140.0720  142.8622 LP  0  0  0  0  0  0  0  0  0  0  0  0  # atno 17321 bound_to 7965
  140.4094  144.2389  150.5889 LP  0  0  0  0  0  0  0  0  0  0  0  0  # atno 17342 bound_to 10162
  140.4981  143.2326  151.8719 LP  0  0  0  0  0  0  0  0  0  0  0  0  # atno 17343 bound_to 10162
  156.2388  130.3689  149.8361 LP  0  0  0  0  0  0  0  0  0  0  0  0  # atno 17370 bound_to 10713
  156.6166  130.8609  151.3466 LP  0  0  0  0  0  0  0  0  0  0  0  0  # atno 17371 bound_to 10713
  141.0992  133.6684  156.2714 LP  0  0  0  0  0  0  0  0  0  0  0  0  # atno 17394 bound_to 11000
  140.6044  134.5522  157.5523 LP  0  0  0  0  0  0  0  0  0  0  0  0  # atno 17395 bound_to 11000

$$$$
