AV-unprocessed.smi:1724|AV-procd|sdf|6952|dock9
  -GOLD-   22720 8163D 1   1.00000     0.00000
 Structure written by MMmdl.
 37 38  0  0  0  0  0  0  0  0  2 V2000
  149.9696  136.1894  158.5321 O   0  0  0  0  0  0  0  0  0  0  0  0
  149.3557  137.1424  159.0109 C   0  0  0  0  0  0  0  0  0  0  0  0
  149.5072  138.4034  158.5806 N   0  0  0  0  0  0  0  0  0  0  0  0
  150.3930  138.8353  157.5031 C   0  0  0  0  0  0  0  0  0  0  0  0
  151.5091  139.7763  158.0009 C   0  0  1  0  0  0  0  0  0  0  0  0
  150.9891  141.1659  158.4164 C   0  0  0  0  0  0  0  0  0  0  0  0
  152.1322  142.0117  158.9884 C   0  0  0  0  0  0  0  0  0  0  0  0
  152.8544  141.2505  160.1098 C   0  0  0  0  0  0  0  0  0  0  0  0
  153.3234  140.0011  159.6161 O   0  0  0  0  0  0  0  0  0  0  0  0
  152.2722  139.1439  159.1826 C   0  0  0  0  0  0  0  0  0  0  0  0
  148.4564  137.0886  160.0105 N   0  0  0  0  0  0  0  0  0  0  0  0
  147.9925  135.9892  160.7551 C   0  0  0  0  0  0  0  0  0  0  0  0
  148.1222  134.6823  160.3927 C   0  0  0  0  0  0  0  0  0  0  0  0
  147.6179  133.5914  161.2183 C   0  0  0  0  0  0  0  0  0  0  0  0
  147.7356  132.1212  160.8608 C   0  0  0  0  0  0  0  0  0  0  0  0
  146.5300  131.5537  160.8416 F   0  0  0  0  0  0  0  0  0  0  0  0
  148.2748  131.9840  159.6501 F   0  0  0  0  0  0  0  0  0  0  0  0
  148.4960  131.4644  161.7370 F   0  0  0  0  0  0  0  0  0  0  0  0
  147.0195  134.0418  162.3777 C   0  0  0  0  0  0  0  0  0  0  0  0
  146.8538  135.3099  162.8121 N   0  5  0  0  0  0  0  0  0  0  0  0
  147.3262  136.3228  162.0322 C   0  0  0  0  0  0  0  0  0  0  0  0
  147.2093  137.5016  162.3696 O   0  0  0  0  0  0  0  0  0  0  0  0
  148.9606  139.1228  159.0313 H   0  0  0  0  0  0  0  0  0  0  0  0
  150.8226  137.9800  156.9788 H   0  0  0  0  0  0  0  0  0  0  0  0
  149.7772  139.3576  156.7705 H   0  0  0  0  0  0  0  0  0  0  0  0
  152.2212  139.9133  157.1854 H   0  0  0  0  0  0  0  0  0  0  0  0
  150.5435  141.6849  157.5675 H   0  0  0  0  0  0  0  0  0  0  0  0
  150.2029  141.0580  159.1649 H   0  0  0  0  0  0  0  0  0  0  0  0
  152.8424  142.2520  158.1961 H   0  0  0  0  0  0  0  0  0  0  0  0
  151.7481  142.9607  159.3630 H   0  0  0  0  0  0  0  0  0  0  0  0
  153.7053  141.8291  160.4691 H   0  0  0  0  0  0  0  0  0  0  0  0
  152.1929  141.0929  160.9631 H   0  0  0  0  0  0  0  0  0  0  0  0
  151.5987  138.9310  160.0144 H   0  0  0  0  0  0  0  0  0  0  0  0
  152.7103  138.1925  158.8800 H   0  0  0  0  0  0  0  0  0  0  0  0
  148.0272  137.9653  160.2679 H   0  0  0  0  0  0  0  0  0  0  0  0
  148.6135  134.4059  159.4758 H   0  0  0  0  0  0  0  0  0  0  0  0
  146.6128  133.2629  163.0577 H   0  0  0  0  0  0  0  0  0  0  0  0
  1  2  2  0  0  0  0
  2  3  1  0  0  0  0
  2 11  1  0  0  0  0
  3  4  1  0  0  0  0
  3 23  1  0  0  0  0
  4  5  1  0  0  0  0
  4 24  1  0  0  0  0
  4 25  1  0  0  0  0
  5 10  1  0  0  0  0
  5  6  1  0  0  0  0
  5 26  1  0  0  0  0
  6  7  1  0  0  0  0
  6 27  1  0  0  0  0
  6 28  1  0  0  0  0
  7  8  1  0  0  0  0
  7 29  1  0  0  0  0
  7 30  1  0  0  0  0
  8  9  1  0  0  0  0
  8 31  1  0  0  0  0
  8 32  1  0  0  0  0
  9 10  1  0  0  0  0
 10 33  1  0  0  0  0
 10 34  1  0  0  0  0
 11 12  1  0  0  0  0
 11 35  1  0  0  0  0
 12 21  1  0  0  0  0
 12 13  2  0  0  0  0
 13 14  1  0  0  0  0
 13 36  1  0  0  0  0
 14 15  1  0  0  0  0
 14 19  2  0  0  0  0
 15 16  1  0  0  0  0
 15 17  1  0  0  0  0
 15 18  1  0  0  0  0
 19 20  1  0  0  0  0
 19 37  1  0  0  0  0
 20 21  1  0  0  0  0
 21 22  2  0  0  0  0
M  CHG  1  20  -1
M  END
> <s_m_source_file>
AV-unprocessed.smi

> <i_m_source_file_index>
1724

> <i_lp_mmshare_version>
43012

> <i_f3d_flags>
0

> <s_epik_input>
Tz1jMVtuSF1bY0hdYyhDKEYpKEYpRilbY0hdYzFbTkhdQyg9TylbTkhdW0NIMl1bQ0BASF0yW0NIMl1bQ0gyXVtDSDJdT1tDSDJdMg==

> <s_epik_cmdline>
J2VwaWtfcHl0aG9uJywgJy1waCcsICc3LjAnLCAnLXRuJywgJzgnLCAnLW1hJywgJzIwMCcsICctbWV0YWxfYmluZGluZycsICctaW1hZScsICc8aW5maWxlLm1hZT4nLCAnLW9tYWUnLCAnPG91dGZpbGUubWFlPic=

> <r_lp_tautomer_probability>
1

> <r_epik_Ionization_Penalty>
3.16025

> <r_epik_Ionization_Penalty_Charging>
0.171172

> <r_epik_Ionization_Penalty_Neutral>
2.98908

> <r_epik_State_Penalty>
2.98521

> <r_epik_Charging_Adjusted_Penalty>
3.15638

> <i_epik_Tot_Q>
-1

> <i_epik_Tot_abs_Q>
1

> <r_epik_Metal_State_Penalty>
0.452642

> <b_epik_Metal_Only>
1

> <s_lp_Force_Field>
OPLS_2005

> <r_lp_Energy>
24.0618

> <b_lp_Chiralities_Consistent>
1

> <s_lp_Variant>
AV-unprocessed.smi:1724-4

> <Gold.Version>
5.8.1

> <Gold.Id.Protein>
6NUR|6NUR_protein|mol2

> <Gold.PLP.Fitness>
42.4754

> <Gold.PLP.PLP>
-36.2047

> <Gold.PLP.part.hbond>
-3.0000

> <Gold.PLP.part.metal>
0.0000

> <Gold.PLP.part.buried>
-5.9443

> <Gold.PLP.part.nonpolar>
-28.1072

> <Gold.PLP.part.repulsive>
0.9500

> <Gold.PLP.ligand.clash>
0.0000

> <Gold.PLP.ligand.torsion>
0.1630

> <Gold.PLP.Chemscore.Hbond>
2.1951

> <Gold.PLP.Chemscore.CHOScore>
0.0000

> <Gold.PLP.Chemscore.Metal>
0.0000

> <Gold.Chemscore.Hbonds>
donor molecule, donor type, donor heavy atom, donor atom, acceptor molecule, acceptor atom, score
      P1  H  6896  6909       L1     1  1.00
      P1  H  6931  6943       L1    22  0.64
      P1  H  6934  6947       L1    22  0.49

> <Gold.PLP.Chemscore.Internal.Correction>
0.0114

> <Gold.Rescore>
     Score         DG    S(hbond)    S(metal)    S(lipo)     H(rot)  DE(clash)    DE(int)     intcor
     15.25     -16.35       1.84        0.00      69.26       1.32       0.01       1.09       ----

> <Gold.Chemscore.Fitness>
15.2518

> <Gold.Chemscore.DG>
-16.3520

> <Gold.Chemscore.ZeroCoef>
-5.4800

> <Gold.Chemscore.Hbond>
1.8444

> <Gold.Chemscore.Metal>
0.0000

> <Gold.Chemscore.Lipo>
69.2575

> <Gold.Chemscore.Internal_Hbond>
0.0000

> <Gold.Chemscore.DEClash>
0.0066

> <Gold.Chemscore.DEInternal>
1.0936

> <Gold.Chemscore.Rot>
1.3248

> <Gold.Chemscore.Internal.Correction>
   9.000000E+99

> <Gold.Chemscore.Hbonds>
donor molecule, donor type, donor heavy atom, donor atom, acceptor molecule, acceptor atom, score
      P1  H  6896  6909       L1     1  0.95
      P1  H  6931  6943       L1    22  0.24
      P1  H  6934  6947       L1    22  0.47

> <Gold.Chemscore.Hbond.Weighted>
-6.1604

> <Gold.Chemscore.Metal.Weighted>
-0.0000

> <Gold.Chemscore.Lipo.Weighted>
-8.1031

> <Gold.Chemscore.Internal_Hbond.Weighted>
0.0000

> <Gold.Chemscore.DEClash.Weighted>
0.0066

> <Gold.Chemscore.DEInternal.Weighted>
1.0936

> <Gold.Chemscore.Rot.Weighted>
3.3915

> <Gold.Chemscore.Internal.Correction.Weighted>
   9.000000E+99

> <Gold.Protein.RotatedTorsions>
[ 6907 6896 6895 6894 ] final   60.22 input  -60.11 | X-H torsion
[ 7974 7965 7964 7962 ] final -145.17 input  175.53 | X-H torsion
[ 8008 7997 7996 7995 ] final  -56.68 input   59.86 | X-H torsion
[ 10167 10162 10161 10158 ] final  138.09 input  -65.29 | X-H torsion
[ 10718 10713 10712 10709 ] final  133.62 input   66.30 | X-H torsion
[ 10763 10752 10751 10750 ] final   12.46 input  -60.55 | X-H torsion
[ 11005 11000 10999 10996 ] final -179.71 input  -57.11 | X-H torsion

> <Gold.Protein.ActiveResidues>
 VAL166  LYS551  ARG553  GLY616  TRP617  ASP618  TYR619  PRO620  LYS621  CYS622 
 ASP623  PHE694  ASN695  SER759  ASP760  ASP761  ALA762  ILE779  LEU786  VAL792 
 PHE793  MET794  SER795  GLU796  ALA797  LYS798  CYS799  TRP800  GLU811  SER814 

> <Gold.Protein.RotatedAtoms>
  152.3984  134.6327  160.0079 H   0  0  0  0  0  0  0  0  0  0  0  0  # atno 6907 bound_to 6896
  151.6540  133.3314  159.3166 H   0  0  0  0  0  0  0  0  0  0  0  0  # atno 6908 bound_to 6896
  150.7888  134.6938  159.6556 H   0  0  0  0  0  0  0  0  0  0  0  0  # atno 6909 bound_to 6896
  144.8246  140.5617  143.5556 H   0  0  0  0  0  0  0  0  0  0  0  0  # atno 7974 bound_to 7965
  154.4239  140.1124  156.5677 H   0  0  0  0  0  0  0  0  0  0  0  0  # atno 8008 bound_to 7997
  155.6245  140.3495  155.4644 H   0  0  0  0  0  0  0  0  0  0  0  0  # atno 8009 bound_to 7997
  155.9998  140.1196  157.0548 H   0  0  0  0  0  0  0  0  0  0  0  0  # atno 8010 bound_to 7997
  139.5122  144.6373  151.5663 H   0  0  0  0  0  0  0  0  0  0  0  0  # atno 10167 bound_to 10162
  157.4755  131.1083  150.9749 H   0  0  0  0  0  0  0  0  0  0  0  0  # atno 10718 bound_to 10713
  153.1820  135.6829  153.8465 H   0  0  0  0  0  0  0  0  0  0  0  0  # atno 10763 bound_to 10752
  153.7793  135.3184  155.3364 H   0  0  0  0  0  0  0  0  0  0  0  0  # atno 10764 bound_to 10752
  154.8065  135.4745  154.0502 H   0  0  0  0  0  0  0  0  0  0  0  0  # atno 10765 bound_to 10752
  140.4156  134.6652  157.4637 H   0  0  0  0  0  0  0  0  0  0  0  0  # atno 11005 bound_to 11000
  145.5029  139.1482  143.3647 LP  0  0  0  0  0  0  0  0  0  0  0  0  # atno 17320 bound_to 7965
  146.2551  140.5169  142.8877 LP  0  0  0  0  0  0  0  0  0  0  0  0  # atno 17321 bound_to 7965
  140.6127  143.9407  150.6465 LP  0  0  0  0  0  0  0  0  0  0  0  0  # atno 17342 bound_to 10162
  140.2655  143.3493  152.1285 LP  0  0  0  0  0  0  0  0  0  0  0  0  # atno 17343 bound_to 10162
  157.0499  130.5783  149.5369 LP  0  0  0  0  0  0  0  0  0  0  0  0  # atno 17370 bound_to 10713
  156.0095  130.5185  150.7940 LP  0  0  0  0  0  0  0  0  0  0  0  0  # atno 17371 bound_to 10713
  140.0236  134.6510  155.9204 LP  0  0  0  0  0  0  0  0  0  0  0  0  # atno 17394 bound_to 11000
  141.1804  133.6546  156.4997 LP  0  0  0  0  0  0  0  0  0  0  0  0  # atno 17395 bound_to 11000

$$$$
