#       Name:                AV-unprocessed.smi:3019
#       Creating user name   scv26
#       Creation time:       Fri Mar 27 16:43:05 2020


#       File generated by GOLD software.
#

@<TRIPOS>MOLECULE
AV-unprocessed.smi:3019
    35    36     1
SMALL
NO_CHARGES


@<TRIPOS>ATOM
      1 ****        -3.5852   0.6221   1.4796 C.3            1 S1                 0.0000
      2 ****        -2.9979   1.4084   0.2985 C.3            1 S1                 0.0000
      3 ****        -3.5438   0.9455  -1.0604 C.3            1 S1                 0.0000
      4 ****        -1.5002   1.4065   0.3224 C.2            1 S1                 0.0000
      5 ****        -0.8103   2.5349   0.4856 N.2            1 S1                 0.0000
      6 ****         0.4644   2.0937   0.4454 N.pl3          1 S1                 0.0000
      7 ****         0.4707   0.7706   0.2701 C.2            1 S1                 0.0000
      8 ****         1.7416  -0.0123   0.1711 C.3            1 S1                 0.0000
      9 ****         2.0799  -0.3989  -1.2820 C.3            1 S1                 0.0000
     10 ****         3.2774  -1.2372  -1.3174 N.3            1 S1                 0.0000
     11 ****         3.1270  -2.4090  -0.4557 C.3            1 S1                 0.0000
     12 ****         2.7569  -1.9781   0.9749 C.3            1 S1                 0.0000
     13 ****         1.5678  -1.1961   0.9453 O.3            1 S1                 0.0000
     14 ****        -0.7566   0.2669   0.1805 N.2            1 S1                 0.0000
     15 ****         1.2632   2.7046   0.5396 H              1 S1                 0.0000
     16 ****        -3.2298   1.0202   2.4304 H              1 S1                 0.0000
     17 ****        -3.3056  -0.4308   1.4341 H              1 S1                 0.0000
     18 ****        -4.6741   0.6763   1.4849 H              1 S1                 0.0000
     19 ****        -3.3229   2.4425   0.4249 H              1 S1                 0.0000
     20 ****        -3.1599   1.5684  -1.8690 H              1 S1                 0.0000
     21 ****        -4.6322   1.0026  -1.0867 H              1 S1                 0.0000
     22 ****        -3.2603  -0.0861  -1.2715 H              1 S1                 0.0000
     23 ****         2.5495   0.5849   0.5991 H              1 S1                 0.0000
     24 ****         1.2408  -0.9366  -1.7257 H              1 S1                 0.0000
     25 ****         2.2319   0.4972  -1.8839 H              1 S1                 0.0000
     26 ****         3.4535  -1.5378  -2.2709 H              1 S1                 0.0000
     27 ****         2.3499  -3.0639  -0.8519 H              1 S1                 0.0000
     28 ****         4.0505  -2.9880  -0.4455 H              1 S1                 0.0000
     29 ****         2.5865  -2.8561   1.5980 H              1 S1                 0.0000
     30 ****         3.5687  -1.4133   1.4359 H              1 S1                 0.0000
     31 ****        -1.1496   3.4677   0.6066 LP             1 S1                 0.0000
     32 ****         4.0489  -0.6969  -0.9815 LP             1 S1                 0.0000
     33 ****         0.8304  -1.7407   0.5456 LP             1 S1                 0.0000
     34 ****         1.3237  -0.9400   1.8806 LP             1 S1                 0.0000
     35 ****        -1.0528  -0.6789   0.0470 LP             1 S1                 0.0000
@<TRIPOS>BOND
    1    1    2 1     
    2    1   16 1     
    3    1   17 1     
    4    1   18 1     
    5    2    3 1     
    6    2    4 1     
    7    2   19 1     
    8    3   20 1     
    9    3   21 1     
   10    3   22 1     
   11    4   14 1     
   12    4    5 2     
   13    5    6 1     
   14    6   15 1     
   15    6    7 1     
   16    7    8 1     
   17    7   14 2     
   18    8   13 1     
   19    8    9 1     
   20    8   23 1     
   21    9   10 1     
   22    9   24 1     
   23    9   25 1     
   24   10   11 1     
   25   10   26 1     
   26   11   12 1     
   27   11   27 1     
   28   11   28 1     
   29   12   13 1     
   30   12   29 1     
   31   12   30 1     
   32    5   31 1     
   33   10   32 1     
   34   13   33 1     
   35   13   34 1     
   36   14   35 1     
@<TRIPOS>SUBSTRUCTURE
      1 S1             1
@<TRIPOS>SET
LONE_PAIRS      STATIC     ATOMS    <user>   **** ""
5 31 32 33 34 35
DONOR_HYDROGENS      STATIC     ATOMS    <user>   **** ""
2 15 26
ATOM$BLUE        STATIC     ATOMS    COLORGROUP SYSTEM
5 31 32 33 34 35
ATOM$RED        STATIC     ATOMS    COLORGROUP SYSTEM
2 15 26
