AV-unprocessed.smi:2021|AV-procd|sdf|8175|dock6
  -GOLD-   2272010423D 1   1.00000     0.00000
 Structure written by MMmdl.
 42 43  0  0  0  0  0  0  0  0  2 V2000
  151.7815  141.6911  158.4989 C   0  0  0  0  0  0  0  0  0  0  0  0
  150.9821  142.5554  157.5123 C   0  0  0  0  0  0  0  0  0  0  0  0
  151.5949  143.9625  157.4134 C   0  0  0  0  0  0  0  0  0  0  0  0
  149.4928  142.6053  157.9171 C   0  0  0  0  0  0  0  0  0  0  0  0
  148.5738  142.2920  156.7926 N   0  3  1  0  0  0  0  0  0  0  0  0
  149.0684  141.2096  155.9063 C   0  0  0  0  0  0  0  0  0  0  0  0
  148.0838  140.9705  154.7508 C   0  0  0  0  0  0  0  0  0  0  0  0
  146.7989  140.6660  155.2775 O   0  0  0  0  0  0  0  0  0  0  0  0
  146.2632  141.7344  156.0500 C   0  0  1  0  0  0  0  0  0  0  0  0
  144.8344  141.3327  156.4647 C   0  0  0  0  0  0  0  0  0  0  0  0
  144.1085  140.6360  155.4070 N   0  0  0  0  0  0  0  0  0  0  0  0
  143.2668  139.6104  155.6000 C   0  0  0  0  0  0  0  0  0  0  0  0
  143.0379  139.1234  156.7071 O   0  0  0  0  0  0  0  0  0  0  0  0
  142.7229  139.2005  154.4406 N   0  0  0  0  0  0  0  0  0  0  0  0
  141.7904  138.1505  154.2286 C   0  0  0  0  0  0  0  0  0  0  0  0
  141.6700  137.0873  155.0388 N   0  0  0  0  0  0  0  0  0  0  0  0
  140.6853  136.2105  154.6018 N   0  0  0  0  0  0  0  0  0  0  0  0
  140.1032  136.6461  153.4808 C   0  0  0  0  0  0  0  0  0  0  0  0
  140.7019  138.1699  152.8484 S   0  0  0  0  0  0  0  0  0  0  0  0
  147.1959  141.9951  157.2525 C   0  0  0  0  0  0  0  0  0  0  0  0
  151.7472  142.1037  159.5077 H   0  0  0  0  0  0  0  0  0  0  0  0
  152.8290  141.6220  158.2033 H   0  0  0  0  0  0  0  0  0  0  0  0
  151.3869  140.6753  158.5414 H   0  0  0  0  0  0  0  0  0  0  0  0
  151.0736  142.0799  156.5361 H   0  0  0  0  0  0  0  0  0  0  0  0
  151.5447  144.4847  158.3698 H   0  0  0  0  0  0  0  0  0  0  0  0
  151.0781  144.5736  156.6733 H   0  0  0  0  0  0  0  0  0  0  0  0
  152.6435  143.9132  157.1180 H   0  0  0  0  0  0  0  0  0  0  0  0
  149.2941  141.9198  158.7425 H   0  0  0  0  0  0  0  0  0  0  0  0
  149.2760  143.6051  158.2969 H   0  0  0  0  0  0  0  0  0  0  0  0
  150.0454  141.4635  155.4969 H   0  0  0  0  0  0  0  0  0  0  0  0
  149.1920  140.2915  156.4827 H   0  0  0  0  0  0  0  0  0  0  0  0
  148.0277  141.8425  154.0973 H   0  0  0  0  0  0  0  0  0  0  0  0
  148.4198  140.1344  154.1372 H   0  0  0  0  0  0  0  0  0  0  0  0
  146.2158  142.6275  155.4242 H   0  0  0  0  0  0  0  0  0  0  0  0
  144.8654  140.7048  157.3567 H   0  0  0  0  0  0  0  0  0  0  0  0
  144.2642  142.2213  156.7364 H   0  0  0  0  0  0  0  0  0  0  0  0
  144.2383  140.9765  154.4654 H   0  0  0  0  0  0  0  0  0  0  0  0
  143.0013  139.7040  153.6114 H   0  0  0  0  0  0  0  0  0  0  0  0
  139.3161  136.0658  153.0225 H   0  0  0  0  0  0  0  0  0  0  0  0
  147.2111  141.1279  157.9148 H   0  0  0  0  0  0  0  0  0  0  0  0
  146.8222  142.8383  157.8347 H   0  0  0  0  0  0  0  0  0  0  0  0
  148.5081  143.1297  156.2319 H   0  0  0  0  0  0  0  0  0  0  0  0
  1  2  1  0  0  0  0
  1 21  1  0  0  0  0
  1 22  1  0  0  0  0
  1 23  1  0  0  0  0
  2  3  1  0  0  0  0
  2  4  1  0  0  0  0
  2 24  1  0  0  0  0
  3 25  1  0  0  0  0
  3 26  1  0  0  0  0
  3 27  1  0  0  0  0
  4  5  1  0  0  0  0
  4 28  1  0  0  0  0
  4 29  1  0  0  0  0
  5 20  1  0  0  0  0
  5  6  1  0  0  0  0
  5 42  1  0  0  0  0
  6  7  1  0  0  0  0
  6 30  1  0  0  0  0
  6 31  1  0  0  0  0
  7  8  1  0  0  0  0
  7 32  1  0  0  0  0
  7 33  1  0  0  0  0
  8  9  1  0  0  0  0
  9 10  1  0  0  0  0
  9 20  1  0  0  0  0
  9 34  1  0  0  0  0
 10 11  1  0  0  0  0
 10 35  1  0  0  0  0
 10 36  1  0  0  0  0
 11 12  1  0  0  0  0
 11 37  1  0  0  0  0
 12 13  2  0  0  0  0
 12 14  1  0  0  0  0
 14 15  1  0  0  0  0
 14 38  1  0  0  0  0
 15 19  1  0  0  0  0
 15 16  2  0  0  0  0
 16 17  1  0  0  0  0
 17 18  2  0  0  0  0
 18 19  1  0  0  0  0
 18 39  1  0  0  0  0
 20 40  1  0  0  0  0
 20 41  1  0  0  0  0
M  CHG  1   5   1
M  END
> <s_m_source_file>
AV-unprocessed.smi

> <i_m_source_file_index>
2021

> <i_lp_mmshare_version>
43012

> <i_f3d_flags>
0

> <s_epik_input>
W0NIM11bQ0hdKFtDSDNdKVtDSDJdTjFbQ0gyXVtDSDJdT1tDQEhdKFtDSDJdMSlbQ0gyXVtOSF1DKD1PKVtOSF1jMm5uW2NIXXMy

> <s_epik_cmdline>
J2VwaWtfcHl0aG9uJywgJy1waCcsICc3LjAnLCAnLXRuJywgJzgnLCAnLW1hJywgJzIwMCcsICctbWV0YWxfYmluZGluZycsICctaW1hZScsICc8aW5maWxlLm1hZT4nLCAnLW9tYWUnLCAnPG91dGZpbGUubWFlPic=

> <r_lp_tautomer_probability>
1

> <r_epik_Ionization_Penalty>
0.102019

> <r_epik_Ionization_Penalty_Charging>
0.098413

> <r_epik_Ionization_Penalty_Neutral>
0.00360555

> <r_epik_State_Penalty>
0.0884988

> <r_epik_Charging_Adjusted_Penalty>
0.186912

> <i_epik_Tot_Q>
1

> <i_epik_Tot_abs_Q>
1

> <r_epik_Metal_State_Penalty>
0.454709

> <b_epik_Metal_Only>
0

> <s_lp_Force_Field>
OPLS_2005

> <r_lp_Energy>
17.0767

> <b_lp_Chiralities_Consistent>
1

> <s_lp_Variant>
AV-unprocessed.smi:2021-1

> <Gold.Version>
5.8.1

> <Gold.Id.Protein>
6NUR|6NUR_protein|mol2

> <Gold.PLP.Fitness>
38.6796

> <Gold.PLP.PLP>
-25.2148

> <Gold.PLP.part.hbond>
-4.0000

> <Gold.PLP.part.metal>
0.0000

> <Gold.PLP.part.buried>
-2.7751

> <Gold.PLP.part.nonpolar>
-18.2305

> <Gold.PLP.part.repulsive>
0.1417

> <Gold.PLP.ligand.clash>
0.0000

> <Gold.PLP.ligand.torsion>
1.3441

> <Gold.PLP.Chemscore.Hbond>
4.4420

> <Gold.PLP.Chemscore.CHOScore>
0.9291

> <Gold.PLP.Chemscore.Metal>
0.0000

> <Gold.Chemscore.Hbonds>
donor molecule, donor type, donor heavy atom, donor atom, acceptor molecule, acceptor atom, score
      L1  H     5    42       P1  8028  2.00
      L1  H    11    37       P1 10175  0.65
      L1  H    14    38       P1 10175  0.86
      P1  H 11000 11005       L1    17  0.62
      L1  C    18    39       P1 10187  0.96

> <Gold.PLP.Chemscore.Internal.Correction>
0.0398

> <Gold.Rescore>
     Score         DG    S(hbond)    S(metal)    S(lipo)     H(rot)  DE(clash)    DE(int)     intcor
     17.21     -19.94       3.48        0.00      65.36       1.88       0.26       2.48       ----

> <Gold.Chemscore.Fitness>
17.2076

> <Gold.Chemscore.DG>
-19.9439

> <Gold.Chemscore.ZeroCoef>
-5.4800

> <Gold.Chemscore.Hbond>
3.4828

> <Gold.Chemscore.Metal>
0.0000

> <Gold.Chemscore.Lipo>
65.3625

> <Gold.Chemscore.Internal_Hbond>
0.0000

> <Gold.Chemscore.DEClash>
0.2591

> <Gold.Chemscore.DEInternal>
2.4772

> <Gold.Chemscore.Rot>
1.8812

> <Gold.Chemscore.Internal.Correction>
   9.000000E+99

> <Gold.Chemscore.Hbonds>
donor molecule, donor type, donor heavy atom, donor atom, acceptor molecule, acceptor atom, score
      L1  H     5    42       P1  8028  0.90
      L1  H    11    37       P1 10175  0.59
      L1  H    14    38       P1 10175  0.84
      P1  H 11000 11005       L1    17  0.59

> <Gold.Chemscore.Hbond.Weighted>
-11.6324

> <Gold.Chemscore.Metal.Weighted>
-0.0000

> <Gold.Chemscore.Lipo.Weighted>
-7.6474

> <Gold.Chemscore.Internal_Hbond.Weighted>
0.0000

> <Gold.Chemscore.DEClash.Weighted>
0.2591

> <Gold.Chemscore.DEInternal.Weighted>
2.4772

> <Gold.Chemscore.Rot.Weighted>
4.8159

> <Gold.Chemscore.Internal.Correction.Weighted>
   9.000000E+99

> <Gold.Protein.RotatedTorsions>
[ 6907 6896 6895 6894 ] final   66.02 input  -60.11 | X-H torsion
[ 7974 7965 7964 7962 ] final  -97.94 input  175.53 | X-H torsion
[ 8008 7997 7996 7995 ] final  -88.03 input   59.86 | X-H torsion
[ 10167 10162 10161 10158 ] final -152.38 input  -65.29 | X-H torsion
[ 10718 10713 10712 10709 ] final  -88.62 input   66.30 | X-H torsion
[ 10763 10752 10751 10750 ] final   51.32 input  -60.55 | X-H torsion
[ 11005 11000 10999 10996 ] final   53.25 input  -57.11 | X-H torsion

> <Gold.Protein.ActiveResidues>
 VAL166  LYS551  ARG553  GLY616  TRP617  ASP618  TYR619  PRO620  LYS621  CYS622 
 ASP623  PHE694  ASN695  SER759  ASP760  ASP761  ALA762  ILE779  LEU786  VAL792 
 PHE793  MET794  SER795  GLU796  ALA797  LYS798  CYS799  TRP800  GLU811  SER814 

> <Gold.Protein.RotatedAtoms>
  152.4450  134.5513  159.9867 H   0  0  0  0  0  0  0  0  0  0  0  0  # atno 6907 bound_to 6896
  151.5600  133.3399  159.2977 H   0  0  0  0  0  0  0  0  0  0  0  0  # atno 6908 bound_to 6896
  150.8364  134.7672  159.6960 H   0  0  0  0  0  0  0  0  0  0  0  0  # atno 6909 bound_to 6896
  145.3271  140.9434  143.2683 H   0  0  0  0  0  0  0  0  0  0  0  0  # atno 7974 bound_to 7965
  154.6701  140.0558  157.0156 H   0  0  0  0  0  0  0  0  0  0  0  0  # atno 8008 bound_to 7997
  155.1102  140.3237  155.4505 H   0  0  0  0  0  0  0  0  0  0  0  0  # atno 8009 bound_to 7997
  156.2654  140.2015  156.6226 H   0  0  0  0  0  0  0  0  0  0  0  0  # atno 8010 bound_to 7997
  139.7187  143.8992  152.2495 H   0  0  0  0  0  0  0  0  0  0  0  0  # atno 10167 bound_to 10162
  155.9983  130.4842  150.5047 H   0  0  0  0  0  0  0  0  0  0  0  0  # atno 10718 bound_to 10713
  152.9785  135.5849  154.4397 H   0  0  0  0  0  0  0  0  0  0  0  0  # atno 10763 bound_to 10752
  154.3999  135.2768  155.2105 H   0  0  0  0  0  0  0  0  0  0  0  0  # atno 10764 bound_to 10752
  154.3940  135.6119  153.5913 H   0  0  0  0  0  0  0  0  0  0  0  0  # atno 10765 bound_to 10752
  140.0782  134.5374  155.8974 H   0  0  0  0  0  0  0  0  0  0  0  0  # atno 11005 bound_to 11000
  144.8893  139.4796  143.6685 LP  0  0  0  0  0  0  0  0  0  0  0  0  # atno 17320 bound_to 7965
  146.3060  139.7582  142.9056 LP  0  0  0  0  0  0  0  0  0  0  0  0  # atno 17321 bound_to 7965
  139.8882  144.6980  150.8800 LP  0  0  0  0  0  0  0  0  0  0  0  0  # atno 17342 bound_to 10162
  140.7749  143.3607  151.1834 LP  0  0  0  0  0  0  0  0  0  0  0  0  # atno 17343 bound_to 10162
  157.3027  131.0648  151.2057 LP  0  0  0  0  0  0  0  0  0  0  0  0  # atno 17370 bound_to 10713
  157.3031  130.6852  149.6174 LP  0  0  0  0  0  0  0  0  0  0  0  0  # atno 17371 bound_to 10713
  141.2037  133.6634  156.6080 LP  0  0  0  0  0  0  0  0  0  0  0  0  # atno 17394 bound_to 11000
  140.3526  134.7756  157.4477 LP  0  0  0  0  0  0  0  0  0  0  0  0  # atno 17395 bound_to 11000

$$$$
