AV-unprocessed.smi:2253|AV-procd|sdf|9121|dock1
  -GOLD-   2272012323D 1   1.00000     0.00000
 Structure written by MMmdl.
 51 53  0  0  0  0  0  0  0  0  2 V2000
  151.5952  145.1422  159.8182 C   0  0  0  0  0  0  0  0  0  0  0  0
  151.2799  143.8789  159.1662 N   0  0  0  0  0  0  0  0  0  0  0  0
  152.0775  142.8127  159.7664 C   0  0  0  0  0  0  0  0  0  0  0  0
  151.7096  141.4577  159.1378 C   0  0  0  0  0  0  0  0  0  0  0  0
  151.9335  141.4480  157.6054 C   0  0  0  0  0  0  0  0  0  0  0  0
  151.4882  140.1845  156.9304 N   0  3  2  0  0  0  0  0  0  0  0  0
  152.1434  139.9005  155.6197 C   0  0  0  0  0  0  0  0  0  0  0  0
  151.7218  138.5342  155.0520 C   0  0  0  0  0  0  0  0  0  0  0  0
  150.1983  138.4260  154.9116 C   0  0  1  0  0  0  0  0  0  0  0  0
  149.8358  137.0888  154.4515 N   0  0  0  0  0  0  0  0  0  0  0  0
  150.1898  135.9432  155.0521 C   0  0  0  0  0  0  0  0  0  0  0  0
  150.8724  135.9003  156.0752 O   0  0  0  0  0  0  0  0  0  0  0  0
  149.6920  134.8798  154.3979 N   0  0  0  0  0  0  0  0  0  0  0  0
  149.8320  133.4964  154.6967 C   0  0  0  0  0  0  0  0  0  0  0  0
  150.6537  132.9798  155.7281 C   0  0  0  0  0  0  0  0  0  0  0  0
  150.7137  131.5830  155.9072 C   0  0  0  0  0  0  0  0  0  0  0  0
  150.0338  130.7039  155.1408 N   0  0  0  0  0  0  0  0  0  0  0  0
  149.2619  131.1992  154.1505 C   0  0  0  0  0  0  0  0  0  0  0  0
  149.1314  132.5775  153.8869 C   0  0  0  0  0  0  0  0  0  0  0  0
  148.3421  133.0076  152.8728 F   0  0  0  0  0  0  0  0  0  0  0  0
  149.5486  138.7364  156.2689 C   0  0  0  0  0  0  0  0  0  0  0  0
  150.0044  140.1051  156.7988 C   0  0  0  0  0  0  0  0  0  0  0  0
  151.1963  142.6773  157.0238 C   0  0  0  0  0  0  0  0  0  0  0  0
  151.5890  143.9795  157.7424 C   0  0  0  0  0  0  0  0  0  0  0  0
  151.3624  145.0918  160.8824 H   0  0  0  0  0  0  0  0  0  0  0  0
  151.0046  145.9524  159.3889 H   0  0  0  0  0  0  0  0  0  0  0  0
  152.6510  145.3948  159.7107 H   0  0  0  0  0  0  0  0  0  0  0  0
  153.1418  143.0159  159.6368 H   0  0  0  0  0  0  0  0  0  0  0  0
  151.8866  142.7772  160.8398 H   0  0  0  0  0  0  0  0  0  0  0  0
  152.3224  140.6975  159.6224 H   0  0  0  0  0  0  0  0  0  0  0  0
  150.6689  141.2234  159.3679 H   0  0  0  0  0  0  0  0  0  0  0  0
  153.0048  141.5636  157.4318 H   0  0  0  0  0  0  0  0  0  0  0  0
  151.9055  140.6960  154.9116 H   0  0  0  0  0  0  0  0  0  0  0  0
  153.2271  139.8717  155.7225 H   0  0  0  0  0  0  0  0  0  0  0  0
  152.1976  138.3778  154.0830 H   0  0  0  0  0  0  0  0  0  0  0  0
  152.0909  137.7435  155.7074 H   0  0  0  0  0  0  0  0  0  0  0  0
  149.8660  139.1613  154.1758 H   0  0  0  0  0  0  0  0  0  0  0  0
  149.2687  137.0314  153.6179 H   0  0  0  0  0  0  0  0  0  0  0  0
  149.0923  135.0854  153.6121 H   0  0  0  0  0  0  0  0  0  0  0  0
  151.2427  133.6137  156.3720 H   0  0  0  0  0  0  0  0  0  0  0  0
  151.3313  131.1595  156.6853 H   0  0  0  0  0  0  0  0  0  0  0  0
  148.7337  130.4750  153.5482 H   0  0  0  0  0  0  0  0  0  0  0  0
  148.4617  138.7254  156.1778 H   0  0  0  0  0  0  0  0  0  0  0  0
  149.8054  137.9616  156.9930 H   0  0  0  0  0  0  0  0  0  0  0  0
  149.5148  140.2706  157.7561 H   0  0  0  0  0  0  0  0  0  0  0  0
  149.6566  140.8956  156.1317 H   0  0  0  0  0  0  0  0  0  0  0  0
  151.4120  142.8070  155.9650 H   0  0  0  0  0  0  0  0  0  0  0  0
  150.1176  142.5325  157.1011 H   0  0  0  0  0  0  0  0  0  0  0  0
  151.0346  144.8129  157.3090 H   0  0  0  0  0  0  0  0  0  0  0  0
  152.6500  144.1903  157.5970 H   0  0  0  0  0  0  0  0  0  0  0  0
  151.7672  139.4313  157.5430 H   0  0  0  0  0  0  0  0  0  0  0  0
  1  2  1  0  0  0  0
  1 25  1  0  0  0  0
  1 26  1  0  0  0  0
  1 27  1  0  0  0  0
  2 24  1  0  0  0  0
  2  3  1  0  0  0  0
  3  4  1  0  0  0  0
  3 28  1  0  0  0  0
  3 29  1  0  0  0  0
  4  5  1  0  0  0  0
  4 30  1  0  0  0  0
  4 31  1  0  0  0  0
  5  6  1  0  0  0  0
  5 23  1  0  0  0  0
  5 32  1  0  0  0  0
  6 22  1  0  0  0  0
  6  7  1  0  0  0  0
  6 51  1  0  0  0  0
  7  8  1  0  0  0  0
  7 33  1  0  0  0  0
  7 34  1  0  0  0  0
  8  9  1  0  0  0  0
  8 35  1  0  0  0  0
  8 36  1  0  0  0  0
  9 10  1  0  0  0  0
  9 21  1  0  0  0  0
  9 37  1  0  0  0  0
 10 11  1  0  0  0  0
 10 38  1  0  0  0  0
 11 12  2  0  0  0  0
 11 13  1  0  0  0  0
 13 14  1  0  0  0  0
 13 39  1  0  0  0  0
 14 19  1  0  0  0  0
 14 15  2  0  0  0  0
 15 16  1  0  0  0  0
 15 40  1  0  0  0  0
 16 17  2  0  0  0  0
 16 41  1  0  0  0  0
 17 18  1  0  0  0  0
 18 19  2  0  0  0  0
 18 42  1  0  0  0  0
 19 20  1  0  0  0  0
 21 22  1  0  0  0  0
 21 43  1  0  0  0  0
 21 44  1  0  0  0  0
 22 45  1  0  0  0  0
 22 46  1  0  0  0  0
 23 24  1  0  0  0  0
 23 47  1  0  0  0  0
 23 48  1  0  0  0  0
 24 49  1  0  0  0  0
 24 50  1  0  0  0  0
M  CHG  1   6   1
M  END
> <s_m_source_file>
AV-unprocessed.smi

> <i_m_source_file_index>
2253

> <i_lp_mmshare_version>
43012

> <i_f3d_flags>
0

> <s_epik_input>
W0NIM11OMVtDSDJdW0NIMl1bQ0hdKFtDSDJdW0NIMl0xKU4yW0NIMl1bQ0gyXVtDSF0oW0NIMl1bQ0gyXTIpW05IXUMoPU8pW05IXWMzW2NIXVtjSF1uW2NIXWMzRg==

> <s_epik_cmdline>
J2VwaWtfcHl0aG9uJywgJy1waCcsICc3LjAnLCAnLXRuJywgJzgnLCAnLW1hJywgJzIwMCcsICctbWV0YWxfYmluZGluZycsICctaW1hZScsICc8aW5maWxlLm1hZT4nLCAnLW9tYWUnLCAnPG91dGZpbGUubWFlPic=

> <r_epik_Ionization_Penalty>
1.37522

> <r_epik_Ionization_Penalty_Charging>
0.00081195

> <r_epik_Ionization_Penalty_Neutral>
1.3744

> <r_epik_State_Penalty>
1.55149

> <r_epik_Charging_Adjusted_Penalty>
1.5523

> <i_epik_Tot_Q>
1

> <i_epik_Tot_abs_Q>
1

> <r_epik_Metal_State_Penalty>
1.55158

> <b_epik_Metal_Only>
0

> <s_lp_Force_Field>
OPLS_2005

> <r_lp_Energy>
37.061

> <b_lp_Chiralities_Consistent>
1

> <s_lp_Variant>
AV-unprocessed.smi:2253-7

> <Gold.Version>
5.8.1

> <Gold.Id.Protein>
6NUR|6NUR_protein|mol2

> <Gold.PLP.Fitness>
50.9166

> <Gold.PLP.PLP>
-45.9621

> <Gold.PLP.part.hbond>
-2.0000

> <Gold.PLP.part.metal>
0.0000

> <Gold.PLP.part.buried>
-6.3296

> <Gold.PLP.part.nonpolar>
-37.2038

> <Gold.PLP.part.repulsive>
0.2808

> <Gold.PLP.ligand.clash>
0.0000

> <Gold.PLP.ligand.torsion>
0.3708

> <Gold.PLP.Chemscore.Hbond>
1.8880

> <Gold.PLP.Chemscore.CHOScore>
0.0000

> <Gold.PLP.Chemscore.Metal>
0.0000

> <Gold.Chemscore.Hbonds>
donor molecule, donor type, donor heavy atom, donor atom, acceptor molecule, acceptor atom, score
      L1  H    10    38       P1  7948  0.96
      L1  H    13    39       P1  7948  0.79

> <Gold.PLP.Chemscore.Internal.Correction>
0.0319

> <Gold.Rescore>
     Score         DG    S(hbond)    S(metal)    S(lipo)     H(rot)  DE(clash)    DE(int)     intcor
     17.67     -20.74       1.50        0.00     114.83       1.24       0.38       2.70       ----

> <Gold.Chemscore.Fitness>
17.6657

> <Gold.Chemscore.DG>
-20.7408

> <Gold.Chemscore.ZeroCoef>
-5.4800

> <Gold.Chemscore.Hbond>
1.4952

> <Gold.Chemscore.Metal>
0.0000

> <Gold.Chemscore.Lipo>
114.8327

> <Gold.Chemscore.Internal_Hbond>
0.0000

> <Gold.Chemscore.DEClash>
0.3793

> <Gold.Chemscore.DEInternal>
2.6958

> <Gold.Chemscore.Rot>
1.2377

> <Gold.Chemscore.Internal.Correction>
   9.000000E+99

> <Gold.Chemscore.Hbonds>
donor molecule, donor type, donor heavy atom, donor atom, acceptor molecule, acceptor atom, score
      L1  H    10    38       P1  7948  0.90
      L1  H    13    39       P1  7948  0.26

> <Gold.Chemscore.Hbond.Weighted>
-4.9940

> <Gold.Chemscore.Metal.Weighted>
-0.0000

> <Gold.Chemscore.Lipo.Weighted>
-13.4354

> <Gold.Chemscore.Internal_Hbond.Weighted>
0.0000

> <Gold.Chemscore.DEClash.Weighted>
0.3793

> <Gold.Chemscore.DEInternal.Weighted>
2.6958

> <Gold.Chemscore.Rot.Weighted>
3.1685

> <Gold.Chemscore.Internal.Correction.Weighted>
   9.000000E+99

> <Gold.Protein.RotatedTorsions>
[ 6907 6896 6895 6894 ] final   99.60 input  -60.11 | X-H torsion
[ 7974 7965 7964 7962 ] final   -0.87 input  175.53 | X-H torsion
[ 8008 7997 7996 7995 ] final  -63.29 input   59.86 | X-H torsion
[ 10167 10162 10161 10158 ] final -115.90 input  -65.29 | X-H torsion
[ 10718 10713 10712 10709 ] final  -49.23 input   66.30 | X-H torsion
[ 10763 10752 10751 10750 ] final  172.00 input  -60.55 | X-H torsion
[ 11005 11000 10999 10996 ] final  177.45 input  -57.11 | X-H torsion

> <Gold.Protein.ActiveResidues>
 VAL166  LYS551  ARG553  GLY616  TRP617  ASP618  TYR619  PRO620  LYS621  CYS622 
 ASP623  PHE694  ASN695  SER759  ASP760  ASP761  ALA762  ILE779  LEU786  VAL792 
 PHE793  MET794  SER795  GLU796  ALA797  LYS798  CYS799  TRP800  GLU811  SER814 

> <Gold.Protein.RotatedAtoms>
  152.5389  134.0404  159.8064 H   0  0  0  0  0  0  0  0  0  0  0  0  # atno 6907 bound_to 6896
  151.0561  133.5576  159.2645 H   0  0  0  0  0  0  0  0  0  0  0  0  # atno 6908 bound_to 6896
  151.2492  135.0624  159.9109 H   0  0  0  0  0  0  0  0  0  0  0  0  # atno 6909 bound_to 6896
  146.2423  140.1335  142.8337 H   0  0  0  0  0  0  0  0  0  0  0  0  # atno 7974 bound_to 7965
  154.4546  140.0978  156.6720 H   0  0  0  0  0  0  0  0  0  0  0  0  # atno 8008 bound_to 7997
  155.5178  140.3478  155.4382 H   0  0  0  0  0  0  0  0  0  0  0  0  # atno 8009 bound_to 7997
  156.0751  140.1359  156.9770 H   0  0  0  0  0  0  0  0  0  0  0  0  # atno 8010 bound_to 7997
  140.0851  143.4751  152.1903 H   0  0  0  0  0  0  0  0  0  0  0  0  # atno 10167 bound_to 10162
  156.1913  130.4153  149.9368 H   0  0  0  0  0  0  0  0  0  0  0  0  # atno 10718 bound_to 10713
  154.4199  135.2757  155.1982 H   0  0  0  0  0  0  0  0  0  0  0  0  # atno 10763 bound_to 10752
  154.3933  135.6061  153.5859 H   0  0  0  0  0  0  0  0  0  0  0  0  # atno 10764 bound_to 10752
  152.9833  135.5908  154.4493 H   0  0  0  0  0  0  0  0  0  0  0  0  # atno 10765 bound_to 10752
  140.3842  134.6920  157.4469 H   0  0  0  0  0  0  0  0  0  0  0  0  # atno 11005 bound_to 11000
  145.0306  140.8868  143.5112 LP  0  0  0  0  0  0  0  0  0  0  0  0  # atno 17320 bound_to 7965
  145.1399  139.2579  143.5496 LP  0  0  0  0  0  0  0  0  0  0  0  0  # atno 17321 bound_to 7965
  139.5757  144.7486  151.3772 LP  0  0  0  0  0  0  0  0  0  0  0  0  # atno 17342 bound_to 10162
  140.7058  143.7518  150.7479 LP  0  0  0  0  0  0  0  0  0  0  0  0  # atno 17343 bound_to 10162
  156.7107  130.8969  151.3609 LP  0  0  0  0  0  0  0  0  0  0  0  0  # atno 17370 bound_to 10713
  157.6931  130.9253  150.0567 LP  0  0  0  0  0  0  0  0  0  0  0  0  # atno 17371 bound_to 10713
  140.0455  134.6205  155.8926 LP  0  0  0  0  0  0  0  0  0  0  0  0  # atno 17394 bound_to 11000
  141.1913  133.6571  156.5451 LP  0  0  0  0  0  0  0  0  0  0  0  0  # atno 17395 bound_to 11000

$$$$
