AV-unprocessed.smi:148|AV-procd|sdf|1214|dock6
  -GOLD-   2262018393D 1   1.00000     0.00000
 Structure written by MMmdl.
 63 67  0  0  0  0  0  0  0  0  1 V2000
  153.5935  139.1573  155.3424 O   0  0  0  0  0  0  0  0  0  0  0  0
  152.3058  139.6359  155.0142 C   0  0  0  0  0  0  0  0  0  0  0  0
  151.2474  139.1385  156.0273 C   0  0  2  0  0  0  0  0  0  0  0  0
  151.1695  137.5892  156.0565 C   0  0  0  0  0  0  0  0  0  0  0  0
  150.4621  137.0890  157.2222 N   0  0  0  0  0  0  0  0  0  0  0  0
  150.8368  137.2439  158.5372 C   0  0  0  0  0  0  0  0  0  0  0  0
  150.0417  136.6888  159.4103 N   0  0  0  0  0  0  0  0  0  0  0  0
  149.0421  136.1080  158.6385 C   0  0  0  0  0  0  0  0  0  0  0  0
  147.8799  135.3368  158.9271 C   0  0  0  0  0  0  0  0  0  0  0  0
  147.4828  134.9626  160.1654 N   0  0  0  0  0  0  0  0  0  0  0  0
  147.5525  136.1147  161.0657 C   0  0  0  0  0  0  0  0  0  0  0  0
  146.8945  135.8167  162.4195 C   0  0  0  0  0  0  0  0  0  0  0  0
  147.5060  134.5592  163.0455 C   0  0  0  0  0  0  0  0  0  0  0  0
  147.3798  133.3847  162.0672 C   0  0  0  0  0  0  0  0  0  0  0  0
  148.0406  133.7058  160.7012 C   0  0  1  0  0  0  0  0  0  0  0  0
  147.9826  132.5083  159.6970 C   0  0  1  0  0  0  0  0  0  0  0  0
  146.5852  132.2519  159.0972 C   0  0  0  0  0  0  0  0  0  0  0  0
  146.8062  131.7310  157.6682 C   0  0  0  0  0  0  0  0  0  0  0  0
  148.3160  131.5374  157.5172 C   0  0  0  0  0  0  0  0  0  0  0  0
  148.9221  132.5591  158.4778 C   0  0  2  0  0  0  0  0  0  0  0  0
  150.2538  132.2162  158.7978 O   0  0  0  0  0  0  0  0  0  0  0  0
  147.0982  134.9526  157.8880 N   0  0  0  0  0  0  0  0  0  0  0  0
  147.4446  135.2705  156.6373 C   0  0  0  0  0  0  0  0  0  0  0  0
  148.5073  135.9587  156.2143 N   0  0  0  0  0  0  0  0  0  0  0  0
  149.2832  136.3653  157.2598 C   0  0  0  0  0  0  0  0  0  0  0  0
  149.8701  139.8232  155.8044 C   0  0  2  0  0  0  0  0  0  0  0  0
  149.1959  139.5397  154.4603 C   0  0  0  0  0  0  0  0  0  0  0  0
  148.8019  140.9227  153.9410 C   0  0  0  0  0  0  0  0  0  0  0  0
  148.7385  141.7243  155.1093 O   0  0  0  0  0  0  0  0  0  0  0  0
  149.8477  141.3543  155.9109 C   0  0  0  0  0  0  0  0  0  0  0  0
  153.5283  138.2375  155.5496 H   0  0  0  0  0  0  0  0  0  0  0  0
  152.3233  140.7253  154.9728 H   0  0  0  0  0  0  0  0  0  0  0  0
  152.0843  139.2852  154.0067 H   0  0  0  0  0  0  0  0  0  0  0  0
  151.5883  139.4516  157.0156 H   0  0  0  0  0  0  0  0  0  0  0  0
  150.6601  137.1999  155.1760 H   0  0  0  0  0  0  0  0  0  0  0  0
  152.1668  137.1507  156.0510 H   0  0  0  0  0  0  0  0  0  0  0  0
  151.7296  137.7778  158.8289 H   0  0  0  0  0  0  0  0  0  0  0  0
  148.5980  136.3870  161.2185 H   0  0  0  0  0  0  0  0  0  0  0  0
  147.0642  136.9775  160.6094 H   0  0  0  0  0  0  0  0  0  0  0  0
  147.0157  136.6681  163.0895 H   0  0  0  0  0  0  0  0  0  0  0  0
  145.8213  135.6765  162.2830 H   0  0  0  0  0  0  0  0  0  0  0  0
  148.5558  134.7332  163.2849 H   0  0  0  0  0  0  0  0  0  0  0  0
  147.0039  134.3239  163.9844 H   0  0  0  0  0  0  0  0  0  0  0  0
  147.8205  132.4979  162.5203 H   0  0  0  0  0  0  0  0  0  0  0  0
  146.3197  133.1703  161.9358 H   0  0  0  0  0  0  0  0  0  0  0  0
  149.0943  133.8966  160.9049 H   0  0  0  0  0  0  0  0  0  0  0  0
  148.2129  131.5839  160.2274 H   0  0  0  0  0  0  0  0  0  0  0  0
  146.0423  131.5240  159.7015 H   0  0  0  0  0  0  0  0  0  0  0  0
  145.9702  133.1500  159.0678 H   0  0  0  0  0  0  0  0  0  0  0  0
  146.2562  130.8099  157.4733 H   0  0  0  0  0  0  0  0  0  0  0  0
  146.4591  132.4766  156.9516 H   0  0  0  0  0  0  0  0  0  0  0  0
  148.5824  130.5259  157.8282 H   0  0  0  0  0  0  0  0  0  0  0  0
  148.6568  131.6696  156.4898 H   0  0  0  0  0  0  0  0  0  0  0  0
  148.9066  133.5368  157.9988 H   0  0  0  0  0  0  0  0  0  0  0  0
  150.4860  131.4343  158.3196 H   0  0  0  0  0  0  0  0  0  0  0  0
  146.7765  134.9193  155.8649 H   0  0  0  0  0  0  0  0  0  0  0  0
  149.1794  139.4482  156.5611 H   0  0  0  0  0  0  0  0  0  0  0  0
  149.8250  139.0079  153.7474 H   0  0  0  0  0  0  0  0  0  0  0  0
  148.3056  138.9293  154.6170 H   0  0  0  0  0  0  0  0  0  0  0  0
  149.5712  141.3168  153.2751 H   0  0  0  0  0  0  0  0  0  0  0  0
  147.8537  140.9176  153.4033 H   0  0  0  0  0  0  0  0  0  0  0  0
  149.7311  141.7006  156.9379 H   0  0  0  0  0  0  0  0  0  0  0  0
  150.7428  141.8175  155.4977 H   0  0  0  0  0  0  0  0  0  0  0  0
  1  2  1  0  0  0  0
  1 31  1  0  0  0  0
  2  3  1  0  0  0  0
  2 32  1  0  0  0  0
  2 33  1  0  0  0  0
  3  4  1  0  0  0  0
  3 26  1  0  0  0  0
  3 34  1  0  0  0  0
  4  5  1  0  0  0  0
  4 35  1  0  0  0  0
  4 36  1  0  0  0  0
  5 25  1  0  0  0  0
  5  6  1  0  0  0  0
  6  7  2  0  0  0  0
  6 37  1  0  0  0  0
  7  8  1  0  0  0  0
  8 25  2  0  0  0  0
  8  9  1  0  0  0  0
  9 10  1  0  0  0  0
  9 22  2  0  0  0  0
 10 15  1  0  0  0  0
 10 11  1  0  0  0  0
 11 12  1  0  0  0  0
 11 38  1  0  0  0  0
 11 39  1  0  0  0  0
 12 13  1  0  0  0  0
 12 40  1  0  0  0  0
 12 41  1  0  0  0  0
 13 14  1  0  0  0  0
 13 42  1  0  0  0  0
 13 43  1  0  0  0  0
 14 15  1  0  0  0  0
 14 44  1  0  0  0  0
 14 45  1  0  0  0  0
 15 16  1  0  0  0  0
 15 46  1  0  0  0  0
 16 20  1  0  0  0  0
 16 17  1  0  0  0  0
 16 47  1  0  0  0  0
 17 18  1  0  0  0  0
 17 48  1  0  0  0  0
 17 49  1  0  0  0  0
 18 19  1  0  0  0  0
 18 50  1  0  0  0  0
 18 51  1  0  0  0  0
 19 20  1  0  0  0  0
 19 52  1  0  0  0  0
 19 53  1  0  0  0  0
 20 21  1  0  0  0  0
 20 54  1  0  0  0  0
 21 55  1  0  0  0  0
 22 23  1  0  0  0  0
 23 24  2  0  0  0  0
 23 56  1  0  0  0  0
 24 25  1  0  0  0  0
 26 30  1  0  0  0  0
 26 27  1  0  0  0  0
 26 57  1  0  0  0  0
 27 28  1  0  0  0  0
 27 58  1  0  0  0  0
 27 59  1  0  0  0  0
 28 29  1  0  0  0  0
 28 60  1  0  0  0  0
 28 61  1  0  0  0  0
 29 30  1  0  0  0  0
 30 62  1  0  0  0  0
 30 63  1  0  0  0  0
M  END
> <s_m_source_file>
AV-unprocessed.smi

> <i_m_source_file_index>
148

> <i_lp_mmshare_version>
43012

> <i_f3d_flags>
0

> <s_epik_input>
W0NIMl0xT1tDSDJdW0NIMl1bQ0BIXTFbQ0BIXShbQ0gyXVtPSF0pW0NIMl1uKFtjSF1uMiljKGMyMyluW2NIXW5jM040W0NIMl1bQ0gyXVtDSDJdW0NIMl1bQ0BIXTRbQ0BASF01W0NIMl1bQ0gyXVtDSDJdW0NASF01W09IXQ==

> <s_epik_cmdline>
J2VwaWtfcHl0aG9uJywgJy1waCcsICc3LjAnLCAnLXRuJywgJzgnLCAnLW1hJywgJzIwMCcsICctbWV0YWxfYmluZGluZycsICctaW1hZScsICc8aW5maWxlLm1hZT4nLCAnLW9tYWUnLCAnPG91dGZpbGUubWFlPic=

> <r_lp_tautomer_probability>
1

> <r_epik_Ionization_Penalty>
0.00556303

> <r_epik_Ionization_Penalty_Charging>
0

> <r_epik_Ionization_Penalty_Neutral>
0.00556303

> <r_epik_State_Penalty>
0.00401767

> <r_epik_Charging_Adjusted_Penalty>
0.00401767

> <i_epik_Tot_Q>
0

> <i_epik_Tot_abs_Q>
0

> <r_epik_Metal_State_Penalty>
-0

> <b_epik_Metal_Only>
0

> <s_lp_Force_Field>
OPLS_2005

> <r_lp_Energy>
68.8384

> <b_lp_Chiralities_Consistent>
1

> <s_lp_Variant>
AV-unprocessed.smi:148-13

> <Gold.Version>
5.8.1

> <Gold.Id.Protein>
6NUR|6NUR_protein|mol2

> <Gold.PLP.Fitness>
42.8593

> <Gold.PLP.PLP>
-35.3140

> <Gold.PLP.part.hbond>
-3.0000

> <Gold.PLP.part.metal>
0.0000

> <Gold.PLP.part.buried>
-2.9738

> <Gold.PLP.part.nonpolar>
-31.9007

> <Gold.PLP.part.repulsive>
1.7320

> <Gold.PLP.ligand.clash>
0.0000

> <Gold.PLP.ligand.torsion>
0.7847

> <Gold.PLP.Chemscore.Hbond>
2.9040

> <Gold.PLP.Chemscore.CHOScore>
0.0000

> <Gold.PLP.Chemscore.Metal>
0.0000

> <Gold.Chemscore.Hbonds>
donor molecule, donor type, donor heavy atom, donor atom, acceptor molecule, acceptor atom, score
      P1  H  6896  6908       L1    21  0.96
      P1  H  6896  6909       L1     7  0.80
      P1  H  7997  8010       L1     1  0.83

> <Gold.PLP.Chemscore.Internal.Correction>
0.4027

> <Gold.Rescore>
     Score         DG    S(hbond)    S(metal)    S(lipo)     H(rot)  DE(clash)    DE(int)     intcor
     11.51     -14.75       2.08        0.00      92.51       3.32       1.57       1.67       ----

> <Gold.Chemscore.Fitness>
11.5118

> <Gold.Chemscore.DG>
-14.7502

> <Gold.Chemscore.ZeroCoef>
-5.4800

> <Gold.Chemscore.Hbond>
2.0799

> <Gold.Chemscore.Metal>
0.0000

> <Gold.Chemscore.Lipo>
92.5073

> <Gold.Chemscore.Internal_Hbond>
0.0000

> <Gold.Chemscore.DEClash>
1.5709

> <Gold.Chemscore.DEInternal>
1.6674

> <Gold.Chemscore.Rot>
3.3203

> <Gold.Chemscore.Internal.Correction>
   9.000000E+99

> <Gold.Chemscore.Hbonds>
donor molecule, donor type, donor heavy atom, donor atom, acceptor molecule, acceptor atom, score
      P1  H  6896  6908       L1    21  0.86
      P1  H  6896  6909       L1     7  0.03
      P1  H  7997  8010       L1     1  0.65

> <Gold.Chemscore.Hbond.Weighted>
-6.9468

> <Gold.Chemscore.Metal.Weighted>
-0.0000

> <Gold.Chemscore.Lipo.Weighted>
-10.8234

> <Gold.Chemscore.Internal_Hbond.Weighted>
0.0000

> <Gold.Chemscore.DEClash.Weighted>
1.5709

> <Gold.Chemscore.DEInternal.Weighted>
1.6674

> <Gold.Chemscore.Rot.Weighted>
8.5000

> <Gold.Chemscore.Internal.Correction.Weighted>
   9.000000E+99

> <Gold.Protein.RotatedTorsions>
[ 6907 6896 6895 6894 ] final   83.97 input  -60.11 | X-H torsion
[ 7974 7965 7964 7962 ] final   13.14 input  175.53 | X-H torsion
[ 8008 7997 7996 7995 ] final   92.03 input   59.86 | X-H torsion
[ 10167 10162 10161 10158 ] final   39.68 input  -65.29 | X-H torsion
[ 10718 10713 10712 10709 ] final  -76.12 input   66.30 | X-H torsion
[ 10763 10752 10751 10750 ] final -176.23 input  -60.55 | X-H torsion
[ 11005 11000 10999 10996 ] final -165.30 input  -57.11 | X-H torsion

> <Gold.Protein.ActiveResidues>
 VAL166  LYS551  ARG553  GLY616  TRP617  ASP618  TYR619  PRO620  LYS621  CYS622 
 ASP623  PHE694  ASN695  SER759  ASP760  ASP761  ALA762  ILE779  LEU786  VAL792 
 PHE793  MET794  SER795  GLU796  ALA797  LYS798  CYS799  TRP800  GLU811  SER814 

> <Gold.Protein.RotatedAtoms>
  152.5341  134.2814  159.9008 H   0  0  0  0  0  0  0  0  0  0  0  0  # atno 6907 bound_to 6896
  151.2768  133.4222  159.2632 H   0  0  0  0  0  0  0  0  0  0  0  0  # atno 6908 bound_to 6896
  151.0319  134.9560  159.8172 H   0  0  0  0  0  0  0  0  0  0  0  0  # atno 6909 bound_to 6896
  146.2336  139.9232  142.8507 H   0  0  0  0  0  0  0  0  0  0  0  0  # atno 7974 bound_to 7965
  156.0306  140.3330  155.7135 H   0  0  0  0  0  0  0  0  0  0  0  0  # atno 8008 bound_to 7997
  155.5890  140.0644  157.2781 H   0  0  0  0  0  0  0  0  0  0  0  0  # atno 8009 bound_to 7997
  154.4352  140.1830  156.1043 H   0  0  0  0  0  0  0  0  0  0  0  0  # atno 8010 bound_to 7997
  140.3815  144.1973  150.6130 H   0  0  0  0  0  0  0  0  0  0  0  0  # atno 10167 bound_to 10162
  156.0185  130.4458  150.3146 H   0  0  0  0  0  0  0  0  0  0  0  0  # atno 10718 bound_to 10713
  154.5749  135.2831  155.0790 H   0  0  0  0  0  0  0  0  0  0  0  0  # atno 10763 bound_to 10752
  154.2149  135.6401  153.5130 H   0  0  0  0  0  0  0  0  0  0  0  0  # atno 10764 bound_to 10752
  153.0069  135.5500  154.6384 H   0  0  0  0  0  0  0  0  0  0  0  0  # atno 10765 bound_to 10752
  140.5772  134.5178  157.5172 H   0  0  0  0  0  0  0  0  0  0  0  0  # atno 11005 bound_to 11000
  145.2116  140.9898  143.4097 LP  0  0  0  0  0  0  0  0  0  0  0  0  # atno 17320 bound_to 7965
  144.9686  139.3904  143.6320 LP  0  0  0  0  0  0  0  0  0  0  0  0  # atno 17321 bound_to 7965
  140.4932  143.2341  151.8788 LP  0  0  0  0  0  0  0  0  0  0  0  0  # atno 17342 bound_to 10162
  139.4795  144.5142  151.8890 LP  0  0  0  0  0  0  0  0  0  0  0  0  # atno 17343 bound_to 10162
  157.1248  131.0256  151.2994 LP  0  0  0  0  0  0  0  0  0  0  0  0  # atno 17370 bound_to 10713
  157.4599  130.7647  149.7226 LP  0  0  0  0  0  0  0  0  0  0  0  0  # atno 17371 bound_to 10713
  139.9334  134.7921  156.0869 LP  0  0  0  0  0  0  0  0  0  0  0  0  # atno 17394 bound_to 11000
  141.1019  133.6674  156.2773 LP  0  0  0  0  0  0  0  0  0  0  0  0  # atno 17395 bound_to 11000

$$$$
