#       Name:                AV-unprocessed.smi:1107
#       Creating user name   scv26
#       Creation time:       Fri Mar 27 03:32:42 2020


#       File generated by GOLD software.
#

@<TRIPOS>MOLECULE
AV-unprocessed.smi:1107
    54    55     1
SMALL
NO_CHARGES


@<TRIPOS>ATOM
      1 ****        -3.6345   4.4055   1.5326 C.3            1 S1                 0.0000
      2 ****        -3.1027   2.9915   1.4458 C.2            1 S1                 0.0000
      3 ****        -2.5828   2.5189   2.6396 N.pl3          1 S1                 0.0000
      4 ****        -2.0742   1.2323   2.6602 C.2            1 S1                 0.0000
      5 ****        -1.5119   0.7958   4.0014 C.3            1 S1                 0.0000
      6 ****        -2.0848   0.4559   1.5472 C.2            1 S1                 0.0000
      7 ****        -1.5150  -0.9634   1.5163 C.3            1 S1                 0.0000
      8 ****        -0.0280  -1.1105   1.1739 C.2            1 S1                 0.0000
      9 ****         0.4684  -2.2339   1.1094 O.2            1 S1                 0.0000
     10 ****         0.6670   0.0135   0.9286 N.am           1 S1                 0.0000
     11 ****         2.0721   0.0959   0.5334 C.3            1 S1                 0.0000
     12 ****         2.7110   1.3141   1.2135 C.3            1 S1                 0.0000
     13 ****         2.2089   0.1733  -1.0044 C.3            1 S1                 0.0000
     14 ****         1.5658  -0.9703  -1.7013 N.4            1 S1                 1.0000
     15 ****         1.1058  -0.6288  -3.0717 C.3            1 S1                 0.0000
     16 ****         0.3024  -1.7874  -3.6866 C.3            1 S1                 0.0000
     17 ****         1.1202  -3.0858  -3.6888 C.3            1 S1                 0.0000
     18 ****         1.6184  -3.3950  -2.2708 C.3            1 S1                 0.0000
     19 ****         2.3966  -2.2031  -1.6900 C.3            1 S1                 0.0000
     20 ****        -2.6447   1.0200   0.2965 C.2            1 S1                 0.0000
     21 ****        -2.6559   0.3736  -0.7504 O.2            1 S1                 0.0000
     22 ****        -3.1520   2.3287   0.3301 N.2            1 S1                 0.0000
     23 ****        -2.5587   3.0620   3.4909 H              1 S1                 0.0000
     24 ****        -4.0320   4.7329   0.5711 H              1 S1                 0.0000
     25 ****        -2.8406   5.0934   1.8251 H              1 S1                 0.0000
     26 ****        -4.4353   4.4659   2.2702 H              1 S1                 0.0000
     27 ****        -2.0811  -0.0456   4.3968 H              1 S1                 0.0000
     28 ****        -1.5519   1.6012   4.7361 H              1 S1                 0.0000
     29 ****        -0.4704   0.4901   3.8966 H              1 S1                 0.0000
     30 ****        -2.0896  -1.5766   0.8209 H              1 S1                 0.0000
     31 ****        -1.6723  -1.4310   2.4883 H              1 S1                 0.0000
     32 ****         0.1730   0.8906   1.0127 H              1 S1                 0.0000
     33 ****         2.6021  -0.7849   0.8980 H              1 S1                 0.0000
     34 ****         3.7688   1.3942   0.9611 H              1 S1                 0.0000
     35 ****         2.6373   1.2417   2.2991 H              1 S1                 0.0000
     36 ****         2.2252   2.2416   0.9084 H              1 S1                 0.0000
     37 ****         1.7414   1.1021  -1.3354 H              1 S1                 0.0000
     38 ****         3.2574   0.2426  -1.2986 H              1 S1                 0.0000
     39 ****         0.4759   0.2611  -3.0389 H              1 S1                 0.0000
     40 ****         1.9666  -0.3885  -3.6976 H              1 S1                 0.0000
     41 ****        -0.6176  -1.9353  -3.1192 H              1 S1                 0.0000
     42 ****         0.0010  -1.5352  -4.7037 H              1 S1                 0.0000
     43 ****         0.5164  -3.9120  -4.0653 H              1 S1                 0.0000
     44 ****         1.9701  -2.9853  -4.3650 H              1 S1                 0.0000
     45 ****         0.7702  -3.6269  -1.6252 H              1 S1                 0.0000
     46 ****         2.2504  -4.2835  -2.2830 H              1 S1                 0.0000
     47 ****         3.3098  -2.0350  -2.2630 H              1 S1                 0.0000
     48 ****         2.7035  -2.4417  -0.6720 H              1 S1                 0.0000
     49 ****         0.7299  -1.1800  -1.1741 H              1 S1                 0.0000
     50 ****        -0.0970  -3.0409   1.2796 LP             1 S1                 0.0000
     51 ****         1.4375  -2.3403   0.8868 LP             1 S1                 0.0000
     52 ****        -2.2818  -0.5535  -0.7696 LP             1 S1                 0.0000
     53 ****        -3.0391   0.7755  -1.5820 LP             1 S1                 0.0000
     54 ****        -3.5445   2.7433  -0.4909 LP             1 S1                 0.0000
@<TRIPOS>BOND
    1    1   24 1     
    2    1   25 1     
    3    1   26 1     
    4    1    2 1     
    5    2    3 1     
    6    2   22 2     
    7    3    4 1     
    8    3   23 1     
    9    4    6 2     
   10    4    5 1     
   11    5   27 1     
   12    5   28 1     
   13    5   29 1     
   14    6   20 1     
   15    6    7 1     
   16    7    8 1     
   17    7   30 1     
   18    7   31 1     
   19    8    9 2     
   20    8   10 am    
   21   10   11 1     
   22   10   32 1     
   23   11   12 1     
   24   11   13 1     
   25   11   33 1     
   26   12   34 1     
   27   12   35 1     
   28   12   36 1     
   29   13   14 1     
   30   13   37 1     
   31   13   38 1     
   32   14   19 1     
   33   14   15 1     
   34   14   49 1     
   35   15   16 1     
   36   15   39 1     
   37   15   40 1     
   38   16   17 1     
   39   16   41 1     
   40   16   42 1     
   41   17   18 1     
   42   17   43 1     
   43   17   44 1     
   44   18   19 1     
   45   18   45 1     
   46   18   46 1     
   47   19   47 1     
   48   19   48 1     
   49   20   21 2     
   50   20   22 1     
   51    9   50 1     
   52    9   51 1     
   53   21   52 1     
   54   21   53 1     
   55   22   54 1     
@<TRIPOS>SUBSTRUCTURE
      1 S1             1
@<TRIPOS>SET
LONE_PAIRS      STATIC     ATOMS    <user>   **** ""
5 50 51 52 53 54
DONOR_HYDROGENS      STATIC     ATOMS    <user>   **** ""
3 23 32 49
ATOM$BLUE        STATIC     ATOMS    COLORGROUP SYSTEM
5 50 51 52 53 54
ATOM$RED        STATIC     ATOMS    COLORGROUP SYSTEM
3 23 32 49
