AV-unprocessed.smi:72|AV-procd|sdf|738|dock1
  -GOLD-   2262017 73D 1   1.00000     0.00000
 Structure written by MMmdl.
 28 29  0  0  0  0  0  0  0  0  2 V2000
  153.1777  136.9979  155.2689 N   0  0  0  0  0  0  0  0  0  0  0  0
  152.4320  138.0034  155.1185 C   0  0  0  0  0  0  0  0  0  0  0  0
  151.4424  138.0196  154.0647 N   0  0  0  0  0  0  0  0  0  0  0  0
  150.6540  139.0476  153.9925 C   0  0  0  0  0  0  0  0  0  0  0  0
  150.7132  140.1406  154.9592 N   0  0  0  0  0  0  0  0  0  0  0  0
  149.8010  141.3580  154.8478 C   0  0  1  0  0  0  0  0  0  0  0  0
  149.0292  141.2668  153.6794 O   0  0  0  0  0  0  0  0  0  0  0  0
  147.6736  140.9231  153.9630 C   0  0  1  0  0  0  0  0  0  0  0  0
  147.4858  139.3885  153.9952 C   0  0  0  0  0  0  0  0  0  0  0  0
  147.3934  138.8874  152.6785 O   0  0  0  0  0  0  0  0  0  0  0  0
  147.4594  141.6326  155.3035 C   0  0  1  0  0  0  0  0  0  0  0  0
  146.3884  141.0966  156.0560 O   0  0  0  0  0  0  0  0  0  0  0  0
  148.7933  141.4626  156.0185 C   0  0  2  0  0  0  0  0  0  0  0  0
  149.0353  142.5995  156.8234 O   0  0  0  0  0  0  0  0  0  0  0  0
  151.7762  140.1469  155.9058 C   0  0  0  0  0  0  0  0  0  0  0  0
  151.9185  141.1396  156.6191 O   0  0  0  0  0  0  0  0  0  0  0  0
  152.6017  139.0658  155.9770 N   0  5  0  0  0  0  0  0  0  0  0  0
  150.4864  142.2037  154.7697 H   0  0  0  0  0  0  0  0  0  0  0  0
  147.0140  141.3515  153.2070 H   0  0  0  0  0  0  0  0  0  0  0  0
  147.2666  142.6893  155.1091 H   0  0  0  0  0  0  0  0  0  0  0  0
  148.8023  140.5463  156.6113 H   0  0  0  0  0  0  0  0  0  0  0  0
  152.9869  136.2667  154.5996 H   0  0  0  0  0  0  0  0  0  0  0  0
  149.9045  139.1487  153.2077 H   0  0  0  0  0  0  0  0  0  0  0  0
  148.2761  138.8812  154.5459 H   0  0  0  0  0  0  0  0  0  0  0  0
  146.5489  139.1275  154.4866 H   0  0  0  0  0  0  0  0  0  0  0  0
  147.5653  137.9584  152.6990 H   0  0  0  0  0  0  0  0  0  0  0  0
  145.5934  141.2066  155.5571 H   0  0  0  0  0  0  0  0  0  0  0  0
  148.7784  143.3663  156.3325 H   0  0  0  0  0  0  0  0  0  0  0  0
  1  2  2  0  0  0  0
  1 22  1  0  0  0  0
  2 17  1  0  0  0  0
  2  3  1  0  0  0  0
  3  4  2  0  0  0  0
  4  5  1  0  0  0  0
  4 23  1  0  0  0  0
  5  6  1  0  0  0  0
  5 15  1  0  0  0  0
  6 18  1  0  0  0  0
  6 13  1  0  0  0  0
  6  7  1  0  0  0  0
  7  8  1  0  0  0  0
  8 19  1  0  0  0  0
  8  9  1  0  0  0  0
  8 11  1  0  0  0  0
  9 10  1  0  0  0  0
  9 24  1  0  0  0  0
  9 25  1  0  0  0  0
 10 26  1  0  0  0  0
 11 20  1  0  0  0  0
 11 12  1  0  0  0  0
 11 13  1  0  0  0  0
 12 27  1  0  0  0  0
 13 21  1  0  0  0  0
 13 14  1  0  0  0  0
 14 28  1  0  0  0  0
 15 16  2  0  0  0  0
 15 17  1  0  0  0  0
M  CHG  1  17  -1
M  END
> <s_m_source_file>
AV-unprocessed.smi

> <i_m_source_file_index>
72

> <i_lp_mmshare_version>
43012

> <i_f3d_flags>
0

> <s_epik_input>
W05IMl1jMW5bY0hdbihjKD1PKW4xKVtDQEBIXTJPW0NASF0oW0NIMl1bT0hdKVtDQEBIXShbT0hdKVtDQEhdMltPSF0=

> <s_epik_cmdline>
J2VwaWtfcHl0aG9uJywgJy1waCcsICc3LjAnLCAnLXRuJywgJzgnLCAnLW1hJywgJzIwMCcsICctbWV0YWxfYmluZGluZycsICctaW1hZScsICc8aW5maWxlLm1hZT4nLCAnLW9tYWUnLCAnPG91dGZpbGUubWFlPic=

> <r_lp_tautomer_probability>
7.17554e-07

> <r_epik_Ionization_Penalty>
12.8705

> <r_epik_Ionization_Penalty_Charging>
5.64144

> <r_epik_Ionization_Penalty_Neutral>
7.22905

> <r_epik_State_Penalty>
3.30104

> <r_epik_Charging_Adjusted_Penalty>
8.94249

> <i_epik_Tot_Q>
-1

> <i_epik_Tot_abs_Q>
1

> <r_epik_Metal_State_Penalty>
0.529074

> <b_epik_Metal_Only>
1

> <s_epik_Chemistry_Notes>
This compound contains an acetal/aminal-like group ( X-CH(R)-Y where X, Y are N, S, or O) that may be acid/base labile, releasing an aldehyde.

> <s_lp_Force_Field>
OPLS_2005

> <r_lp_Energy>
34.678

> <b_lp_Chiralities_Consistent>
1

> <s_lp_Variant>
AV-unprocessed.smi:72-76

> <Gold.Version>
5.8.1

> <Gold.Id.Protein>
6NUR|6NUR_protein|mol2

> <Gold.PLP.Fitness>
43.3138

> <Gold.PLP.PLP>
-26.3495

> <Gold.PLP.part.hbond>
-6.7725

> <Gold.PLP.part.metal>
0.0000

> <Gold.PLP.part.buried>
-1.4545

> <Gold.PLP.part.nonpolar>
-18.3553

> <Gold.PLP.part.repulsive>
1.3609

> <Gold.PLP.ligand.clash>
0.0000

> <Gold.PLP.ligand.torsion>
0.3265

> <Gold.PLP.Chemscore.Hbond>
4.8400

> <Gold.PLP.Chemscore.CHOScore>
1.0000

> <Gold.PLP.Chemscore.Metal>
0.0000

> <Gold.Chemscore.Hbonds>
donor molecule, donor type, donor heavy atom, donor atom, acceptor molecule, acceptor atom, score
      L1  H    10    26       P1  7948  0.17
      L1  H    14    28       P1  8028  0.94
      P1  H  7997  8010       L1    17  1.57
      P1  H  8011  8017       L1     7  0.90
      L1  C     4    23       P1  7957  1.00

> <Gold.PLP.Chemscore.Internal.Correction>
0.0973

> <Gold.Rescore>
     Score         DG    S(hbond)    S(metal)    S(lipo)     H(rot)  DE(clash)    DE(int)     intcor
      5.48      -7.34       2.92        0.00      21.00       4.04       1.50       0.36       ----

> <Gold.Chemscore.Fitness>
5.4772

> <Gold.Chemscore.DG>
-7.3437

> <Gold.Chemscore.ZeroCoef>
-5.4800

> <Gold.Chemscore.Hbond>
2.9192

> <Gold.Chemscore.Metal>
0.0000

> <Gold.Chemscore.Lipo>
20.9965

> <Gold.Chemscore.Internal_Hbond>
0.0000

> <Gold.Chemscore.DEClash>
1.5043

> <Gold.Chemscore.DEInternal>
0.3622

> <Gold.Chemscore.Rot>
4.0403

> <Gold.Chemscore.Internal.Correction>
   9.000000E+99

> <Gold.Chemscore.Hbonds>
donor molecule, donor type, donor heavy atom, donor atom, acceptor molecule, acceptor atom, score
      L1  H    10    26       P1  7948  0.17
      L1  H    14    28       P1  8028  0.85
      P1  H  7997  8010       L1    17  0.13
      P1  H  8011  8017       L1     7  0.60

> <Gold.Chemscore.Hbond.Weighted>
-9.7502

> <Gold.Chemscore.Metal.Weighted>
-0.0000

> <Gold.Chemscore.Lipo.Weighted>
-2.4566

> <Gold.Chemscore.Internal_Hbond.Weighted>
0.0000

> <Gold.Chemscore.DEClash.Weighted>
1.5043

> <Gold.Chemscore.DEInternal.Weighted>
0.3622

> <Gold.Chemscore.Rot.Weighted>
10.3431

> <Gold.Chemscore.Internal.Correction.Weighted>
   9.000000E+99

> <Gold.Protein.RotatedTorsions>
[ 6907 6896 6895 6894 ] final   40.89 input  -60.11 | X-H torsion
[ 7974 7965 7964 7962 ] final   32.79 input  175.53 | X-H torsion
[ 8008 7997 7996 7995 ] final   80.63 input   59.86 | X-H torsion
[ 10167 10162 10161 10158 ] final    0.61 input  -65.29 | X-H torsion
[ 10718 10713 10712 10709 ] final  -20.44 input   66.30 | X-H torsion
[ 10763 10752 10751 10750 ] final -148.75 input  -60.55 | X-H torsion
[ 11005 11000 10999 10996 ] final  -78.25 input  -57.11 | X-H torsion

> <Gold.Protein.ActiveResidues>
 VAL166  LYS551  ARG553  GLY616  TRP617  ASP618  TYR619  PRO620  LYS621  CYS622 
 ASP623  PHE694  ASN695  SER759  ASP760  ASP761  ALA762  ILE779  LEU786  VAL792 
 PHE793  MET794  SER795  GLU796  ALA797  LYS798  CYS799  TRP800  GLU811  SER814 

> <Gold.Protein.RotatedAtoms>
  152.1883  134.8694  160.0519 H   0  0  0  0  0  0  0  0  0  0  0  0  # atno 6907 bound_to 6896
  151.9593  133.3685  159.4037 H   0  0  0  0  0  0  0  0  0  0  0  0  # atno 6908 bound_to 6896
  150.6930  134.4181  159.5236 H   0  0  0  0  0  0  0  0  0  0  0  0  # atno 6909 bound_to 6896
  146.1463  139.6480  142.9129 H   0  0  0  0  0  0  0  0  0  0  0  0  # atno 7974 bound_to 7965
  155.8862  140.3441  155.5923 H   0  0  0  0  0  0  0  0  0  0  0  0  # atno 8008 bound_to 7997
  155.7664  140.0839  157.2149 H   0  0  0  0  0  0  0  0  0  0  0  0  # atno 8009 bound_to 7997
  154.4029  140.1526  156.2878 H   0  0  0  0  0  0  0  0  0  0  0  0  # atno 8010 bound_to 7997
  140.6721  143.7020  150.7944 H   0  0  0  0  0  0  0  0  0  0  0  0  # atno 10167 bound_to 10162
  156.5319  130.4657  149.6543 H   0  0  0  0  0  0  0  0  0  0  0  0  # atno 10718 bound_to 10713
  154.8215  135.3326  154.7023 H   0  0  0  0  0  0  0  0  0  0  0  0  # atno 10763 bound_to 10752
  153.7655  135.6929  153.4921 H   0  0  0  0  0  0  0  0  0  0  0  0  # atno 10764 bound_to 10752
  153.2080  135.4492  155.0295 H   0  0  0  0  0  0  0  0  0  0  0  0  # atno 10765 bound_to 10752
  141.1664  133.7056  156.7944 H   0  0  0  0  0  0  0  0  0  0  0  0  # atno 11005 bound_to 11000
  145.4929  141.0438  143.2583 LP  0  0  0  0  0  0  0  0  0  0  0  0  # atno 17320 bound_to 7965
  144.7851  139.6445  143.7138 LP  0  0  0  0  0  0  0  0  0  0  0  0  # atno 17321 bound_to 7965
  140.0707  143.5063  152.2581 LP  0  0  0  0  0  0  0  0  0  0  0  0  # atno 17342 bound_to 10162
  139.5994  144.7577  151.3208 LP  0  0  0  0  0  0  0  0  0  0  0  0  # atno 17343 bound_to 10162
  156.3052  130.7199  151.2079 LP  0  0  0  0  0  0  0  0  0  0  0  0  # atno 17370 bound_to 10713
  157.7420  131.0496  150.5054 LP  0  0  0  0  0  0  0  0  0  0  0  0  # atno 17371 bound_to 10713
  140.2302  134.8691  157.3468 LP  0  0  0  0  0  0  0  0  0  0  0  0  # atno 17394 bound_to 11000
  140.1899  134.4385  155.7722 LP  0  0  0  0  0  0  0  0  0  0  0  0  # atno 17395 bound_to 11000

$$$$
