#       Name:                AV-unprocessed.smi:2582
#       Creating user name   scv26
#       Creation time:       Fri Mar 27 14:14:55 2020


#       File generated by GOLD software.
#

@<TRIPOS>MOLECULE
AV-unprocessed.smi:2582
    40    42     1
SMALL
NO_CHARGES


@<TRIPOS>ATOM
      1 ****        -0.3996  -2.9036  -0.0489 O.2            1 S1                 0.0000
      2 ****         0.1919  -1.8245  -0.0389 C.2            1 S1                 0.0000
      3 ****         1.6534  -1.7236  -0.0412 C.2            1 S1                 0.0000
      4 ****         2.3187  -0.5437  -0.0431 C.2            1 S1                 0.0000
      5 ****         3.7194  -0.5294  -0.0428 N.3            1 S1                 0.0000
      6 ****         4.4483   0.3309  -0.9713 C.3            1 S1                 0.0000
      7 ****         5.5071   0.4651   0.1177 C.3            1 S1                 0.0000
      8 ****         4.4156   0.0534   1.0994 C.3            1 S1                 0.0000
      9 ****         1.4900   0.6526  -0.0344 C.2            1 S1                 0.0000
     10 ****         0.2017   0.6088  -0.0305 N.2            1 S1                 0.0000
     11 ****        -0.4496  -0.6153  -0.0281 N.am           1 S1                 0.0000
     12 ****        -1.9234  -0.5234  -0.0166 C.3            1 S1                 0.0000
     13 ****        -2.4420   0.1904   1.2511 C.3            1 S1                 0.0000
     14 ****        -3.9754   0.2824   1.2194 C.3            1 S1                 0.0000
     15 ****        -4.4597   0.9534  -0.0773 C.3            1 S1                 0.0000
     16 ****        -3.9359   0.2419  -1.2639 N.4            1 S1                 1.0000
     17 ****        -2.4585   0.1708  -1.2892 C.3            1 S1                 0.0000
     18 ****         2.2224  -2.6426  -0.0437 H              1 S1                 0.0000
     19 ****         4.7911  -0.1837  -1.8694 H              1 S1                 0.0000
     20 ****         3.9478   1.2725  -1.1996 H              1 S1                 0.0000
     21 ****         6.3149  -0.2641   0.0331 H              1 S1                 0.0000
     22 ****         5.8814   1.4793   0.2596 H              1 S1                 0.0000
     23 ****         3.8918   0.9020   1.5427 H              1 S1                 0.0000
     24 ****         4.7294  -0.6780   1.8448 H              1 S1                 0.0000
     25 ****         2.0248   1.6021  -0.0271 H              1 S1                 0.0000
     26 ****        -2.3655  -1.5210  -0.0046 H              1 S1                 0.0000
     27 ****        -2.1197  -0.3462   2.1441 H              1 S1                 0.0000
     28 ****        -2.0284   1.1968   1.3253 H              1 S1                 0.0000
     29 ****        -4.4046  -0.7174   1.2984 H              1 S1                 0.0000
     30 ****        -4.3329   0.8412   2.0848 H              1 S1                 0.0000
     31 ****        -5.5493   0.9582  -0.1168 H              1 S1                 0.0000
     32 ****        -4.1351   1.9943  -0.1104 H              1 S1                 0.0000
     33 ****        -4.3020  -0.6995  -1.2621 H              1 S1                 0.0000
     34 ****        -2.0643   1.1835  -1.3834 H              1 S1                 0.0000
     35 ****        -2.1479  -0.3773  -2.1793 H              1 S1                 0.0000
     36 ****        -4.2556   0.7142  -2.0975 H              1 S1                 0.0000
     37 ****        -1.3994  -2.9258  -0.0494 LP             1 S1                 0.0000
     38 ****         0.1195  -3.7583  -0.0565 LP             1 S1                 0.0000
     39 ****         3.7434  -1.5180  -0.1913 LP             1 S1                 0.0000
     40 ****        -0.3277   1.4572  -0.0292 LP             1 S1                 0.0000
@<TRIPOS>BOND
    1    1    2 2     
    2    2   11 am    
    3    2    3 1     
    4    3    4 2     
    5    3   18 1     
    6    4    5 1     
    7    4    9 1     
    8    5    8 1     
    9    5    6 1     
   10    6    7 1     
   11    6   19 1     
   12    6   20 1     
   13    7    8 1     
   14    7   21 1     
   15    7   22 1     
   16    8   23 1     
   17    8   24 1     
   18    9   10 2     
   19    9   25 1     
   20   10   11 1     
   21   11   12 1     
   22   12   17 1     
   23   12   13 1     
   24   12   26 1     
   25   13   14 1     
   26   13   27 1     
   27   13   28 1     
   28   14   15 1     
   29   14   29 1     
   30   14   30 1     
   31   15   16 1     
   32   15   31 1     
   33   15   32 1     
   34   16   17 1     
   35   16   33 1     
   36   16   36 1     
   37   17   34 1     
   38   17   35 1     
   39    1   37 1     
   40    1   38 1     
   41    5   39 1     
   42   10   40 1     
@<TRIPOS>SUBSTRUCTURE
      1 S1             1
@<TRIPOS>SET
LONE_PAIRS      STATIC     ATOMS    <user>   **** ""
4 37 38 39 40
DONOR_HYDROGENS      STATIC     ATOMS    <user>   **** ""
2 33 36
ATOM$BLUE        STATIC     ATOMS    COLORGROUP SYSTEM
4 37 38 39 40
ATOM$RED        STATIC     ATOMS    COLORGROUP SYSTEM
2 33 36
