AV-unprocessed.smi:37|AV-procd|sdf|303|dock8
  -GOLD-   2262016113D 1   1.00000     0.00000
 Structure written by MMmdl.
 44 45  0  0  0  0  0  0  0  0  1 V2000
  142.2671  134.9735  153.1797 C   0  0  0  0  0  0  0  0  0  0  0  0
  143.6590  135.2741  153.7548 C   0  0  0  0  0  0  0  0  0  0  0  0
  143.7527  135.0740  155.2690 C   0  0  0  0  0  0  0  0  0  0  0  0
  142.7930  134.7042  155.9479 O   0  0  0  0  0  0  0  0  0  0  0  0
  144.9800  135.3479  155.7357 O   0  0  0  0  0  0  0  0  0  0  0  0
  145.3945  134.8055  156.9784 C   0  0  0  0  0  0  0  0  0  0  0  0
  146.6794  135.5046  157.4340 C   0  0  2  0  0  0  0  0  0  0  0  0
  147.4765  135.8603  156.3041 O   0  0  0  0  0  0  0  0  0  0  0  0
  148.8137  135.5238  156.5261 C   0  0  1  0  0  0  0  0  0  0  0  0
  149.7127  136.6537  156.0813 N   0  0  0  0  0  0  0  0  0  0  0  0
  149.2091  137.8784  155.6589 C   0  0  0  0  0  0  0  0  0  0  0  0
  150.0029  138.8998  155.2588 C   0  0  0  0  0  0  0  0  0  0  0  0
  149.4459  140.0584  154.8671 F   0  0  0  0  0  0  0  0  0  0  0  0
  151.4561  138.7570  155.2534 C   0  0  0  0  0  0  0  0  0  0  0  0
  152.2562  139.6228  154.9046 O   0  0  0  0  0  0  0  0  0  0  0  0
  151.9156  137.5119  155.6934 N   0  0  0  0  0  0  0  0  0  0  0  0
  151.1091  136.4522  156.1112 C   0  0  0  0  0  0  0  0  0  0  0  0
  151.6187  135.3976  156.4878 O   0  0  0  0  0  0  0  0  0  0  0  0
  148.9525  135.2016  158.0185 C   0  0  1  0  0  0  0  0  0  0  0  0
  149.2235  136.8466  159.1278 Br  0  0  0  0  0  0  0  0  0  0  0  0
  147.5802  134.6075  158.2859 C   0  0  1  0  0  0  0  0  0  0  0  0
  147.2166  134.6450  159.6597 O   0  0  0  0  0  0  0  0  0  0  0  0
  147.6860  133.7144  160.5098 C   0  0  0  0  0  0  0  0  0  0  0  0
  148.2241  132.6534  160.1933 O   0  0  0  0  0  0  0  0  0  0  0  0
  147.4880  134.1017  161.9732 C   0  0  0  0  0  0  0  0  0  0  0  0
  146.0032  134.2219  162.3423 C   0  0  0  0  0  0  0  0  0  0  0  0
  152.9149  137.3692  155.7125 H   0  0  0  0  0  0  0  0  0  0  0  0
  142.2539  135.1386  152.1024 H   0  0  0  0  0  0  0  0  0  0  0  0
  141.5062  135.6182  153.6208 H   0  0  0  0  0  0  0  0  0  0  0  0
  141.9784  133.9369  153.3577 H   0  0  0  0  0  0  0  0  0  0  0  0
  144.4000  134.6340  153.2752 H   0  0  0  0  0  0  0  0  0  0  0  0
  143.9357  136.3033  153.5245 H   0  0  0  0  0  0  0  0  0  0  0  0
  144.6066  134.9704  157.7147 H   0  0  0  0  0  0  0  0  0  0  0  0
  145.5503  133.7288  156.8981 H   0  0  0  0  0  0  0  0  0  0  0  0
  146.4451  136.4170  157.9852 H   0  0  0  0  0  0  0  0  0  0  0  0
  149.0481  134.6734  155.8821 H   0  0  0  0  0  0  0  0  0  0  0  0
  148.1425  138.0484  155.6522 H   0  0  0  0  0  0  0  0  0  0  0  0
  149.7773  134.5135  158.2058 H   0  0  0  0  0  0  0  0  0  0  0  0
  147.5382  133.5898  157.8930 H   0  0  0  0  0  0  0  0  0  0  0  0
  147.9712  133.3556  162.6043 H   0  0  0  0  0  0  0  0  0  0  0  0
  147.9939  135.0493  162.1596 H   0  0  0  0  0  0  0  0  0  0  0  0
  145.8902  134.5315  163.3813 H   0  0  0  0  0  0  0  0  0  0  0  0
  145.4826  133.2710  162.2236 H   0  0  0  0  0  0  0  0  0  0  0  0
  145.4986  134.9617  161.7199 H   0  0  0  0  0  0  0  0  0  0  0  0
  1  2  1  0  0  0  0
  1 28  1  0  0  0  0
  1 29  1  0  0  0  0
  1 30  1  0  0  0  0
  2  3  1  0  0  0  0
  2 31  1  0  0  0  0
  2 32  1  0  0  0  0
  3  4  2  0  0  0  0
  3  5  1  0  0  0  0
  5  6  1  0  0  0  0
  6  7  1  0  0  0  0
  6 33  1  0  0  0  0
  6 34  1  0  0  0  0
  7 21  1  0  0  0  0
  7  8  1  0  0  0  0
  7 35  1  0  0  0  0
  8  9  1  0  0  0  0
  9 10  1  0  0  0  0
  9 19  1  0  0  0  0
  9 36  1  0  0  0  0
 10 17  1  0  0  0  0
 10 11  1  0  0  0  0
 11 12  2  0  0  0  0
 11 37  1  0  0  0  0
 12 13  1  0  0  0  0
 12 14  1  0  0  0  0
 14 15  2  0  0  0  0
 14 16  1  0  0  0  0
 16 27  1  0  0  0  0
 16 17  1  0  0  0  0
 17 18  2  0  0  0  0
 19 20  1  0  0  0  0
 19 21  1  0  0  0  0
 19 38  1  0  0  0  0
 21 22  1  0  0  0  0
 21 39  1  0  0  0  0
 22 23  1  0  0  0  0
 23 24  2  0  0  0  0
 23 25  1  0  0  0  0
 25 26  1  0  0  0  0
 25 40  1  0  0  0  0
 25 41  1  0  0  0  0
 26 42  1  0  0  0  0
 26 43  1  0  0  0  0
 26 44  1  0  0  0  0
M  END
> <s_m_source_file>
AV-unprocessed.smi

> <i_m_source_file_index>
37

> <i_lp_mmshare_version>
43012

> <i_f3d_flags>
0

> <s_epik_input>
W0NIM11bQ0gyXUMoPU8pT1tDSDJdW0NAQEhdMU9bQ0BASF0objJbY0hdYyhGKWMoPU8pW25IXWMyPU8pW0NAQEhdKEJyKVtDQEhdMU9DKD1PKVtDSDJdW0NIM10=

> <s_epik_cmdline>
J2VwaWtfcHl0aG9uJywgJy1waCcsICc3LjAnLCAnLXRuJywgJzgnLCAnLW1hJywgJzIwMCcsICctbWV0YWxfYmluZGluZycsICctaW1hZScsICc8aW5maWxlLm1hZT4nLCAnLW9tYWUnLCAnPG91dGZpbGUubWFlPic=

> <r_lp_tautomer_probability>
0.999537

> <r_epik_Ionization_Penalty>
0.104106

> <r_epik_Ionization_Penalty_Charging>
0.104106

> <r_epik_Ionization_Penalty_Neutral>
3.94675e-16

> <r_epik_State_Penalty>
0.0940182

> <r_epik_Charging_Adjusted_Penalty>
0.198124

> <i_epik_Tot_Q>
0

> <i_epik_Tot_abs_Q>
0

> <r_epik_Metal_State_Penalty>
3.05314

> <b_epik_Metal_Only>
0

> <s_epik_Chemistry_Notes>
This compound has an ester and may undergo hydrolysis at high or low pH. This compound contains an acetal/aminal-like group ( X-CH(R)-Y where X, Y are N, S, or O) that may be acid/base labile, releasing an aldehyde.

> <s_lp_Force_Field>
OPLS_2005

> <r_lp_Energy>
25.209

> <b_lp_Chiralities_Consistent>
1

> <s_lp_Variant>
AV-unprocessed.smi:37-1

> <Gold.Version>
5.8.1

> <Gold.Id.Protein>
6NUR|6NUR_protein|mol2

> <Gold.PLP.Fitness>
32.9478

> <Gold.PLP.PLP>
-28.5480

> <Gold.PLP.part.hbond>
-2.9804

> <Gold.PLP.part.metal>
0.0000

> <Gold.PLP.part.buried>
-6.0194

> <Gold.PLP.part.nonpolar>
-20.7022

> <Gold.PLP.part.repulsive>
0.3185

> <Gold.PLP.ligand.clash>
0.0000

> <Gold.PLP.ligand.torsion>
1.1045

> <Gold.PLP.Chemscore.Hbond>
2.1520

> <Gold.PLP.Chemscore.CHOScore>
0.0000

> <Gold.PLP.Chemscore.Metal>
0.0000

> <Gold.Chemscore.Hbonds>
donor molecule, donor type, donor heavy atom, donor atom, acceptor molecule, acceptor atom, score
      P1  H  7989  7998       L1    15  0.77
      P1  H 10752 10764       L1    18  0.72
      P1  H 11000 11005       L1     4  0.42

> <Gold.PLP.Chemscore.Internal.Correction>
0.1529

> <Gold.Rescore>
     Score         DG    S(hbond)    S(metal)    S(lipo)     H(rot)  DE(clash)    DE(int)     intcor
      8.07      -9.38       2.34        0.00      39.29       3.33       0.08       1.23       ----

> <Gold.Chemscore.Fitness>
8.0667

> <Gold.Chemscore.DG>
-9.3755

> <Gold.Chemscore.ZeroCoef>
-5.4800

> <Gold.Chemscore.Hbond>
2.3424

> <Gold.Chemscore.Metal>
0.0000

> <Gold.Chemscore.Lipo>
39.2940

> <Gold.Chemscore.Internal_Hbond>
0.0000

> <Gold.Chemscore.DEClash>
0.0769

> <Gold.Chemscore.DEInternal>
1.2318

> <Gold.Chemscore.Rot>
3.3303

> <Gold.Chemscore.Internal.Correction>
   9.000000E+99

> <Gold.Chemscore.Hbonds>
donor molecule, donor type, donor heavy atom, donor atom, acceptor molecule, acceptor atom, score
      P1  H  7989  7998       L1    15  0.72
      P1  H 10752 10764       L1    18  0.12
      P1  H 11000 11005       L1     4  0.41

> <Gold.Chemscore.Hbond.Weighted>
-7.8237

> <Gold.Chemscore.Metal.Weighted>
-0.0000

> <Gold.Chemscore.Lipo.Weighted>
-4.5974

> <Gold.Chemscore.Internal_Hbond.Weighted>
0.0000

> <Gold.Chemscore.DEClash.Weighted>
0.0769

> <Gold.Chemscore.DEInternal.Weighted>
1.2318

> <Gold.Chemscore.Rot.Weighted>
8.5256

> <Gold.Chemscore.Internal.Correction.Weighted>
   9.000000E+99

> <Gold.Protein.RotatedTorsions>
[ 6907 6896 6895 6894 ] final  -28.05 input  -60.11 | X-H torsion
[ 7974 7965 7964 7962 ] final   65.70 input  175.53 | X-H torsion
[ 8008 7997 7996 7995 ] final -168.94 input   59.86 | X-H torsion
[ 10167 10162 10161 10158 ] final  133.04 input  -65.29 | X-H torsion
[ 10718 10713 10712 10709 ] final  150.79 input   66.30 | X-H torsion
[ 10763 10752 10751 10750 ] final  -21.66 input  -60.55 | X-H torsion
[ 11005 11000 10999 10996 ] final  -50.29 input  -57.11 | X-H torsion

> <Gold.Protein.ActiveResidues>
 VAL166  LYS551  ARG553  GLY616  TRP617  ASP618  TYR619  PRO620  LYS621  CYS622 
 ASP623  PHE694  ASN695  SER759  ASP760  ASP761  ALA762  ILE779  LEU786  VAL792 
 PHE793  MET794  SER795  GLU796  ALA797  LYS798  CYS799  TRP800  GLU811  SER814 

> <Gold.Protein.RotatedAtoms>
  151.1384  135.0166  159.8614 H   0  0  0  0  0  0  0  0  0  0  0  0  # atno 6907 bound_to 6896
  152.5452  134.1528  159.8536 H   0  0  0  0  0  0  0  0  0  0  0  0  # atno 6908 bound_to 6896
  151.1601  133.4805  159.2627 H   0  0  0  0  0  0  0  0  0  0  0  0  # atno 6909 bound_to 6896
  145.8353  139.3163  143.0963 H   0  0  0  0  0  0  0  0  0  0  0  0  # atno 7974 bound_to 7965
  155.8983  140.1036  157.1369 H   0  0  0  0  0  0  0  0  0  0  0  0  # atno 8008 bound_to 7997
  154.4023  140.1297  156.4467 H   0  0  0  0  0  0  0  0  0  0  0  0  # atno 8009 bound_to 7997
  155.7453  140.3466  155.5126 H   0  0  0  0  0  0  0  0  0  0  0  0  # atno 8010 bound_to 7997
  139.5314  144.6634  151.4939 H   0  0  0  0  0  0  0  0  0  0  0  0  # atno 10167 bound_to 10162
  157.2789  131.0831  151.1546 H   0  0  0  0  0  0  0  0  0  0  0  0  # atno 10718 bound_to 10713
  153.6396  135.6985  153.5246 H   0  0  0  0  0  0  0  0  0  0  0  0  # atno 10763 bound_to 10752
  153.2793  135.4190  155.1063 H   0  0  0  0  0  0  0  0  0  0  0  0  # atno 10764 bound_to 10752
  154.8503  135.3598  154.5940 H   0  0  0  0  0  0  0  0  0  0  0  0  # atno 10765 bound_to 10752
  141.0808  133.6654  156.3710 H   0  0  0  0  0  0  0  0  0  0  0  0  # atno 11005 bound_to 11000
  145.9525  140.8898  143.0252 LP  0  0  0  0  0  0  0  0  0  0  0  0  # atno 17320 bound_to 7965
  144.6737  140.1700  143.7415 LP  0  0  0  0  0  0  0  0  0  0  0  0  # atno 17321 bound_to 7965
  140.6494  143.8728  150.6770 LP  0  0  0  0  0  0  0  0  0  0  0  0  # atno 17342 bound_to 10162
  140.2088  143.3900  152.1734 LP  0  0  0  0  0  0  0  0  0  0  0  0  # atno 17343 bound_to 10162
  157.2987  130.6832  149.6152 LP  0  0  0  0  0  0  0  0  0  0  0  0  # atno 17370 bound_to 10713
  155.9664  130.4398  150.5275 LP  0  0  0  0  0  0  0  0  0  0  0  0  # atno 17371 bound_to 10713
  140.5473  134.6062  157.5397 LP  0  0  0  0  0  0  0  0  0  0  0  0  # atno 17394 bound_to 11000
  139.9622  134.7434  156.0214 LP  0  0  0  0  0  0  0  0  0  0  0  0  # atno 17395 bound_to 11000

$$$$
