#       Name:                AV-unprocessed.smi:787
#       Creating user name   scv26
#       Creation time:       Fri Mar 27 01:15:37 2020


#       File generated by GOLD software.
#

@<TRIPOS>MOLECULE
AV-unprocessed.smi:787
    52    54     1
SMALL
NO_CHARGES


@<TRIPOS>ATOM
      1 ****        -3.2411  -0.6633   1.9216 C.3            1 S1                 0.0000
      2 ****        -2.5303  -0.2937   0.7080 N.pl3          1 S1                 0.0000
      3 ****        -3.2327   0.0706  -0.4498 C.ar           1 S1                 0.0000
      4 ****        -4.5846   0.1139  -0.4371 N.ar           1 S1                 0.0000
      5 ****        -5.2100   0.4724  -1.5666 C.ar           1 S1                 0.0000
      6 ****        -4.6834   0.8074  -2.7551 N.ar           1 S1                 0.0000
      7 ****        -3.3444   0.7651  -2.7784 C.ar           1 S1                 0.0000
      8 ****        -2.5378   1.0575  -3.8651 N.2            1 S1                 0.0000
      9 ****        -1.3215   0.8615  -3.3619 C.2            1 S1                 0.0000
     10 ****        -1.2380   0.4694  -2.0751 N.pl3          1 S1                 0.0000
     11 ****        -0.0272   0.1915  -1.3244 C.3            1 S1                 0.0000
     12 ****         0.2361  -1.3223  -1.1799 C.3            1 S1                 0.0000
     13 ****         0.4898  -1.8736  -2.4559 O.3            1 S1                 0.0000
     14 ****         1.4412  -1.6285  -0.2718 C.3            1 S1                 0.0000
     15 ****         1.1727  -1.2601   1.1437 N.4            1 S1                 1.0000
     16 ****         0.4437  -2.3169   1.8822 C.3            1 S1                 0.0000
     17 ****         2.3766  -0.7978   1.8769 C.3            1 S1                 0.0000
     18 ****         2.8338   0.5685   1.3957 C.ar           1 S1                 0.0000
     19 ****         2.0671   1.7138   1.6981 C.ar           1 S1                 0.0000
     20 ****         2.4777   2.9813   1.2416 C.ar           1 S1                 0.0000
     21 ****         3.6583   3.1092   0.4849 C.ar           1 S1                 0.0000
     22 ****         4.4285   1.9692   0.1846 C.ar           1 S1                 0.0000
     23 ****         4.0182   0.7012   0.6397 C.ar           1 S1                 0.0000
     24 ****        -2.5604   0.3978  -1.6439 C.ar           1 S1                 0.0000
     25 ****        -2.5296  -0.9151   2.7080 H              1 S1                 0.0000
     26 ****        -3.8784  -1.5309   1.7468 H              1 S1                 0.0000
     27 ****        -3.8610   0.1619   2.2736 H              1 S1                 0.0000
     28 ****        -1.5220  -0.3014   0.7042 H              1 S1                 0.0000
     29 ****        -6.2884   0.4951  -1.5134 H              1 S1                 0.0000
     30 ****        -0.4383   1.0068  -3.9671 H              1 S1                 0.0000
     31 ****         0.8148   0.6819  -1.8158 H              1 S1                 0.0000
     32 ****        -0.1244   0.6639  -0.3468 H              1 S1                 0.0000
     33 ****        -0.6525  -1.8191  -0.7914 H              1 S1                 0.0000
     34 ****        -0.2713  -1.7394  -3.0005 H              1 S1                 0.0000
     35 ****         1.7060  -2.6862  -0.3225 H              1 S1                 0.0000
     36 ****         2.3056  -1.0890  -0.6591 H              1 S1                 0.0000
     37 ****         1.0630  -3.2066   2.0038 H              1 S1                 0.0000
     38 ****        -0.4694  -2.6066   1.3627 H              1 S1                 0.0000
     39 ****         0.1552  -1.9640   2.8729 H              1 S1                 0.0000
     40 ****         2.1532  -0.7124   2.9416 H              1 S1                 0.0000
     41 ****         3.1783  -1.5324   1.7837 H              1 S1                 0.0000
     42 ****         1.1592   1.6232   2.2765 H              1 S1                 0.0000
     43 ****         1.8875   3.8562   1.4721 H              1 S1                 0.0000
     44 ****         3.9742   4.0816   0.1361 H              1 S1                 0.0000
     45 ****         5.3347   2.0679  -0.3950 H              1 S1                 0.0000
     46 ****         4.6147  -0.1680   0.4030 H              1 S1                 0.0000
     47 ****         0.5586  -0.4592   1.1146 H              1 S1                 0.0000
     48 ****        -5.1007  -0.1143   0.3885 LP             1 S1                 0.0000
     49 ****        -5.2374   1.0639  -3.5471 LP             1 S1                 0.0000
     50 ****        -2.8006   1.3417  -4.7872 LP             1 S1                 0.0000
     51 ****         0.6731  -2.8529  -2.3691 LP             1 S1                 0.0000
     52 ****         1.2815  -1.4214  -2.8666 LP             1 S1                 0.0000
@<TRIPOS>BOND
    1    1    2 1     
    2    1   25 1     
    3    1   26 1     
    4    1   27 1     
    5    2    3 1     
    6    2   28 1     
    7    3   24 ar    
    8    3    4 ar    
    9    4    5 ar    
   10    5    6 ar    
   11    5   29 1     
   12    6    7 ar    
   13    7   24 ar    
   14    7    8 1     
   15    8    9 2     
   16    9   10 1     
   17    9   30 1     
   18   10   11 1     
   19   10   24 1     
   20   11   12 1     
   21   11   31 1     
   22   11   32 1     
   23   12   13 1     
   24   12   14 1     
   25   12   33 1     
   26   13   34 1     
   27   14   15 1     
   28   14   35 1     
   29   14   36 1     
   30   15   16 1     
   31   15   17 1     
   32   15   47 1     
   33   16   37 1     
   34   16   38 1     
   35   16   39 1     
   36   17   18 1     
   37   17   40 1     
   38   17   41 1     
   39   18   23 ar    
   40   18   19 ar    
   41   19   20 ar    
   42   19   42 1     
   43   20   21 ar    
   44   20   43 1     
   45   21   22 ar    
   46   21   44 1     
   47   22   23 ar    
   48   22   45 1     
   49   23   46 1     
   50    4   48 1     
   51    6   49 1     
   52    8   50 1     
   53   13   51 1     
   54   13   52 1     
@<TRIPOS>SUBSTRUCTURE
      1 S1             1
@<TRIPOS>SET
LONE_PAIRS      STATIC     ATOMS    <user>   **** ""
5 48 49 50 51 52
DONOR_HYDROGENS      STATIC     ATOMS    <user>   **** ""
3 28 34 47
ATOM$BLUE        STATIC     ATOMS    COLORGROUP SYSTEM
5 48 49 50 51 52
ATOM$RED        STATIC     ATOMS    COLORGROUP SYSTEM
3 28 34 47
