AV-unprocessed.smi:3335|AV-procd|sdf|12844|dock9
  -GOLD-   2272019233D 1   1.00000     0.00000
 Structure written by MMmdl.
 47 48  0  0  0  0  0  0  0  0  2 V2000
  151.0612  142.0882  158.1279 C   0  0  0  0  0  0  0  0  0  0  0  0
  150.8282  140.8956  157.2457 C   0  0  0  0  0  0  0  0  0  0  0  0
  151.0182  139.5217  157.5660 C   0  0  0  0  0  0  0  0  0  0  0  0
  150.7194  138.7141  156.5621 N   0  0  0  0  0  0  0  0  0  0  0  0
  150.3273  139.5397  155.5661 N   0  0  0  0  0  0  0  0  0  0  0  0
  149.9174  138.9931  154.2788 C   0  0  1  0  0  0  0  0  0  0  0  0
  150.5050  137.5803  154.0963 C   0  0  0  0  0  0  0  0  0  0  0  0
  148.3771  139.0248  154.0913 C   0  0  1  0  0  0  0  0  0  0  0  0
  147.7305  140.3013  154.6687 C   0  0  0  0  0  0  0  0  0  0  0  0
  148.0457  138.8983  152.6512 N   0  3  0  0  0  0  0  0  0  0  0  0
  146.6877  139.3401  152.2518 C   0  0  1  0  0  0  0  0  0  0  0  0
  146.7265  140.8327  151.8881 C   0  0  0  0  0  0  0  0  0  0  0  0
  146.1591  138.5222  151.0556 C   0  0  0  0  0  0  0  0  0  0  0  0
  146.6903  138.6713  149.9540 O   0  0  0  0  0  0  0  0  0  0  0  0
  145.1222  137.6764  151.2382 N   0  0  0  0  0  0  0  0  0  0  0  0
  144.4103  137.4338  152.4933 C   0  0  0  0  0  0  0  0  0  0  0  0
  143.1778  136.6106  152.1191 C   0  0  0  0  0  0  0  0  0  0  0  0
  143.5838  135.8953  150.8387 C   0  0  0  0  0  0  0  0  0  0  0  0
  144.5547  136.8638  150.1630 C   0  0  0  0  0  0  0  0  0  0  0  0
  150.3867  140.8623  155.9532 C   0  0  0  0  0  0  0  0  0  0  0  0
  151.8092  141.8838  158.8943 H   0  0  0  0  0  0  0  0  0  0  0  0
  150.1490  142.3917  158.6418 H   0  0  0  0  0  0  0  0  0  0  0  0
  151.4126  142.9494  157.5594 H   0  0  0  0  0  0  0  0  0  0  0  0
  151.3626  139.0901  158.4942 H   0  0  0  0  0  0  0  0  0  0  0  0
  150.3615  139.6339  153.5152 H   0  0  0  0  0  0  0  0  0  0  0  0
  150.3347  137.2007  153.0889 H   0  0  0  0  0  0  0  0  0  0  0  0
  150.0635  136.8694  154.7957 H   0  0  0  0  0  0  0  0  0  0  0  0
  151.5829  137.5815  154.2619 H   0  0  0  0  0  0  0  0  0  0  0  0
  147.9621  138.1668  154.6228 H   0  0  0  0  0  0  0  0  0  0  0  0
  147.8905  140.3866  155.7435 H   0  0  0  0  0  0  0  0  0  0  0  0
  146.6518  140.3146  154.5143 H   0  0  0  0  0  0  0  0  0  0  0  0
  148.1416  141.1965  154.2010 H   0  0  0  0  0  0  0  0  0  0  0  0
  148.7302  139.4230  152.1265 H   0  0  0  0  0  0  0  0  0  0  0  0
  146.0319  139.2191  153.1125 H   0  0  0  0  0  0  0  0  0  0  0  0
  145.7416  141.2027  151.6016 H   0  0  0  0  0  0  0  0  0  0  0  0
  147.4061  141.0251  151.0566 H   0  0  0  0  0  0  0  0  0  0  0  0
  147.0635  141.4315  152.7349 H   0  0  0  0  0  0  0  0  0  0  0  0
  145.0557  136.8647  153.1636 H   0  0  0  0  0  0  0  0  0  0  0  0
  144.1218  138.3567  152.9974 H   0  0  0  0  0  0  0  0  0  0  0  0
  142.8708  135.9243  152.9088 H   0  0  0  0  0  0  0  0  0  0  0  0
  142.3404  137.2788  151.9133 H   0  0  0  0  0  0  0  0  0  0  0  0
  144.1038  134.9692  151.0877 H   0  0  0  0  0  0  0  0  0  0  0  0
  142.7321  135.6405  150.2073 H   0  0  0  0  0  0  0  0  0  0  0  0
  144.0228  137.5158  149.4687 H   0  0  0  0  0  0  0  0  0  0  0  0
  145.3225  136.3271  149.6035 H   0  0  0  0  0  0  0  0  0  0  0  0
  150.1110  141.6645  155.2843 H   0  0  0  0  0  0  0  0  0  0  0  0
  148.1243  137.9241  152.3947 H   0  0  0  0  0  0  0  0  0  0  0  0
  1  2  1  0  0  0  0
  1 21  1  0  0  0  0
  1 22  1  0  0  0  0
  1 23  1  0  0  0  0
  2 20  2  0  0  0  0
  2  3  1  0  0  0  0
  3  4  2  0  0  0  0
  3 24  1  0  0  0  0
  4  5  1  0  0  0  0
  5  6  1  0  0  0  0
  5 20  1  0  0  0  0
  6  7  1  0  0  0  0
  6  8  1  0  0  0  0
  6 25  1  0  0  0  0
  7 26  1  0  0  0  0
  7 27  1  0  0  0  0
  7 28  1  0  0  0  0
  8  9  1  0  0  0  0
  8 10  1  0  0  0  0
  8 29  1  0  0  0  0
  9 30  1  0  0  0  0
  9 31  1  0  0  0  0
  9 32  1  0  0  0  0
 10 11  1  0  0  0  0
 10 33  1  0  0  0  0
 10 47  1  0  0  0  0
 11 12  1  0  0  0  0
 11 13  1  0  0  0  0
 11 34  1  0  0  0  0
 12 35  1  0  0  0  0
 12 36  1  0  0  0  0
 12 37  1  0  0  0  0
 13 14  2  0  0  0  0
 13 15  1  0  0  0  0
 15 19  1  0  0  0  0
 15 16  1  0  0  0  0
 16 17  1  0  0  0  0
 16 38  1  0  0  0  0
 16 39  1  0  0  0  0
 17 18  1  0  0  0  0
 17 40  1  0  0  0  0
 17 41  1  0  0  0  0
 18 19  1  0  0  0  0
 18 42  1  0  0  0  0
 18 43  1  0  0  0  0
 19 44  1  0  0  0  0
 19 45  1  0  0  0  0
 20 46  1  0  0  0  0
M  CHG  1  10   1
M  END
> <s_m_source_file>
AV-unprocessed.smi

> <i_m_source_file_index>
3335

> <i_lp_mmshare_version>
43012

> <i_f3d_flags>
0

> <s_epik_input>
W0NIM11jMVtjSF1ubihbY0hdMSlbQ0BIXShbQ0gzXSlbQ0BIXShbQ0gzXSlbTkhdW0NASF0oW0NIM10pQyg9TylOMltDSDJdW0NIMl1bQ0gyXVtDSDJdMg==

> <s_epik_cmdline>
J2VwaWtfcHl0aG9uJywgJy1waCcsICc3LjAnLCAnLXRuJywgJzgnLCAnLW1hJywgJzIwMCcsICctbWV0YWxfYmluZGluZycsICctaW1hZScsICc8aW5maWxlLm1hZT4nLCAnLW9tYWUnLCAnPG91dGZpbGUubWFlPic=

> <r_lp_tautomer_probability>
1

> <r_epik_Ionization_Penalty>
0.14175

> <r_epik_Ionization_Penalty_Charging>
0.141731

> <r_epik_Ionization_Penalty_Neutral>
1.91261e-05

> <r_epik_State_Penalty>
0.131043

> <r_epik_Charging_Adjusted_Penalty>
0.272773

> <i_epik_Tot_Q>
1

> <i_epik_Tot_abs_Q>
1

> <r_epik_Metal_State_Penalty>
0.131408

> <b_epik_Metal_Only>
0

> <s_lp_Force_Field>
OPLS_2005

> <r_lp_Energy>
36.0865

> <b_lp_Chiralities_Consistent>
1

> <s_lp_Variant>
AV-unprocessed.smi:3335-8

> <Gold.Version>
5.8.1

> <Gold.Id.Protein>
6NUR|6NUR_protein|mol2

> <Gold.PLP.Fitness>
45.4381

> <Gold.PLP.PLP>
-36.4735

> <Gold.PLP.part.hbond>
-2.7431

> <Gold.PLP.part.metal>
0.0000

> <Gold.PLP.part.buried>
0.2641

> <Gold.PLP.part.nonpolar>
-34.7711

> <Gold.PLP.part.repulsive>
1.1769

> <Gold.PLP.ligand.clash>
0.0000

> <Gold.PLP.ligand.torsion>
1.5407

> <Gold.PLP.Chemscore.Hbond>
3.9920

> <Gold.PLP.Chemscore.CHOScore>
0.0000

> <Gold.PLP.Chemscore.Metal>
0.0000

> <Gold.Chemscore.Hbonds>
donor molecule, donor type, donor heavy atom, donor atom, acceptor molecule, acceptor atom, score
      L1  H    10    33       P1  7957  0.75
      L1  H    10    47       P1  7948  2.00
      P1  H  7954  7966       L1    14  0.45

> <Gold.PLP.Chemscore.Internal.Correction>
0.0700

> <Gold.Rescore>
     Score         DG    S(hbond)    S(metal)    S(lipo)     H(rot)  DE(clash)    DE(int)     intcor
     18.16     -20.57       2.95        0.00      81.56       1.68       0.90       1.51       ----

> <Gold.Chemscore.Fitness>
18.1564

> <Gold.Chemscore.DG>
-20.5664

> <Gold.Chemscore.ZeroCoef>
-5.4800

> <Gold.Chemscore.Hbond>
2.9457

> <Gold.Chemscore.Metal>
0.0000

> <Gold.Chemscore.Lipo>
81.5623

> <Gold.Chemscore.Internal_Hbond>
0.0000

> <Gold.Chemscore.DEClash>
0.9013

> <Gold.Chemscore.DEInternal>
1.5088

> <Gold.Chemscore.Rot>
1.6778

> <Gold.Chemscore.Internal.Correction>
   9.000000E+99

> <Gold.Chemscore.Hbonds>
donor molecule, donor type, donor heavy atom, donor atom, acceptor molecule, acceptor atom, score
      L1  H    10    33       P1  7957  0.75
      L1  H    10    47       P1  7948  0.99
      P1  H  7954  7966       L1    14  0.36

> <Gold.Chemscore.Hbond.Weighted>
-9.8388

> <Gold.Chemscore.Metal.Weighted>
-0.0000

> <Gold.Chemscore.Lipo.Weighted>
-9.5428

> <Gold.Chemscore.Internal_Hbond.Weighted>
0.0000

> <Gold.Chemscore.DEClash.Weighted>
0.9013

> <Gold.Chemscore.DEInternal.Weighted>
1.5088

> <Gold.Chemscore.Rot.Weighted>
4.2952

> <Gold.Chemscore.Internal.Correction.Weighted>
   9.000000E+99

> <Gold.Protein.RotatedTorsions>
[ 6907 6896 6895 6894 ] final -104.67 input  -60.11 | X-H torsion
[ 7974 7965 7964 7962 ] final -125.59 input  175.53 | X-H torsion
[ 8008 7997 7996 7995 ] final   19.49 input   59.86 | X-H torsion
[ 10167 10162 10161 10158 ] final -162.16 input  -65.29 | X-H torsion
[ 10718 10713 10712 10709 ] final  -78.88 input   66.30 | X-H torsion
[ 10763 10752 10751 10750 ] final  -35.17 input  -60.55 | X-H torsion
[ 11005 11000 10999 10996 ] final  176.89 input  -57.11 | X-H torsion

> <Gold.Protein.ActiveResidues>
 VAL166  LYS551  ARG553  GLY616  TRP617  ASP618  TYR619  PRO620  LYS621  CYS622 
 ASP623  PHE694  ASN695  SER759  ASP760  ASP761  ALA762  ILE779  LEU786  VAL792 
 PHE793  MET794  SER795  GLU796  ALA797  LYS798  CYS799  TRP800  GLU811  SER814 

> <Gold.Protein.RotatedAtoms>
  150.7298  134.0243  159.3711 H   0  0  0  0  0  0  0  0  0  0  0  0  # atno 6907 bound_to 6896
  151.8209  135.0650  160.0434 H   0  0  0  0  0  0  0  0  0  0  0  0  # atno 6908 bound_to 6896
  152.3004  133.5613  159.5651 H   0  0  0  0  0  0  0  0  0  0  0  0  # atno 6909 bound_to 6896
  144.9960  140.7776  143.4525 H   0  0  0  0  0  0  0  0  0  0  0  0  # atno 7974 bound_to 7965
  154.9215  140.3028  155.5214 H   0  0  0  0  0  0  0  0  0  0  0  0  # atno 8008 bound_to 7997
  156.3009  140.2370  156.4201 H   0  0  0  0  0  0  0  0  0  0  0  0  # atno 8009 bound_to 7997
  154.8326  140.0417  157.1476 H   0  0  0  0  0  0  0  0  0  0  0  0  # atno 8010 bound_to 7997
  139.6412  144.0256  152.2093 H   0  0  0  0  0  0  0  0  0  0  0  0  # atno 10167 bound_to 10162
  156.0106  130.4530  150.3563 H   0  0  0  0  0  0  0  0  0  0  0  0  # atno 10718 bound_to 10713
  153.8588  135.6842  153.4785 H   0  0  0  0  0  0  0  0  0  0  0  0  # atno 10763 bound_to 10752
  153.1354  135.4680  154.9411 H   0  0  0  0  0  0  0  0  0  0  0  0  # atno 10764 bound_to 10752
  154.7768  135.3256  154.8024 H   0  0  0  0  0  0  0  0  0  0  0  0  # atno 10765 bound_to 10752
  140.3781  134.6970  157.4434 H   0  0  0  0  0  0  0  0  0  0  0  0  # atno 11005 bound_to 11000
  145.2219  139.2155  143.5088 LP  0  0  0  0  0  0  0  0  0  0  0  0  # atno 17320 bound_to 7965
  146.3442  140.2079  142.8590 LP  0  0  0  0  0  0  0  0  0  0  0  0  # atno 17321 bound_to 7965
  139.9946  144.6337  150.7784 LP  0  0  0  0  0  0  0  0  0  0  0  0  # atno 17342 bound_to 10162
  140.7492  143.2934  151.3269 LP  0  0  0  0  0  0  0  0  0  0  0  0  # atno 17343 bound_to 10162
  157.1653  131.0355  151.2821 LP  0  0  0  0  0  0  0  0  0  0  0  0  # atno 17370 bound_to 10713
  157.4276  130.7472  149.6963 LP  0  0  0  0  0  0  0  0  0  0  0  0  # atno 17371 bound_to 10713
  140.0499  134.6145  155.8874 LP  0  0  0  0  0  0  0  0  0  0  0  0  # atno 17394 bound_to 11000
  141.1932  133.6578  156.5539 LP  0  0  0  0  0  0  0  0  0  0  0  0  # atno 17395 bound_to 11000

$$$$
