#       Name:                AV-unprocessed.smi:1433
#       Creating user name   scv26
#       Creation time:       Fri Mar 27 05:49:46 2020


#       File generated by GOLD software.
#

@<TRIPOS>MOLECULE
AV-unprocessed.smi:1433
    50    51     1
SMALL
NO_CHARGES


@<TRIPOS>ATOM
      1 ****        -3.2326  -0.6612  -1.9572 C.3            1 S1                 0.0000
      2 ****        -3.4196  -1.3744  -0.6069 C.3            1 S1                 0.0000
      3 ****        -2.8625  -0.5728   0.5868 C.3            1 S1                 0.0000
      4 ****        -1.3987  -0.5737   0.6500 N.3            1 S1                 0.0000
      5 ****        -0.8702   0.1993   1.7950 C.3            1 S1                 0.0000
      6 ****        -1.3953   1.6522   1.8569 C.3            1 S1                 0.0000
      7 ****         0.6788   0.2465   1.8574 C.3            1 S1                 0.0000
      8 ****         1.2510   0.8557   0.6588 N.am           1 S1                 0.0000
      9 ****         2.0443   0.2434  -0.2345 C.2            1 S1                 0.0000
     10 ****         2.4239  -0.9221  -0.1254 O.2            1 S1                 0.0000
     11 ****         2.4635   1.0692  -1.4520 C.3            1 S1                 0.0000
     12 ****         3.2993   2.1943  -1.0706 N.pl3          1 S1                 0.0000
     13 ****         4.6330   2.1902  -0.7183 C.2            1 S1                 0.0000
     14 ****         4.9838   3.4801  -0.4400 C.2            1 S1                 0.0000
     15 ****         3.7821   4.2111  -0.6545 C.2            1 S1                 0.0000
     16 ****         2.7755   3.4394  -1.0316 N.2            1 S1                 0.0000
     17 ****        -0.9487  -1.9668   0.6552 C.3            1 S1                 0.0000
     18 ****        -1.4484  -2.7485  -0.5721 C.3            1 S1                 0.0000
     19 ****        -1.0312  -4.2220  -0.5250 C.3            1 S1                 0.0000
     20 ****        -2.8709  -2.6913  -0.6223 O.3            1 S1                 0.0000
     21 ****        -3.7607   0.2924  -1.9676 H              1 S1                 0.0000
     22 ****        -3.6267  -1.2655  -2.7744 H              1 S1                 0.0000
     23 ****        -2.1842  -0.4530  -2.1700 H              1 S1                 0.0000
     24 ****        -4.4932  -1.4933  -0.4574 H              1 S1                 0.0000
     25 ****        -3.2465   0.4433   0.5103 H              1 S1                 0.0000
     26 ****        -3.2644  -0.9878   1.5123 H              1 S1                 0.0000
     27 ****        -1.2033  -0.2895   2.7118 H              1 S1                 0.0000
     28 ****        -0.8950   2.2207   2.6414 H              1 S1                 0.0000
     29 ****        -2.4593   1.6933   2.0879 H              1 S1                 0.0000
     30 ****        -1.2342   2.1779   0.9150 H              1 S1                 0.0000
     31 ****         0.9931   0.8485   2.7105 H              1 S1                 0.0000
     32 ****         1.0995  -0.7397   2.0533 H              1 S1                 0.0000
     33 ****         0.9980   1.8164   0.4768 H              1 S1                 0.0000
     34 ****         3.0189   0.4454  -2.1539 H              1 S1                 0.0000
     35 ****         1.5764   1.4298  -1.9756 H              1 S1                 0.0000
     36 ****         5.2131   1.2793  -0.6937 H              1 S1                 0.0000
     37 ****         5.9514   3.8460  -0.1304 H              1 S1                 0.0000
     38 ****         3.6122   5.2724  -0.5482 H              1 S1                 0.0000
     39 ****         0.1374  -2.0223   0.6549 H              1 S1                 0.0000
     40 ****        -1.2855  -2.4601   1.5683 H              1 S1                 0.0000
     41 ****        -1.0335  -2.3054  -1.4779 H              1 S1                 0.0000
     42 ****         0.0544  -4.3214  -0.4975 H              1 S1                 0.0000
     43 ****        -1.3911  -4.7567  -1.4044 H              1 S1                 0.0000
     44 ****        -1.4360  -4.7193   0.3568 H              1 S1                 0.0000
     45 ****        -1.0327  -0.1049  -0.1539 LP             1 S1                 0.0000
     46 ****         2.1412  -1.4683   0.6631 LP             1 S1                 0.0000
     47 ****         3.0152  -1.3230  -0.8252 LP             1 S1                 0.0000
     48 ****         1.8375   3.7157  -1.2408 LP             1 S1                 0.0000
     49 ****        -3.1705  -3.1430  -1.4626 LP             1 S1                 0.0000
     50 ****        -3.2299  -3.1868   0.1687 LP             1 S1                 0.0000
@<TRIPOS>BOND
    1    1    2 1     
    2    1   21 1     
    3    1   22 1     
    4    1   23 1     
    5    2   20 1     
    6    2    3 1     
    7    2   24 1     
    8    3    4 1     
    9    3   25 1     
   10    3   26 1     
   11    4    5 1     
   12    4   17 1     
   13    5    6 1     
   14    5    7 1     
   15    5   27 1     
   16    6   28 1     
   17    6   29 1     
   18    6   30 1     
   19    7    8 1     
   20    7   31 1     
   21    7   32 1     
   22    8    9 am    
   23    8   33 1     
   24    9   10 2     
   25    9   11 1     
   26   11   12 1     
   27   11   34 1     
   28   11   35 1     
   29   12   16 1     
   30   12   13 1     
   31   13   14 2     
   32   13   36 1     
   33   14   15 1     
   34   14   37 1     
   35   15   16 2     
   36   15   38 1     
   37   17   18 1     
   38   17   39 1     
   39   17   40 1     
   40   18   19 1     
   41   18   20 1     
   42   18   41 1     
   43   19   42 1     
   44   19   43 1     
   45   19   44 1     
   46    4   45 1     
   47   10   46 1     
   48   10   47 1     
   49   16   48 1     
   50   20   49 1     
   51   20   50 1     
@<TRIPOS>SUBSTRUCTURE
      1 S1             1
@<TRIPOS>SET
LONE_PAIRS      STATIC     ATOMS    <user>   **** ""
6 45 46 47 48 49 50
DONOR_HYDROGENS      STATIC     ATOMS    <user>   **** ""
1 33
ATOM$BLUE        STATIC     ATOMS    COLORGROUP SYSTEM
6 45 46 47 48 49 50
ATOM$RED        STATIC     ATOMS    COLORGROUP SYSTEM
1 33
