AV-unprocessed.smi:1396|AV-procd|sdf|5678|dock6
  -GOLD-   22720 5303D 1   1.00000     0.00000
 Structure written by MMmdl.
 46 47  0  0  0  0  0  0  0  0  3 V2000
  143.0695  137.0618  154.4948 C   0  0  0  0  0  0  0  0  0  0  0  0
  143.6158  138.3962  154.7102 N   0  5  0  0  0  0  0  0  0  0  0  0
  144.0762  138.8345  155.9126 C   0  0  0  0  0  0  0  0  0  0  0  0
  144.3176  138.2194  156.9566 O   0  0  0  0  0  0  0  0  0  0  0  0
  144.2839  140.3534  155.9034 C   0  0  0  0  0  0  0  0  0  0  0  0
  145.3049  140.7283  154.8929 N   0  3  2  0  0  0  0  0  0  0  0  0
  146.5711  139.9565  155.0231 C   0  0  0  0  0  0  0  0  0  0  0  0
  147.5501  140.2937  153.8850 C   0  0  0  0  0  0  0  0  0  0  0  0
  147.8420  141.8050  153.8025 C   0  0  2  0  0  0  0  0  0  0  0  0
  148.6442  142.2679  154.9347 N   0  0  0  0  0  0  0  0  0  0  0  0
  149.6508  141.5883  155.5026 C   0  0  0  0  0  0  0  0  0  0  0  0
  150.0201  140.4782  155.1209 O   0  0  0  0  0  0  0  0  0  0  0  0
  150.1993  142.2858  156.5119 N   0  0  0  0  0  0  0  0  0  0  0  0
  151.2391  141.8879  157.3949 C   0  0  0  0  0  0  0  0  0  0  0  0
  151.5598  142.7401  158.4708 C   0  0  0  0  0  0  0  0  0  0  0  0
  152.5674  142.3554  159.3754 C   0  0  0  0  0  0  0  0  0  0  0  0
  153.2183  141.1210  159.1815 C   0  0  0  0  0  0  0  0  0  0  0  0
  154.2021  140.7458  160.0732 O   0  0  0  0  0  0  0  0  0  0  0  0
  154.1126  141.2146  161.4143 C   0  0  0  0  0  0  0  0  0  0  0  0
  152.9092  140.2883  158.1571 N   0  0  0  0  0  0  0  0  0  0  0  0
  151.9442  140.6640  157.2911 C   0  0  0  0  0  0  0  0  0  0  0  0
  146.5160  142.5806  153.7303 C   0  0  0  0  0  0  0  0  0  0  0  0
  145.5561  142.1919  154.8697 C   0  0  0  0  0  0  0  0  0  0  0  0
  142.6821  136.9415  153.4833 H   0  0  0  0  0  0  0  0  0  0  0  0
  142.2433  136.8359  155.1695 H   0  0  0  0  0  0  0  0  0  0  0  0
  143.8156  136.2794  154.6359 H   0  0  0  0  0  0  0  0  0  0  0  0
  143.3231  140.8013  155.6450 H   0  0  0  0  0  0  0  0  0  0  0  0
  144.5535  140.7506  156.8847 H   0  0  0  0  0  0  0  0  0  0  0  0
  147.0296  140.1659  155.9908 H   0  0  0  0  0  0  0  0  0  0  0  0
  146.3659  138.8861  155.0008 H   0  0  0  0  0  0  0  0  0  0  0  0
  148.4744  139.7281  154.0075 H   0  0  0  0  0  0  0  0  0  0  0  0
  147.1203  139.9615  152.9390 H   0  0  0  0  0  0  0  0  0  0  0  0
  148.4031  142.0067  152.8882 H   0  0  0  0  0  0  0  0  0  0  0  0
  148.4179  143.1769  155.3113 H   0  0  0  0  0  0  0  0  0  0  0  0
  149.8552  143.2256  156.6438 H   0  0  0  0  0  0  0  0  0  0  0  0
  151.0441  143.6800  158.6034 H   0  0  0  0  0  0  0  0  0  0  0  0
  152.8341  142.9936  160.2051 H   0  0  0  0  0  0  0  0  0  0  0  0
  154.9589  140.8343  161.9863 H   0  0  0  0  0  0  0  0  0  0  0  0
  153.2007  140.8640  161.9000 H   0  0  0  0  0  0  0  0  0  0  0  0
  154.1464  142.3041  161.4590 H   0  0  0  0  0  0  0  0  0  0  0  0
  151.7280  139.9438  156.5177 H   0  0  0  0  0  0  0  0  0  0  0  0
  146.7041  143.6549  153.7483 H   0  0  0  0  0  0  0  0  0  0  0  0
  146.0331  142.3745  152.7739 H   0  0  0  0  0  0  0  0  0  0  0  0
  144.6134  142.7236  154.7356 H   0  0  0  0  0  0  0  0  0  0  0  0
  145.9612  142.5060  155.8328 H   0  0  0  0  0  0  0  0  0  0  0  0
  144.9052  140.4910  153.9961 H   0  0  0  0  0  0  0  0  0  0  0  0
  1  2  1  0  0  0  0
  1 24  1  0  0  0  0
  1 25  1  0  0  0  0
  1 26  1  0  0  0  0
  2  3  1  0  0  0  0
  3  4  2  0  0  0  0
  3  5  1  0  0  0  0
  5  6  1  0  0  0  0
  5 27  1  0  0  0  0
  5 28  1  0  0  0  0
  6 23  1  0  0  0  0
  6  7  1  0  0  0  0
  6 46  1  0  0  0  0
  7  8  1  0  0  0  0
  7 29  1  0  0  0  0
  7 30  1  0  0  0  0
  8  9  1  0  0  0  0
  8 31  1  0  0  0  0
  8 32  1  0  0  0  0
  9 10  1  0  0  0  0
  9 22  1  0  0  0  0
  9 33  1  0  0  0  0
 10 11  1  0  0  0  0
 10 34  1  0  0  0  0
 11 12  2  0  0  0  0
 11 13  1  0  0  0  0
 13 14  1  0  0  0  0
 13 35  1  0  0  0  0
 14 21  1  0  0  0  0
 14 15  2  0  0  0  0
 15 16  1  0  0  0  0
 15 36  1  0  0  0  0
 16 17  2  0  0  0  0
 16 37  1  0  0  0  0
 17 18  1  0  0  0  0
 17 20  1  0  0  0  0
 18 19  1  0  0  0  0
 19 38  1  0  0  0  0
 19 39  1  0  0  0  0
 19 40  1  0  0  0  0
 20 21  2  0  0  0  0
 21 41  1  0  0  0  0
 22 23  1  0  0  0  0
 22 42  1  0  0  0  0
 22 43  1  0  0  0  0
 23 44  1  0  0  0  0
 23 45  1  0  0  0  0
M  CHG  1   2  -1
M  CHG  1   6   1
M  END
> <s_m_source_file>
AV-unprocessed.smi

> <i_m_source_file_index>
1396

> <i_lp_mmshare_version>
43012

> <i_f3d_flags>
0

> <s_epik_input>
W0NIM11bTkhdQyg9TylbQ0gyXU4xW0NIMl1bQ0gyXVtDSF0oW0NIMl1bQ0gyXTEpW05IXUMoPU8pW05IXWMyW2NIXVtjSF1jKE9bQ0gzXSluW2NIXTI=

> <s_epik_cmdline>
J2VwaWtfcHl0aG9uJywgJy1waCcsICc3LjAnLCAnLXRuJywgJzgnLCAnLW1hJywgJzIwMCcsICctbWV0YWxfYmluZGluZycsICctaW1hZScsICc8aW5maWxlLm1hZT4nLCAnLW9tYWUnLCAnPG91dGZpbGUubWFlPic=

> <r_lp_tautomer_probability>
1

> <r_epik_Ionization_Penalty>
6.13954

> <r_epik_Ionization_Penalty_Charging>
6.13946

> <r_epik_Ionization_Penalty_Neutral>
7.8452e-05

> <r_epik_State_Penalty>
6.9595

> <r_epik_Charging_Adjusted_Penalty>
13.099

> <i_epik_Tot_Q>
0

> <i_epik_Tot_abs_Q>
2

> <r_epik_Metal_State_Penalty>
2.89145

> <b_epik_Metal_Only>
1

> <s_lp_Force_Field>
OPLS_2005

> <r_lp_Energy>
12.8202

> <b_lp_Chiralities_Consistent>
1

> <s_lp_Variant>
AV-unprocessed.smi:1396-5

> <Gold.Version>
5.8.1

> <Gold.Id.Protein>
6NUR|6NUR_protein|mol2

> <Gold.PLP.Fitness>
47.9132

> <Gold.PLP.PLP>
-34.1188

> <Gold.PLP.part.hbond>
-4.3922

> <Gold.PLP.part.metal>
0.0000

> <Gold.PLP.part.buried>
-5.3621

> <Gold.PLP.part.nonpolar>
-23.8733

> <Gold.PLP.part.repulsive>
1.1547

> <Gold.PLP.ligand.clash>
0.0000

> <Gold.PLP.ligand.torsion>
0.7265

> <Gold.PLP.Chemscore.Hbond>
5.0681

> <Gold.PLP.Chemscore.CHOScore>
0.0000

> <Gold.PLP.Chemscore.Metal>
0.0000

> <Gold.Chemscore.Hbonds>
donor molecule, donor type, donor heavy atom, donor atom, acceptor molecule, acceptor atom, score
      L1  H     6    46       P1 10175  2.00
      L1  H    10    34       P1  8028  0.99
      L1  H    13    35       P1  8028  0.84
      P1  H  7989  7998       L1    12  0.28
      P1  H  7997  8009       L1    20  0.93

> <Gold.PLP.Chemscore.Internal.Correction>
0.0429

> <Gold.Rescore>
     Score         DG    S(hbond)    S(metal)    S(lipo)     H(rot)  DE(clash)    DE(int)     intcor
     16.73     -20.37       3.28        0.00      75.97       1.93       0.26       3.37       ----

> <Gold.Chemscore.Fitness>
16.7338

> <Gold.Chemscore.DG>
-20.3706

> <Gold.Chemscore.ZeroCoef>
-5.4800

> <Gold.Chemscore.Hbond>
3.2751

> <Gold.Chemscore.Metal>
0.0000

> <Gold.Chemscore.Lipo>
75.9686

> <Gold.Chemscore.Internal_Hbond>
0.0000

> <Gold.Chemscore.DEClash>
0.2626

> <Gold.Chemscore.DEInternal>
3.3743

> <Gold.Chemscore.Rot>
1.9283

> <Gold.Chemscore.Internal.Correction>
   9.000000E+99

> <Gold.Chemscore.Hbonds>
donor molecule, donor type, donor heavy atom, donor atom, acceptor molecule, acceptor atom, score
      L1  H     6    46       P1 10175  0.98
      L1  H    10    34       P1  8028  0.93
      L1  H    13    35       P1  8028  0.77
      P1  H  7989  7998       L1    12  0.13
      P1  H  7997  8009       L1    20  0.24

> <Gold.Chemscore.Hbond.Weighted>
-10.9388

> <Gold.Chemscore.Metal.Weighted>
-0.0000

> <Gold.Chemscore.Lipo.Weighted>
-8.8883

> <Gold.Chemscore.Internal_Hbond.Weighted>
0.0000

> <Gold.Chemscore.DEClash.Weighted>
0.2626

> <Gold.Chemscore.DEInternal.Weighted>
3.3743

> <Gold.Chemscore.Rot.Weighted>
4.9365

> <Gold.Chemscore.Internal.Correction.Weighted>
   9.000000E+99

> <Gold.Protein.RotatedTorsions>
[ 6907 6896 6895 6894 ] final   65.00 input  -60.11 | X-H torsion
[ 7974 7965 7964 7962 ] final  -74.79 input  175.53 | X-H torsion
[ 8008 7997 7996 7995 ] final  158.92 input   59.86 | X-H torsion
[ 10167 10162 10161 10158 ] final   68.88 input  -65.29 | X-H torsion
[ 10718 10713 10712 10709 ] final  -11.93 input   66.30 | X-H torsion
[ 10763 10752 10751 10750 ] final   -0.51 input  -60.55 | X-H torsion
[ 11005 11000 10999 10996 ] final -105.55 input  -57.11 | X-H torsion

> <Gold.Protein.ActiveResidues>
 VAL166  LYS551  ARG553  GLY616  TRP617  ASP618  TYR619  PRO620  LYS621  CYS622 
 ASP623  PHE694  ASN695  SER759  ASP760  ASP761  ALA762  ILE779  LEU786  VAL792 
 PHE793  MET794  SER795  GLU796  ALA797  LYS798  CYS799  TRP800  GLU811  SER814 

> <Gold.Protein.RotatedAtoms>
  152.4374  134.5659  159.9907 H   0  0  0  0  0  0  0  0  0  0  0  0  # atno 6907 bound_to 6896
  151.5765  133.3377  159.3008 H   0  0  0  0  0  0  0  0  0  0  0  0  # atno 6908 bound_to 6896
  150.8275  134.7547  159.6889 H   0  0  0  0  0  0  0  0  0  0  0  0  # atno 6909 bound_to 6896
  145.6344  140.9328  143.1069 H   0  0  0  0  0  0  0  0  0  0  0  0  # atno 7974 bound_to 7965
  156.2272  140.1845  156.7334 H   0  0  0  0  0  0  0  0  0  0  0  0  # atno 8008 bound_to 7997
  154.5961  140.0643  156.9333 H   0  0  0  0  0  0  0  0  0  0  0  0  # atno 8009 bound_to 7997
  155.2254  140.3310  155.4312 H   0  0  0  0  0  0  0  0  0  0  0  0  # atno 8010 bound_to 7997
  140.0738  144.5130  150.7209 H   0  0  0  0  0  0  0  0  0  0  0  0  # atno 10167 bound_to 10162
  156.6520  130.4957  149.6059 H   0  0  0  0  0  0  0  0  0  0  0  0  # atno 10718 bound_to 10713
  153.3329  135.6976  153.6932 H   0  0  0  0  0  0  0  0  0  0  0  0  # atno 10763 bound_to 10752
  153.5728  135.3513  155.2845 H   0  0  0  0  0  0  0  0  0  0  0  0  # atno 10764 bound_to 10752
  154.8621  135.4276  154.2522 H   0  0  0  0  0  0  0  0  0  0  0  0  # atno 10765 bound_to 10752
  141.1048  133.8817  157.1747 H   0  0  0  0  0  0  0  0  0  0  0  0  # atno 11005 bound_to 11000
  144.7181  139.8125  143.7391 LP  0  0  0  0  0  0  0  0  0  0  0  0  # atno 17320 bound_to 7965
  146.1331  139.4370  143.0156 LP  0  0  0  0  0  0  0  0  0  0  0  0  # atno 17321 bound_to 7965
  140.7112  143.2507  151.4575 LP  0  0  0  0  0  0  0  0  0  0  0  0  # atno 17342 bound_to 10162
  139.5820  144.1689  152.1980 LP  0  0  0  0  0  0  0  0  0  0  0  0  # atno 17343 bound_to 10162
  156.2077  130.6659  151.1236 LP  0  0  0  0  0  0  0  0  0  0  0  0  # atno 17370 bound_to 10713
  157.7138  131.0720  150.6404 LP  0  0  0  0  0  0  0  0  0  0  0  0  # atno 17371 bound_to 10713
  139.9914  135.0063  156.9983 LP  0  0  0  0  0  0  0  0  0  0  0  0  # atno 17394 bound_to 11000
  140.4930  134.1174  155.7236 LP  0  0  0  0  0  0  0  0  0  0  0  0  # atno 17395 bound_to 11000

$$$$
