#       Name:                AV-unprocessed.smi:3249
#       Creating user name   scv26
#       Creation time:       Fri Mar 27 18:30:49 2020


#       File generated by GOLD software.
#

@<TRIPOS>MOLECULE
AV-unprocessed.smi:3249
    47    48     1
SMALL
NO_CHARGES


@<TRIPOS>ATOM
      1 ****        -4.4396  -1.4057   2.1054 C.3            1 S1                 0.0000
      2 ****        -3.5201  -0.3071   1.6560 C.2            1 S1                 0.0000
      3 ****        -2.6683   0.5033   2.4584 C.2            1 S1                 0.0000
      4 ****        -1.9875   1.3892   1.7507 N.2            1 S1                 0.0000
      5 ****        -2.3715   1.1736   0.4726 N.pl3          1 S1                 0.0000
      6 ****        -1.8353   1.9934  -0.6091 C.3            1 S1                 0.0000
      7 ****        -2.4765   3.3925  -0.5531 C.3            1 S1                 0.0000
      8 ****        -0.2817   2.0301  -0.5955 C.3            1 S1                 0.0000
      9 ****         0.2972   2.7728  -1.8155 C.3            1 S1                 0.0000
     10 ****         0.2557   0.6495  -0.5437 N.4            1 S1                 1.0000
     11 ****         1.6232   0.5213   0.0030 C.3            1 S1                 0.0000
     12 ****         2.0565  -0.9500   0.0883 C.3            1 S1                 0.0000
     13 ****         2.2931  -1.5822  -1.2995 C.3            1 S1                 0.0000
     14 ****         2.8215  -3.0142  -1.1578 C.3            1 S1                 0.0000
     15 ****         4.0522  -3.0232  -0.2453 C.3            1 S1                 0.0000
     16 ****         3.7360  -2.3193   1.0837 C.3            1 S1                 0.0000
     17 ****         3.2714  -0.9960   0.8327 O.3            1 S1                 0.0000
     18 ****        -3.3058   0.1619   0.3910 C.2            1 S1                 0.0000
     19 ****        -4.1838  -1.7663   3.1019 H              1 S1                 0.0000
     20 ****        -4.4011  -2.2642   1.4345 H              1 S1                 0.0000
     21 ****        -5.4764  -1.0710   2.1413 H              1 S1                 0.0000
     22 ****        -2.5272   0.4754   3.5290 H              1 S1                 0.0000
     23 ****        -2.1520   1.5249  -1.5424 H              1 S1                 0.0000
     24 ****        -2.2433   3.9819  -1.4391 H              1 S1                 0.0000
     25 ****        -2.1381   3.9514   0.3201 H              1 S1                 0.0000
     26 ****        -3.5635   3.3216  -0.4982 H              1 S1                 0.0000
     27 ****         0.0380   2.5530   0.3074 H              1 S1                 0.0000
     28 ****        -0.0148   3.8163  -1.8370 H              1 S1                 0.0000
     29 ****        -0.0222   2.3098  -2.7497 H              1 S1                 0.0000
     30 ****         1.3867   2.7785  -1.8057 H              1 S1                 0.0000
     31 ****        -0.3529   0.1156   0.0608 H              1 S1                 0.0000
     32 ****         2.3337   1.0877  -0.5988 H              1 S1                 0.0000
     33 ****         1.6347   0.9568   1.0032 H              1 S1                 0.0000
     34 ****         1.2943  -1.5133   0.6303 H              1 S1                 0.0000
     35 ****         1.3710  -1.5867  -1.8813 H              1 S1                 0.0000
     36 ****         3.0130  -0.9836  -1.8594 H              1 S1                 0.0000
     37 ****         2.0450  -3.6528  -0.7345 H              1 S1                 0.0000
     38 ****         3.0698  -3.4280  -2.1357 H              1 S1                 0.0000
     39 ****         4.3803  -4.0470  -0.0631 H              1 S1                 0.0000
     40 ****         4.8798  -2.5126  -0.7396 H              1 S1                 0.0000
     41 ****         2.9902  -2.8769   1.6526 H              1 S1                 0.0000
     42 ****         4.6325  -2.2660   1.7020 H              1 S1                 0.0000
     43 ****        -3.7379  -0.1396  -0.5520 H              1 S1                 0.0000
     44 ****         0.2216   0.2469  -1.4692 H              1 S1                 0.0000
     45 ****        -1.3340   2.0676   2.0864 LP             1 S1                 0.0000
     46 ****         3.1217  -0.5415   1.7108 LP             1 S1                 0.0000
     47 ****         3.9757  -0.5056   0.3193 LP             1 S1                 0.0000
@<TRIPOS>BOND
    1    1    2 1     
    2    1   19 1     
    3    1   20 1     
    4    1   21 1     
    5    2   18 2     
    6    2    3 1     
    7    3    4 2     
    8    3   22 1     
    9    4    5 1     
   10    5    6 1     
   11    5   18 1     
   12    6    7 1     
   13    6    8 1     
   14    6   23 1     
   15    7   24 1     
   16    7   25 1     
   17    7   26 1     
   18    8    9 1     
   19    8   10 1     
   20    8   27 1     
   21    9   28 1     
   22    9   29 1     
   23    9   30 1     
   24   10   11 1     
   25   10   31 1     
   26   10   44 1     
   27   11   12 1     
   28   11   32 1     
   29   11   33 1     
   30   12   17 1     
   31   12   13 1     
   32   12   34 1     
   33   13   14 1     
   34   13   35 1     
   35   13   36 1     
   36   14   15 1     
   37   14   37 1     
   38   14   38 1     
   39   15   16 1     
   40   15   39 1     
   41   15   40 1     
   42   16   17 1     
   43   16   41 1     
   44   16   42 1     
   45   18   43 1     
   46    4   45 1     
   47   17   46 1     
   48   17   47 1     
@<TRIPOS>SUBSTRUCTURE
      1 S1             1
@<TRIPOS>SET
LONE_PAIRS      STATIC     ATOMS    <user>   **** ""
3 45 46 47
DONOR_HYDROGENS      STATIC     ATOMS    <user>   **** ""
2 31 44
ATOM$BLUE        STATIC     ATOMS    COLORGROUP SYSTEM
3 45 46 47
ATOM$RED        STATIC     ATOMS    COLORGROUP SYSTEM
2 31 44
