AV-unprocessed.smi:1973|AV-procd|sdf|7976|dock7
  -GOLD-   2272010153D 1   1.00000     0.00000
 Structure written by MMmdl.
 48 50  0  0  0  0  0  0  0  0  2 V2000
  156.0388  138.0241  154.1633 C   0  0  0  0  0  0  0  0  0  0  0  0
  155.4161  138.4587  155.3595 O   0  0  0  0  0  0  0  0  0  0  0  0
  154.1167  137.9161  155.5225 C   0  0  0  0  0  0  0  0  0  0  0  0
  153.1466  138.6608  154.5927 C   0  0  0  0  0  0  0  0  0  0  0  0
  151.7581  138.2386  154.8067 N   0  0  0  0  0  0  0  0  0  0  0  0
  151.5906  136.8663  154.8900 N   0  0  0  0  0  0  0  0  0  0  0  0
  150.4128  136.3627  155.0634 C   0  0  0  0  0  0  0  0  0  0  0  0
  150.2436  134.8832  155.1384 C   0  0  0  0  0  0  0  0  0  0  0  0
  150.7828  134.2258  156.0304 O   0  0  0  0  0  0  0  0  0  0  0  0
  149.4809  134.3185  154.1860 N   0  0  0  0  0  0  0  0  0  0  0  0
  149.2025  132.8913  154.0654 C   0  0  0  0  0  0  0  0  0  0  0  0
  147.8506  132.6187  153.3783 C   0  0  2  0  0  0  0  0  0  0  0  0
  147.4386  131.1493  153.3786 C   0  0  0  0  0  0  0  0  0  0  0  0
  146.3964  131.0989  152.2652 C   0  0  0  0  0  0  0  0  0  0  0  0
  146.8796  132.0409  151.2335 N   0  3  1  0  0  0  0  0  0  0  0  0
  145.8002  132.6741  150.4466 C   0  0  0  0  0  0  0  0  0  0  0  0
  144.5984  131.7829  150.2439 C   0  0  0  0  0  0  0  0  0  0  0  0
  145.5682  132.0186  149.1062 C   0  0  0  0  0  0  0  0  0  0  0  0
  147.7961  133.0020  151.8909 C   0  0  0  0  0  0  0  0  0  0  0  0
  149.2454  137.2266  155.1879 C   0  0  0  0  0  0  0  0  0  0  0  0
  149.4273  138.5630  155.1115 C   0  0  0  0  0  0  0  0  0  0  0  0
  150.7495  139.1558  154.9072 C   0  0  0  0  0  0  0  0  0  0  0  0
  150.9379  140.3696  154.8335 O   0  0  0  0  0  0  0  0  0  0  0  0
  157.0273  138.4759  154.0793 H   0  0  0  0  0  0  0  0  0  0  0  0
  155.4590  138.3167  153.2868 H   0  0  0  0  0  0  0  0  0  0  0  0
  156.1627  136.9405  154.1558 H   0  0  0  0  0  0  0  0  0  0  0  0
  154.1255  136.8518  155.2817 H   0  0  0  0  0  0  0  0  0  0  0  0
  153.8005  138.0166  156.5619 H   0  0  0  0  0  0  0  0  0  0  0  0
  153.2407  139.7381  154.7399 H   0  0  0  0  0  0  0  0  0  0  0  0
  153.4344  138.4844  153.5546 H   0  0  0  0  0  0  0  0  0  0  0  0
  149.0805  134.9232  153.4830 H   0  0  0  0  0  0  0  0  0  0  0  0
  150.0121  132.4388  153.4917 H   0  0  0  0  0  0  0  0  0  0  0  0
  149.2269  132.4243  155.0513 H   0  0  0  0  0  0  0  0  0  0  0  0
  147.0688  133.1757  153.8978 H   0  0  0  0  0  0  0  0  0  0  0  0
  148.2881  130.5139  153.1234 H   0  0  0  0  0  0  0  0  0  0  0  0
  147.0451  130.8188  154.3404 H   0  0  0  0  0  0  0  0  0  0  0  0
  146.2618  130.0957  151.8599 H   0  0  0  0  0  0  0  0  0  0  0  0
  145.4339  131.4364  152.6540 H   0  0  0  0  0  0  0  0  0  0  0  0
  145.6794  133.7499  150.5639 H   0  0  0  0  0  0  0  0  0  0  0  0
  144.6011  130.7994  150.7108 H   0  0  0  0  0  0  0  0  0  0  0  0
  143.6237  132.2617  150.1747 H   0  0  0  0  0  0  0  0  0  0  0  0
  145.2320  132.6531  148.2885 H   0  0  0  0  0  0  0  0  0  0  0  0
  146.2149  131.1917  148.8174 H   0  0  0  0  0  0  0  0  0  0  0  0
  147.4780  134.0380  151.7625 H   0  0  0  0  0  0  0  0  0  0  0  0
  148.7767  132.9011  151.4245 H   0  0  0  0  0  0  0  0  0  0  0  0
  148.2525  136.8317  155.3418 H   0  0  0  0  0  0  0  0  0  0  0  0
  148.5723  139.2166  155.2041 H   0  0  0  0  0  0  0  0  0  0  0  0
  147.4460  131.5043  150.5922 H   0  0  0  0  0  0  0  0  0  0  0  0
  1  2  1  0  0  0  0
  1 24  1  0  0  0  0
  1 25  1  0  0  0  0
  1 26  1  0  0  0  0
  2  3  1  0  0  0  0
  3  4  1  0  0  0  0
  3 27  1  0  0  0  0
  3 28  1  0  0  0  0
  4  5  1  0  0  0  0
  4 29  1  0  0  0  0
  4 30  1  0  0  0  0
  5 22  1  0  0  0  0
  5  6  1  0  0  0  0
  6  7  2  0  0  0  0
  7  8  1  0  0  0  0
  7 20  1  0  0  0  0
  8  9  2  0  0  0  0
  8 10  1  0  0  0  0
 10 11  1  0  0  0  0
 10 31  1  0  0  0  0
 11 12  1  0  0  0  0
 11 32  1  0  0  0  0
 11 33  1  0  0  0  0
 12 19  1  0  0  0  0
 12 13  1  0  0  0  0
 12 34  1  0  0  0  0
 13 14  1  0  0  0  0
 13 35  1  0  0  0  0
 13 36  1  0  0  0  0
 14 15  1  0  0  0  0
 14 37  1  0  0  0  0
 14 38  1  0  0  0  0
 15 16  1  0  0  0  0
 15 19  1  0  0  0  0
 15 48  1  0  0  0  0
 16 18  1  0  0  0  0
 16 17  1  0  0  0  0
 16 39  1  0  0  0  0
 17 18  1  0  0  0  0
 17 40  1  0  0  0  0
 17 41  1  0  0  0  0
 18 42  1  0  0  0  0
 18 43  1  0  0  0  0
 19 44  1  0  0  0  0
 19 45  1  0  0  0  0
 20 21  2  0  0  0  0
 20 46  1  0  0  0  0
 21 22  1  0  0  0  0
 21 47  1  0  0  0  0
 22 23  2  0  0  0  0
M  CHG  1  15   1
M  END
> <s_m_source_file>
AV-unprocessed.smi

> <i_m_source_file_index>
1973

> <i_lp_mmshare_version>
43012

> <i_f3d_flags>
0

> <s_epik_input>
W0NIM11PW0NIMl1bQ0gyXW4xbmMoW2NIXVtjSF1jMT1PKUMoPU8pW05IXVtDSDJdW0NAQEhdMltDSDJdW0NIMl1OKFtDSDJdMilbQ0hdM1tDSDJdW0NIMl0z

> <s_epik_cmdline>
J2VwaWtfcHl0aG9uJywgJy1waCcsICc3LjAnLCAnLXRuJywgJzgnLCAnLW1hJywgJzIwMCcsICctbWV0YWxfYmluZGluZycsICctaW1hZScsICc8aW5maWxlLm1hZT4nLCAnLW9tYWUnLCAnPG91dGZpbGUubWFlPic=

> <r_lp_tautomer_probability>
1

> <r_epik_Ionization_Penalty>
0.000225706

> <r_epik_Ionization_Penalty_Charging>
0.000223776

> <r_epik_Ionization_Penalty_Neutral>
1.93004e-06

> <r_epik_State_Penalty>
-0

> <r_epik_Charging_Adjusted_Penalty>
0.000223776

> <i_epik_Tot_Q>
1

> <i_epik_Tot_abs_Q>
1

> <r_epik_Metal_State_Penalty>
-0

> <b_epik_Metal_Only>
0

> <s_lp_Force_Field>
OPLS_2005

> <r_lp_Energy>
57.8958

> <b_lp_Chiralities_Consistent>
1

> <s_lp_Variant>
AV-unprocessed.smi:1973-1

> <Gold.Version>
5.8.1

> <Gold.Id.Protein>
6NUR|6NUR_protein|mol2

> <Gold.PLP.Fitness>
51.1575

> <Gold.PLP.PLP>
-42.4482

> <Gold.PLP.part.hbond>
-4.5549

> <Gold.PLP.part.metal>
0.0000

> <Gold.PLP.part.buried>
-1.2905

> <Gold.PLP.part.nonpolar>
-36.1684

> <Gold.PLP.part.repulsive>
0.2809

> <Gold.PLP.ligand.clash>
0.0000

> <Gold.PLP.ligand.torsion>
2.4883

> <Gold.PLP.Chemscore.Hbond>
4.1360

> <Gold.PLP.Chemscore.CHOScore>
0.0000

> <Gold.PLP.Chemscore.Metal>
0.0000

> <Gold.Chemscore.Hbonds>
donor molecule, donor type, donor heavy atom, donor atom, acceptor molecule, acceptor atom, score
      L1  H    10    31       P1  7948  0.91
      L1  H    15    48       P1 10747  0.93
      P1  H  7989  7998       L1    23  1.00
      P1  H  7997  8010       L1     2  0.03
      P1  H 10752 10765       L1     6  1.00

> <Gold.PLP.Chemscore.Internal.Correction>
1.2780

> <Gold.Rescore>
     Score         DG    S(hbond)    S(metal)    S(lipo)     H(rot)  DE(clash)    DE(int)     intcor
     18.83     -23.17       3.18        0.00     103.44       1.97       1.80       2.54       ----

> <Gold.Chemscore.Fitness>
18.8310

> <Gold.Chemscore.DG>
-23.1736

> <Gold.Chemscore.ZeroCoef>
-5.4800

> <Gold.Chemscore.Hbond>
3.1848

> <Gold.Chemscore.Metal>
0.0000

> <Gold.Chemscore.Lipo>
103.4408

> <Gold.Chemscore.Internal_Hbond>
0.0000

> <Gold.Chemscore.DEClash>
1.7978

> <Gold.Chemscore.DEInternal>
2.5448

> <Gold.Chemscore.Rot>
1.9711

> <Gold.Chemscore.Internal.Correction>
   9.000000E+99

> <Gold.Chemscore.Hbonds>
donor molecule, donor type, donor heavy atom, donor atom, acceptor molecule, acceptor atom, score
      L1  H    10    31       P1  7948  0.20
      L1  H    15    48       P1 10747  0.91
      P1  H  7989  7998       L1    23  0.90
      P1  H  7997  8010       L1     2  0.05
      P1  H 10752 10765       L1     6  0.90

> <Gold.Chemscore.Hbond.Weighted>
-10.6371

> <Gold.Chemscore.Metal.Weighted>
-0.0000

> <Gold.Chemscore.Lipo.Weighted>
-12.1026

> <Gold.Chemscore.Internal_Hbond.Weighted>
0.0000

> <Gold.Chemscore.DEClash.Weighted>
1.7978

> <Gold.Chemscore.DEInternal.Weighted>
2.5448

> <Gold.Chemscore.Rot.Weighted>
5.0460

> <Gold.Chemscore.Internal.Correction.Weighted>
   9.000000E+99

> <Gold.Protein.RotatedTorsions>
[ 6907 6896 6895 6894 ] final  103.74 input  -60.11 | X-H torsion
[ 7974 7965 7964 7962 ] final  169.13 input  175.53 | X-H torsion
[ 8008 7997 7996 7995 ] final  179.62 input   59.86 | X-H torsion
[ 10167 10162 10161 10158 ] final   56.82 input  -65.29 | X-H torsion
[ 10718 10713 10712 10709 ] final  139.32 input   66.30 | X-H torsion
[ 10763 10752 10751 10750 ] final -176.30 input  -60.55 | X-H torsion
[ 11005 11000 10999 10996 ] final -152.06 input  -57.11 | X-H torsion

> <Gold.Protein.ActiveResidues>
 VAL166  LYS551  ARG553  GLY616  TRP617  ASP618  TYR619  PRO620  LYS621  CYS622 
 ASP623  PHE694  ASN695  SER759  ASP760  ASP761  ALA762  ILE779  LEU786  VAL792 
 PHE793  MET794  SER795  GLU796  ALA797  LYS798  CYS799  TRP800  GLU811  SER814 

> <Gold.Protein.RotatedAtoms>
  152.5286  133.9780  159.7792 H   0  0  0  0  0  0  0  0  0  0  0  0  # atno 6907 bound_to 6896
  151.0039  133.6022  159.2698 H   0  0  0  0  0  0  0  0  0  0  0  0  # atno 6908 bound_to 6896
  151.3121  135.0803  159.9329 H   0  0  0  0  0  0  0  0  0  0  0  0  # atno 6909 bound_to 6896
  144.7365  139.9009  143.6409 H   0  0  0  0  0  0  0  0  0  0  0  0  # atno 7974 bound_to 7965
  156.0414  140.1304  157.0152 H   0  0  0  0  0  0  0  0  0  0  0  0  # atno 8008 bound_to 7997
  154.4392  140.1029  156.6312 H   0  0  0  0  0  0  0  0  0  0  0  0  # atno 8009 bound_to 7997
  155.5661  140.3465  155.4506 H   0  0  0  0  0  0  0  0  0  0  0  0  # atno 8010 bound_to 7997
  140.2046  144.3952  150.6514 H   0  0  0  0  0  0  0  0  0  0  0  0  # atno 10167 bound_to 10162
  157.4157  131.1033  151.0407 H   0  0  0  0  0  0  0  0  0  0  0  0  # atno 10718 bound_to 10713
  154.5740  135.2830  155.0799 H   0  0  0  0  0  0  0  0  0  0  0  0  # atno 10763 bound_to 10752
  154.2161  135.6399  153.5134 H   0  0  0  0  0  0  0  0  0  0  0  0  # atno 10764 bound_to 10752
  153.0066  135.5503  154.6372 H   0  0  0  0  0  0  0  0  0  0  0  0  # atno 10765 bound_to 10752
  140.7229  134.3707  157.5180 H   0  0  0  0  0  0  0  0  0  0  0  0  # atno 11005 bound_to 11000
  146.1072  139.4073  143.0310 LP  0  0  0  0  0  0  0  0  0  0  0  0  # atno 17320 bound_to 7965
  145.7494  140.9978  143.1258 LP  0  0  0  0  0  0  0  0  0  0  0  0  # atno 17321 bound_to 7965
  140.6366  143.2196  151.6381 LP  0  0  0  0  0  0  0  0  0  0  0  0  # atno 17342 bound_to 10162
  139.5203  144.3226  152.0897 LP  0  0  0  0  0  0  0  0  0  0  0  0  # atno 17343 bound_to 10162
  157.1355  130.6120  149.5541 LP  0  0  0  0  0  0  0  0  0  0  0  0  # atno 17370 bound_to 10713
  155.9864  130.4899  150.7079 LP  0  0  0  0  0  0  0  0  0  0  0  0  # atno 17371 bound_to 10713
  139.8844  134.8967  156.2707 LP  0  0  0  0  0  0  0  0  0  0  0  0  # atno 17394 bound_to 11000
  140.9988  133.7164  156.0927 LP  0  0  0  0  0  0  0  0  0  0  0  0  # atno 17395 bound_to 11000

$$$$
