AV-unprocessed.smi:2081|AV-procd|sdf|8488|dock2
  -GOLD-   2272011193D 1   1.00000     0.00000
 Structure written by MMmdl.
 45 46  0  0  0  0  0  0  0  0  1 V2000
  149.9272  137.8533  154.9843 C   0  0  0  0  0  0  0  0  0  0  0  0
  150.7178  137.9534  156.2243 N   0  0  0  0  0  0  0  0  0  0  0  0
  150.1055  137.3640  157.4338 C   0  0  0  0  0  0  0  0  0  0  0  0
  149.8804  135.8507  157.4186 C   0  0  0  0  0  0  0  0  0  0  0  0
  149.3073  135.3006  158.3587 O   0  0  0  0  0  0  0  0  0  0  0  0
  150.3284  135.1970  156.3362 N   0  0  0  0  0  0  0  0  0  0  0  0
  150.1654  133.7674  156.0970 C   0  0  0  0  0  0  0  0  0  0  0  0
  149.1173  133.4377  155.0450 C   0  0  0  0  0  0  0  0  0  0  0  0
  148.9506  132.1292  154.5458 C   0  0  0  0  0  0  0  0  0  0  0  0
  147.9620  131.8890  153.5730 C   0  0  0  0  0  0  0  0  0  0  0  0
  147.1558  132.9634  153.1267 C   0  0  0  0  0  0  0  0  0  0  0  0
  146.1580  132.7477  152.1507 N   0  0  0  0  0  0  0  0  0  0  0  0
  145.8032  131.3669  151.8264 C   0  0  0  0  0  0  0  0  0  0  0  0
  144.5185  131.3271  150.9824 C   0  0  0  0  0  0  0  0  0  0  0  0
  144.6825  132.1372  149.8234 O   0  0  0  0  0  0  0  0  0  0  0  0
  144.9156  133.5006  150.1606 C   0  0  0  0  0  0  0  0  0  0  0  0
  146.2118  133.6216  150.9810 C   0  0  0  0  0  0  0  0  0  0  0  0
  147.3192  134.2193  153.6118 N   0  0  0  0  0  0  0  0  0  0  0  0
  148.2687  134.4444  154.5441 C   0  0  0  0  0  0  0  0  0  0  0  0
  151.7041  139.3648  156.4354 S   0  0  0  0  0  0  0  0  0  0  0  0
  151.2550  139.9276  158.1283 C   0  0  0  0  0  0  0  0  0  0  0  0
  153.1116  138.9374  156.4446 O   0  0  0  0  0  0  0  0  0  0  0  0
  151.2534  140.3815  155.4728 O   0  0  0  0  0  0  0  0  0  0  0  0
  148.9913  138.4025  155.0893 H   0  0  0  0  0  0  0  0  0  0  0  0
  149.6999  136.8171  154.7364 H   0  0  0  0  0  0  0  0  0  0  0  0
  150.4763  138.2708  154.1411 H   0  0  0  0  0  0  0  0  0  0  0  0
  150.7279  137.5929  158.2989 H   0  0  0  0  0  0  0  0  0  0  0  0
  149.1487  137.8561  157.6119 H   0  0  0  0  0  0  0  0  0  0  0  0
  150.7909  135.7330  155.6159 H   0  0  0  0  0  0  0  0  0  0  0  0
  151.1225  133.3674  155.7619 H   0  0  0  0  0  0  0  0  0  0  0  0
  149.9296  133.2597  157.0339 H   0  0  0  0  0  0  0  0  0  0  0  0
  149.5714  131.3174  154.8954 H   0  0  0  0  0  0  0  0  0  0  0  0
  147.8462  130.8928  153.1734 H   0  0  0  0  0  0  0  0  0  0  0  0
  146.6244  130.9024  151.2786 H   0  0  0  0  0  0  0  0  0  0  0  0
  145.6515  130.7903  152.7399 H   0  0  0  0  0  0  0  0  0  0  0  0
  144.3037  130.3039  150.6742 H   0  0  0  0  0  0  0  0  0  0  0  0
  143.6610  131.6716  151.5627 H   0  0  0  0  0  0  0  0  0  0  0  0
  144.9966  134.0838  149.2433 H   0  0  0  0  0  0  0  0  0  0  0  0
  144.0655  133.8993  150.7168 H   0  0  0  0  0  0  0  0  0  0  0  0
  146.3562  134.6642  151.2595 H   0  0  0  0  0  0  0  0  0  0  0  0
  147.0685  133.3364  150.3690 H   0  0  0  0  0  0  0  0  0  0  0  0
  148.3541  135.4618  154.8961 H   0  0  0  0  0  0  0  0  0  0  0  0
  151.8184  140.8290  158.3691 H   0  0  0  0  0  0  0  0  0  0  0  0
  151.4966  139.1493  158.8514 H   0  0  0  0  0  0  0  0  0  0  0  0
  150.1887  140.1479  158.1713 H   0  0  0  0  0  0  0  0  0  0  0  0
  1  2  1  0  0  0  0
  1 24  1  0  0  0  0
  1 25  1  0  0  0  0
  1 26  1  0  0  0  0
  2  3  1  0  0  0  0
  2 20  1  0  0  0  0
  3  4  1  0  0  0  0
  3 27  1  0  0  0  0
  3 28  1  0  0  0  0
  4  5  2  0  0  0  0
  4  6  1  0  0  0  0
  6  7  1  0  0  0  0
  6 29  1  0  0  0  0
  7  8  1  0  0  0  0
  7 30  1  0  0  0  0
  7 31  1  0  0  0  0
  8 19  1  0  0  0  0
  8  9  2  0  0  0  0
  9 10  1  0  0  0  0
  9 32  1  0  0  0  0
 10 11  2  0  0  0  0
 10 33  1  0  0  0  0
 11 12  1  0  0  0  0
 11 18  1  0  0  0  0
 12 17  1  0  0  0  0
 12 13  1  0  0  0  0
 13 14  1  0  0  0  0
 13 34  1  0  0  0  0
 13 35  1  0  0  0  0
 14 15  1  0  0  0  0
 14 36  1  0  0  0  0
 14 37  1  0  0  0  0
 15 16  1  0  0  0  0
 16 17  1  0  0  0  0
 16 38  1  0  0  0  0
 16 39  1  0  0  0  0
 17 40  1  0  0  0  0
 17 41  1  0  0  0  0
 18 19  2  0  0  0  0
 19 42  1  0  0  0  0
 20 21  1  0  0  0  0
 20 22  2  0  0  0  0
 20 23  2  0  0  0  0
 21 43  1  0  0  0  0
 21 44  1  0  0  0  0
 21 45  1  0  0  0  0
M  END
> <s_m_source_file>
AV-unprocessed.smi

> <i_m_source_file_index>
2081

> <i_lp_mmshare_version>
43012

> <i_f3d_flags>
0

> <s_epik_input>
W0NIM11TKD1PKSg9TylOKFtDSDNdKVtDSDJdQyg9TylbTkhdW0NIMl1jMVtjSF1bY0hdYyhuW2NIXTEpTjJbQ0gyXVtDSDJdT1tDSDJdW0NIMl0y

> <s_epik_cmdline>
J2VwaWtfcHl0aG9uJywgJy1waCcsICc3LjAnLCAnLXRuJywgJzgnLCAnLW1hJywgJzIwMCcsICctbWV0YWxfYmluZGluZycsICctaW1hZScsICc8aW5maWxlLm1hZT4nLCAnLW9tYWUnLCAnPG91dGZpbGUubWFlPic=

> <r_lp_tautomer_probability>
1

> <r_epik_Ionization_Penalty>
0.00477463

> <r_epik_Ionization_Penalty_Charging>
0

> <r_epik_Ionization_Penalty_Neutral>
0.00477463

> <r_epik_State_Penalty>
0.00345982

> <r_epik_Charging_Adjusted_Penalty>
0.00345982

> <i_epik_Tot_Q>
0

> <i_epik_Tot_abs_Q>
0

> <r_epik_Metal_State_Penalty>
-0

> <b_epik_Metal_Only>
0

> <s_lp_Force_Field>
OPLS_2005

> <r_lp_Energy>
5.64261

> <b_lp_Chiralities_Consistent>
1

> <s_lp_Variant>
AV-unprocessed.smi:2081-1

> <Gold.Version>
5.8.1

> <Gold.Id.Protein>
6NUR|6NUR_protein|mol2

> <Gold.PLP.Fitness>
42.6191

> <Gold.PLP.PLP>
-34.4267

> <Gold.PLP.part.hbond>
-3.1717

> <Gold.PLP.part.metal>
0.0000

> <Gold.PLP.part.buried>
-4.7931

> <Gold.PLP.part.nonpolar>
-27.8406

> <Gold.PLP.part.repulsive>
1.2956

> <Gold.PLP.ligand.clash>
0.0000

> <Gold.PLP.ligand.torsion>
1.7221

> <Gold.PLP.Chemscore.Hbond>
2.9360

> <Gold.PLP.Chemscore.CHOScore>
0.0116

> <Gold.PLP.Chemscore.Metal>
0.0000

> <Gold.Chemscore.Hbonds>
donor molecule, donor type, donor heavy atom, donor atom, acceptor molecule, acceptor atom, score
      P1  H  6896  6909       L1     5  1.00
      P1  H  7989  7998       L1    23  0.87
      P1  H  7997  8009       L1    22  0.99

> <Gold.PLP.Chemscore.Internal.Correction>
2.7937

> <Gold.Rescore>
     Score         DG    S(hbond)    S(metal)    S(lipo)     H(rot)  DE(clash)    DE(int)     intcor
     16.56     -18.46       2.91        0.00      73.19       2.07       0.15       1.75       ----

> <Gold.Chemscore.Fitness>
16.5601

> <Gold.Chemscore.DG>
-18.4578

> <Gold.Chemscore.ZeroCoef>
-5.4800

> <Gold.Chemscore.Hbond>
2.9121

> <Gold.Chemscore.Metal>
0.0000

> <Gold.Chemscore.Lipo>
73.1866

> <Gold.Chemscore.Internal_Hbond>
0.0000

> <Gold.Chemscore.DEClash>
0.1484

> <Gold.Chemscore.DEInternal>
1.7493

> <Gold.Chemscore.Rot>
2.0748

> <Gold.Chemscore.Internal.Correction>
   9.000000E+99

> <Gold.Chemscore.Hbonds>
donor molecule, donor type, donor heavy atom, donor atom, acceptor molecule, acceptor atom, score
      P1  H  6896  6909       L1     5  0.69
      P1  H  7989  7998       L1    23  0.81
      P1  H  7997  8009       L1    22  0.91

> <Gold.Chemscore.Hbond.Weighted>
-9.7264

> <Gold.Chemscore.Metal.Weighted>
-0.0000

> <Gold.Chemscore.Lipo.Weighted>
-8.5628

> <Gold.Chemscore.Internal_Hbond.Weighted>
0.0000

> <Gold.Chemscore.DEClash.Weighted>
0.1484

> <Gold.Chemscore.DEInternal.Weighted>
1.7493

> <Gold.Chemscore.Rot.Weighted>
5.3115

> <Gold.Chemscore.Internal.Correction.Weighted>
   9.000000E+99

> <Gold.Protein.RotatedTorsions>
[ 6907 6896 6895 6894 ] final   34.91 input  -60.11 | X-H torsion
[ 7974 7965 7964 7962 ] final   47.49 input  175.53 | X-H torsion
[ 8008 7997 7996 7995 ] final -153.54 input   59.86 | X-H torsion
[ 10167 10162 10161 10158 ] final  -91.96 input  -65.29 | X-H torsion
[ 10718 10713 10712 10709 ] final   39.97 input   66.30 | X-H torsion
[ 10763 10752 10751 10750 ] final  132.88 input  -60.55 | X-H torsion
[ 11005 11000 10999 10996 ] final  -73.39 input  -57.11 | X-H torsion

> <Gold.Protein.ActiveResidues>
 VAL166  LYS551  ARG553  GLY616  TRP617  ASP618  TYR619  PRO620  LYS621  CYS622 
 ASP623  PHE694  ASN695  SER759  ASP760  ASP761  ALA762  ILE779  LEU786  VAL792 
 PHE793  MET794  SER795  GLU796  ALA797  LYS798  CYS799  TRP800  GLU811  SER814 

> <Gold.Protein.RotatedAtoms>
  152.1088  134.9289  160.0567 H   0  0  0  0  0  0  0  0  0  0  0  0  # atno 6907 bound_to 6896
  152.0474  133.3999  159.4371 H   0  0  0  0  0  0  0  0  0  0  0  0  # atno 6908 bound_to 6896
  150.6842  134.3267  159.4853 H   0  0  0  0  0  0  0  0  0  0  0  0  # atno 6909 bound_to 6896
  146.0293  139.4744  142.9848 H   0  0  0  0  0  0  0  0  0  0  0  0  # atno 7974 bound_to 7965
  155.6723  140.0735  157.2515 H   0  0  0  0  0  0  0  0  0  0  0  0  # atno 8008 bound_to 7997
  154.4121  140.1697  156.1944 H   0  0  0  0  0  0  0  0  0  0  0  0  # atno 8009 bound_to 7997
  155.9606  140.3370  155.6490 H   0  0  0  0  0  0  0  0  0  0  0  0  # atno 8010 bound_to 7997
  140.3396  143.2949  151.9850 H   0  0  0  0  0  0  0  0  0  0  0  0  # atno 10167 bound_to 10162
  157.3768  130.7731  149.7161 H   0  0  0  0  0  0  0  0  0  0  0  0  # atno 10718 bound_to 10713
  153.7979  135.3146  155.3386 H   0  0  0  0  0  0  0  0  0  0  0  0  # atno 10763 bound_to 10752
  154.8100  135.4673  154.0495 H   0  0  0  0  0  0  0  0  0  0  0  0  # atno 10764 bound_to 10752
  153.1834  135.6897  153.8535 H   0  0  0  0  0  0  0  0  0  0  0  0  # atno 10765 bound_to 10752
  141.1622  133.6877  156.7204 H   0  0  0  0  0  0  0  0  0  0  0  0  # atno 11005 bound_to 11000
  145.7067  141.0119  143.1475 LP  0  0  0  0  0  0  0  0  0  0  0  0  # atno 17320 bound_to 7965
  144.7023  139.8708  143.7440 LP  0  0  0  0  0  0  0  0  0  0  0  0  # atno 17321 bound_to 7965
  139.4842  144.6168  151.7331 LP  0  0  0  0  0  0  0  0  0  0  0  0  # atno 17342 bound_to 10162
  140.5321  144.0713  150.6057 LP  0  0  0  0  0  0  0  0  0  0  0  0  # atno 17343 bound_to 10162
  155.9767  130.4072  150.3762 LP  0  0  0  0  0  0  0  0  0  0  0  0  # atno 17370 bound_to 10713
  157.1860  131.0404  151.2724 LP  0  0  0  0  0  0  0  0  0  0  0  0  # atno 17371 bound_to 10713
  140.2820  134.8309  157.3942 LP  0  0  0  0  0  0  0  0  0  0  0  0  # atno 17394 bound_to 11000
  140.1424  134.4954  155.8021 LP  0  0  0  0  0  0  0  0  0  0  0  0  # atno 17395 bound_to 11000

$$$$
