AV-unprocessed.smi:2296|AV-procd|sdf|9220|dock4
  -GOLD-   2272012443D 1   1.00000     0.00000
 Structure written by MMmdl.
 24 24  0  0  0  0  0  0  0  0  2 V2000
  146.4068  136.4142  150.2149 N   0  3  0  0  0  0  0  0  0  0  0  0
  145.4641  136.2795  151.3425 C   0  0  2  0  0  0  0  0  0  0  0  0
  145.6190  137.4651  152.3102 C   0  0  0  0  0  0  0  0  0  0  0  0
  145.6914  138.6774  151.5894 O   0  0  0  0  0  0  0  0  0  0  0  0
  145.6716  134.9342  152.0652 C   0  0  0  0  0  0  0  0  0  0  0  0
  145.2147  133.7395  151.2461 C   0  0  0  0  0  0  0  0  0  0  0  0
  143.8508  133.5529  150.9390 C   0  0  0  0  0  0  0  0  0  0  0  0
  143.4814  132.4242  150.1795 C   0  0  0  0  0  0  0  0  0  0  0  0
  144.3679  131.5091  149.7329 N   0  0  0  0  0  0  0  0  0  0  0  0
  145.6724  131.6948  150.0284 C   0  0  0  0  0  0  0  0  0  0  0  0
  146.1464  132.7890  150.7799 C   0  0  0  0  0  0  0  0  0  0  0  0
  147.3397  136.1812  150.5232 H   0  0  0  0  0  0  0  0  0  0  0  0
  146.3909  137.3681  149.8826 H   0  0  0  0  0  0  0  0  0  0  0  0
  144.4526  136.2972  150.9333 H   0  0  0  0  0  0  0  0  0  0  0  0
  144.7608  137.5234  152.9806 H   0  0  0  0  0  0  0  0  0  0  0  0
  146.5076  137.3548  152.9331 H   0  0  0  0  0  0  0  0  0  0  0  0
  145.0021  138.6860  150.9420 H   0  0  0  0  0  0  0  0  0  0  0  0
  146.7213  134.8101  152.3357 H   0  0  0  0  0  0  0  0  0  0  0  0
  145.1156  134.9297  153.0038 H   0  0  0  0  0  0  0  0  0  0  0  0
  143.1012  134.2556  151.2726 H   0  0  0  0  0  0  0  0  0  0  0  0
  142.4459  132.2511  149.9268 H   0  0  0  0  0  0  0  0  0  0  0  0
  146.3588  130.9486  149.6566 H   0  0  0  0  0  0  0  0  0  0  0  0
  147.2009  132.8924  150.9909 H   0  0  0  0  0  0  0  0  0  0  0  0
  146.1314  135.7918  149.4685 H   0  0  0  0  0  0  0  0  0  0  0  0
  1  2  1  0  0  0  0
  1 12  1  0  0  0  0
  1 13  1  0  0  0  0
  1 24  1  0  0  0  0
  2  3  1  0  0  0  0
  2  5  1  0  0  0  0
  2 14  1  0  0  0  0
  3  4  1  0  0  0  0
  3 15  1  0  0  0  0
  3 16  1  0  0  0  0
  4 17  1  0  0  0  0
  5  6  1  0  0  0  0
  5 18  1  0  0  0  0
  5 19  1  0  0  0  0
  6 11  1  0  0  0  0
  6  7  2  0  0  0  0
  7  8  1  0  0  0  0
  7 20  1  0  0  0  0
  8  9  2  0  0  0  0
  8 21  1  0  0  0  0
  9 10  1  0  0  0  0
 10 11  2  0  0  0  0
 10 22  1  0  0  0  0
 11 23  1  0  0  0  0
M  CHG  1   1   1
M  END
> <s_m_source_file>
AV-unprocessed.smi

> <i_m_source_file_index>
2296

> <i_lp_mmshare_version>
43012

> <i_f3d_flags>
0

> <s_epik_input>
W09IXVtDSDJdW0NAQEhdKFtOSDJdKVtDSDJdYzFbY0hdW2NIXW5bY0hdW2NIXTE=

> <s_epik_cmdline>
J2VwaWtfcHl0aG9uJywgJy1waCcsICc3LjAnLCAnLXRuJywgJzgnLCAnLW1hJywgJzIwMCcsICctbWV0YWxfYmluZGluZycsICctaW1hZScsICc8aW5maWxlLm1hZT4nLCAnLW9tYWUnLCAnPG91dGZpbGUubWFlPic=

> <r_epik_Ionization_Penalty>
0.0199414

> <r_epik_Ionization_Penalty_Charging>
0.0188044

> <r_epik_Ionization_Penalty_Neutral>
0.00113699

> <r_epik_State_Penalty>
0.00788343

> <r_epik_Charging_Adjusted_Penalty>
0.0266878

> <i_epik_Tot_Q>
1

> <i_epik_Tot_abs_Q>
1

> <r_epik_Metal_State_Penalty>
-0

> <b_epik_Metal_Only>
0

> <s_lp_Force_Field>
OPLS_2005

> <r_lp_Energy>
8.03463

> <b_lp_Chiralities_Consistent>
1

> <s_lp_Variant>
AV-unprocessed.smi:2296-1

> <Gold.Version>
5.8.1

> <Gold.Id.Protein>
6NUR|6NUR_protein|mol2

> <Gold.PLP.Fitness>
39.3732

> <Gold.PLP.PLP>
-20.0881

> <Gold.PLP.part.hbond>
-4.9117

> <Gold.PLP.part.metal>
0.0000

> <Gold.PLP.part.buried>
2.0057

> <Gold.PLP.part.nonpolar>
-18.1792

> <Gold.PLP.part.repulsive>
1.0015

> <Gold.PLP.ligand.clash>
0.0000

> <Gold.PLP.ligand.torsion>
0.1984

> <Gold.PLP.Chemscore.Hbond>
4.3451

> <Gold.PLP.Chemscore.CHOScore>
2.2135

> <Gold.PLP.Chemscore.Metal>
0.0000

> <Gold.Chemscore.Hbonds>
donor molecule, donor type, donor heavy atom, donor atom, acceptor molecule, acceptor atom, score
      L1  H     1    12       P1  7948  2.00
      L1  H     1    24       P1  7921  0.93
      L1  H     4    17       P1 10171  1.00
      P1  H 10785 10796       L1     9  0.50
      L1  C     8    21       P1 10186  0.56
      L1  C     8    21       P1 10952  1.00
      L1  C    10    22       P1 10747  0.59

> <Gold.PLP.Chemscore.Internal.Correction>
0.0060

> <Gold.Rescore>
     Score         DG    S(hbond)    S(metal)    S(lipo)     H(rot)  DE(clash)    DE(int)     intcor
     14.23     -16.00       2.74        0.00      58.46       2.14       1.44       0.32       ----

> <Gold.Chemscore.Fitness>
14.2318

> <Gold.Chemscore.DG>
-15.9958

> <Gold.Chemscore.ZeroCoef>
-5.4800

> <Gold.Chemscore.Hbond>
2.7411

> <Gold.Chemscore.Metal>
0.0000

> <Gold.Chemscore.Lipo>
58.4631

> <Gold.Chemscore.Internal_Hbond>
0.0000

> <Gold.Chemscore.DEClash>
1.4410

> <Gold.Chemscore.DEInternal>
0.3229

> <Gold.Chemscore.Rot>
2.1405

> <Gold.Chemscore.Internal.Correction>
   9.000000E+99

> <Gold.Chemscore.Hbonds>
donor molecule, donor type, donor heavy atom, donor atom, acceptor molecule, acceptor atom, score
      L1  H     1    12       P1  7948  0.56
      L1  H     1    24       P1  7921  0.82
      L1  H     4    17       P1 10171  0.98
      P1  H 10785 10796       L1     9  0.23

> <Gold.Chemscore.Hbond.Weighted>
-9.1553

> <Gold.Chemscore.Metal.Weighted>
-0.0000

> <Gold.Chemscore.Lipo.Weighted>
-6.8402

> <Gold.Chemscore.Internal_Hbond.Weighted>
0.0000

> <Gold.Chemscore.DEClash.Weighted>
1.4410

> <Gold.Chemscore.DEInternal.Weighted>
0.3229

> <Gold.Chemscore.Rot.Weighted>
5.4797

> <Gold.Chemscore.Internal.Correction.Weighted>
   9.000000E+99

> <Gold.Protein.RotatedTorsions>
[ 6907 6896 6895 6894 ] final  -99.12 input  -60.11 | X-H torsion
[ 7974 7965 7964 7962 ] final   -8.16 input  175.53 | X-H torsion
[ 8008 7997 7996 7995 ] final -169.85 input   59.86 | X-H torsion
[ 10167 10162 10161 10158 ] final -178.51 input  -65.29 | X-H torsion
[ 10718 10713 10712 10709 ] final  103.59 input   66.30 | X-H torsion
[ 10763 10752 10751 10750 ] final    1.52 input  -60.55 | X-H torsion
[ 11005 11000 10999 10996 ] final -119.10 input  -57.11 | X-H torsion

> <Gold.Protein.ActiveResidues>
 VAL166  LYS551  ARG553  GLY616  TRP617  ASP618  TYR619  PRO620  LYS621  CYS622 
 ASP623  PHE694  ASN695  SER759  ASP760  ASP761  ALA762  ILE779  LEU786  VAL792 
 PHE793  MET794  SER795  GLU796  ALA797  LYS798  CYS799  TRP800  GLU811  SER814 

> <Gold.Protein.RotatedAtoms>
  150.7069  134.1090  159.3992 H   0  0  0  0  0  0  0  0  0  0  0  0  # atno 6907 bound_to 6896
  151.9076  135.0350  160.0521 H   0  0  0  0  0  0  0  0  0  0  0  0  # atno 6908 bound_to 6896
  152.2362  133.5063  159.5280 H   0  0  0  0  0  0  0  0  0  0  0  0  # atno 6909 bound_to 6896
  146.2288  140.2427  142.8344 H   0  0  0  0  0  0  0  0  0  0  0  0  # atno 7974 bound_to 7965
  155.9105  140.1056  157.1283 H   0  0  0  0  0  0  0  0  0  0  0  0  # atno 8008 bound_to 7997
  154.4039  140.1275  156.4616 H   0  0  0  0  0  0  0  0  0  0  0  0  # atno 8009 bound_to 7997
  155.7315  140.3468  155.5064 H   0  0  0  0  0  0  0  0  0  0  0  0  # atno 8010 bound_to 7997
  139.5429  144.2314  152.0930 H   0  0  0  0  0  0  0  0  0  0  0  0  # atno 10167 bound_to 10162
  157.6767  131.0783  150.5578 H   0  0  0  0  0  0  0  0  0  0  0  0  # atno 10718 bound_to 10713
  153.3070  135.6960  153.7150 H   0  0  0  0  0  0  0  0  0  0  0  0  # atno 10763 bound_to 10752
  153.6042  135.3456  155.2957 H   0  0  0  0  0  0  0  0  0  0  0  0  # atno 10764 bound_to 10752
  154.8565  135.4348  154.2198 H   0  0  0  0  0  0  0  0  0  0  0  0  # atno 10765 bound_to 10752
  141.0239  134.0083  157.3242 H   0  0  0  0  0  0  0  0  0  0  0  0  # atno 11005 bound_to 11000
  144.9472  140.8140  143.5594 LP  0  0  0  0  0  0  0  0  0  0  0  0  # atno 17320 bound_to 7965
  145.2385  139.2083  143.5005 LP  0  0  0  0  0  0  0  0  0  0  0  0  # atno 17321 bound_to 7965
  140.1796  144.4857  150.6535 LP  0  0  0  0  0  0  0  0  0  0  0  0  # atno 17342 bound_to 10162
  140.6666  143.2270  151.5728 LP  0  0  0  0  0  0  0  0  0  0  0  0  # atno 17343 bound_to 10162
  156.5882  130.4322  149.5948 LP  0  0  0  0  0  0  0  0  0  0  0  0  # atno 17370 bound_to 10713
  156.2605  130.6960  151.1727 LP  0  0  0  0  0  0  0  0  0  0  0  0  # atno 17371 bound_to 10713
  139.9163  135.0197  156.7895 LP  0  0  0  0  0  0  0  0  0  0  0  0  # atno 17394 bound_to 11000
  140.6525  133.9718  155.7762 LP  0  0  0  0  0  0  0  0  0  0  0  0  # atno 17395 bound_to 11000

$$$$
