AV-unprocessed.smi:40|AV-procd|sdf|378|dock5
  -GOLD-   2262016233D 1   1.00000     0.00000
 Structure written by MMmdl.
 47 48  0  0  0  0  0  0  0  0  1 V2000
  152.5883  144.2728  159.0025 C   0  0  0  0  0  0  0  0  0  0  0  0
  153.1351  143.2894  160.0426 C   0  0  0  0  0  0  0  0  0  0  0  0
  152.8893  141.8243  159.6544 C   0  0  0  0  0  0  0  0  0  0  0  0
  153.5813  140.8401  160.6062 C   0  0  0  0  0  0  0  0  0  0  0  0
  153.3497  139.3765  160.2009 C   0  0  0  0  0  0  0  0  0  0  0  0
  152.4036  139.2936  159.1438 O   0  0  0  0  0  0  0  0  0  0  0  0
  151.7366  138.1428  158.9015 C   0  0  0  0  0  0  0  0  0  0  0  0
  151.6298  137.2185  159.7072 O   0  0  0  0  0  0  0  0  0  0  0  0
  151.1366  138.1590  157.5832 N   0  0  0  0  0  0  0  0  0  0  0  0
  150.4020  137.1770  157.0174 C   0  0  0  0  0  0  0  0  0  0  0  0
  149.8123  136.3172  157.8258 N   0  0  0  0  0  0  0  0  0  0  0  0
  149.0377  135.2751  157.3923 C   0  0  0  0  0  0  0  0  0  0  0  0
  148.4682  134.5441  158.2012 O   0  0  0  0  0  0  0  0  0  0  0  0
  148.9114  135.0841  155.9934 N   0  0  0  0  0  0  0  0  0  0  0  0
  148.0247  133.9548  155.4914 C   0  0  1  0  0  0  0  0  0  0  0  0
  146.6816  134.2593  155.7516 O   0  0  0  0  0  0  0  0  0  0  0  0
  146.0014  134.6489  154.5617 C   0  0  1  0  0  0  0  0  0  0  0  0
  146.0822  136.1750  154.3587 C   0  0  0  0  0  0  0  0  0  0  0  0
  146.6944  133.8061  153.4892 C   0  0  1  0  0  0  0  0  0  0  0  0
  146.5859  134.3703  152.1965 O   0  0  0  0  0  0  0  0  0  0  0  0
  148.1426  133.7494  153.9600 C   0  0  2  0  0  0  0  0  0  0  0  0
  148.6905  132.4864  153.6384 O   0  0  0  0  0  0  0  0  0  0  0  0
  149.4979  136.0037  155.1314 C   0  0  0  0  0  0  0  0  0  0  0  0
  150.2475  137.0325  155.5814 C   0  0  0  0  0  0  0  0  0  0  0  0
  150.8337  137.8756  154.7130 F   0  0  0  0  0  0  0  0  0  0  0  0
  148.3250  133.0887  156.0838 H   0  0  0  0  0  0  0  0  0  0  0  0
  144.9509  134.3682  154.6451 H   0  0  0  0  0  0  0  0  0  0  0  0
  146.2530  132.8079  153.4893 H   0  0  0  0  0  0  0  0  0  0  0  0
  148.7271  134.5551  153.5129 H   0  0  0  0  0  0  0  0  0  0  0  0
  152.7766  145.3030  159.3058 H   0  0  0  0  0  0  0  0  0  0  0  0
  151.5114  144.1551  158.8778 H   0  0  0  0  0  0  0  0  0  0  0  0
  153.0579  144.1203  158.0305 H   0  0  0  0  0  0  0  0  0  0  0  0
  154.2046  143.4595  160.1714 H   0  0  0  0  0  0  0  0  0  0  0  0
  152.6712  143.4951  161.0079 H   0  0  0  0  0  0  0  0  0  0  0  0
  151.8167  141.6261  159.6475 H   0  0  0  0  0  0  0  0  0  0  0  0
  153.2413  141.6540  158.6361 H   0  0  0  0  0  0  0  0  0  0  0  0
  154.6529  141.0427  160.6273 H   0  0  0  0  0  0  0  0  0  0  0  0
  153.2160  141.0031  161.6209 H   0  0  0  0  0  0  0  0  0  0  0  0
  154.2887  138.8954  159.9226 H   0  0  0  0  0  0  0  0  0  0  0  0
  152.9558  138.8203  161.0518 H   0  0  0  0  0  0  0  0  0  0  0  0
  151.3398  138.9810  157.0337 H   0  0  0  0  0  0  0  0  0  0  0  0
  145.5126  136.4848  153.4825 H   0  0  0  0  0  0  0  0  0  0  0  0
  147.1082  136.5154  154.2206 H   0  0  0  0  0  0  0  0  0  0  0  0
  145.6652  136.7029  155.2162 H   0  0  0  0  0  0  0  0  0  0  0  0
  147.3238  134.9450  152.0602 H   0  0  0  0  0  0  0  0  0  0  0  0
  148.0548  132.0097  153.1257 H   0  0  0  0  0  0  0  0  0  0  0  0
  149.3760  135.9199  154.0625 H   0  0  0  0  0  0  0  0  0  0  0  0
  1  2  1  0  0  0  0
  1 30  1  0  0  0  0
  1 31  1  0  0  0  0
  1 32  1  0  0  0  0
  2  3  1  0  0  0  0
  2 33  1  0  0  0  0
  2 34  1  0  0  0  0
  3  4  1  0  0  0  0
  3 35  1  0  0  0  0
  3 36  1  0  0  0  0
  4  5  1  0  0  0  0
  4 37  1  0  0  0  0
  4 38  1  0  0  0  0
  5  6  1  0  0  0  0
  5 39  1  0  0  0  0
  5 40  1  0  0  0  0
  6  7  1  0  0  0  0
  7  8  2  0  0  0  0
  7  9  1  0  0  0  0
  9 10  1  0  0  0  0
  9 41  1  0  0  0  0
 10 24  1  0  0  0  0
 10 11  2  0  0  0  0
 11 12  1  0  0  0  0
 12 13  2  0  0  0  0
 12 14  1  0  0  0  0
 14 15  1  0  0  0  0
 14 23  1  0  0  0  0
 15 26  1  0  0  0  0
 15 21  1  0  0  0  0
 15 16  1  0  0  0  0
 16 17  1  0  0  0  0
 17 27  1  0  0  0  0
 17 18  1  0  0  0  0
 17 19  1  0  0  0  0
 18 42  1  0  0  0  0
 18 43  1  0  0  0  0
 18 44  1  0  0  0  0
 19 28  1  0  0  0  0
 19 20  1  0  0  0  0
 19 21  1  0  0  0  0
 20 45  1  0  0  0  0
 21 29  1  0  0  0  0
 21 22  1  0  0  0  0
 22 46  1  0  0  0  0
 23 24  2  0  0  0  0
 23 47  1  0  0  0  0
 24 25  1  0  0  0  0
M  END
> <s_m_source_file>
AV-unprocessed.smi

> <i_m_source_file_index>
40

> <i_lp_mmshare_version>
43012

> <i_f3d_flags>
0

> <s_epik_input>
W0NIM11bQ0gyXVtDSDJdW0NIMl1bQ0gyXU9DKD1PKVtOSF1jMW5jKD1PKW4oW2NIXWMxRilbQ0BASF0yT1tDQEhdKFtDSDNdKVtDQEBIXShbT0hdKVtDQEhdMltPSF0=

> <s_epik_cmdline>
J2VwaWtfcHl0aG9uJywgJy1waCcsICc3LjAnLCAnLXRuJywgJzgnLCAnLW1hJywgJzIwMCcsICctbWV0YWxfYmluZGluZycsICctaW1hZScsICc8aW5maWxlLm1hZT4nLCAnLW9tYWUnLCAnPG91dGZpbGUubWFlPic=

> <r_lp_tautomer_probability>
1

> <r_epik_Ionization_Penalty>
2.29506e-06

> <r_epik_Ionization_Penalty_Charging>
8.26867e-09

> <r_epik_Ionization_Penalty_Neutral>
2.2868e-06

> <r_epik_State_Penalty>
-0

> <r_epik_Charging_Adjusted_Penalty>
8.26867e-09

> <i_epik_Tot_Q>
0

> <i_epik_Tot_abs_Q>
0

> <r_epik_Metal_State_Penalty>
-0

> <b_epik_Metal_Only>
0

> <s_epik_Chemistry_Notes>
This compound has an ester and may undergo hydrolysis at high or low pH. This compound contains an acetal/aminal-like group ( X-CH(R)-Y where X, Y are N, S, or O) that may be acid/base labile, releasing an aldehyde.

> <s_lp_Force_Field>
OPLS_2005

> <r_lp_Energy>
34.9505

> <b_lp_Chiralities_Consistent>
1

> <s_lp_Variant>
AV-unprocessed.smi:40-12

> <Gold.Version>
5.8.1

> <Gold.Id.Protein>
6NUR|6NUR_protein|mol2

> <Gold.PLP.Fitness>
44.6675

> <Gold.PLP.PLP>
-34.8299

> <Gold.PLP.part.hbond>
-3.4956

> <Gold.PLP.part.metal>
0.0000

> <Gold.PLP.part.buried>
-4.5246

> <Gold.PLP.part.nonpolar>
-27.7243

> <Gold.PLP.part.repulsive>
0.0424

> <Gold.PLP.ligand.clash>
0.0000

> <Gold.PLP.ligand.torsion>
1.0777

> <Gold.PLP.Chemscore.Hbond>
2.9750

> <Gold.PLP.Chemscore.CHOScore>
0.9695

> <Gold.PLP.Chemscore.Metal>
0.0000

> <Gold.Chemscore.Hbonds>
donor molecule, donor type, donor heavy atom, donor atom, acceptor molecule, acceptor atom, score
      L1  H    20    45       P1  7948  0.96
      P1  H  6896  6908       L1     8  0.86
      L1  C    23    47       P1  7948  1.00

> <Gold.PLP.Chemscore.Internal.Correction>
0.1596

> <Gold.Rescore>
     Score         DG    S(hbond)    S(metal)    S(lipo)     H(rot)  DE(clash)    DE(int)     intcor
      8.42     -11.88       2.18        0.00      73.39       3.70       0.04       3.42       ----

> <Gold.Chemscore.Fitness>
8.4171

> <Gold.Chemscore.DG>
-11.8821

> <Gold.Chemscore.ZeroCoef>
-5.4800

> <Gold.Chemscore.Hbond>
2.1787

> <Gold.Chemscore.Metal>
0.0000

> <Gold.Chemscore.Lipo>
73.3877

> <Gold.Chemscore.Internal_Hbond>
0.0000

> <Gold.Chemscore.DEClash>
0.0403

> <Gold.Chemscore.DEInternal>
3.4248

> <Gold.Chemscore.Rot>
3.6957

> <Gold.Chemscore.Internal.Correction>
   9.000000E+99

> <Gold.Chemscore.Hbonds>
donor molecule, donor type, donor heavy atom, donor atom, acceptor molecule, acceptor atom, score
      L1  H    20    45       P1  7948  0.86
      P1  H  6896  6908       L1     8  0.84

> <Gold.Chemscore.Hbond.Weighted>
-7.2767

> <Gold.Chemscore.Metal.Weighted>
-0.0000

> <Gold.Chemscore.Lipo.Weighted>
-8.5864

> <Gold.Chemscore.Internal_Hbond.Weighted>
0.0000

> <Gold.Chemscore.DEClash.Weighted>
0.0403

> <Gold.Chemscore.DEInternal.Weighted>
3.4248

> <Gold.Chemscore.Rot.Weighted>
9.4610

> <Gold.Chemscore.Internal.Correction.Weighted>
   9.000000E+99

> <Gold.Protein.RotatedTorsions>
[ 6907 6896 6895 6894 ] final -111.27 input  -60.11 | X-H torsion
[ 7974 7965 7964 7962 ] final   98.46 input  175.53 | X-H torsion
[ 8008 7997 7996 7995 ] final   76.58 input   59.86 | X-H torsion
[ 10167 10162 10161 10158 ] final  -10.15 input  -65.29 | X-H torsion
[ 10718 10713 10712 10709 ] final -134.22 input   66.30 | X-H torsion
[ 10763 10752 10751 10750 ] final  101.84 input  -60.55 | X-H torsion
[ 11005 11000 10999 10996 ] final  140.41 input  -57.11 | X-H torsion

> <Gold.Protein.ActiveResidues>
 VAL166  LYS551  ARG553  GLY616  TRP617  ASP618  TYR619  PRO620  LYS621  CYS622 
 ASP623  PHE694  ASN695  SER759  ASP760  ASP761  ALA762  ILE779  LEU786  VAL792 
 PHE793  MET794  SER795  GLU796  ALA797  LYS798  CYS799  TRP800  GLU811  SER814 

> <Gold.Protein.RotatedAtoms>
  150.7679  133.9259  159.3411 H   0  0  0  0  0  0  0  0  0  0  0  0  # atno 6907 bound_to 6896
  151.7152  135.0903  160.0284 H   0  0  0  0  0  0  0  0  0  0  0  0  # atno 6908 bound_to 6896
  152.3684  133.6349  159.6104 H   0  0  0  0  0  0  0  0  0  0  0  0  # atno 6909 bound_to 6896
  145.4118  139.2333  143.3244 H   0  0  0  0  0  0  0  0  0  0  0  0  # atno 7974 bound_to 7965
  155.8294  140.3467  155.5562 H   0  0  0  0  0  0  0  0  0  0  0  0  # atno 8008 bound_to 7997
  155.8258  140.0919  157.1841 H   0  0  0  0  0  0  0  0  0  0  0  0  # atno 8009 bound_to 7997
  154.4004  140.1421  156.3542 H   0  0  0  0  0  0  0  0  0  0  0  0  # atno 8010 bound_to 7997
  140.7106  143.5780  150.9022 H   0  0  0  0  0  0  0  0  0  0  0  0  # atno 10167 bound_to 10162
  156.2532  130.7165  151.1072 H   0  0  0  0  0  0  0  0  0  0  0  0  # atno 10718 bound_to 10713
  153.3318  135.4031  155.1502 H   0  0  0  0  0  0  0  0  0  0  0  0  # atno 10763 bound_to 10752
  154.8625  135.3612  154.5460 H   0  0  0  0  0  0  0  0  0  0  0  0  # atno 10764 bound_to 10752
  153.5899  135.7074  153.5487 H   0  0  0  0  0  0  0  0  0  0  0  0  # atno 10765 bound_to 10752
  140.0325  134.9345  157.0690 H   0  0  0  0  0  0  0  0  0  0  0  0  # atno 11005 bound_to 11000
  146.2701  140.4831  142.8818 LP  0  0  0  0  0  0  0  0  0  0  0  0  # atno 17320 bound_to 7965
  144.8303  140.6697  143.6295 LP  0  0  0  0  0  0  0  0  0  0  0  0  # atno 17321 bound_to 7965
  139.9506  143.6277  152.3030 LP  0  0  0  0  0  0  0  0  0  0  0  0  # atno 17342 bound_to 10162
  139.6794  144.7656  151.1636 LP  0  0  0  0  0  0  0  0  0  0  0  0  # atno 17343 bound_to 10162
  157.7222  131.0674  150.6086 LP  0  0  0  0  0  0  0  0  0  0  0  0  # atno 17370 bound_to 10713
  156.6167  130.4395  149.5838 LP  0  0  0  0  0  0  0  0  0  0  0  0  # atno 17371 bound_to 10713
  140.4202  134.1889  155.7164 LP  0  0  0  0  0  0  0  0  0  0  0  0  # atno 17394 bound_to 11000
  141.1839  133.8355  157.1159 LP  0  0  0  0  0  0  0  0  0  0  0  0  # atno 17395 bound_to 11000

$$$$
