AV-unprocessed.smi:1384|AV-procd|sdf|5627|dock5
  -GOLD-   22720 5243D 1   1.00000     0.00000
 Structure written by MMmdl.
 41 42  0  0  0  0  0  0  0  0  1 V2000
  150.8920  141.3425  157.8283 C   0  0  0  0  0  0  0  0  0  0  0  0
  150.9712  140.8806  156.3661 C   0  0  2  0  0  0  0  0  0  0  0  0
  149.5673  140.6691  155.7678 C   0  0  0  0  0  0  0  0  0  0  0  0
  149.6372  140.2007  154.3032 C   0  0  0  0  0  0  0  0  0  0  0  0
  150.4931  138.9305  154.1368 C   0  0  2  0  0  0  0  0  0  0  0  0
  149.8045  137.7787  154.7171 N   0  0  0  0  0  0  0  0  0  0  0  0
  150.3696  136.5977  155.0103 C   0  0  0  0  0  0  0  0  0  0  0  0
  151.5636  136.3568  154.8254 O   0  0  0  0  0  0  0  0  0  0  0  0
  149.4338  135.5438  155.6199 C   0  0  0  0  0  0  0  0  0  0  0  0
  149.5629  134.2127  155.0016 N   0  0  0  0  0  0  0  0  0  0  0  0
  148.9646  134.0378  153.7411 C   0  0  0  0  0  0  0  0  0  0  0  0
  149.0202  132.8682  153.0898 C   0  0  0  0  0  0  0  0  0  0  0  0
  149.7184  131.7718  153.7155 C   0  0  0  0  0  0  0  0  0  0  0  0
  150.2981  131.9078  154.9306 C   0  0  0  0  0  0  0  0  0  0  0  0
  151.0449  130.7586  155.6046 C   0  0  0  0  0  0  0  0  0  0  0  0
  152.3338  131.0631  155.7622 F   0  0  0  0  0  0  0  0  0  0  0  0
  150.5262  130.5064  156.8068 F   0  0  0  0  0  0  0  0  0  0  0  0
  150.9773  129.6360  154.8873 F   0  0  0  0  0  0  0  0  0  0  0  0
  150.2268  133.2008  155.6418 C   0  0  0  0  0  0  0  0  0  0  0  0
  150.7331  133.3714  156.7523 O   0  0  0  0  0  0  0  0  0  0  0  0
  151.8913  139.1289  154.7605 C   0  0  0  0  0  0  0  0  0  0  0  0
  151.8159  139.6000  156.2237 C   0  0  0  0  0  0  0  0  0  0  0  0
  150.4048  140.5943  158.4545 H   0  0  0  0  0  0  0  0  0  0  0  0
  150.3260  142.2701  157.9166 H   0  0  0  0  0  0  0  0  0  0  0  0
  151.8863  141.5235  158.2379 H   0  0  0  0  0  0  0  0  0  0  0  0
  151.4630  141.6719  155.7981 H   0  0  0  0  0  0  0  0  0  0  0  0
  149.0201  139.9360  156.3617 H   0  0  0  0  0  0  0  0  0  0  0  0
  148.9955  141.5959  155.8252 H   0  0  0  0  0  0  0  0  0  0  0  0
  148.6315  140.0323  153.9162 H   0  0  0  0  0  0  0  0  0  0  0  0
  150.0643  140.9998  153.6959 H   0  0  0  0  0  0  0  0  0  0  0  0
  150.6120  138.7470  153.0674 H   0  0  0  0  0  0  0  0  0  0  0  0
  148.8195  137.8909  154.9088 H   0  0  0  0  0  0  0  0  0  0  0  0
  149.6370  135.4881  156.6905 H   0  0  0  0  0  0  0  0  0  0  0  0
  148.4030  135.8952  155.5461 H   0  0  0  0  0  0  0  0  0  0  0  0
  148.4557  134.9056  153.3466 H   0  0  0  0  0  0  0  0  0  0  0  0
  148.5515  132.7485  152.1243 H   0  0  0  0  0  0  0  0  0  0  0  0
  149.7691  130.8303  153.1894 H   0  0  0  0  0  0  0  0  0  0  0  0
  152.4750  138.2102  154.6941 H   0  0  0  0  0  0  0  0  0  0  0  0
  152.4370  139.8718  154.1775 H   0  0  0  0  0  0  0  0  0  0  0  0
  152.8244  139.7762  156.5997 H   0  0  0  0  0  0  0  0  0  0  0  0
  151.3936  138.8071  156.8423 H   0  0  0  0  0  0  0  0  0  0  0  0
  1  2  1  0  0  0  0
  1 23  1  0  0  0  0
  1 24  1  0  0  0  0
  1 25  1  0  0  0  0
  2 22  1  0  0  0  0
  2  3  1  0  0  0  0
  2 26  1  0  0  0  0
  3  4  1  0  0  0  0
  3 27  1  0  0  0  0
  3 28  1  0  0  0  0
  4  5  1  0  0  0  0
  4 29  1  0  0  0  0
  4 30  1  0  0  0  0
  5  6  1  0  0  0  0
  5 21  1  0  0  0  0
  5 31  1  0  0  0  0
  6  7  1  0  0  0  0
  6 32  1  0  0  0  0
  7  8  2  0  0  0  0
  7  9  1  0  0  0  0
  9 10  1  0  0  0  0
  9 33  1  0  0  0  0
  9 34  1  0  0  0  0
 10 19  1  0  0  0  0
 10 11  1  0  0  0  0
 11 12  2  0  0  0  0
 11 35  1  0  0  0  0
 12 13  1  0  0  0  0
 12 36  1  0  0  0  0
 13 14  2  0  0  0  0
 13 37  1  0  0  0  0
 14 15  1  0  0  0  0
 14 19  1  0  0  0  0
 15 16  1  0  0  0  0
 15 17  1  0  0  0  0
 15 18  1  0  0  0  0
 19 20  2  0  0  0  0
 21 22  1  0  0  0  0
 21 38  1  0  0  0  0
 21 39  1  0  0  0  0
 22 40  1  0  0  0  0
 22 41  1  0  0  0  0
M  END
> <s_m_source_file>
AV-unprocessed.smi

> <i_m_source_file_index>
1384

> <i_lp_mmshare_version>
43012

> <i_f3d_flags>
0

> <s_epik_input>
W0NIM11bQ0BASF0xW0NIMl1bQ0gyXVtDQEhdKFtDSDJdW0NIMl0xKVtOSF1DKD1PKVtDSDJdbjJbY0hdW2NIXVtjSF1jKEMoRikoRilGKWMyPU8=

> <s_epik_cmdline>
J2VwaWtfcHl0aG9uJywgJy1waCcsICc3LjAnLCAnLXRuJywgJzgnLCAnLW1hJywgJzIwMCcsICctbWV0YWxfYmluZGluZycsICctaW1hZScsICc8aW5maWxlLm1hZT4nLCAnLW9tYWUnLCAnPG91dGZpbGUubWFlPic=

> <r_lp_tautomer_probability>
1

> <r_epik_Ionization_Penalty>
2.11165e-08

> <r_epik_Ionization_Penalty_Charging>
2.06965e-09

> <r_epik_Ionization_Penalty_Neutral>
1.90469e-08

> <r_epik_State_Penalty>
-0

> <r_epik_Charging_Adjusted_Penalty>
2.06965e-09

> <i_epik_Tot_Q>
0

> <i_epik_Tot_abs_Q>
0

> <r_epik_Metal_State_Penalty>
-0

> <b_epik_Metal_Only>
0

> <s_lp_Force_Field>
OPLS_2005

> <r_lp_Energy>
18.4349

> <b_lp_Chiralities_Consistent>
1

> <s_lp_Variant>
AV-unprocessed.smi:1384-2

> <Gold.Version>
5.8.1

> <Gold.Id.Protein>
6NUR|6NUR_protein|mol2

> <Gold.PLP.Fitness>
46.9106

> <Gold.PLP.PLP>
-39.7655

> <Gold.PLP.part.hbond>
-2.0000

> <Gold.PLP.part.metal>
0.0000

> <Gold.PLP.part.buried>
-3.0382

> <Gold.PLP.part.nonpolar>
-35.1706

> <Gold.PLP.part.repulsive>
0.1341

> <Gold.PLP.ligand.clash>
0.2811

> <Gold.PLP.ligand.torsion>
0.6227

> <Gold.PLP.Chemscore.Hbond>
1.7823

> <Gold.PLP.Chemscore.CHOScore>
1.0000

> <Gold.PLP.Chemscore.Metal>
0.0000

> <Gold.Chemscore.Hbonds>
donor molecule, donor type, donor heavy atom, donor atom, acceptor molecule, acceptor atom, score
      P1  H 10752 10765       L1     8  1.00
      L1  C    11    35       P1  7948  0.98

> <Gold.PLP.Chemscore.Internal.Correction>
0.3246

> <Gold.Rescore>
     Score         DG    S(hbond)    S(metal)    S(lipo)     H(rot)  DE(clash)    DE(int)     intcor
     13.14     -17.02       1.97        0.00      75.80       1.52       0.02       3.87       ----

> <Gold.Chemscore.Fitness>
13.1366

> <Gold.Chemscore.DG>
-17.0205

> <Gold.Chemscore.ZeroCoef>
-5.4800

> <Gold.Chemscore.Hbond>
1.9681

> <Gold.Chemscore.Metal>
0.0000

> <Gold.Chemscore.Lipo>
75.8023

> <Gold.Chemscore.Internal_Hbond>
0.0000

> <Gold.Chemscore.DEClash>
0.0163

> <Gold.Chemscore.DEInternal>
3.8676

> <Gold.Chemscore.Rot>
1.5242

> <Gold.Chemscore.Internal.Correction>
   9.000000E+99

> <Gold.Chemscore.Hbonds>
donor molecule, donor type, donor heavy atom, donor atom, acceptor molecule, acceptor atom, score
      P1  H  6896  6909       L1    20  0.03
      P1  H 10752 10765       L1     8  0.98

> <Gold.Chemscore.Hbond.Weighted>
-6.5735

> <Gold.Chemscore.Metal.Weighted>
-0.0000

> <Gold.Chemscore.Lipo.Weighted>
-8.8689

> <Gold.Chemscore.Internal_Hbond.Weighted>
0.0000

> <Gold.Chemscore.DEClash.Weighted>
0.0163

> <Gold.Chemscore.DEInternal.Weighted>
3.8676

> <Gold.Chemscore.Rot.Weighted>
3.9019

> <Gold.Chemscore.Internal.Correction.Weighted>
   9.000000E+99

> <Gold.Protein.RotatedTorsions>
[ 6907 6896 6895 6894 ] final  -23.33 input  -60.11 | X-H torsion
[ 7974 7965 7964 7962 ] final  111.97 input  175.53 | X-H torsion
[ 8008 7997 7996 7995 ] final  153.13 input   59.86 | X-H torsion
[ 10167 10162 10161 10158 ] final -119.74 input  -65.29 | X-H torsion
[ 10718 10713 10712 10709 ] final -158.19 input   66.30 | X-H torsion
[ 10763 10752 10751 10750 ] final  179.84 input  -60.55 | X-H torsion
[ 11005 11000 10999 10996 ] final   89.65 input  -57.11 | X-H torsion

> <Gold.Protein.ActiveResidues>
 VAL166  LYS551  ARG553  GLY616  TRP617  ASP618  TYR619  PRO620  LYS621  CYS622 
 ASP623  PHE694  ASN695  SER759  ASP760  ASP761  ALA762  ILE779  LEU786  VAL792 
 PHE793  MET794  SER795  GLU796  ALA797  LYS798  CYS799  TRP800  GLU811  SER814 

> <Gold.Protein.RotatedAtoms>
  151.2055  135.0460  159.8889 H   0  0  0  0  0  0  0  0  0  0  0  0  # atno 6907 bound_to 6896
  152.5429  134.0802  159.8242 H   0  0  0  0  0  0  0  0  0  0  0  0  # atno 6908 bound_to 6896
  151.0949  133.5240  159.2645 H   0  0  0  0  0  0  0  0  0  0  0  0  # atno 6909 bound_to 6896
  145.2355  139.2801  143.4145 H   0  0  0  0  0  0  0  0  0  0  0  0  # atno 7974 bound_to 7965
  156.2596  140.2002  156.6443 H   0  0  0  0  0  0  0  0  0  0  0  0  # atno 8008 bound_to 7997
  154.6586  140.0563  157.0061 H   0  0  0  0  0  0  0  0  0  0  0  0  # atno 8009 bound_to 7997
  155.1310  140.3234  155.4477 H   0  0  0  0  0  0  0  0  0  0  0  0  # atno 8010 bound_to 7997
  140.0434  143.5131  152.2118 H   0  0  0  0  0  0  0  0  0  0  0  0  # atno 10167 bound_to 10162
  156.5507  130.8604  151.2779 H   0  0  0  0  0  0  0  0  0  0  0  0  # atno 10718 bound_to 10713
  154.5259  135.2797  155.1222 H   0  0  0  0  0  0  0  0  0  0  0  0  # atno 10763 bound_to 10752
  154.2761  135.6294  153.5333 H   0  0  0  0  0  0  0  0  0  0  0  0  # atno 10764 bound_to 10752
  152.9946  135.5640  154.5760 H   0  0  0  0  0  0  0  0  0  0  0  0  # atno 10765 bound_to 10752
  139.8871  134.8565  156.3172 H   0  0  0  0  0  0  0  0  0  0  0  0  # atno 11005 bound_to 11000
  146.3342  140.2703  142.8605 LP  0  0  0  0  0  0  0  0  0  0  0  0  # atno 17320 bound_to 7965
  144.9637  140.8300  143.5498 LP  0  0  0  0  0  0  0  0  0  0  0  0  # atno 17321 bound_to 7965
  139.5999  144.7579  151.3196 LP  0  0  0  0  0  0  0  0  0  0  0  0  # atno 17342 bound_to 10162
  140.7250  143.7030  150.7830 LP  0  0  0  0  0  0  0  0  0  0  0  0  # atno 17343 bound_to 10162
  157.7388  130.9820  150.2274 LP  0  0  0  0  0  0  0  0  0  0  0  0  # atno 17370 bound_to 10713
  156.2887  130.3743  149.7863 LP  0  0  0  0  0  0  0  0  0  0  0  0  # atno 17371 bound_to 10713
  140.9811  133.7267  156.0673 LP  0  0  0  0  0  0  0  0  0  0  0  0  # atno 17394 bound_to 11000
  140.7748  134.3792  157.5500 LP  0  0  0  0  0  0  0  0  0  0  0  0  # atno 17395 bound_to 11000

$$$$
