AV-unprocessed.smi:857|AV-procd|sdf|3961|dock7
  -GOLD-   22720 1433D 1   1.00000     0.00000
 Structure written by MMmdl.
 29 30  0  0  0  0  0  0  0  0  2 V2000
  151.6073  145.1570  159.0785 C   0  0  0  0  0  0  0  0  0  0  0  0
  151.8511  143.6878  158.8027 C   0  0  0  0  0  0  0  0  0  0  0  0
  152.9113  143.0083  159.4278 C   0  0  0  0  0  0  0  0  0  0  0  0
  153.1396  141.6321  159.1699 C   0  0  0  0  0  0  0  0  0  0  0  0
  154.2994  140.9791  159.8852 C   0  0  0  0  0  0  0  0  0  0  0  0
  154.8367  139.9556  159.4245 O   0  0  0  0  0  0  0  0  0  0  0  0
  154.7097  141.4898  160.9519 O   0  5  0  0  0  0  0  0  0  0  0  0
  152.2600  140.9564  158.2548 C   0  0  0  0  0  0  0  0  0  0  0  0
  152.0020  139.6568  157.6370 C   0  0  0  0  0  0  0  0  0  0  0  0
  152.6623  138.3088  157.7334 C   0  0  0  0  0  0  0  0  0  0  0  0
  150.9648  139.7125  156.8329 N   0  0  0  0  0  0  0  0  0  0  0  0
  150.5033  140.9789  156.8620 N   0  0  0  0  0  0  0  0  0  0  0  0
  149.3427  141.3186  156.0578 C   0  0  0  0  0  0  0  0  0  0  0  0
  148.9289  140.1527  155.1498 C   0  0  0  0  0  0  0  0  0  0  0  0
  149.5106  140.3100  153.8735 O   0  0  0  0  0  0  0  0  0  0  0  0
  151.2353  141.7900  157.7042 C   0  0  0  0  0  0  0  0  0  0  0  0
  150.9975  143.1111  157.9396 N   0  0  0  0  0  0  0  0  0  0  0  0
  152.3360  145.5551  159.7853 H   0  0  0  0  0  0  0  0  0  0  0  0
  150.6119  145.3035  159.4988 H   0  0  0  0  0  0  0  0  0  0  0  0
  151.6800  145.7332  158.1556 H   0  0  0  0  0  0  0  0  0  0  0  0
  153.5467  143.5571  160.1080 H   0  0  0  0  0  0  0  0  0  0  0  0
  153.5147  138.2465  158.3908 H   0  0  0  0  0  0  0  0  0  0  0  0
  153.0090  137.9826  156.7524 H   0  0  0  0  0  0  0  0  0  0  0  0
  151.9518  137.5593  158.0829 H   0  0  0  0  0  0  0  0  0  0  0  0
  148.5247  141.5906  156.7262 H   0  0  0  0  0  0  0  0  0  0  0  0
  149.5687  142.2053  155.4633 H   0  0  0  0  0  0  0  0  0  0  0  0
  149.2519  139.2011  155.5734 H   0  0  0  0  0  0  0  0  0  0  0  0
  147.8443  140.1135  155.0437 H   0  0  0  0  0  0  0  0  0  0  0  0
  149.2756  139.5649  153.3415 H   0  0  0  0  0  0  0  0  0  0  0  0
  1  2  1  0  0  0  0
  1 18  1  0  0  0  0
  1 19  1  0  0  0  0
  1 20  1  0  0  0  0
  2 17  1  0  0  0  0
  2  3  2  0  0  0  0
  3  4  1  0  0  0  0
  3 21  1  0  0  0  0
  4  5  1  0  0  0  0
  4  8  2  0  0  0  0
  5  6  2  0  0  0  0
  5  7  1  0  0  0  0
  8 16  1  0  0  0  0
  8  9  1  0  0  0  0
  9 10  1  0  0  0  0
  9 11  2  0  0  0  0
 10 22  1  0  0  0  0
 10 23  1  0  0  0  0
 10 24  1  0  0  0  0
 11 12  1  0  0  0  0
 12 13  1  0  0  0  0
 12 16  1  0  0  0  0
 13 14  1  0  0  0  0
 13 25  1  0  0  0  0
 13 26  1  0  0  0  0
 14 15  1  0  0  0  0
 14 27  1  0  0  0  0
 14 28  1  0  0  0  0
 15 29  1  0  0  0  0
 16 17  2  0  0  0  0
M  CHG  1   7  -1
M  END
> <s_m_source_file>
AV-unprocessed.smi

> <i_m_source_file_index>
857

> <i_lp_mmshare_version>
43012

> <i_f3d_flags>
0

> <s_epik_input>
Tz1DKFtPSF0pYzFbY0hdYyhbQ0gzXSluYyhjMTIpbihuYzJbQ0gzXSlbQ0gyXVtDSDJdW09IXQ==

> <s_epik_cmdline>
J2VwaWtfcHl0aG9uJywgJy1waCcsICc3LjAnLCAnLXRuJywgJzgnLCAnLW1hJywgJzIwMCcsICctbWV0YWxfYmluZGluZycsICctaW1hZScsICc8aW5maWxlLm1hZT4nLCAnLW9tYWUnLCAnPG91dGZpbGUubWFlPic=

> <r_lp_tautomer_probability>
1

> <r_epik_Ionization_Penalty>
0.000221063

> <r_epik_Ionization_Penalty_Charging>
0.000215421

> <r_epik_Ionization_Penalty_Neutral>
5.64189e-06

> <r_epik_State_Penalty>
-0

> <r_epik_Charging_Adjusted_Penalty>
0.000215421

> <i_epik_Tot_Q>
-1

> <i_epik_Tot_abs_Q>
1

> <r_epik_Metal_State_Penalty>
-0

> <b_epik_Metal_Only>
0

> <s_lp_Force_Field>
OPLS_2005

> <r_lp_Energy>
11.0008

> <b_lp_Chiralities_Consistent>
1

> <s_lp_Variant>
AV-unprocessed.smi:857-1

> <Gold.Version>
5.8.1

> <Gold.Id.Protein>
6NUR|6NUR_protein|mol2

> <Gold.PLP.Fitness>
46.3899

> <Gold.PLP.PLP>
-35.4421

> <Gold.PLP.part.hbond>
-4.6132

> <Gold.PLP.part.metal>
0.0000

> <Gold.PLP.part.buried>
-2.6638

> <Gold.PLP.part.nonpolar>
-26.5270

> <Gold.PLP.part.repulsive>
0.1260

> <Gold.PLP.ligand.clash>
0.0000

> <Gold.PLP.ligand.torsion>
0.5148

> <Gold.PLP.Chemscore.Hbond>
3.9920

> <Gold.PLP.Chemscore.CHOScore>
0.0000

> <Gold.PLP.Chemscore.Metal>
0.0000

> <Gold.Chemscore.Hbonds>
donor molecule, donor type, donor heavy atom, donor atom, acceptor molecule, acceptor atom, score
      L1  H    15    29       P1  7957  0.09
      P1  H  7989  7998       L1    15  0.37
      P1  H  7997  8008       L1     6  1.66

> <Gold.PLP.Chemscore.Internal.Correction>
0.0014

> <Gold.Rescore>
     Score         DG    S(hbond)    S(metal)    S(lipo)     H(rot)  DE(clash)    DE(int)     intcor
     16.69     -17.96       2.36        0.00      79.56       1.84       0.73       0.53       ----

> <Gold.Chemscore.Fitness>
16.6948

> <Gold.Chemscore.DG>
-17.9576

> <Gold.Chemscore.ZeroCoef>
-5.4800

> <Gold.Chemscore.Hbond>
2.3629

> <Gold.Chemscore.Metal>
0.0000

> <Gold.Chemscore.Lipo>
79.5566

> <Gold.Chemscore.Internal_Hbond>
0.0000

> <Gold.Chemscore.DEClash>
0.7287

> <Gold.Chemscore.DEInternal>
0.5341

> <Gold.Chemscore.Rot>
1.8448

> <Gold.Chemscore.Internal.Correction>
   9.000000E+99

> <Gold.Chemscore.Hbonds>
donor molecule, donor type, donor heavy atom, donor atom, acceptor molecule, acceptor atom, score
      L1  H    15    29       P1  7957  0.09
      P1  H  7989  7998       L1    15  0.28
      P1  H  7997  8008       L1     6  0.68

> <Gold.Chemscore.Hbond.Weighted>
-7.8920

> <Gold.Chemscore.Metal.Weighted>
-0.0000

> <Gold.Chemscore.Lipo.Weighted>
-9.3081

> <Gold.Chemscore.Internal_Hbond.Weighted>
0.0000

> <Gold.Chemscore.DEClash.Weighted>
0.7287

> <Gold.Chemscore.DEInternal.Weighted>
0.5341

> <Gold.Chemscore.Rot.Weighted>
4.7226

> <Gold.Chemscore.Internal.Correction.Weighted>
   9.000000E+99

> <Gold.Protein.RotatedTorsions>
[ 6907 6896 6895 6894 ] final  -42.92 input  -60.11 | X-H torsion
[ 7974 7965 7964 7962 ] final -119.45 input  175.53 | X-H torsion
[ 8008 7997 7996 7995 ] final -121.97 input   59.86 | X-H torsion
[ 10167 10162 10161 10158 ] final -129.87 input  -65.29 | X-H torsion
[ 10718 10713 10712 10709 ] final  115.06 input   66.30 | X-H torsion
[ 10763 10752 10751 10750 ] final  138.28 input  -60.55 | X-H torsion
[ 11005 11000 10999 10996 ] final   66.21 input  -57.11 | X-H torsion

> <Gold.Protein.ActiveResidues>
 VAL166  LYS551  ARG553  GLY616  TRP617  ASP618  TYR619  PRO620  LYS621  CYS622 
 ASP623  PHE694  ASN695  SER759  ASP760  ASP761  ALA762  ILE779  LEU786  VAL792 
 PHE793  MET794  SER795  GLU796  ALA797  LYS798  CYS799  TRP800  GLU811  SER814 

> <Gold.Protein.RotatedAtoms>
  150.9498  134.8899  159.7664 H   0  0  0  0  0  0  0  0  0  0  0  0  # atno 6907 bound_to 6896
  152.5115  134.3823  159.9365 H   0  0  0  0  0  0  0  0  0  0  0  0  # atno 6908 bound_to 6896
  151.3839  133.3771  159.2748 H   0  0  0  0  0  0  0  0  0  0  0  0  # atno 6909 bound_to 6896
  145.0623  140.8299  143.4145 H   0  0  0  0  0  0  0  0  0  0  0  0  # atno 7974 bound_to 7965
  155.1567  140.0405  157.2833 H   0  0  0  0  0  0  0  0  0  0  0  0  # atno 8008 bound_to 7997
  154.6365  140.2537  155.7345 H   0  0  0  0  0  0  0  0  0  0  0  0  # atno 8009 bound_to 7997
  156.2511  140.2864  156.0740 H   0  0  0  0  0  0  0  0  0  0  0  0  # atno 8010 bound_to 7997
  139.9353  143.6225  152.2518 H   0  0  0  0  0  0  0  0  0  0  0  0  # atno 10167 bound_to 10162
  157.6244  131.1007  150.7276 H   0  0  0  0  0  0  0  0  0  0  0  0  # atno 10718 bound_to 10713
  153.8871  135.3037  155.3446 H   0  0  0  0  0  0  0  0  0  0  0  0  # atno 10763 bound_to 10752
  154.7734  135.4874  153.9698 H   0  0  0  0  0  0  0  0  0  0  0  0  # atno 10764 bound_to 10752
  153.1319  135.6805  153.9263 H   0  0  0  0  0  0  0  0  0  0  0  0  # atno 10765 bound_to 10752
  139.9846  134.6689  156.0200 H   0  0  0  0  0  0  0  0  0  0  0  0  # atno 11005 bound_to 11000
  145.1393  139.2582  143.5498 LP  0  0  0  0  0  0  0  0  0  0  0  0  # atno 17320 bound_to 7965
  146.3525  140.1066  142.8605 LP  0  0  0  0  0  0  0  0  0  0  0  0  # atno 17321 bound_to 7965
  139.6749  144.7659  151.1715 LP  0  0  0  0  0  0  0  0  0  0  0  0  # atno 17342 bound_to 10162
  140.7626  143.5810  150.8895 LP  0  0  0  0  0  0  0  0  0  0  0  0  # atno 17343 bound_to 10162
  156.7627  130.4803  149.5434 LP  0  0  0  0  0  0  0  0  0  0  0  0  # atno 17370 bound_to 10713
  156.1408  130.6243  151.0464 LP  0  0  0  0  0  0  0  0  0  0  0  0  # atno 17371 bound_to 10713
  141.1513  133.6548  156.4021 LP  0  0  0  0  0  0  0  0  0  0  0  0  # atno 17394 bound_to 11000
  140.5028  134.6469  157.5255 LP  0  0  0  0  0  0  0  0  0  0  0  0  # atno 17395 bound_to 11000

$$$$
