#       Name:                AV-unprocessed.smi:1267
#       Creating user name   scv26
#       Creation time:       Fri Mar 27 04:44:46 2020


#       File generated by GOLD software.
#

@<TRIPOS>MOLECULE
AV-unprocessed.smi:1267
    40    41     1
SMALL
NO_CHARGES


@<TRIPOS>ATOM
      1 ****        -2.7574  -3.1518  -0.3654 C.3            1 S1                 0.0000
      2 ****        -4.1199  -1.9178  -0.4354 S.o2           1 S1                 0.0000
      3 ****        -4.7957  -2.0544  -1.7346 O.2            1 S1                 0.0000
      4 ****        -4.9003  -2.0259   0.8068 O.2            1 S1                 0.0000
      5 ****        -3.3036  -0.3807  -0.4189 N.pl3          1 S1                 0.0000
      6 ****        -2.7347   0.1390   0.8409 C.3            1 S1                 0.0000
      7 ****        -1.2117  -0.0717   0.9071 C.3            1 S1                 0.0000
      8 ****        -0.5085   0.5142  -0.3258 C.3            1 S1                 0.0000
      9 ****         0.9229   0.2395  -0.2525 N.am           1 S1                 0.0000
     10 ****         1.8778   0.9096  -0.9162 C.2            1 S1                 0.0000
     11 ****         1.6452   1.8405  -1.6871 O.2            1 S1                 0.0000
     12 ****         3.3184   0.4605  -0.6711 C.3            1 S1                 0.0000
     13 ****         3.8477   1.0497   0.5453 N.pl3          1 S1                 0.0000
     14 ****         4.4654   2.2725   0.7057 C.2            1 S1                 0.0000
     15 ****         4.7839   2.3967   2.0276 C.2            1 S1                 0.0000
     16 ****         4.3135   1.1837   2.6040 C.2            1 S1                 0.0000
     17 ****         3.7537   0.3792   1.7149 N.2            1 S1                 0.0000
     18 ****        -1.1225  -0.0954  -1.5978 C.3            1 S1                 0.0000
     19 ****        -2.6455   0.1181  -1.6430 C.3            1 S1                 0.0000
     20 ****        -3.1855  -4.1538  -0.3713 H              1 S1                 0.0000
     21 ****        -2.1826  -3.0193   0.5493 H              1 S1                 0.0000
     22 ****        -2.1101  -3.0401  -1.2333 H              1 S1                 0.0000
     23 ****        -2.9576   1.2046   0.9047 H              1 S1                 0.0000
     24 ****        -3.2197  -0.3278   1.6977 H              1 S1                 0.0000
     25 ****        -0.8209   0.3925   1.8134 H              1 S1                 0.0000
     26 ****        -0.9881  -1.1347   0.9912 H              1 S1                 0.0000
     27 ****        -0.6643   1.5948  -0.3325 H              1 S1                 0.0000
     28 ****         1.2129  -0.5063   0.3636 H              1 S1                 0.0000
     29 ****         3.3706  -0.6274  -0.6029 H              1 S1                 0.0000
     30 ****         3.9488   0.7598  -1.5096 H              1 S1                 0.0000
     31 ****         4.6236   2.9443  -0.1252 H              1 S1                 0.0000
     32 ****         5.2769   3.2276   2.5095 H              1 S1                 0.0000
     33 ****         4.3621   0.8666   3.6353 H              1 S1                 0.0000
     34 ****        -0.6720   0.3518  -2.4845 H              1 S1                 0.0000
     35 ****        -0.8941  -1.1596  -1.6465 H              1 S1                 0.0000
     36 ****        -3.0693  -0.3604  -2.5254 H              1 S1                 0.0000
     37 ****        -2.8601   1.1831  -1.7386 H              1 S1                 0.0000
     38 ****         0.7027   2.1343  -1.8462 LP             1 S1                 0.0000
     39 ****         2.3988   2.3029  -2.1543 LP             1 S1                 0.0000
     40 ****         3.3514  -0.5226   1.8730 LP             1 S1                 0.0000
@<TRIPOS>BOND
    1    1    2 1     
    2    1   20 1     
    3    1   21 1     
    4    1   22 1     
    5    2    3 2     
    6    2    4 2     
    7    2    5 1     
    8    5   19 1     
    9    5    6 1     
   10    6    7 1     
   11    6   23 1     
   12    6   24 1     
   13    7    8 1     
   14    7   25 1     
   15    7   26 1     
   16    8    9 1     
   17    8   18 1     
   18    8   27 1     
   19    9   10 am    
   20    9   28 1     
   21   10   11 2     
   22   10   12 1     
   23   12   13 1     
   24   12   29 1     
   25   12   30 1     
   26   13   17 1     
   27   13   14 1     
   28   14   15 2     
   29   14   31 1     
   30   15   16 1     
   31   15   32 1     
   32   16   17 2     
   33   16   33 1     
   34   18   19 1     
   35   18   34 1     
   36   18   35 1     
   37   19   36 1     
   38   19   37 1     
   39   11   38 1     
   40   11   39 1     
   41   17   40 1     
@<TRIPOS>SUBSTRUCTURE
      1 S1             1
@<TRIPOS>SET
LONE_PAIRS      STATIC     ATOMS    <user>   **** ""
5 3 4 38 39 40
DONOR_HYDROGENS      STATIC     ATOMS    <user>   **** ""
1 28
ATOM$BLUE        STATIC     ATOMS    COLORGROUP SYSTEM
5 3 4 38 39 40
ATOM$RED        STATIC     ATOMS    COLORGROUP SYSTEM
1 28
