#       Name:                AV-unprocessed.smi:600
#       Creating user name   scv26
#       Creation time:       Thu Mar 26 23:54:17 2020


#       File generated by GOLD software.
#

@<TRIPOS>MOLECULE
AV-unprocessed.smi:600
    41    42     1
SMALL
NO_CHARGES


@<TRIPOS>ATOM
      1 ****        -3.9172   1.3947  -3.5871 C.3            1 S1                 0.0000
      2 ****        -2.5020   1.4027  -3.6406 O.3            1 S1                 0.0000
      3 ****        -1.9478   0.1017  -3.5356 C.3            1 S1                 0.0000
      4 ****        -0.4131   0.1815  -3.5750 C.3            1 S1                 0.0000
      5 ****         0.1299   0.8056  -2.3631 N.am           1 S1                 0.0000
      6 ****         0.2986  -0.0748  -1.3076 N.2            1 S1                 0.0000
      7 ****         0.7490   0.3431  -0.1696 C.2            1 S1                 0.0000
      8 ****         0.9127  -0.6235   0.9599 C.2            1 S1                 0.0000
      9 ****         0.6312  -1.8102   0.7586 O.2            1 S1                 0.0000
     10 ****         1.3750  -0.0558   2.1477 N.2            1 S1                 0.0000
     11 ****         1.5732  -0.7642   3.2191 C.2            1 S1                 0.0000
     12 ****         1.3905  -2.1305   3.4081 N.pl3          1 S1                 0.0000
     13 ****         1.3475  -2.6177   4.7746 C.3            1 S1                 0.0000
     14 ****         2.2412  -1.7064   5.6111 C.3            1 S1                 0.0000
     15 ****         2.1657  -0.1003   4.7985 S.3            1 S1                 0.0000
     16 ****         1.0955   1.7481   0.0164 C.2            1 S1                 0.0000
     17 ****         0.9236   2.5943  -1.0225 C.2            1 S1                 0.0000
     18 ****         0.4056   2.1434  -2.3142 C.2            1 S1                 0.0000
     19 ****         0.2312   2.9006  -3.2685 O.2            1 S1                 0.0000
     20 ****        -4.2931   2.4137  -3.6769 H              1 S1                 0.0000
     21 ****        -4.2731   0.9872  -2.6400 H              1 S1                 0.0000
     22 ****        -4.3395   0.8062  -4.4025 H              1 S1                 0.0000
     23 ****        -2.2806  -0.3822  -2.6158 H              1 S1                 0.0000
     24 ****        -2.3006  -0.5087  -4.3680 H              1 S1                 0.0000
     25 ****        -0.0080  -0.8280  -3.6621 H              1 S1                 0.0000
     26 ****        -0.0854   0.6982  -4.4785 H              1 S1                 0.0000
     27 ****         0.3166  -2.5715   5.1270 H              1 S1                 0.0000
     28 ****         1.6729  -3.6568   4.8288 H              1 S1                 0.0000
     29 ****         1.9255  -1.6498   6.6529 H              1 S1                 0.0000
     30 ****         3.2734  -2.0567   5.5842 H              1 S1                 0.0000
     31 ****         1.4827   2.1280   0.9501 H              1 S1                 0.0000
     32 ****         1.1761   3.6369  -0.8978 H              1 S1                 0.0000
     33 ****         1.0428  -2.7487   2.6887 H              1 S1                 0.0000
     34 ****        -2.1556   1.9608  -2.8866 LP             1 S1                 0.0000
     35 ****        -2.2161   1.8039  -4.5109 LP             1 S1                 0.0000
     36 ****         0.0704  -1.0412  -1.4263 LP             1 S1                 0.0000
     37 ****         0.3040  -2.1009  -0.1406 LP             1 S1                 0.0000
     38 ****         0.7306  -2.4795   1.4949 LP             1 S1                 0.0000
     39 ****         1.5595   0.9266   2.1754 LP             1 S1                 0.0000
     40 ****        -0.1281   2.5437  -4.1308 LP             1 S1                 0.0000
     41 ****         0.4488   3.8728  -3.1817 LP             1 S1                 0.0000
@<TRIPOS>BOND
    1    1    2 1     
    2    1   20 1     
    3    1   21 1     
    4    1   22 1     
    5    2    3 1     
    6    3    4 1     
    7    3   23 1     
    8    3   24 1     
    9    4    5 1     
   10    4   25 1     
   11    4   26 1     
   12    5   18 am    
   13    5    6 1     
   14    6    7 2     
   15    7    8 1     
   16    7   16 1     
   17    8    9 2     
   18    8   10 1     
   19   10   11 2     
   20   11   15 1     
   21   11   12 1     
   22   12   13 1     
   23   12   33 1     
   24   13   14 1     
   25   13   27 1     
   26   13   28 1     
   27   14   15 1     
   28   14   29 1     
   29   14   30 1     
   30   16   17 2     
   31   16   31 1     
   32   17   18 1     
   33   17   32 1     
   34   18   19 2     
   35    2   34 1     
   36    2   35 1     
   37    6   36 1     
   38    9   37 1     
   39    9   38 1     
   40   10   39 1     
   41   19   40 1     
   42   19   41 1     
@<TRIPOS>SUBSTRUCTURE
      1 S1             1
@<TRIPOS>SET
LONE_PAIRS      STATIC     ATOMS    <user>   **** ""
8 34 35 36 37 38 39 40 41
DONOR_HYDROGENS      STATIC     ATOMS    <user>   **** ""
1 33
ATOM$BLUE        STATIC     ATOMS    COLORGROUP SYSTEM
8 34 35 36 37 38 39 40 41
ATOM$RED        STATIC     ATOMS    COLORGROUP SYSTEM
1 33
