AV-unprocessed.smi:3089|AV-procd|sdf|11772|dock10
  -GOLD-   2272017153D 1   1.00000     0.00000
 Structure written by MMmdl.
 24 24  0  0  0  0  0  0  0  0  1 V2000
  151.5300  142.3331  158.5953 C   0  0  0  0  0  0  0  0  0  0  0  0
  151.1309  141.6146  157.4042 N   0  0  0  0  0  0  0  0  0  0  0  0
  150.0029  141.7881  156.6325 C   0  0  0  0  0  0  0  0  0  0  0  0
  150.0580  140.8845  155.6070 C   0  0  0  0  0  0  0  0  0  0  0  0
  149.0645  140.6696  154.4844 C   0  0  1  0  0  0  0  0  0  0  0  0
  147.8289  141.5597  154.7061 C   0  0  0  0  0  0  0  0  0  0  0  0
  149.5832  141.0556  153.2256 O   0  0  0  0  0  0  0  0  0  0  0  0
  148.6356  139.1902  154.3657 C   0  0  0  0  0  0  0  0  0  0  0  0
  148.0185  138.8549  153.0710 N   0  0  0  0  0  0  0  0  0  0  0  0
  151.2800  140.1917  155.8536 C   0  0  0  0  0  0  0  0  0  0  0  0
  151.9186  140.6309  156.9260 N   0  0  0  0  0  0  0  0  0  0  0  0
  150.7912  143.0979  158.8357 H   0  0  0  0  0  0  0  0  0  0  0  0
  152.4952  142.8129  158.4307 H   0  0  0  0  0  0  0  0  0  0  0  0
  151.6104  141.6417  159.4345 H   0  0  0  0  0  0  0  0  0  0  0  0
  149.2595  142.5343  156.8716 H   0  0  0  0  0  0  0  0  0  0  0  0
  147.3256  141.3157  155.6423 H   0  0  0  0  0  0  0  0  0  0  0  0
  147.0993  141.4386  153.9043 H   0  0  0  0  0  0  0  0  0  0  0  0
  148.1019  142.6152  154.7468 H   0  0  0  0  0  0  0  0  0  0  0  0
  149.2304  140.4781  152.5663 H   0  0  0  0  0  0  0  0  0  0  0  0
  149.5122  138.5560  154.5023 H   0  0  0  0  0  0  0  0  0  0  0  0
  147.9551  138.9347  155.1789 H   0  0  0  0  0  0  0  0  0  0  0  0
  148.3528  139.4838  152.3423 H   0  0  0  0  0  0  0  0  0  0  0  0
  148.2748  137.9089  152.7916 H   0  0  0  0  0  0  0  0  0  0  0  0
  151.7205  139.3856  155.2853 H   0  0  0  0  0  0  0  0  0  0  0  0
  1  2  1  0  0  0  0
  1 12  1  0  0  0  0
  1 13  1  0  0  0  0
  1 14  1  0  0  0  0
  2 11  1  0  0  0  0
  2  3  1  0  0  0  0
  3  4  2  0  0  0  0
  3 15  1  0  0  0  0
  4  5  1  0  0  0  0
  4 10  1  0  0  0  0
  5  6  1  0  0  0  0
  5  7  1  0  0  0  0
  5  8  1  0  0  0  0
  6 16  1  0  0  0  0
  6 17  1  0  0  0  0
  6 18  1  0  0  0  0
  7 19  1  0  0  0  0
  8  9  1  0  0  0  0
  8 20  1  0  0  0  0
  8 21  1  0  0  0  0
  9 22  1  0  0  0  0
  9 23  1  0  0  0  0
 10 11  2  0  0  0  0
 10 24  1  0  0  0  0
M  END
> <s_m_source_file>
AV-unprocessed.smi

> <i_m_source_file_index>
3089

> <i_lp_mmshare_version>
43012

> <i_f3d_flags>
0

> <s_epik_input>
W0NIM11uMVtjSF1jKFtjSF1uMSlbQ0BAXShbQ0gzXSkoW09IXSlbQ0gyXVtOSDJd

> <s_epik_cmdline>
J2VwaWtfcHl0aG9uJywgJy1waCcsICc3LjAnLCAnLXRuJywgJzgnLCAnLW1hJywgJzIwMCcsICctbWV0YWxfYmluZGluZycsICctaW1hZScsICc8aW5maWxlLm1hZT4nLCAnLW9tYWUnLCAnPG91dGZpbGUubWFlPic=

> <r_lp_tautomer_probability>
1

> <r_epik_Ionization_Penalty>
2.22427

> <r_epik_Ionization_Penalty_Charging>
0

> <r_epik_Ionization_Penalty_Neutral>
2.22427

> <r_epik_State_Penalty>
2.36938

> <r_epik_Charging_Adjusted_Penalty>
2.36938

> <i_epik_Tot_Q>
0

> <i_epik_Tot_abs_Q>
0

> <r_epik_Metal_State_Penalty>
2.36933

> <b_epik_Metal_Only>
0

> <s_lp_Force_Field>
OPLS_2005

> <r_lp_Energy>
8.30458

> <b_lp_Chiralities_Consistent>
1

> <s_lp_Variant>
AV-unprocessed.smi:3089-3

> <Gold.Version>
5.8.1

> <Gold.Id.Protein>
6NUR|6NUR_protein|mol2

> <Gold.PLP.Fitness>
36.4745

> <Gold.PLP.PLP>
-22.8520

> <Gold.PLP.part.hbond>
-4.1407

> <Gold.PLP.part.metal>
0.0000

> <Gold.PLP.part.buried>
-1.8895

> <Gold.PLP.part.nonpolar>
-17.0748

> <Gold.PLP.part.repulsive>
0.0000

> <Gold.PLP.ligand.clash>
0.0000

> <Gold.PLP.ligand.torsion>
0.3965

> <Gold.PLP.Chemscore.Hbond>
3.8616

> <Gold.PLP.Chemscore.CHOScore>
0.9366

> <Gold.PLP.Chemscore.Metal>
0.0000

> <Gold.Chemscore.Hbonds>
donor molecule, donor type, donor heavy atom, donor atom, acceptor molecule, acceptor atom, score
      L1  H     7    19       P1  7957  0.72
      L1  H     9    22       P1  7957  1.00
      L1  H     9    23       P1  7948  1.00
      P1  H  7989  7998       L1     7  0.14
      P1  H  8011  8017       L1     7  1.00
      L1  C     3    15       P1  8028  0.94

> <Gold.PLP.Chemscore.Internal.Correction>
0.0209

> <Gold.Rescore>
     Score         DG    S(hbond)    S(metal)    S(lipo)     H(rot)  DE(clash)    DE(int)     intcor
     17.33     -17.63       3.40        0.00      47.05       1.84       0.01       0.29       ----

> <Gold.Chemscore.Fitness>
17.3300

> <Gold.Chemscore.DG>
-17.6299

> <Gold.Chemscore.ZeroCoef>
-5.4800

> <Gold.Chemscore.Hbond>
3.3987

> <Gold.Chemscore.Metal>
0.0000

> <Gold.Chemscore.Lipo>
47.0525

> <Gold.Chemscore.Internal_Hbond>
0.0000

> <Gold.Chemscore.DEClash>
0.0060

> <Gold.Chemscore.DEInternal>
0.2939

> <Gold.Chemscore.Rot>
1.8386

> <Gold.Chemscore.Internal.Correction>
   9.000000E+99

> <Gold.Chemscore.Hbonds>
donor molecule, donor type, donor heavy atom, donor atom, acceptor molecule, acceptor atom, score
      L1  H     7    19       P1  7957  0.66
      L1  H     9    22       P1  7957  0.96
      L1  H     9    23       P1  7948  0.94
      P1  H  7989  7998       L1     7  0.06
      P1  H  8011  8017       L1     7  0.25

> <Gold.Chemscore.Hbond.Weighted>
-11.3517

> <Gold.Chemscore.Metal.Weighted>
-0.0000

> <Gold.Chemscore.Lipo.Weighted>
-5.5051

> <Gold.Chemscore.Internal_Hbond.Weighted>
0.0000

> <Gold.Chemscore.DEClash.Weighted>
0.0060

> <Gold.Chemscore.DEInternal.Weighted>
0.2939

> <Gold.Chemscore.Rot.Weighted>
4.7069

> <Gold.Chemscore.Internal.Correction.Weighted>
   9.000000E+99

> <Gold.Protein.RotatedTorsions>
[ 6907 6896 6895 6894 ] final   38.98 input  -60.11 | X-H torsion
[ 7974 7965 7964 7962 ] final  114.91 input  175.53 | X-H torsion
[ 8008 7997 7996 7995 ] final   44.15 input   59.86 | X-H torsion
[ 10167 10162 10161 10158 ] final -137.05 input  -65.29 | X-H torsion
[ 10718 10713 10712 10709 ] final  -83.60 input   66.30 | X-H torsion
[ 10763 10752 10751 10750 ] final -102.93 input  -60.55 | X-H torsion
[ 11005 11000 10999 10996 ] final  -71.40 input  -57.11 | X-H torsion

> <Gold.Protein.ActiveResidues>
 VAL166  LYS551  ARG553  GLY616  TRP617  ASP618  TYR619  PRO620  LYS621  CYS622 
 ASP623  PHE694  ASN695  SER759  ASP760  ASP761  ALA762  ILE779  LEU786  VAL792 
 PHE793  MET794  SER795  GLU796  ALA797  LYS798  CYS799  TRP800  GLU811  SER814 

> <Gold.Protein.RotatedAtoms>
  152.1636  134.8892  160.0539 H   0  0  0  0  0  0  0  0  0  0  0  0  # atno 6907 bound_to 6896
  151.9879  133.3775  159.4141 H   0  0  0  0  0  0  0  0  0  0  0  0  # atno 6908 bound_to 6896
  150.6891  134.3891  159.5112 H   0  0  0  0  0  0  0  0  0  0  0  0  # atno 6909 bound_to 6896
  145.1985  139.2964  143.4330 H   0  0  0  0  0  0  0  0  0  0  0  0  # atno 7974 bound_to 7965
  155.3146  140.3393  155.4243 H   0  0  0  0  0  0  0  0  0  0  0  0  # atno 8008 bound_to 7997
  156.1939  140.1707  156.8075 H   0  0  0  0  0  0  0  0  0  0  0  0  # atno 8009 bound_to 7997
  154.5475  140.0712  156.8596 H   0  0  0  0  0  0  0  0  0  0  0  0  # atno 8010 bound_to 7997
  139.8616  143.7069  152.2649 H   0  0  0  0  0  0  0  0  0  0  0  0  # atno 10167 bound_to 10162
  156.0016  130.4671  150.4283 H   0  0  0  0  0  0  0  0  0  0  0  0  # atno 10718 bound_to 10713
  154.7770  135.4842  153.9766 H   0  0  0  0  0  0  0  0  0  0  0  0  # atno 10763 bound_to 10752
  153.1443  135.6779  153.8987 H   0  0  0  0  0  0  0  0  0  0  0  0  # atno 10764 bound_to 10752
  153.8651  135.3150  155.3418 H   0  0  0  0  0  0  0  0  0  0  0  0  # atno 10765 bound_to 10752
  141.1591  133.6816  156.6900 H   0  0  0  0  0  0  0  0  0  0  0  0  # atno 11005 bound_to 11000
  146.3422  140.2222  142.8591 LP  0  0  0  0  0  0  0  0  0  0  0  0  # atno 17320 bound_to 7965
  144.9971  140.8599  143.5304 LP  0  0  0  0  0  0  0  0  0  0  0  0  # atno 17321 bound_to 7965
  139.7368  144.7569  151.0715 LP  0  0  0  0  0  0  0  0  0  0  0  0  # atno 17342 bound_to 10162
  140.7774  143.5021  150.9758 LP  0  0  0  0  0  0  0  0  0  0  0  0  # atno 17343 bound_to 10162
  157.2333  131.0509  151.2479 LP  0  0  0  0  0  0  0  0  0  0  0  0  # atno 17370 bound_to 10713
  157.3690  130.7171  149.6552 LP  0  0  0  0  0  0  0  0  0  0  0  0  # atno 17371 bound_to 10713
  140.3038  134.8142  157.4120 LP  0  0  0  0  0  0  0  0  0  0  0  0  # atno 17394 bound_to 11000
  140.1238  134.5184  155.8161 LP  0  0  0  0  0  0  0  0  0  0  0  0  # atno 17395 bound_to 11000

$$$$
