AV-unprocessed.smi:236|AV-procd|sdf|1814|dock1
  -GOLD-   2262020403D 1   1.00000     0.00000
 Structure written by MMmdl.
 58 62  0  0  0  0  0  0  0  0  1 V2000
  143.5569  132.3769  149.6780 C   0  0  0  0  0  0  0  0  0  0  0  0
  144.4438  132.3505  150.9333 C   0  0  1  0  0  0  0  0  0  0  0  0
  145.4885  131.3991  150.7887 O   0  0  0  0  0  0  0  0  0  0  0  0
  146.4619  131.7019  151.7714 C   0  0  0  0  0  0  0  0  0  0  0  0
  146.5742  133.2184  151.6757 C   0  0  0  0  0  0  0  0  0  0  0  0
  145.1537  133.6737  151.3269 C   0  0  1  0  0  0  0  0  0  0  0  0
  145.2353  134.5729  150.2331 O   0  0  0  0  0  0  0  0  0  0  0  0
  144.4703  134.4069  152.5078 C   0  0  0  0  0  0  0  0  0  0  0  0
  145.0620  135.7023  152.8093 N   0  0  0  0  0  0  0  0  0  0  0  0
  144.7448  136.9098  152.2281 C   0  0  0  0  0  0  0  0  0  0  0  0
  145.4134  137.9372  152.6760 N   0  0  0  0  0  0  0  0  0  0  0  0
  146.2628  137.3967  153.6336 C   0  0  0  0  0  0  0  0  0  0  0  0
  147.2517  137.9342  154.5051 C   0  0  0  0  0  0  0  0  0  0  0  0
  147.5937  139.2374  154.5743 N   0  0  0  0  0  0  0  0  0  0  0  0
  147.3245  139.9880  153.3551 C   0  0  0  0  0  0  0  0  0  0  0  0
  147.6100  141.4803  153.5897 C   0  0  0  0  0  0  0  0  0  0  0  0
  148.9463  141.6394  154.0577 O   0  0  0  0  0  0  0  0  0  0  0  0
  149.1714  140.9753  155.3002 C   0  0  2  0  0  0  0  0  0  0  0  0
  150.6070  141.2705  155.7531 C   0  0  0  0  0  0  0  0  0  0  0  0
  150.6858  142.6196  156.1816 O   0  0  0  0  0  0  0  0  0  0  0  0
  151.6697  142.8228  157.1841 C   0  0  0  0  0  0  0  0  0  0  0  0
  151.9396  144.3004  157.4043 C   0  0  0  0  0  0  0  0  0  0  0  0
  152.5944  144.7948  158.6779 C   0  0  0  0  0  0  0  0  0  0  0  0
  151.1429  145.0954  158.4189 C   0  0  0  0  0  0  0  0  0  0  0  0
  148.9354  139.4664  155.0945 C   0  0  0  0  0  0  0  0  0  0  0  0
  147.9083  137.0806  155.3278 N   0  0  0  0  0  0  0  0  0  0  0  0
  147.6189  135.7760  155.3039 C   0  0  0  0  0  0  0  0  0  0  0  0
  146.7255  135.1321  154.5495 N   0  0  0  0  0  0  0  0  0  0  0  0
  146.0613  135.9906  153.7229 C   0  0  0  0  0  0  0  0  0  0  0  0
  142.7607  133.1154  149.7739 H   0  0  0  0  0  0  0  0  0  0  0  0
  143.0887  131.4058  149.5175 H   0  0  0  0  0  0  0  0  0  0  0  0
  144.1337  132.6147  148.7839 H   0  0  0  0  0  0  0  0  0  0  0  0
  143.8413  132.0016  151.7723 H   0  0  0  0  0  0  0  0  0  0  0  0
  146.1021  131.3959  152.7553 H   0  0  0  0  0  0  0  0  0  0  0  0
  147.4068  131.1949  151.5749 H   0  0  0  0  0  0  0  0  0  0  0  0
  146.9617  133.6619  152.5935 H   0  0  0  0  0  0  0  0  0  0  0  0
  147.2736  133.4664  150.8751 H   0  0  0  0  0  0  0  0  0  0  0  0
  145.5747  134.1059  149.4852 H   0  0  0  0  0  0  0  0  0  0  0  0
  143.4119  134.5571  152.2905 H   0  0  0  0  0  0  0  0  0  0  0  0
  144.5096  133.7955  153.4105 H   0  0  0  0  0  0  0  0  0  0  0  0
  143.9912  137.0067  151.4603 H   0  0  0  0  0  0  0  0  0  0  0  0
  147.9509  139.6179  152.5429 H   0  0  0  0  0  0  0  0  0  0  0  0
  146.2858  139.8471  153.0527 H   0  0  0  0  0  0  0  0  0  0  0  0
  147.4891  142.0373  152.6607 H   0  0  0  0  0  0  0  0  0  0  0  0
  146.9078  141.9034  154.3098 H   0  0  0  0  0  0  0  0  0  0  0  0
  148.4755  141.3518  156.0524 H   0  0  0  0  0  0  0  0  0  0  0  0
  150.8732  140.6182  156.5863 H   0  0  0  0  0  0  0  0  0  0  0  0
  151.3121  141.0743  154.9437 H   0  0  0  0  0  0  0  0  0  0  0  0
  151.3429  142.3824  158.1271 H   0  0  0  0  0  0  0  0  0  0  0  0
  152.6033  142.3372  156.8967 H   0  0  0  0  0  0  0  0  0  0  0  0
  152.2142  144.8317  156.4949 H   0  0  0  0  0  0  0  0  0  0  0  0
  152.8251  144.0665  159.4530 H   0  0  0  0  0  0  0  0  0  0  0  0
  153.2997  145.6187  158.5911 H   0  0  0  0  0  0  0  0  0  0  0  0
  150.8803  146.1183  158.1579 H   0  0  0  0  0  0  0  0  0  0  0  0
  150.4068  144.5672  159.0218 H   0  0  0  0  0  0  0  0  0  0  0  0
  149.0583  138.9357  156.0396 H   0  0  0  0  0  0  0  0  0  0  0  0
  149.6753  139.0659  154.4000 H   0  0  0  0  0  0  0  0  0  0  0  0
  148.1837  135.1597  155.9876 H   0  0  0  0  0  0  0  0  0  0  0  0
  1  2  1  0  0  0  0
  1 30  1  0  0  0  0
  1 31  1  0  0  0  0
  1 32  1  0  0  0  0
  2  6  1  0  0  0  0
  2  3  1  0  0  0  0
  2 33  1  0  0  0  0
  3  4  1  0  0  0  0
  4  5  1  0  0  0  0
  4 34  1  0  0  0  0
  4 35  1  0  0  0  0
  5  6  1  0  0  0  0
  5 36  1  0  0  0  0
  5 37  1  0  0  0  0
  6  7  1  0  0  0  0
  6  8  1  0  0  0  0
  7 38  1  0  0  0  0
  8  9  1  0  0  0  0
  8 39  1  0  0  0  0
  8 40  1  0  0  0  0
  9 29  1  0  0  0  0
  9 10  1  0  0  0  0
 10 11  2  0  0  0  0
 10 41  1  0  0  0  0
 11 12  1  0  0  0  0
 12 29  2  0  0  0  0
 12 13  1  0  0  0  0
 13 14  1  0  0  0  0
 13 26  2  0  0  0  0
 14 25  1  0  0  0  0
 14 15  1  0  0  0  0
 15 16  1  0  0  0  0
 15 42  1  0  0  0  0
 15 43  1  0  0  0  0
 16 17  1  0  0  0  0
 16 44  1  0  0  0  0
 16 45  1  0  0  0  0
 17 18  1  0  0  0  0
 18 19  1  0  0  0  0
 18 25  1  0  0  0  0
 18 46  1  0  0  0  0
 19 20  1  0  0  0  0
 19 47  1  0  0  0  0
 19 48  1  0  0  0  0
 20 21  1  0  0  0  0
 21 22  1  0  0  0  0
 21 49  1  0  0  0  0
 21 50  1  0  0  0  0
 22 24  1  0  0  0  0
 22 23  1  0  0  0  0
 22 51  1  0  0  0  0
 23 24  1  0  0  0  0
 23 52  1  0  0  0  0
 23 53  1  0  0  0  0
 24 54  1  0  0  0  0
 24 55  1  0  0  0  0
 25 56  1  0  0  0  0
 25 57  1  0  0  0  0
 26 27  1  0  0  0  0
 27 28  2  0  0  0  0
 27 58  1  0  0  0  0
 28 29  1  0  0  0  0
M  END
> <s_m_source_file>
AV-unprocessed.smi

> <i_m_source_file_index>
236

> <i_lp_mmshare_version>
43012

> <i_f3d_flags>
0

> <s_epik_input>
W0NIMl0xW0NIMl1PW0NAQEhdKFtDSDNdKVtDQEBdMShbT0hdKVtDSDJdbihbY0hdbjIpYyhjMjMpbltjSF1uYzNONFtDSDJdW0NIMl1PW0NASF0oW0NIMl00KVtDSDJdT1tDSDJdW0NIXTVbQ0gyXVtDSDJdNQ==

> <s_epik_cmdline>
J2VwaWtfcHl0aG9uJywgJy1waCcsICc3LjAnLCAnLXRuJywgJzgnLCAnLW1hJywgJzIwMCcsICctbWV0YWxfYmluZGluZycsICctaW1hZScsICc8aW5maWxlLm1hZT4nLCAnLW9tYWUnLCAnPG91dGZpbGUubWFlPic=

> <r_lp_tautomer_probability>
1

> <r_epik_Ionization_Penalty>
7.21838e-05

> <r_epik_Ionization_Penalty_Charging>
0

> <r_epik_Ionization_Penalty_Neutral>
7.21838e-05

> <r_epik_State_Penalty>
-0

> <r_epik_Charging_Adjusted_Penalty>
0

> <i_epik_Tot_Q>
0

> <i_epik_Tot_abs_Q>
0

> <r_epik_Metal_State_Penalty>
-0

> <b_epik_Metal_Only>
0

> <s_lp_Force_Field>
OPLS_2005

> <r_lp_Energy>
47.3448

> <b_lp_Chiralities_Consistent>
1

> <s_lp_Variant>
AV-unprocessed.smi:236-6

> <Gold.Version>
5.8.1

> <Gold.Id.Protein>
6NUR|6NUR_protein|mol2

> <Gold.PLP.Fitness>
46.3899

> <Gold.PLP.PLP>
-43.3426

> <Gold.PLP.part.hbond>
-2.1955

> <Gold.PLP.part.metal>
0.0000

> <Gold.PLP.part.buried>
-6.4685

> <Gold.PLP.part.nonpolar>
-37.2764

> <Gold.PLP.part.repulsive>
2.4599

> <Gold.PLP.ligand.clash>
0.0000

> <Gold.PLP.ligand.torsion>
1.6618

> <Gold.PLP.Chemscore.Hbond>
0.8274

> <Gold.PLP.Chemscore.CHOScore>
1.0000

> <Gold.PLP.Chemscore.Metal>
0.0000

> <Gold.Chemscore.Hbonds>
donor molecule, donor type, donor heavy atom, donor atom, acceptor molecule, acceptor atom, score
      L1  H     7    38       P1  7921  0.57
      P1  H  8011  8017       L1    17  0.53
      L1  C    10    41       P1 10171  0.97

> <Gold.PLP.Chemscore.Internal.Correction>
0.8887

> <Gold.Rescore>
     Score         DG    S(hbond)    S(metal)    S(lipo)     H(rot)  DE(clash)    DE(int)     intcor
     11.34     -14.61       0.84        0.00     116.80       2.87       0.55       2.71       ----

> <Gold.Chemscore.Fitness>
11.3430

> <Gold.Chemscore.DG>
-14.6053

> <Gold.Chemscore.ZeroCoef>
-5.4800

> <Gold.Chemscore.Hbond>
0.8370

> <Gold.Chemscore.Metal>
0.0000

> <Gold.Chemscore.Lipo>
116.8005

> <Gold.Chemscore.Internal_Hbond>
0.0000

> <Gold.Chemscore.DEClash>
0.5474

> <Gold.Chemscore.DEInternal>
2.7150

> <Gold.Chemscore.Rot>
2.8655

> <Gold.Chemscore.Internal.Correction>
   9.000000E+99

> <Gold.Chemscore.Hbonds>
donor molecule, donor type, donor heavy atom, donor atom, acceptor molecule, acceptor atom, score
      L1  H     7    38       P1  7921  0.40
      P1  H  8011  8017       L1    17  0.11

> <Gold.Chemscore.Hbond.Weighted>
-2.7955

> <Gold.Chemscore.Metal.Weighted>
-0.0000

> <Gold.Chemscore.Lipo.Weighted>
-13.6657

> <Gold.Chemscore.Internal_Hbond.Weighted>
0.0000

> <Gold.Chemscore.DEClash.Weighted>
0.5474

> <Gold.Chemscore.DEInternal.Weighted>
2.7150

> <Gold.Chemscore.Rot.Weighted>
7.3358

> <Gold.Chemscore.Internal.Correction.Weighted>
   9.000000E+99

> <Gold.Protein.RotatedTorsions>
[ 6907 6896 6895 6894 ] final   39.02 input  -60.11 | X-H torsion
[ 7974 7965 7964 7962 ] final  174.95 input  175.53 | X-H torsion
[ 8008 7997 7996 7995 ] final  129.61 input   59.86 | X-H torsion
[ 10167 10162 10161 10158 ] final  159.97 input  -65.29 | X-H torsion
[ 10718 10713 10712 10709 ] final   61.16 input   66.30 | X-H torsion
[ 10763 10752 10751 10750 ] final  -59.61 input  -60.55 | X-H torsion
[ 11005 11000 10999 10996 ] final -178.02 input  -57.11 | X-H torsion

> <Gold.Protein.ActiveResidues>
 VAL166  LYS551  ARG553  GLY616  TRP617  ASP618  TYR619  PRO620  LYS621  CYS622 
 ASP623  PHE694  ASN695  SER759  ASP760  ASP761  ALA762  ILE779  LEU786  VAL792 
 PHE793  MET794  SER795  GLU796  ALA797  LYS798  CYS799  TRP800  GLU811  SER814 

> <Gold.Protein.RotatedAtoms>
  152.1640  134.8888  160.0539 H   0  0  0  0  0  0  0  0  0  0  0  0  # atno 6907 bound_to 6896
  151.9873  133.3773  159.4139 H   0  0  0  0  0  0  0  0  0  0  0  0  # atno 6908 bound_to 6896
  150.6892  134.3897  159.5114 H   0  0  0  0  0  0  0  0  0  0  0  0  # atno 6909 bound_to 6896
  144.7211  139.9874  143.6439 H   0  0  0  0  0  0  0  0  0  0  0  0  # atno 7974 bound_to 7965
  156.2939  140.2616  156.2626 H   0  0  0  0  0  0  0  0  0  0  0  0  # atno 8008 bound_to 7997
  154.9773  140.0390  157.2280 H   0  0  0  0  0  0  0  0  0  0  0  0  # atno 8009 bound_to 7997
  154.7804  140.2794  155.6073 H   0  0  0  0  0  0  0  0  0  0  0  0  # atno 8010 bound_to 7997
  139.4836  144.4679  151.8617 H   0  0  0  0  0  0  0  0  0  0  0  0  # atno 10167 bound_to 10162
  157.5807  130.8979  149.9426 H   0  0  0  0  0  0  0  0  0  0  0  0  # atno 10718 bound_to 10713
  154.2564  135.6316  153.5259 H   0  0  0  0  0  0  0  0  0  0  0  0  # atno 10763 bound_to 10752
  152.9903  135.5577  154.5751 H   0  0  0  0  0  0  0  0  0  0  0  0  # atno 10764 bound_to 10752
  154.5291  135.2887  155.1171 H   0  0  0  0  0  0  0  0  0  0  0  0  # atno 10765 bound_to 10752
  140.4344  134.6489  157.4728 H   0  0  0  0  0  0  0  0  0  0  0  0  # atno 11005 bound_to 11000
  146.0439  139.3447  143.0680 LP  0  0  0  0  0  0  0  0  0  0  0  0  # atno 17320 bound_to 7965
  145.8300  140.9635  143.0854 LP  0  0  0  0  0  0  0  0  0  0  0  0  # atno 17321 bound_to 7965
  140.4145  144.2325  150.5888 LP  0  0  0  0  0  0  0  0  0  0  0  0  # atno 17342 bound_to 10162
  140.4934  143.2340  151.8786 LP  0  0  0  0  0  0  0  0  0  0  0  0  # atno 17343 bound_to 10162
  156.0853  130.3668  150.0499 LP  0  0  0  0  0  0  0  0  0  0  0  0  # atno 17370 bound_to 10713
  156.8639  130.9501  151.3615 LP  0  0  0  0  0  0  0  0  0  0  0  0  # atno 17371 bound_to 10713
  140.0112  134.6688  155.9378 LP  0  0  0  0  0  0  0  0  0  0  0  0  # atno 17394 bound_to 11000
  141.1732  133.6538  156.4728 LP  0  0  0  0  0  0  0  0  0  0  0  0  # atno 17395 bound_to 11000

$$$$
