AV-unprocessed.smi:2050|AV-procd|sdf|8324|dock4
  -GOLD-   2272010593D 1   1.00000     0.00000
 Structure written by MMmdl.
 33 34  0  0  0  0  0  0  0  0  1 V2000
  143.6218  132.8512  150.8299 C   0  0  0  0  0  0  0  0  0  0  0  0
  144.2371  134.0993  151.3643 C   0  0  0  0  0  0  0  0  0  0  0  0
  145.5126  134.5893  151.3444 C   0  0  0  0  0  0  0  0  0  0  0  0
  145.3916  135.8242  152.0356 C   0  0  0  0  0  0  0  0  0  0  0  0
  146.5193  136.6616  152.2329 N   0  0  0  0  0  0  0  0  0  0  0  0
  146.5463  137.8762  152.8080 C   0  0  0  0  0  0  0  0  0  0  0  0
  145.5689  138.4643  153.2714 O   0  0  0  0  0  0  0  0  0  0  0  0
  147.7870  138.3844  152.8168 N   0  0  0  0  0  0  0  0  0  0  0  0
  148.1549  139.6834  153.3705 C   0  0  0  0  0  0  0  0  0  0  0  0
  149.1118  139.5631  154.5740 C   0  0  2  0  0  0  0  0  0  0  0  0
  149.5315  140.9242  155.1687 C   0  0  0  0  0  0  0  0  0  0  0  0
  150.6880  140.6943  156.1463 C   0  0  0  0  0  0  0  0  0  0  0  0
  151.6601  139.3121  155.4416 S   0  0  0  0  0  0  0  0  0  0  0  0
  152.8219  139.8497  154.7174 O   0  0  0  0  0  0  0  0  0  0  0  0
  151.8223  138.2689  156.4655 O   0  0  0  0  0  0  0  0  0  0  0  0
  150.3923  138.7887  154.2247 C   0  0  0  0  0  0  0  0  0  0  0  0
  144.1545  136.0660  152.4412 N   0  0  0  0  0  0  0  0  0  0  0  0
  143.4084  134.9612  152.0143 O   0  0  0  0  0  0  0  0  0  0  0  0
  144.2163  132.4438  150.0120 H   0  0  0  0  0  0  0  0  0  0  0  0
  142.6171  133.0431  150.4525 H   0  0  0  0  0  0  0  0  0  0  0  0
  143.5518  132.0919  151.6089 H   0  0  0  0  0  0  0  0  0  0  0  0
  146.3881  134.1349  150.9053 H   0  0  0  0  0  0  0  0  0  0  0  0
  147.3988  136.2970  151.8988 H   0  0  0  0  0  0  0  0  0  0  0  0
  148.5318  137.8339  152.4150 H   0  0  0  0  0  0  0  0  0  0  0  0
  148.6047  140.3008  152.5909 H   0  0  0  0  0  0  0  0  0  0  0  0
  147.2383  140.1912  153.6722 H   0  0  0  0  0  0  0  0  0  0  0  0
  148.6093  139.0065  155.3666 H   0  0  0  0  0  0  0  0  0  0  0  0
  149.8738  141.5770  154.3644 H   0  0  0  0  0  0  0  0  0  0  0  0
  148.6986  141.4300  155.6582 H   0  0  0  0  0  0  0  0  0  0  0  0
  151.3192  141.5728  156.2796 H   0  0  0  0  0  0  0  0  0  0  0  0
  150.3137  140.3805  157.1211 H   0  0  0  0  0  0  0  0  0  0  0  0
  150.2567  137.7078  154.2645 H   0  0  0  0  0  0  0  0  0  0  0  0
  150.7566  139.0549  153.2321 H   0  0  0  0  0  0  0  0  0  0  0  0
  1  2  1  0  0  0  0
  1 19  1  0  0  0  0
  1 20  1  0  0  0  0
  1 21  1  0  0  0  0
  2 18  1  0  0  0  0
  2  3  2  0  0  0  0
  3  4  1  0  0  0  0
  3 22  1  0  0  0  0
  4  5  1  0  0  0  0
  4 17  2  0  0  0  0
  5  6  1  0  0  0  0
  5 23  1  0  0  0  0
  6  7  2  0  0  0  0
  6  8  1  0  0  0  0
  8  9  1  0  0  0  0
  8 24  1  0  0  0  0
  9 10  1  0  0  0  0
  9 25  1  0  0  0  0
  9 26  1  0  0  0  0
 10 16  1  0  0  0  0
 10 11  1  0  0  0  0
 10 27  1  0  0  0  0
 11 12  1  0  0  0  0
 11 28  1  0  0  0  0
 11 29  1  0  0  0  0
 12 13  1  0  0  0  0
 12 30  1  0  0  0  0
 12 31  1  0  0  0  0
 13 14  2  0  0  0  0
 13 15  2  0  0  0  0
 13 16  1  0  0  0  0
 16 32  1  0  0  0  0
 16 33  1  0  0  0  0
 17 18  1  0  0  0  0
M  END
> <s_m_source_file>
AV-unprocessed.smi

> <i_m_source_file_index>
2050

> <i_lp_mmshare_version>
43012

> <i_f3d_flags>
0

> <s_epik_input>
W0NIM11jMVtjSF1jKG5vMSlbTkhdQyg9TylbTkhdW0NIMl1bQ0BASF0oW0NIMl0yKVtDSDJdW0NIMl1TMig9Tyk9Tw==

> <s_epik_cmdline>
J2VwaWtfcHl0aG9uJywgJy1waCcsICc3LjAnLCAnLXRuJywgJzgnLCAnLW1hJywgJzIwMCcsICctbWV0YWxfYmluZGluZycsICctaW1hZScsICc8aW5maWxlLm1hZT4nLCAnLW9tYWUnLCAnPG91dGZpbGUubWFlPic=

> <r_lp_tautomer_probability>
1

> <r_epik_Ionization_Penalty>
2.22143e-05

> <r_epik_Ionization_Penalty_Charging>
0

> <r_epik_Ionization_Penalty_Neutral>
2.22143e-05

> <r_epik_State_Penalty>
-0

> <r_epik_Charging_Adjusted_Penalty>
0

> <i_epik_Tot_Q>
0

> <i_epik_Tot_abs_Q>
0

> <r_epik_Metal_State_Penalty>
-0

> <b_epik_Metal_Only>
0

> <s_lp_Force_Field>
OPLS_2005

> <r_lp_Energy>
2.27669

> <b_lp_Chiralities_Consistent>
1

> <s_lp_Variant>
AV-unprocessed.smi:2050-1

> <Gold.Version>
5.8.1

> <Gold.Id.Protein>
6NUR|6NUR_protein|mol2

> <Gold.PLP.Fitness>
36.2716

> <Gold.PLP.PLP>
-26.6797

> <Gold.PLP.part.hbond>
-4.8502

> <Gold.PLP.part.metal>
0.0000

> <Gold.PLP.part.buried>
-0.5054

> <Gold.PLP.part.nonpolar>
-24.5651

> <Gold.PLP.part.repulsive>
2.3401

> <Gold.PLP.ligand.clash>
0.0000

> <Gold.PLP.ligand.torsion>
0.0144

> <Gold.PLP.Chemscore.Hbond>
3.2057

> <Gold.PLP.Chemscore.CHOScore>
0.0000

> <Gold.PLP.Chemscore.Metal>
0.0000

> <Gold.Chemscore.Hbonds>
donor molecule, donor type, donor heavy atom, donor atom, acceptor molecule, acceptor atom, score
      L1  H     5    23       P1  7948  1.00
      L1  H     8    24       P1  7948  0.90
      P1  H  7989  7998       L1    14  0.27
      P1  H  7997  8008       L1    14  0.98

> <Gold.PLP.Chemscore.Internal.Correction>
0.0038

> <Gold.Rescore>
     Score         DG    S(hbond)    S(metal)    S(lipo)     H(rot)  DE(clash)    DE(int)     intcor
     16.27     -17.58       3.09        0.00      44.81       1.36       0.05       1.26       ----

> <Gold.Chemscore.Fitness>
16.2716

> <Gold.Chemscore.DG>
-17.5816

> <Gold.Chemscore.ZeroCoef>
-5.4800

> <Gold.Chemscore.Hbond>
3.0934

> <Gold.Chemscore.Metal>
0.0000

> <Gold.Chemscore.Lipo>
44.8114

> <Gold.Chemscore.Internal_Hbond>
0.0000

> <Gold.Chemscore.DEClash>
0.0538

> <Gold.Chemscore.DEInternal>
1.2562

> <Gold.Chemscore.Rot>
1.3567

> <Gold.Chemscore.Internal.Correction>
   9.000000E+99

> <Gold.Chemscore.Hbonds>
donor molecule, donor type, donor heavy atom, donor atom, acceptor molecule, acceptor atom, score
      L1  H     5    23       P1  7948  0.92
      L1  H     8    24       P1  7948  0.88
      P1  H  7989  7998       L1    14  0.02
      P1  H  7997  8008       L1    14  0.81

> <Gold.Chemscore.Hbond.Weighted>
-10.3319

> <Gold.Chemscore.Metal.Weighted>
-0.0000

> <Gold.Chemscore.Lipo.Weighted>
-5.2429

> <Gold.Chemscore.Internal_Hbond.Weighted>
0.0000

> <Gold.Chemscore.DEClash.Weighted>
0.0538

> <Gold.Chemscore.DEInternal.Weighted>
1.2562

> <Gold.Chemscore.Rot.Weighted>
3.4732

> <Gold.Chemscore.Internal.Correction.Weighted>
   9.000000E+99

> <Gold.Protein.RotatedTorsions>
[ 6907 6896 6895 6894 ] final  176.51 input  -60.11 | X-H torsion
[ 7974 7965 7964 7962 ] final  -47.31 input  175.53 | X-H torsion
[ 8008 7997 7996 7995 ] final  -17.79 input   59.86 | X-H torsion
[ 10167 10162 10161 10158 ] final  -16.67 input  -65.29 | X-H torsion
[ 10718 10713 10712 10709 ] final   52.14 input   66.30 | X-H torsion
[ 10763 10752 10751 10750 ] final   16.05 input  -60.55 | X-H torsion
[ 11005 11000 10999 10996 ] final   29.18 input  -57.11 | X-H torsion

> <Gold.Protein.ActiveResidues>
 VAL166  LYS551  ARG553  GLY616  TRP617  ASP618  TYR619  PRO620  LYS621  CYS622 
 ASP623  PHE694  ASN695  SER759  ASP760  ASP761  ALA762  ILE779  LEU786  VAL792 
 PHE793  MET794  SER795  GLU796  ALA797  LYS798  CYS799  TRP800  GLU811  SER814 

> <Gold.Protein.RotatedAtoms>
  151.7190  133.3314  159.3310 H   0  0  0  0  0  0  0  0  0  0  0  0  # atno 6907 bound_to 6896
  150.7661  134.6465  159.6274 H   0  0  0  0  0  0  0  0  0  0  0  0  # atno 6908 bound_to 6896
  152.3664  134.6801  160.0242 H   0  0  0  0  0  0  0  0  0  0  0  0  # atno 6909 bound_to 6896
  145.9629  140.7461  142.9448 H   0  0  0  0  0  0  0  0  0  0  0  0  # atno 7974 bound_to 7965
  154.4953  140.2133  155.9461 H   0  0  0  0  0  0  0  0  0  0  0  0  # atno 8008 bound_to 7997
  156.1361  140.3188  155.8391 H   0  0  0  0  0  0  0  0  0  0  0  0  # atno 8009 bound_to 7997
  155.4206  140.0496  157.3016 H   0  0  0  0  0  0  0  0  0  0  0  0  # atno 8010 bound_to 7997
  140.7237  143.5092  150.9771 H   0  0  0  0  0  0  0  0  0  0  0  0  # atno 10167 bound_to 10162
  157.5047  130.8461  149.8359 H   0  0  0  0  0  0  0  0  0  0  0  0  # atno 10718 bound_to 10713
  153.1467  135.6770  153.8944 H   0  0  0  0  0  0  0  0  0  0  0  0  # atno 10763 bound_to 10752
  153.8384  135.3108  155.3425 H   0  0  0  0  0  0  0  0  0  0  0  0  # atno 10764 bound_to 10752
  154.7830  135.4877  153.9971 H   0  0  0  0  0  0  0  0  0  0  0  0  # atno 10765 bound_to 10752
  140.3077  134.2685  155.7740 H   0  0  0  0  0  0  0  0  0  0  0  0  # atno 11005 bound_to 11000
  144.6819  140.2621  143.7317 LP  0  0  0  0  0  0  0  0  0  0  0  0  # atno 17320 bound_to 7965
  145.8014  139.1966  143.2046 LP  0  0  0  0  0  0  0  0  0  0  0  0  # atno 17321 bound_to 7965
  139.8805  143.7078  152.3157 LP  0  0  0  0  0  0  0  0  0  0  0  0  # atno 17342 bound_to 10162
  139.7358  144.7571  151.0729 LP  0  0  0  0  0  0  0  0  0  0  0  0  # atno 17343 bound_to 10162
  156.0251  130.3782  150.1848 LP  0  0  0  0  0  0  0  0  0  0  0  0  # atno 17370 bound_to 10713
  157.0038  130.9930  151.3384 LP  0  0  0  0  0  0  0  0  0  0  0  0  # atno 17371 bound_to 10713
  141.2115  133.7687  156.9860 LP  0  0  0  0  0  0  0  0  0  0  0  0  # atno 17394 bound_to 11000
  140.1053  134.9510  157.1984 LP  0  0  0  0  0  0  0  0  0  0  0  0  # atno 17395 bound_to 11000

$$$$
