AV-unprocessed.smi:336|AV-procd|sdf|2371|dock8
  -GOLD-   2262022293D 1   1.00000     0.00000
 Structure written by MMmdl.
 34 36  0  0  0  0  0  0  0  0  1 V2000
  153.3439  139.7109  158.1064 O   0  0  0  0  0  0  0  0  0  0  0  0
  152.3911  140.4842  158.0132 C   0  0  0  0  0  0  0  0  0  0  0  0
  151.3917  140.3780  157.1204 N   0  0  0  0  0  0  0  0  0  0  0  0
  151.2207  139.4080  156.0956 C   0  0  0  0  0  0  0  0  0  0  0  0
  149.9994  139.1697  155.4197 C   0  0  0  0  0  0  0  0  0  0  0  0
  149.9533  138.1662  154.4327 C   0  0  0  0  0  0  0  0  0  0  0  0
  151.1253  137.4334  154.1629 C   0  0  0  0  0  0  0  0  0  0  0  0
  152.2918  137.6394  154.8095 N   0  0  0  0  0  0  0  0  0  0  0  0
  152.3283  138.6025  155.7552 C   0  0  0  0  0  0  0  0  0  0  0  0
  152.2091  141.5434  158.8171 N   0  0  0  0  0  0  0  0  0  0  0  0
  153.0802  141.9714  159.9109 C   0  0  0  0  0  0  0  0  0  0  0  0
  152.6786  141.4189  161.2707 C   0  0  0  0  0  0  0  0  0  0  0  0
  152.7812  142.2616  162.5200 C   0  0  0  0  0  0  0  0  0  0  0  0
  153.7141  141.0883  162.3180 C   0  0  0  0  0  0  0  0  0  0  0  0
  153.2866  143.4776  159.9781 C   0  0  0  0  0  0  0  0  0  0  0  0
  152.1553  144.4057  160.3494 C   0  0  0  0  0  0  0  0  0  0  0  0
  152.6933  144.3963  158.9360 C   0  0  0  0  0  0  0  0  0  0  0  0
  150.6345  141.0378  157.2212 H   0  0  0  0  0  0  0  0  0  0  0  0
  149.0999  139.7209  155.6455 H   0  0  0  0  0  0  0  0  0  0  0  0
  149.0381  137.9598  153.8977 H   0  0  0  0  0  0  0  0  0  0  0  0
  151.1237  136.6571  153.4120 H   0  0  0  0  0  0  0  0  0  0  0  0
  153.2775  138.7372  156.2534 H   0  0  0  0  0  0  0  0  0  0  0  0
  151.3885  142.1097  158.6588 H   0  0  0  0  0  0  0  0  0  0  0  0
  154.0499  141.5332  159.6706 H   0  0  0  0  0  0  0  0  0  0  0  0
  151.8186  140.7529  161.2345 H   0  0  0  0  0  0  0  0  0  0  0  0
  153.2078  143.2586  162.4320 H   0  0  0  0  0  0  0  0  0  0  0  0
  151.9914  142.1563  163.2608 H   0  0  0  0  0  0  0  0  0  0  0  0
  153.5469  140.2011  162.9253 H   0  0  0  0  0  0  0  0  0  0  0  0
  154.7551  141.3073  162.0886 H   0  0  0  0  0  0  0  0  0  0  0  0
  154.2710  143.7674  160.3410 H   0  0  0  0  0  0  0  0  0  0  0  0
  151.1735  143.9672  160.5161 H   0  0  0  0  0  0  0  0  0  0  0  0
  152.3954  145.2635  160.9741 H   0  0  0  0  0  0  0  0  0  0  0  0
  153.2926  145.2475  158.6189 H   0  0  0  0  0  0  0  0  0  0  0  0
  152.0643  143.9562  158.1648 H   0  0  0  0  0  0  0  0  0  0  0  0
  1  2  2  0  0  0  0
  2  3  1  0  0  0  0
  2 10  1  0  0  0  0
  3  4  1  0  0  0  0
  3 18  1  0  0  0  0
  4  9  1  0  0  0  0
  4  5  2  0  0  0  0
  5  6  1  0  0  0  0
  5 19  1  0  0  0  0
  6  7  2  0  0  0  0
  6 20  1  0  0  0  0
  7  8  1  0  0  0  0
  7 21  1  0  0  0  0
  8  9  2  0  0  0  0
  9 22  1  0  0  0  0
 10 11  1  0  0  0  0
 10 23  1  0  0  0  0
 11 12  1  0  0  0  0
 11 15  1  0  0  0  0
 11 24  1  0  0  0  0
 12 14  1  0  0  0  0
 12 13  1  0  0  0  0
 12 25  1  0  0  0  0
 13 14  1  0  0  0  0
 13 26  1  0  0  0  0
 13 27  1  0  0  0  0
 14 28  1  0  0  0  0
 14 29  1  0  0  0  0
 15 17  1  0  0  0  0
 15 16  1  0  0  0  0
 15 30  1  0  0  0  0
 16 17  1  0  0  0  0
 16 31  1  0  0  0  0
 16 32  1  0  0  0  0
 17 33  1  0  0  0  0
 17 34  1  0  0  0  0
M  END
> <s_m_source_file>
AV-unprocessed.smi

> <i_m_source_file_index>
336

> <i_lp_mmshare_version>
43012

> <i_f3d_flags>
0

> <s_epik_input>
W0NIMl0xW0NIMl1bQ0hdMVtDSF0oW0NIXTJbQ0gyXVtDSDJdMilbTkhdQyg9TylbTkhdYzNbY0hdW2NIXVtjSF1uW2NIXTM=

> <s_epik_cmdline>
J2VwaWtfcHl0aG9uJywgJy1waCcsICc3LjAnLCAnLXRuJywgJzgnLCAnLW1hJywgJzIwMCcsICctbWV0YWxfYmluZGluZycsICctaW1hZScsICc8aW5maWxlLm1hZT4nLCAnLW9tYWUnLCAnPG91dGZpbGUubWFlPic=

> <r_epik_Ionization_Penalty>
0.00498677

> <r_epik_Ionization_Penalty_Charging>
0

> <r_epik_Ionization_Penalty_Neutral>
0.00498677

> <r_epik_State_Penalty>
0.00359262

> <r_epik_Charging_Adjusted_Penalty>
0.00359262

> <i_epik_Tot_Q>
0

> <i_epik_Tot_abs_Q>
0

> <r_epik_Metal_State_Penalty>
-0

> <b_epik_Metal_Only>
0

> <s_lp_Force_Field>
OPLS_2005

> <r_lp_Energy>
27.0567

> <b_lp_Chiralities_Consistent>
1

> <s_lp_Variant>
AV-unprocessed.smi:336-1

> <Gold.Version>
5.8.1

> <Gold.Id.Protein>
6NUR|6NUR_protein|mol2

> <Gold.PLP.Fitness>
45.3104

> <Gold.PLP.PLP>
-39.7871

> <Gold.PLP.part.hbond>
-2.0000

> <Gold.PLP.part.metal>
0.0000

> <Gold.PLP.part.buried>
-2.6916

> <Gold.PLP.part.nonpolar>
-35.0111

> <Gold.PLP.part.repulsive>
0.2419

> <Gold.PLP.ligand.clash>
0.0000

> <Gold.PLP.ligand.torsion>
2.0314

> <Gold.PLP.Chemscore.Hbond>
1.6425

> <Gold.PLP.Chemscore.CHOScore>
0.8313

> <Gold.PLP.Chemscore.Metal>
0.0000

> <Gold.Chemscore.Hbonds>
donor molecule, donor type, donor heavy atom, donor atom, acceptor molecule, acceptor atom, score
      P1  H  7997  8008       L1     1  1.00
      P1  H 10752 10765       L1     8  0.36
      L1  C     7    21       P1  7949  1.00

> <Gold.PLP.Chemscore.Internal.Correction>
2.1647

> <Gold.Rescore>
     Score         DG    S(hbond)    S(metal)    S(lipo)     H(rot)  DE(clash)    DE(int)     intcor
     16.32     -20.01       1.59        0.00     107.72       1.33       0.42       3.27       ----

> <Gold.Chemscore.Fitness>
16.3199

> <Gold.Chemscore.DG>
-20.0091

> <Gold.Chemscore.ZeroCoef>
-5.4800

> <Gold.Chemscore.Hbond>
1.5924

> <Gold.Chemscore.Metal>
0.0000

> <Gold.Chemscore.Lipo>
107.7195

> <Gold.Chemscore.Internal_Hbond>
0.0000

> <Gold.Chemscore.DEClash>
0.4175

> <Gold.Chemscore.DEInternal>
3.2716

> <Gold.Chemscore.Rot>
1.3253

> <Gold.Chemscore.Internal.Correction>
   9.000000E+99

> <Gold.Chemscore.Hbonds>
donor molecule, donor type, donor heavy atom, donor atom, acceptor molecule, acceptor atom, score
      P1  H  7997  8008       L1     1  0.93
      P1  H 10752 10765       L1     8  0.04

> <Gold.Chemscore.Hbond.Weighted>
-5.3187

> <Gold.Chemscore.Metal.Weighted>
-0.0000

> <Gold.Chemscore.Lipo.Weighted>
-12.6032

> <Gold.Chemscore.Internal_Hbond.Weighted>
0.0000

> <Gold.Chemscore.DEClash.Weighted>
0.4175

> <Gold.Chemscore.DEInternal.Weighted>
3.2716

> <Gold.Chemscore.Rot.Weighted>
3.3928

> <Gold.Chemscore.Internal.Correction.Weighted>
   9.000000E+99

> <Gold.Protein.RotatedTorsions>
[ 6907 6896 6895 6894 ] final  -41.90 input  -60.11 | X-H torsion
[ 7974 7965 7964 7962 ] final -168.59 input  175.53 | X-H torsion
[ 8008 7997 7996 7995 ] final  -96.23 input   59.86 | X-H torsion
[ 10167 10162 10161 10158 ] final  158.78 input  -65.29 | X-H torsion
[ 10718 10713 10712 10709 ] final  142.59 input   66.30 | X-H torsion
[ 10763 10752 10751 10750 ] final -178.26 input  -60.55 | X-H torsion
[ 11005 11000 10999 10996 ] final  112.25 input  -57.11 | X-H torsion

> <Gold.Protein.ActiveResidues>
 VAL166  LYS551  ARG553  GLY616  TRP617  ASP618  TYR619  PRO620  LYS621  CYS622 
 ASP623  PHE694  ASN695  SER759  ASP760  ASP761  ALA762  ILE779  LEU786  VAL792 
 PHE793  MET794  SER795  GLU796  ALA797  LYS798  CYS799  TRP800  GLU811  SER814 

> <Gold.Protein.RotatedAtoms>
  150.9614  134.9001  159.7732 H   0  0  0  0  0  0  0  0  0  0  0  0  # atno 6907 bound_to 6896
  152.5157  134.3667  159.9314 H   0  0  0  0  0  0  0  0  0  0  0  0  # atno 6908 bound_to 6896
  151.3679  133.3825  159.2731 H   0  0  0  0  0  0  0  0  0  0  0  0  # atno 6909 bound_to 6896
  144.7200  140.2347  143.6299 H   0  0  0  0  0  0  0  0  0  0  0  0  # atno 7974 bound_to 7965
  154.7718  140.0473  157.1057 H   0  0  0  0  0  0  0  0  0  0  0  0  # atno 8008 bound_to 7997
  154.9812  140.3101  155.4926 H   0  0  0  0  0  0  0  0  0  0  0  0  # atno 8009 bound_to 7997
  156.2922  140.2235  156.4911 H   0  0  0  0  0  0  0  0  0  0  0  0  # atno 8010 bound_to 7997
  139.4828  144.4792  151.8468 H   0  0  0  0  0  0  0  0  0  0  0  0  # atno 10167 bound_to 10162
  157.3788  131.0989  151.0759 H   0  0  0  0  0  0  0  0  0  0  0  0  # atno 10718 bound_to 10713
  154.5500  135.2812  155.1018 H   0  0  0  0  0  0  0  0  0  0  0  0  # atno 10763 bound_to 10752
  154.2467  135.6347  153.5229 H   0  0  0  0  0  0  0  0  0  0  0  0  # atno 10764 bound_to 10752
  153.0000  135.5573  154.6063 H   0  0  0  0  0  0  0  0  0  0  0  0  # atno 10765 bound_to 10752
  139.8923  134.9526  156.6556 H   0  0  0  0  0  0  0  0  0  0  0  0  # atno 11005 bound_to 11000
  145.8377  139.2115  143.1846 LP  0  0  0  0  0  0  0  0  0  0  0  0  # atno 17320 bound_to 7965
  146.0374  140.8198  142.9845 LP  0  0  0  0  0  0  0  0  0  0  0  0  # atno 17321 bound_to 7965
  140.4267  144.2171  150.5887 LP  0  0  0  0  0  0  0  0  0  0  0  0  # atno 17342 bound_to 10162
  140.4820  143.2376  151.8941 LP  0  0  0  0  0  0  0  0  0  0  0  0  # atno 17343 bound_to 10162
  157.1836  130.6320  149.5680 LP  0  0  0  0  0  0  0  0  0  0  0  0  # atno 17370 bound_to 10713
  155.9771  130.4745  150.6571 LP  0  0  0  0  0  0  0  0  0  0  0  0  # atno 17371 bound_to 10713
  140.7487  133.8916  155.8330 LP  0  0  0  0  0  0  0  0  0  0  0  0  # atno 17394 bound_to 11000
  141.0019  134.1139  157.4309 LP  0  0  0  0  0  0  0  0  0  0  0  0  # atno 17395 bound_to 11000

$$$$
