AV-unprocessed.smi:1300|AV-procd|sdf|5420|dock6
  -GOLD-   22720 4583D 1   1.00000     0.00000
 Structure written by MMmdl.
 35 36  0  0  0  0  0  0  0  0  1 V2000
  147.4011  141.3469  154.8964 C   0  0  0  0  0  0  0  0  0  0  0  0
  148.7366  140.7224  155.2082 C   0  0  0  0  0  0  0  0  0  0  0  0
  149.5519  141.4695  155.8768 N   0  0  0  0  0  0  0  0  0  0  0  0
  150.8115  141.0300  156.2293 N   0  0  0  0  0  0  0  0  0  0  0  0
  151.5923  142.0122  156.9919 C   0  0  0  0  0  0  0  0  0  0  0  0
  152.0185  141.4818  158.3782 C   0  0  1  0  0  0  0  0  0  0  0  0
  153.2452  140.7888  158.2432 O   0  0  0  0  0  0  0  0  0  0  0  0
  152.1209  142.6234  159.3822 C   0  0  0  0  0  0  0  0  0  0  0  0
  151.3102  143.7737  159.2485 C   0  0  0  0  0  0  0  0  0  0  0  0
  151.3980  144.8204  160.1864 C   0  0  0  0  0  0  0  0  0  0  0  0
  152.2927  144.7232  161.2684 C   0  0  0  0  0  0  0  0  0  0  0  0
  153.0975  143.5775  161.4130 C   0  0  0  0  0  0  0  0  0  0  0  0
  153.0117  142.5291  160.4758 C   0  0  0  0  0  0  0  0  0  0  0  0
  153.7863  141.4295  160.6372 F   0  0  0  0  0  0  0  0  0  0  0  0
  151.3190  139.8027  155.9227 C   0  0  0  0  0  0  0  0  0  0  0  0
  152.4516  139.4517  156.2572 O   0  0  0  0  0  0  0  0  0  0  0  0
  150.3929  138.9573  155.1662 C   0  0  0  0  0  0  0  0  0  0  0  0
  150.8887  137.6632  154.8234 C   0  0  0  0  0  0  0  0  0  0  0  0
  151.2810  136.6059  154.5617 N   0  0  0  0  0  0  0  0  0  0  0  0
  149.1502  139.3752  154.8161 C   0  0  0  0  0  0  0  0  0  0  0  0
  148.1591  138.5237  154.0339 C   0  0  0  0  0  0  0  0  0  0  0  0
  146.7611  140.7053  154.2935 H   0  0  0  0  0  0  0  0  0  0  0  0
  147.5326  142.2796  154.3467 H   0  0  0  0  0  0  0  0  0  0  0  0
  146.8607  141.5760  155.8153 H   0  0  0  0  0  0  0  0  0  0  0  0
  152.4659  142.3460  156.4278 H   0  0  0  0  0  0  0  0  0  0  0  0
  150.9809  142.9081  157.1172 H   0  0  0  0  0  0  0  0  0  0  0  0
  151.2876  140.7627  158.7486 H   0  0  0  0  0  0  0  0  0  0  0  0
  153.1023  140.0328  157.6944 H   0  0  0  0  0  0  0  0  0  0  0  0
  150.6132  143.8581  158.4275 H   0  0  0  0  0  0  0  0  0  0  0  0
  150.7765  145.6970  160.0769 H   0  0  0  0  0  0  0  0  0  0  0  0
  152.3591  145.5250  161.9888 H   0  0  0  0  0  0  0  0  0  0  0  0
  153.7806  143.5007  162.2461 H   0  0  0  0  0  0  0  0  0  0  0  0
  148.5470  137.5288  153.8186 H   0  0  0  0  0  0  0  0  0  0  0  0
  147.9203  138.9950  153.0801 H   0  0  0  0  0  0  0  0  0  0  0  0
  147.2355  138.3951  154.5997 H   0  0  0  0  0  0  0  0  0  0  0  0
  1  2  1  0  0  0  0
  1 22  1  0  0  0  0
  1 23  1  0  0  0  0
  1 24  1  0  0  0  0
  2 20  1  0  0  0  0
  2  3  2  0  0  0  0
  3  4  1  0  0  0  0
  4  5  1  0  0  0  0
  4 15  1  0  0  0  0
  5  6  1  0  0  0  0
  5 25  1  0  0  0  0
  5 26  1  0  0  0  0
  6  7  1  0  0  0  0
  6  8  1  0  0  0  0
  6 27  1  0  0  0  0
  7 28  1  0  0  0  0
  8 13  1  0  0  0  0
  8  9  2  0  0  0  0
  9 10  1  0  0  0  0
  9 29  1  0  0  0  0
 10 11  2  0  0  0  0
 10 30  1  0  0  0  0
 11 12  1  0  0  0  0
 11 31  1  0  0  0  0
 12 13  2  0  0  0  0
 12 32  1  0  0  0  0
 13 14  1  0  0  0  0
 15 16  2  0  0  0  0
 15 17  1  0  0  0  0
 17 18  1  0  0  0  0
 17 20  2  0  0  0  0
 18 19  3  0  0  0  0
 20 21  1  0  0  0  0
 21 33  1  0  0  0  0
 21 34  1  0  0  0  0
 21 35  1  0  0  0  0
M  END
> <s_m_source_file>
AV-unprocessed.smi

> <i_m_source_file_index>
1300

> <i_lp_mmshare_version>
43012

> <i_f3d_flags>
0

> <s_epik_input>
TiNDYyhjMVtDSDNdKWMoPU8pbihuYzFbQ0gzXSlbQ0gyXVtDQEhdKFtPSF0pYzJbY0hdW2NIXVtjSF1bY0hdYzJG

> <s_epik_cmdline>
J2VwaWtfcHl0aG9uJywgJy1waCcsICc3LjAnLCAnLXRuJywgJzgnLCAnLW1hJywgJzIwMCcsICctbWV0YWxfYmluZGluZycsICctaW1hZScsICc8aW5maWxlLm1hZT4nLCAnLW9tYWUnLCAnPG91dGZpbGUubWFlPic=

> <r_lp_tautomer_probability>
1

> <r_epik_Ionization_Penalty>
7.1854e-08

> <r_epik_Ionization_Penalty_Charging>
1.40848e-10

> <r_epik_Ionization_Penalty_Neutral>
7.17131e-08

> <r_epik_State_Penalty>
-0

> <r_epik_Charging_Adjusted_Penalty>
1.40848e-10

> <i_epik_Tot_Q>
0

> <i_epik_Tot_abs_Q>
0

> <r_epik_Metal_State_Penalty>
-0

> <b_epik_Metal_Only>
0

> <s_lp_Force_Field>
OPLS_2005

> <r_lp_Energy>
29.2167

> <b_lp_Chiralities_Consistent>
1

> <s_lp_Variant>
AV-unprocessed.smi:1300-2

> <Gold.Version>
5.8.1

> <Gold.Id.Protein>
6NUR|6NUR_protein|mol2

> <Gold.PLP.Fitness>
48.6129

> <Gold.PLP.PLP>
-44.8103

> <Gold.PLP.part.hbond>
-3.0000

> <Gold.PLP.part.metal>
0.0000

> <Gold.PLP.part.buried>
-1.7487

> <Gold.PLP.part.nonpolar>
-40.7493

> <Gold.PLP.part.repulsive>
1.1356

> <Gold.PLP.ligand.clash>
0.0000

> <Gold.PLP.ligand.torsion>
1.1028

> <Gold.PLP.Chemscore.Hbond>
2.0000

> <Gold.PLP.Chemscore.CHOScore>
0.0000

> <Gold.PLP.Chemscore.Metal>
0.0000

> <Gold.Chemscore.Hbonds>
donor molecule, donor type, donor heavy atom, donor atom, acceptor molecule, acceptor atom, score
      P1  H  7997  8009       L1    16  1.00
      P1  H 10752 10765       L1    19  1.00

> <Gold.PLP.Chemscore.Internal.Correction>
0.0082

> <Gold.Rescore>
     Score         DG    S(hbond)    S(metal)    S(lipo)     H(rot)  DE(clash)    DE(int)     intcor
     13.74     -20.78       2.00        0.00     117.41       2.00       2.56       4.48       ----

> <Gold.Chemscore.Fitness>
13.7427

> <Gold.Chemscore.DG>
-20.7790

> <Gold.Chemscore.ZeroCoef>
-5.4800

> <Gold.Chemscore.Hbond>
1.9974

> <Gold.Chemscore.Metal>
0.0000

> <Gold.Chemscore.Lipo>
117.4140

> <Gold.Chemscore.Internal_Hbond>
0.0000

> <Gold.Chemscore.DEClash>
2.5597

> <Gold.Chemscore.DEInternal>
4.4765

> <Gold.Chemscore.Rot>
1.9960

> <Gold.Chemscore.Internal.Correction>
   9.000000E+99

> <Gold.Chemscore.Hbonds>
donor molecule, donor type, donor heavy atom, donor atom, acceptor molecule, acceptor atom, score
      P1  H  7997  8009       L1    16  0.96
      P1  H 10752 10765       L1    19  1.00

> <Gold.Chemscore.Hbond.Weighted>
-6.6713

> <Gold.Chemscore.Metal.Weighted>
-0.0000

> <Gold.Chemscore.Lipo.Weighted>
-13.7374

> <Gold.Chemscore.Internal_Hbond.Weighted>
0.0000

> <Gold.Chemscore.DEClash.Weighted>
2.5597

> <Gold.Chemscore.DEInternal.Weighted>
4.4765

> <Gold.Chemscore.Rot.Weighted>
5.1097

> <Gold.Chemscore.Internal.Correction.Weighted>
   9.000000E+99

> <Gold.Protein.RotatedTorsions>
[ 6907 6896 6895 6894 ] final   80.69 input  -60.11 | X-H torsion
[ 7974 7965 7964 7962 ] final   -0.17 input  175.53 | X-H torsion
[ 8008 7997 7996 7995 ] final -163.58 input   59.86 | X-H torsion
[ 10167 10162 10161 10158 ] final   -1.35 input  -65.29 | X-H torsion
[ 10718 10713 10712 10709 ] final   -5.50 input   66.30 | X-H torsion
[ 10763 10752 10751 10750 ] final  170.50 input  -60.55 | X-H torsion
[ 11005 11000 10999 10996 ] final -137.10 input  -57.11 | X-H torsion

> <Gold.Protein.ActiveResidues>
 VAL166  LYS551  ARG553  GLY616  TRP617  ASP618  TYR619  PRO620  LYS621  CYS622 
 ASP623  PHE694  ASN695  SER759  ASP760  ASP761  ALA762  ILE779  LEU786  VAL792 
 PHE793  MET794  SER795  GLU796  ALA797  LYS798  CYS799  TRP800  GLU811  SER814 

> <Gold.Protein.RotatedAtoms>
  152.5243  134.3318  159.9185 H   0  0  0  0  0  0  0  0  0  0  0  0  # atno 6907 bound_to 6896
  151.3268  133.4011  159.2667 H   0  0  0  0  0  0  0  0  0  0  0  0  # atno 6908 bound_to 6896
  150.9914  134.9265  159.7959 H   0  0  0  0  0  0  0  0  0  0  0  0  # atno 6909 bound_to 6896
  146.2429  140.1229  142.8340 H   0  0  0  0  0  0  0  0  0  0  0  0  # atno 7974 bound_to 7965
  155.8233  140.0923  157.1836 H   0  0  0  0  0  0  0  0  0  0  0  0  # atno 8008 bound_to 7997
  154.3979  140.1432  156.3587 H   0  0  0  0  0  0  0  0  0  0  0  0  # atno 8009 bound_to 7997
  155.8243  140.3445  155.5535 H   0  0  0  0  0  0  0  0  0  0  0  0  # atno 8010 bound_to 7997
  140.6806  143.6786  150.8124 H   0  0  0  0  0  0  0  0  0  0  0  0  # atno 10167 bound_to 10162
  156.7456  130.5223  149.5814 H   0  0  0  0  0  0  0  0  0  0  0  0  # atno 10718 bound_to 10713
  154.3986  135.2754  155.2111 H   0  0  0  0  0  0  0  0  0  0  0  0  # atno 10763 bound_to 10752
  154.4146  135.6014  153.5977 H   0  0  0  0  0  0  0  0  0  0  0  0  # atno 10764 bound_to 10752
  152.9831  135.5958  154.4250 H   0  0  0  0  0  0  0  0  0  0  0  0  # atno 10765 bound_to 10752
  140.8743  134.2012  157.4631 H   0  0  0  0  0  0  0  0  0  0  0  0  # atno 11005 bound_to 11000
  145.0391  140.8931  143.5063 LP  0  0  0  0  0  0  0  0  0  0  0  0  # atno 17320 bound_to 7965
  145.1307  139.2634  143.5541 LP  0  0  0  0  0  0  0  0  0  0  0  0  # atno 17321 bound_to 7965
  140.0486  143.5273  152.2684 LP  0  0  0  0  0  0  0  0  0  0  0  0  # atno 17342 bound_to 10162
  139.6126  144.7612  151.2917 LP  0  0  0  0  0  0  0  0  0  0  0  0  # atno 17343 bound_to 10162
  156.1435  130.6261  151.0499 LP  0  0  0  0  0  0  0  0  0  0  0  0  # atno 17370 bound_to 10713
  157.6799  131.0841  150.7396 LP  0  0  0  0  0  0  0  0  0  0  0  0  # atno 17371 bound_to 10713
  139.8714  134.9788  156.5013 LP  0  0  0  0  0  0  0  0  0  0  0  0  # atno 17394 bound_to 11000
  140.8536  133.8113  155.9194 LP  0  0  0  0  0  0  0  0  0  0  0  0  # atno 17395 bound_to 11000

$$$$
