AV-unprocessed.smi:440|AV-procd|sdf|2581|dock1
  -GOLD-   2262022563D 1   1.00000     0.00000
 Structure written by MMmdl.
 41 42  0  0  0  0  0  0  0  0  1 V2000
  154.3338  140.1617  160.2650 C   0  0  0  0  0  0  0  0  0  0  0  0
  153.4335  141.1275  159.5487 C   0  0  0  0  0  0  0  0  0  0  0  0
  153.5519  142.4220  159.7876 N   0  0  0  0  0  0  0  0  0  0  0  0
  152.6205  143.0067  159.0061 N   0  0  0  0  0  0  0  0  0  0  0  0
  152.4803  144.4551  159.0353 C   0  0  0  0  0  0  0  0  0  0  0  0
  151.7606  144.9736  160.2994 C   0  0  0  0  0  0  0  0  0  0  0  0
  152.1802  144.1608  161.5329 C   0  0  0  0  0  0  0  0  0  0  0  0
  150.2288  144.9956  160.1539 C   0  0  0  0  0  0  0  0  0  0  0  0
  151.9191  142.0752  158.2621 C   0  0  0  0  0  0  0  0  0  0  0  0
  150.8366  142.4586  157.3042 C   0  0  0  0  0  0  0  0  0  0  0  0
  152.4173  140.8423  158.5902 C   0  0  0  0  0  0  0  0  0  0  0  0
  152.0032  139.4901  158.0669 C   0  0  0  0  0  0  0  0  0  0  0  0
  151.8032  139.5621  156.5529 C   0  0  0  0  0  0  0  0  0  0  0  0
  152.7796  139.5725  155.8034 O   0  0  0  0  0  0  0  0  0  0  0  0
  150.5336  139.6064  156.1225 N   0  0  0  0  0  0  0  0  0  0  0  0
  150.1190  139.6462  154.7583 C   0  0  0  0  0  0  0  0  0  0  0  0
  149.1706  140.7497  154.3425 C   0  0  0  0  0  0  0  0  0  0  0  0
  148.6673  139.3376  154.4619 C   0  0  0  0  0  0  0  0  0  0  0  0
  153.7556  139.3713  160.7440 H   0  0  0  0  0  0  0  0  0  0  0  0
  154.9217  140.6550  161.0401 H   0  0  0  0  0  0  0  0  0  0  0  0
  155.0302  139.6909  159.5711 H   0  0  0  0  0  0  0  0  0  0  0  0
  153.4723  144.9039  158.9612 H   0  0  0  0  0  0  0  0  0  0  0  0
  151.9414  144.7655  158.1397 H   0  0  0  0  0  0  0  0  0  0  0  0
  152.0824  146.0013  160.4691 H   0  0  0  0  0  0  0  0  0  0  0  0
  151.8875  143.1149  161.4363 H   0  0  0  0  0  0  0  0  0  0  0  0
  151.7188  144.5533  162.4394 H   0  0  0  0  0  0  0  0  0  0  0  0
  153.2609  144.1924  161.6753 H   0  0  0  0  0  0  0  0  0  0  0  0
  149.8393  144.0019  159.9309 H   0  0  0  0  0  0  0  0  0  0  0  0
  149.9096  145.6663  159.3561 H   0  0  0  0  0  0  0  0  0  0  0  0
  149.7530  145.3407  161.0722 H   0  0  0  0  0  0  0  0  0  0  0  0
  150.5174  141.6043  156.7074 H   0  0  0  0  0  0  0  0  0  0  0  0
  151.1786  143.2304  156.6148 H   0  0  0  0  0  0  0  0  0  0  0  0
  149.9640  142.8376  157.8355 H   0  0  0  0  0  0  0  0  0  0  0  0
  152.7495  138.7275  158.2928 H   0  0  0  0  0  0  0  0  0  0  0  0
  151.0784  139.1490  158.5333 H   0  0  0  0  0  0  0  0  0  0  0  0
  149.8015  139.5910  156.8175 H   0  0  0  0  0  0  0  0  0  0  0  0
  150.8382  139.3234  154.0067 H   0  0  0  0  0  0  0  0  0  0  0  0
  148.8538  141.4621  155.1021 H   0  0  0  0  0  0  0  0  0  0  0  0
  149.2860  141.1584  153.3407 H   0  0  0  0  0  0  0  0  0  0  0  0
  148.4468  138.8029  153.5400 H   0  0  0  0  0  0  0  0  0  0  0  0
  148.0133  139.1076  155.3014 H   0  0  0  0  0  0  0  0  0  0  0  0
  1  2  1  0  0  0  0
  1 19  1  0  0  0  0
  1 20  1  0  0  0  0
  1 21  1  0  0  0  0
  2 11  1  0  0  0  0
  2  3  2  0  0  0  0
  3  4  1  0  0  0  0
  4  5  1  0  0  0  0
  4  9  1  0  0  0  0
  5  6  1  0  0  0  0
  5 22  1  0  0  0  0
  5 23  1  0  0  0  0
  6  7  1  0  0  0  0
  6  8  1  0  0  0  0
  6 24  1  0  0  0  0
  7 25  1  0  0  0  0
  7 26  1  0  0  0  0
  7 27  1  0  0  0  0
  8 28  1  0  0  0  0
  8 29  1  0  0  0  0
  8 30  1  0  0  0  0
  9 10  1  0  0  0  0
  9 11  2  0  0  0  0
 10 31  1  0  0  0  0
 10 32  1  0  0  0  0
 10 33  1  0  0  0  0
 11 12  1  0  0  0  0
 12 13  1  0  0  0  0
 12 34  1  0  0  0  0
 12 35  1  0  0  0  0
 13 14  2  0  0  0  0
 13 15  1  0  0  0  0
 15 16  1  0  0  0  0
 15 36  1  0  0  0  0
 16 18  1  0  0  0  0
 16 17  1  0  0  0  0
 16 37  1  0  0  0  0
 17 18  1  0  0  0  0
 17 38  1  0  0  0  0
 17 39  1  0  0  0  0
 18 40  1  0  0  0  0
 18 41  1  0  0  0  0
M  END
> <s_m_source_file>
AV-unprocessed.smi

> <i_m_source_file_index>
440

> <i_lp_mmshare_version>
43012

> <i_f3d_flags>
0

> <s_epik_input>
W0NIM11jMW5uKFtDSDJdW0NIXShbQ0gzXSlbQ0gzXSljKFtDSDNdKWMxW0NIMl1DKD1PKVtOSF1bQ0hdMltDSDJdW0NIMl0y

> <s_epik_cmdline>
J2VwaWtfcHl0aG9uJywgJy1waCcsICc3LjAnLCAnLXRuJywgJzgnLCAnLW1hJywgJzIwMCcsICctbWV0YWxfYmluZGluZycsICctaW1hZScsICc8aW5maWxlLm1hZT4nLCAnLW9tYWUnLCAnPG91dGZpbGUubWFlPic=

> <r_lp_tautomer_probability>
1

> <r_epik_Ionization_Penalty>
0.00313774

> <r_epik_Ionization_Penalty_Charging>
0

> <r_epik_Ionization_Penalty_Neutral>
0.00313774

> <r_epik_State_Penalty>
0.00220979

> <r_epik_Charging_Adjusted_Penalty>
0.00220979

> <i_epik_Tot_Q>
0

> <i_epik_Tot_abs_Q>
0

> <r_epik_Metal_State_Penalty>
-0

> <b_epik_Metal_Only>
0

> <s_lp_Force_Field>
OPLS_2005

> <r_lp_Energy>
13.2521

> <b_lp_Chiralities_Consistent>
1

> <s_lp_Variant>
AV-unprocessed.smi:440-1

> <Gold.Version>
5.8.1

> <Gold.Id.Protein>
6NUR|6NUR_protein|mol2

> <Gold.PLP.Fitness>
44.6121

> <Gold.PLP.PLP>
-43.6249

> <Gold.PLP.part.hbond>
-1.0000

> <Gold.PLP.part.metal>
0.0000

> <Gold.PLP.part.buried>
-5.5595

> <Gold.PLP.part.nonpolar>
-37.5345

> <Gold.PLP.part.repulsive>
0.0565

> <Gold.PLP.ligand.clash>
0.0000

> <Gold.PLP.ligand.torsion>
1.0386

> <Gold.PLP.Chemscore.Hbond>
1.0000

> <Gold.PLP.Chemscore.CHOScore>
0.0000

> <Gold.PLP.Chemscore.Metal>
0.0000

> <Gold.Chemscore.Hbonds>
donor molecule, donor type, donor heavy atom, donor atom, acceptor molecule, acceptor atom, score
      P1  H  7997  8008       L1    14  1.00

> <Gold.PLP.Chemscore.Internal.Correction>
0.0644

> <Gold.Rescore>
     Score         DG    S(hbond)    S(metal)    S(lipo)     H(rot)  DE(clash)    DE(int)     intcor
     16.24     -18.56       1.00        0.00     116.79       1.53       0.04       2.27       ----

> <Gold.Chemscore.Fitness>
16.2394

> <Gold.Chemscore.DG>
-18.5569

> <Gold.Chemscore.ZeroCoef>
-5.4800

> <Gold.Chemscore.Hbond>
0.9999

> <Gold.Chemscore.Metal>
0.0000

> <Gold.Chemscore.Lipo>
116.7946

> <Gold.Chemscore.Internal_Hbond>
0.0000

> <Gold.Chemscore.DEClash>
0.0431

> <Gold.Chemscore.DEInternal>
2.2744

> <Gold.Chemscore.Rot>
1.5342

> <Gold.Chemscore.Internal.Correction>
   9.000000E+99

> <Gold.Chemscore.Hbonds>
donor molecule, donor type, donor heavy atom, donor atom, acceptor molecule, acceptor atom, score
      P1  H  7997  8008       L1    14  1.00

> <Gold.Chemscore.Hbond.Weighted>
-3.3395

> <Gold.Chemscore.Metal.Weighted>
-0.0000

> <Gold.Chemscore.Lipo.Weighted>
-13.6650

> <Gold.Chemscore.Internal_Hbond.Weighted>
0.0000

> <Gold.Chemscore.DEClash.Weighted>
0.0431

> <Gold.Chemscore.DEInternal.Weighted>
2.2744

> <Gold.Chemscore.Rot.Weighted>
3.9276

> <Gold.Chemscore.Internal.Correction.Weighted>
   9.000000E+99

> <Gold.Protein.RotatedTorsions>
[ 6907 6896 6895 6894 ] final   18.97 input  -60.11 | X-H torsion
[ 7974 7965 7964 7962 ] final  -48.41 input  175.53 | X-H torsion
[ 8008 7997 7996 7995 ] final  -30.45 input   59.86 | X-H torsion
[ 10167 10162 10161 10158 ] final    4.06 input  -65.29 | X-H torsion
[ 10718 10713 10712 10709 ] final -125.13 input   66.30 | X-H torsion
[ 10763 10752 10751 10750 ] final  -51.14 input  -60.55 | X-H torsion
[ 11005 11000 10999 10996 ] final -134.08 input  -57.11 | X-H torsion

> <Gold.Protein.ActiveResidues>
 VAL166  LYS551  ARG553  GLY616  TRP617  ASP618  TYR619  PRO620  LYS621  CYS622 
 ASP623  PHE694  ASN695  SER759  ASP760  ASP761  ALA762  ILE779  LEU786  VAL792 
 PHE793  MET794  SER795  GLU796  ALA797  LYS798  CYS799  TRP800  GLU811  SER814 

> <Gold.Protein.RotatedAtoms>
  151.8736  135.0480  160.0481 H   0  0  0  0  0  0  0  0  0  0  0  0  # atno 6907 bound_to 6896
  152.2569  133.5259  159.5367 H   0  0  0  0  0  0  0  0  0  0  0  0  # atno 6908 bound_to 6896
  150.7103  134.0800  159.3937 H   0  0  0  0  0  0  0  0  0  0  0  0  # atno 6909 bound_to 6896
  145.9514  140.7568  142.9502 H   0  0  0  0  0  0  0  0  0  0  0  0  # atno 7974 bound_to 7965
  154.4250  140.1791  156.1408 H   0  0  0  0  0  0  0  0  0  0  0  0  # atno 8008 bound_to 7997
  155.9993  140.3361  155.6805 H   0  0  0  0  0  0  0  0  0  0  0  0  # atno 8009 bound_to 7997
  155.6265  140.0665  157.2653 H   0  0  0  0  0  0  0  0  0  0  0  0  # atno 8010 bound_to 7997
  140.6554  143.7440  150.7645 H   0  0  0  0  0  0  0  0  0  0  0  0  # atno 10167 bound_to 10162
  156.1648  130.6627  151.0099 H   0  0  0  0  0  0  0  0  0  0  0  0  # atno 10718 bound_to 10713
  154.1217  135.6533  153.4904 H   0  0  0  0  0  0  0  0  0  0  0  0  # atno 10763 bound_to 10752
  153.0223  135.5272  154.7090 H   0  0  0  0  0  0  0  0  0  0  0  0  # atno 10764 bound_to 10752
  154.6300  135.2975  155.0198 H   0  0  0  0  0  0  0  0  0  0  0  0  # atno 10765 bound_to 10752
  140.9022  134.1676  157.4452 H   0  0  0  0  0  0  0  0  0  0  0  0  # atno 11005 bound_to 11000
  144.6796  140.2441  143.7340 LP  0  0  0  0  0  0  0  0  0  0  0  0  # atno 17320 bound_to 7965
  145.8165  139.2025  143.1962 LP  0  0  0  0  0  0  0  0  0  0  0  0  # atno 17321 bound_to 7965
  140.1099  143.4709  152.2376 LP  0  0  0  0  0  0  0  0  0  0  0  0  # atno 17342 bound_to 10162
  139.5776  144.7495  151.3724 LP  0  0  0  0  0  0  0  0  0  0  0  0  # atno 17343 bound_to 10162
  157.6759  131.0850  150.7494 LP  0  0  0  0  0  0  0  0  0  0  0  0  # atno 17370 bound_to 10713
  156.7555  130.4782  149.5447 LP  0  0  0  0  0  0  0  0  0  0  0  0  # atno 17371 bound_to 10713
  139.8744  134.9902  156.5494 LP  0  0  0  0  0  0  0  0  0  0  0  0  # atno 17394 bound_to 11000
  140.8215  133.8349  155.8900 LP  0  0  0  0  0  0  0  0  0  0  0  0  # atno 17395 bound_to 11000

$$$$
