AV-unprocessed.smi:2200|AV-procd|sdf|8925|dock5
  -GOLD-   2272012143D 1   1.00000     0.00000
 Structure written by MMmdl.
 31 31  0  0  0  0  0  0  0  0  1 V2000
  152.8153  142.8111  160.7794 C   0  0  0  0  0  0  0  0  0  0  0  0
  152.4915  142.9796  159.2881 C   0  0  0  0  0  0  0  0  0  0  0  0
  152.3006  144.4657  158.9365 C   0  0  0  0  0  0  0  0  0  0  0  0
  151.2725  142.1178  158.8928 C   0  0  0  0  0  0  0  0  0  0  0  0
  150.8964  142.2877  157.4933 N   0  0  0  0  0  0  0  0  0  0  0  0
  150.2783  141.3637  156.7426 C   0  0  0  0  0  0  0  0  0  0  0  0
  149.9186  140.2699  157.1800 O   0  0  0  0  0  0  0  0  0  0  0  0
  150.0154  141.7431  155.2787 C   0  0  0  0  0  0  0  0  0  0  0  0
  149.0873  140.8176  154.6134 N   0  0  0  0  0  0  0  0  0  0  0  0
  147.7348  141.1169  154.5308 C   0  0  0  0  0  0  0  0  0  0  0  0
  146.8255  140.3028  153.9439 C   0  0  0  0  0  0  0  0  0  0  0  0
  147.2410  139.0344  153.3547 C   0  0  0  0  0  0  0  0  0  0  0  0
  146.4937  138.2313  152.8006 O   0  0  0  0  0  0  0  0  0  0  0  0
  148.6087  138.7680  153.4600 N   0  0  0  0  0  0  0  0  0  0  0  0
  149.5511  139.6019  154.0642 C   0  0  0  0  0  0  0  0  0  0  0  0
  150.7351  139.2692  154.1062 O   0  0  0  0  0  0  0  0  0  0  0  0
  148.9429  137.8993  153.0688 H   0  0  0  0  0  0  0  0  0  0  0  0
  151.9943  143.1620  161.4057 H   0  0  0  0  0  0  0  0  0  0  0  0
  153.7082  143.3738  161.0537 H   0  0  0  0  0  0  0  0  0  0  0  0
  152.9991  141.7649  161.0258 H   0  0  0  0  0  0  0  0  0  0  0  0
  153.3573  142.6199  158.7308 H   0  0  0  0  0  0  0  0  0  0  0  0
  151.4313  144.8845  159.4448 H   0  0  0  0  0  0  0  0  0  0  0  0
  152.1631  144.6114  157.8646 H   0  0  0  0  0  0  0  0  0  0  0  0
  153.1714  145.0518  159.2309 H   0  0  0  0  0  0  0  0  0  0  0  0
  151.4710  141.0631  159.0912 H   0  0  0  0  0  0  0  0  0  0  0  0
  150.4125  142.3873  159.5068 H   0  0  0  0  0  0  0  0  0  0  0  0
  151.1485  143.1627  157.0566 H   0  0  0  0  0  0  0  0  0  0  0  0
  149.6206  142.7599  155.2592 H   0  0  0  0  0  0  0  0  0  0  0  0
  150.9562  141.7885  154.7259 H   0  0  0  0  0  0  0  0  0  0  0  0
  147.3800  142.0441  154.9581 H   0  0  0  0  0  0  0  0  0  0  0  0
  145.7845  140.5907  153.9115 H   0  0  0  0  0  0  0  0  0  0  0  0
  1  2  1  0  0  0  0
  1 18  1  0  0  0  0
  1 19  1  0  0  0  0
  1 20  1  0  0  0  0
  2  3  1  0  0  0  0
  2  4  1  0  0  0  0
  2 21  1  0  0  0  0
  3 22  1  0  0  0  0
  3 23  1  0  0  0  0
  3 24  1  0  0  0  0
  4  5  1  0  0  0  0
  4 25  1  0  0  0  0
  4 26  1  0  0  0  0
  5  6  1  0  0  0  0
  5 27  1  0  0  0  0
  6  7  2  0  0  0  0
  6  8  1  0  0  0  0
  8  9  1  0  0  0  0
  8 28  1  0  0  0  0
  8 29  1  0  0  0  0
  9 15  1  0  0  0  0
  9 10  1  0  0  0  0
 10 11  2  0  0  0  0
 10 30  1  0  0  0  0
 11 12  1  0  0  0  0
 11 31  1  0  0  0  0
 12 13  2  0  0  0  0
 12 14  1  0  0  0  0
 14 17  1  0  0  0  0
 14 15  1  0  0  0  0
 15 16  2  0  0  0  0
M  END
> <s_m_source_file>
AV-unprocessed.smi

> <i_m_source_file_index>
2200

> <i_lp_mmshare_version>
43012

> <i_f3d_flags>
0

> <s_epik_input>
W0NIM11bQ0hdKFtDSDNdKVtDSDJdW05IXUMoPU8pW0NIMl1uMVtjSF1bY0hdYyg9TylbbkhdYzE9Tw==

> <s_epik_cmdline>
J2VwaWtfcHl0aG9uJywgJy1waCcsICc3LjAnLCAnLXRuJywgJzgnLCAnLW1hJywgJzIwMCcsICctbWV0YWxfYmluZGluZycsICctaW1hZScsICc8aW5maWxlLm1hZT4nLCAnLW9tYWUnLCAnPG91dGZpbGUubWFlPic=

> <r_lp_tautomer_probability>
0.999537

> <r_epik_Ionization_Penalty>
0.00328917

> <r_epik_Ionization_Penalty_Charging>
0.00328916

> <r_epik_Ionization_Penalty_Neutral>
1.93017e-08

> <r_epik_State_Penalty>
0.00232387

> <r_epik_Charging_Adjusted_Penalty>
0.00561303

> <i_epik_Tot_Q>
0

> <i_epik_Tot_abs_Q>
0

> <r_epik_Metal_State_Penalty>
0.365274

> <b_epik_Metal_Only>
0

> <s_lp_Force_Field>
OPLS_2005

> <r_lp_Energy>
3.18145

> <b_lp_Chiralities_Consistent>
1

> <s_lp_Variant>
AV-unprocessed.smi:2200-1

> <Gold.Version>
5.8.1

> <Gold.Id.Protein>
6NUR|6NUR_protein|mol2

> <Gold.PLP.Fitness>
36.6760

> <Gold.PLP.PLP>
-32.0005

> <Gold.PLP.part.hbond>
-3.0000

> <Gold.PLP.part.metal>
0.0000

> <Gold.PLP.part.buried>
-1.7616

> <Gold.PLP.part.nonpolar>
-27.5347

> <Gold.PLP.part.repulsive>
0.5446

> <Gold.PLP.ligand.clash>
0.0000

> <Gold.PLP.ligand.torsion>
0.6662

> <Gold.PLP.Chemscore.Hbond>
2.0000

> <Gold.PLP.Chemscore.CHOScore>
0.0000

> <Gold.PLP.Chemscore.Metal>
0.0000

> <Gold.Chemscore.Hbonds>
donor molecule, donor type, donor heavy atom, donor atom, acceptor molecule, acceptor atom, score
      L1  H    14    17       P1  7948  0.99
      P1  H  7989  7998       L1    16  1.00

> <Gold.PLP.Chemscore.Internal.Correction>
0.0079

> <Gold.Rescore>
     Score         DG    S(hbond)    S(metal)    S(lipo)     H(rot)  DE(clash)    DE(int)     intcor
     12.79     -13.97       1.81        0.00      64.92       2.01       0.47       0.71       ----

> <Gold.Chemscore.Fitness>
12.7936

> <Gold.Chemscore.DG>
-13.9661

> <Gold.Chemscore.ZeroCoef>
-5.4800

> <Gold.Chemscore.Hbond>
1.8108

> <Gold.Chemscore.Metal>
0.0000

> <Gold.Chemscore.Lipo>
64.9247

> <Gold.Chemscore.Internal_Hbond>
0.0000

> <Gold.Chemscore.DEClash>
0.4671

> <Gold.Chemscore.DEInternal>
0.7054

> <Gold.Chemscore.Rot>
2.0150

> <Gold.Chemscore.Internal.Correction>
   9.000000E+99

> <Gold.Chemscore.Hbonds>
donor molecule, donor type, donor heavy atom, donor atom, acceptor molecule, acceptor atom, score
      L1  H    14    17       P1  7948  0.92
      P1  H  7989  7998       L1    16  0.34

> <Gold.Chemscore.Hbond.Weighted>
-6.0482

> <Gold.Chemscore.Metal.Weighted>
-0.0000

> <Gold.Chemscore.Lipo.Weighted>
-7.5962

> <Gold.Chemscore.Internal_Hbond.Weighted>
0.0000

> <Gold.Chemscore.DEClash.Weighted>
0.4671

> <Gold.Chemscore.DEInternal.Weighted>
0.7054

> <Gold.Chemscore.Rot.Weighted>
5.1583

> <Gold.Chemscore.Internal.Correction.Weighted>
   9.000000E+99

> <Gold.Protein.RotatedTorsions>
[ 6907 6896 6895 6894 ] final -100.81 input  -60.11 | X-H torsion
[ 7974 7965 7964 7962 ] final -160.53 input  175.53 | X-H torsion
[ 8008 7997 7996 7995 ] final  155.70 input   59.86 | X-H torsion
[ 10167 10162 10161 10158 ] final -170.90 input  -65.29 | X-H torsion
[ 10718 10713 10712 10709 ] final -152.48 input   66.30 | X-H torsion
[ 10763 10752 10751 10750 ] final   39.67 input  -60.55 | X-H torsion
[ 11005 11000 10999 10996 ] final  -84.05 input  -57.11 | X-H torsion

> <Gold.Protein.ActiveResidues>
 VAL166  LYS551  ARG553  GLY616  TRP617  ASP618  TYR619  PRO620  LYS621  CYS622 
 ASP623  PHE694  ASN695  SER759  ASP760  ASP761  ALA762  ILE779  LEU786  VAL792 
 PHE793  MET794  SER795  GLU796  ALA797  LYS798  CYS799  TRP800  GLU811  SER814 

> <Gold.Protein.RotatedAtoms>
  150.7130  134.0830  159.3904 H   0  0  0  0  0  0  0  0  0  0  0  0  # atno 6907 bound_to 6896
  151.8815  135.0449  160.0498 H   0  0  0  0  0  0  0  0  0  0  0  0  # atno 6908 bound_to 6896
  152.2564  133.5224  159.5392 H   0  0  0  0  0  0  0  0  0  0  0  0  # atno 6909 bound_to 6896
  144.7424  140.3529  143.6112 H   0  0  0  0  0  0  0  0  0  0  0  0  # atno 7974 bound_to 7965
  156.2464  140.1932  156.6842 H   0  0  0  0  0  0  0  0  0  0  0  0  # atno 8008 bound_to 7997
  154.6299  140.0597  156.9746 H   0  0  0  0  0  0  0  0  0  0  0  0  # atno 8009 bound_to 7997
  155.1727  140.3269  155.4392 H   0  0  0  0  0  0  0  0  0  0  0  0  # atno 8010 bound_to 7997
  139.5834  144.1372  152.1544 H   0  0  0  0  0  0  0  0  0  0  0  0  # atno 10167 bound_to 10162
  156.4731  130.8267  151.2496 H   0  0  0  0  0  0  0  0  0  0  0  0  # atno 10718 bound_to 10713
  152.9960  135.6214  154.2503 H   0  0  0  0  0  0  0  0  0  0  0  0  # atno 10763 bound_to 10752
  154.2241  135.2794  155.2915 H   0  0  0  0  0  0  0  0  0  0  0  0  # atno 10764 bound_to 10752
  154.5504  135.5735  153.6975 H   0  0  0  0  0  0  0  0  0  0  0  0  # atno 10765 bound_to 10752
  141.1653  133.7326  156.8810 H   0  0  0  0  0  0  0  0  0  0  0  0  # atno 11005 bound_to 11000
  145.7257  139.1722  143.2459 LP  0  0  0  0  0  0  0  0  0  0  0  0  # atno 17320 bound_to 7965
  146.1243  140.7268  142.9442 LP  0  0  0  0  0  0  0  0  0  0  0  0  # atno 17321 bound_to 7965
  140.0930  144.5604  150.7041 LP  0  0  0  0  0  0  0  0  0  0  0  0  # atno 17342 bound_to 10162
  140.7109  143.2504  151.4583 LP  0  0  0  0  0  0  0  0  0  0  0  0  # atno 17343 bound_to 10162
  157.7489  131.0070  150.3172 LP  0  0  0  0  0  0  0  0  0  0  0  0  # atno 17370 bound_to 10713
  156.3598  130.3845  149.7260 LP  0  0  0  0  0  0  0  0  0  0  0  0  # atno 17371 bound_to 10713
  140.1715  134.9097  157.2839 LP  0  0  0  0  0  0  0  0  0  0  0  0  # atno 17394 bound_to 11000
  140.2497  134.3697  155.7447 LP  0  0  0  0  0  0  0  0  0  0  0  0  # atno 17395 bound_to 11000

$$$$
