AV-unprocessed.smi:308|AV-procd|sdf|2288|dock9
  -GOLD-   2262022193D 1   1.00000     0.00000
 Structure written by MMmdl.
 50 51  0  0  0  0  0  0  0  0  2 V2000
  144.2284  132.5149  151.5911 C   0  0  0  0  0  0  0  0  0  0  0  0
  145.7136  132.8958  151.7223 C   0  0  2  0  0  0  0  0  0  0  0  0
  146.0738  133.4129  153.1266 C   0  0  0  0  0  0  0  0  0  0  0  0
  145.5448  134.8368  153.3775 C   0  0  0  0  0  0  0  0  0  0  0  0
  146.0197  135.7831  152.3350 N   0  3  2  0  0  0  0  0  0  0  0  0
  145.6211  137.1828  152.6289 C   0  0  0  0  0  0  0  0  0  0  0  0
  146.3025  138.1995  151.6925 C   0  0  0  0  0  0  0  0  0  0  0  0
  147.5679  138.6713  152.2435 N   0  0  0  0  0  0  0  0  0  0  0  0
  147.7168  139.2189  153.4582 C   0  0  0  0  0  0  0  0  0  0  0  0
  146.7852  139.3711  154.2482 O   0  0  0  0  0  0  0  0  0  0  0  0
  148.9923  139.5817  153.6766 N   0  0  0  0  0  0  0  0  0  0  0  0
  149.5503  140.2042  154.8260 C   0  0  0  0  0  0  0  0  0  0  0  0
  150.8568  139.9647  155.3101 C   0  0  0  0  0  0  0  0  0  0  0  0
  151.2985  140.6544  156.4557 C   0  0  0  0  0  0  0  0  0  0  0  0
  150.4296  141.5761  157.0910 C   0  0  0  0  0  0  0  0  0  0  0  0
  150.8262  142.2881  158.2463 N   0  0  0  0  0  0  0  0  0  0  0  0
  150.0672  143.4588  158.6742 C   0  0  0  0  0  0  0  0  0  0  0  0
  151.9360  141.8060  159.0593 C   0  0  0  0  0  0  0  0  0  0  0  0
  149.1847  141.8135  156.6102 N   0  0  0  0  0  0  0  0  0  0  0  0
  148.7654  141.1507  155.5126 C   0  0  0  0  0  0  0  0  0  0  0  0
  145.6250  135.3374  150.9719 C   0  0  0  0  0  0  0  0  0  0  0  0
  146.1602  133.9262  150.6696 C   0  0  0  0  0  0  0  0  0  0  0  0
  143.5680  133.3675  151.7461 H   0  0  0  0  0  0  0  0  0  0  0  0
  143.9561  131.7515  152.3204 H   0  0  0  0  0  0  0  0  0  0  0  0
  144.0157  132.1098  150.6014 H   0  0  0  0  0  0  0  0  0  0  0  0
  146.2825  131.9810  151.5511 H   0  0  0  0  0  0  0  0  0  0  0  0
  145.6934  132.7322  153.8890 H   0  0  0  0  0  0  0  0  0  0  0  0
  147.1590  133.4144  153.2385 H   0  0  0  0  0  0  0  0  0  0  0  0
  144.4544  134.8417  153.4084 H   0  0  0  0  0  0  0  0  0  0  0  0
  145.8870  135.1706  154.3579 H   0  0  0  0  0  0  0  0  0  0  0  0
  144.5343  137.2678  152.5821 H   0  0  0  0  0  0  0  0  0  0  0  0
  145.9040  137.4303  153.6531 H   0  0  0  0  0  0  0  0  0  0  0  0
  146.5061  137.7354  150.7271 H   0  0  0  0  0  0  0  0  0  0  0  0
  145.6604  139.0580  151.4944 H   0  0  0  0  0  0  0  0  0  0  0  0
  148.3838  138.5889  151.6543 H   0  0  0  0  0  0  0  0  0  0  0  0
  149.6283  139.4591  152.9023 H   0  0  0  0  0  0  0  0  0  0  0  0
  151.5330  139.2800  154.8228 H   0  0  0  0  0  0  0  0  0  0  0  0
  152.2967  140.4654  156.8203 H   0  0  0  0  0  0  0  0  0  0  0  0
  149.0422  143.1805  158.9221 H   0  0  0  0  0  0  0  0  0  0  0  0
  150.0416  144.2097  157.8837 H   0  0  0  0  0  0  0  0  0  0  0  0
  150.5116  143.9209  159.5558 H   0  0  0  0  0  0  0  0  0  0  0  0
  152.8676  141.8424  158.4941 H   0  0  0  0  0  0  0  0  0  0  0  0
  151.7605  140.7787  159.3802 H   0  0  0  0  0  0  0  0  0  0  0  0
  152.0655  142.4138  159.9549 H   0  0  0  0  0  0  0  0  0  0  0  0
  147.7648  141.3812  155.1766 H   0  0  0  0  0  0  0  0  0  0  0  0
  144.5385  135.3611  150.8779 H   0  0  0  0  0  0  0  0  0  0  0  0
  146.0141  136.0237  150.2211 H   0  0  0  0  0  0  0  0  0  0  0  0
  147.2503  133.9600  150.6429 H   0  0  0  0  0  0  0  0  0  0  0  0
  145.8442  133.6114  149.6744 H   0  0  0  0  0  0  0  0  0  0  0  0
  147.0287  135.7573  152.3730 H   0  0  0  0  0  0  0  0  0  0  0  0
  1  2  1  0  0  0  0
  1 23  1  0  0  0  0
  1 24  1  0  0  0  0
  1 25  1  0  0  0  0
  2 22  1  0  0  0  0
  2  3  1  0  0  0  0
  2 26  1  0  0  0  0
  3  4  1  0  0  0  0
  3 27  1  0  0  0  0
  3 28  1  0  0  0  0
  4  5  1  0  0  0  0
  4 29  1  0  0  0  0
  4 30  1  0  0  0  0
  5  6  1  0  0  0  0
  5 21  1  0  0  0  0
  5 50  1  0  0  0  0
  6  7  1  0  0  0  0
  6 31  1  0  0  0  0
  6 32  1  0  0  0  0
  7  8  1  0  0  0  0
  7 33  1  0  0  0  0
  7 34  1  0  0  0  0
  8  9  1  0  0  0  0
  8 35  1  0  0  0  0
  9 10  2  0  0  0  0
  9 11  1  0  0  0  0
 11 12  1  0  0  0  0
 11 36  1  0  0  0  0
 12 20  1  0  0  0  0
 12 13  2  0  0  0  0
 13 14  1  0  0  0  0
 13 37  1  0  0  0  0
 14 15  2  0  0  0  0
 14 38  1  0  0  0  0
 15 16  1  0  0  0  0
 15 19  1  0  0  0  0
 16 17  1  0  0  0  0
 16 18  1  0  0  0  0
 17 39  1  0  0  0  0
 17 40  1  0  0  0  0
 17 41  1  0  0  0  0
 18 42  1  0  0  0  0
 18 43  1  0  0  0  0
 18 44  1  0  0  0  0
 19 20  2  0  0  0  0
 20 45  1  0  0  0  0
 21 22  1  0  0  0  0
 21 46  1  0  0  0  0
 21 47  1  0  0  0  0
 22 48  1  0  0  0  0
 22 49  1  0  0  0  0
M  CHG  1   5   1
M  END
> <s_m_source_file>
AV-unprocessed.smi

> <i_m_source_file_index>
308

> <i_lp_mmshare_version>
43012

> <i_f3d_flags>
0

> <s_epik_input>
W0NIM11bQ0hdMVtDSDJdW0NIMl1OKFtDSDJdW0NIMl0xKVtDSDJdW0NIMl1bTkhdQyg9TylbTkhdYzJbY0hdW2NIXWMoTihbQ0gzXSlbQ0gzXSluW2NIXTI=

> <s_epik_cmdline>
J2VwaWtfcHl0aG9uJywgJy1waCcsICc3LjAnLCAnLXRuJywgJzgnLCAnLW1hJywgJzIwMCcsICctbWV0YWxfYmluZGluZycsICctaW1hZScsICc8aW5maWxlLm1hZT4nLCAnLW9tYWUnLCAnPG91dGZpbGUubWFlPic=

> <r_lp_tautomer_probability>
1

> <r_epik_Ionization_Penalty>
0.536661

> <r_epik_Ionization_Penalty_Charging>
0.00139388

> <r_epik_Ionization_Penalty_Neutral>
0.535267

> <r_epik_State_Penalty>
0.543381

> <r_epik_Charging_Adjusted_Penalty>
0.544775

> <i_epik_Tot_Q>
1

> <i_epik_Tot_abs_Q>
1

> <r_epik_Metal_State_Penalty>
0.284523

> <b_epik_Metal_Only>
0

> <s_lp_Force_Field>
OPLS_2005

> <r_lp_Energy>
22.9976

> <b_lp_Chiralities_Consistent>
1

> <s_lp_Variant>
AV-unprocessed.smi:308-4

> <Gold.Version>
5.8.1

> <Gold.Id.Protein>
6NUR|6NUR_protein|mol2

> <Gold.PLP.Fitness>
46.8477

> <Gold.PLP.PLP>
-37.4738

> <Gold.PLP.part.hbond>
-4.0000

> <Gold.PLP.part.metal>
0.0000

> <Gold.PLP.part.buried>
-3.4420

> <Gold.PLP.part.nonpolar>
-31.5326

> <Gold.PLP.part.repulsive>
0.9356

> <Gold.PLP.ligand.clash>
0.0000

> <Gold.PLP.ligand.torsion>
0.6163

> <Gold.PLP.Chemscore.Hbond>
3.5200

> <Gold.PLP.Chemscore.CHOScore>
0.0000

> <Gold.PLP.Chemscore.Metal>
0.0000

> <Gold.Chemscore.Hbonds>
donor molecule, donor type, donor heavy atom, donor atom, acceptor molecule, acceptor atom, score
      L1  H     5    50       P1  7948  2.00
      L1  H     8    35       P1  7957  0.54
      L1  H    11    36       P1  7957  0.67

> <Gold.PLP.Chemscore.Internal.Correction>
0.0466

> <Gold.Rescore>
     Score         DG    S(hbond)    S(metal)    S(lipo)     H(rot)  DE(clash)    DE(int)     intcor
     17.24     -20.47       2.73        0.00      81.35       1.42       0.09       3.14       ----

> <Gold.Chemscore.Fitness>
17.2362

> <Gold.Chemscore.DG>
-20.4700

> <Gold.Chemscore.ZeroCoef>
-5.4800

> <Gold.Chemscore.Hbond>
2.7298

> <Gold.Chemscore.Metal>
0.0000

> <Gold.Chemscore.Lipo>
81.3526

> <Gold.Chemscore.Internal_Hbond>
0.0000

> <Gold.Chemscore.DEClash>
0.0932

> <Gold.Chemscore.DEInternal>
3.1406

> <Gold.Chemscore.Rot>
1.4241

> <Gold.Chemscore.Internal.Correction>
   9.000000E+99

> <Gold.Chemscore.Hbonds>
donor molecule, donor type, donor heavy atom, donor atom, acceptor molecule, acceptor atom, score
      L1  H     5    50       P1  7948  0.92
      L1  H     8    35       P1  7957  0.24
      L1  H    11    36       P1  7957  0.68

> <Gold.Chemscore.Hbond.Weighted>
-9.1174

> <Gold.Chemscore.Metal.Weighted>
-0.0000

> <Gold.Chemscore.Lipo.Weighted>
-9.5183

> <Gold.Chemscore.Internal_Hbond.Weighted>
0.0000

> <Gold.Chemscore.DEClash.Weighted>
0.0932

> <Gold.Chemscore.DEInternal.Weighted>
3.1406

> <Gold.Chemscore.Rot.Weighted>
3.6456

> <Gold.Chemscore.Internal.Correction.Weighted>
   9.000000E+99

> <Gold.Protein.RotatedTorsions>
[ 6907 6896 6895 6894 ] final -113.92 input  -60.11 | X-H torsion
[ 7974 7965 7964 7962 ] final  -91.93 input  175.53 | X-H torsion
[ 8008 7997 7996 7995 ] final  -66.57 input   59.86 | X-H torsion
[ 10167 10162 10161 10158 ] final  134.35 input  -65.29 | X-H torsion
[ 10718 10713 10712 10709 ] final  163.48 input   66.30 | X-H torsion
[ 10763 10752 10751 10750 ] final  -41.64 input  -60.55 | X-H torsion
[ 11005 11000 10999 10996 ] final  -23.19 input  -57.11 | X-H torsion

> <Gold.Protein.ActiveResidues>
 VAL166  LYS551  ARG553  GLY616  TRP617  ASP618  TYR619  PRO620  LYS621  CYS622 
 ASP623  PHE694  ASN695  SER759  ASP760  ASP761  ALA762  ILE779  LEU786  VAL792 
 PHE793  MET794  SER795  GLU796  ALA797  LYS798  CYS799  TRP800  GLU811  SER814 

> <Gold.Protein.RotatedAtoms>
  150.7864  133.8875  159.3303 H   0  0  0  0  0  0  0  0  0  0  0  0  # atno 6907 bound_to 6896
  151.6724  135.0972  160.0210 H   0  0  0  0  0  0  0  0  0  0  0  0  # atno 6908 bound_to 6896
  152.3929  133.6666  159.6288 H   0  0  0  0  0  0  0  0  0  0  0  0  # atno 6909 bound_to 6896
  145.4066  140.9542  143.2257 H   0  0  0  0  0  0  0  0  0  0  0  0  # atno 7974 bound_to 7965
  154.4743  140.0910  156.7223 H   0  0  0  0  0  0  0  0  0  0  0  0  # atno 8008 bound_to 7997
  155.4638  140.3462  155.4298 H   0  0  0  0  0  0  0  0  0  0  0  0  # atno 8009 bound_to 7997
  156.1091  140.1443  156.9352 H   0  0  0  0  0  0  0  0  0  0  0  0  # atno 8010 bound_to 7997
  139.5260  144.6572  151.5126 H   0  0  0  0  0  0  0  0  0  0  0  0  # atno 10167 bound_to 10162
  157.1079  131.0460  151.2470 H   0  0  0  0  0  0  0  0  0  0  0  0  # atno 10718 bound_to 10713
  153.9659  135.6734  153.4746 H   0  0  0  0  0  0  0  0  0  0  0  0  # atno 10763 bound_to 10752
  153.0816  135.4920  154.8511 H   0  0  0  0  0  0  0  0  0  0  0  0  # atno 10764 bound_to 10752
  154.7246  135.3124  154.8951 H   0  0  0  0  0  0  0  0  0  0  0  0  # atno 10765 bound_to 10752
  140.8728  133.7708  156.0207 H   0  0  0  0  0  0  0  0  0  0  0  0  # atno 11005 bound_to 11000
  144.8337  139.5585  143.6932 LP  0  0  0  0  0  0  0  0  0  0  0  0  # atno 17320 bound_to 7965
  146.2725  139.6672  142.9286 LP  0  0  0  0  0  0  0  0  0  0  0  0  # atno 17321 bound_to 7965
  140.6403  143.8903  150.6685 LP  0  0  0  0  0  0  0  0  0  0  0  0  # atno 17342 bound_to 10162
  140.2235  143.3790  152.1623 LP  0  0  0  0  0  0  0  0  0  0  0  0  # atno 17343 bound_to 10162
  157.4585  130.7639  149.7214 LP  0  0  0  0  0  0  0  0  0  0  0  0  # atno 17370 bound_to 10713
  155.9857  130.3980  150.3246 LP  0  0  0  0  0  0  0  0  0  0  0  0  # atno 17371 bound_to 10713
  140.8553  134.2905  157.5258 LP  0  0  0  0  0  0  0  0  0  0  0  0  # atno 17394 bound_to 11000
  139.8713  134.9489  156.4011 LP  0  0  0  0  0  0  0  0  0  0  0  0  # atno 17395 bound_to 11000

$$$$
