#       Name:                AV-unprocessed.smi:2878
#       Creating user name   scv26
#       Creation time:       Fri Mar 27 15:51:47 2020


#       File generated by GOLD software.
#

@<TRIPOS>MOLECULE
AV-unprocessed.smi:2878
    48    49     1
SMALL
NO_CHARGES


@<TRIPOS>ATOM
      1 ****        -1.6678  -2.2346   3.4537 C.3            1 S1                 0.0000
      2 ****        -2.0865  -0.4702   3.4349 S.3            1 S1                 0.0000
      3 ****        -2.4293  -0.2123   1.6647 C.3            1 S1                 0.0000
      4 ****        -3.6724   0.6838   1.5071 C.3            1 S1                 0.0000
      5 ****        -3.9948   0.9622   0.0319 C.3            1 S1                 0.0000
      6 ****        -2.7906   1.5903  -0.6817 C.3            1 S1                 0.0000
      7 ****        -1.5481   0.6984  -0.5509 C.3            1 S1                 0.0000
      8 ****        -1.2109   0.3936   0.9256 C.3            1 S1                 0.0000
      9 ****        -0.0736  -0.5210   0.9839 N.am           1 S1                 0.0000
     10 ****         1.2108  -0.1606   0.8659 C.2            1 S1                 0.0000
     11 ****         1.5907   1.0019   0.7239 O.2            1 S1                 0.0000
     12 ****         2.0281  -1.2235   0.8805 N.am           1 S1                 0.0000
     13 ****         3.4707  -1.1789   0.6498 C.3            1 S1                 0.0000
     14 ****         3.8430  -1.4736  -0.8173 C.3            1 S1                 0.0000
     15 ****         3.1889  -0.5629  -1.8070 C.2            1 S1                 0.0000
     16 ****         3.6103   0.6385  -2.1935 N.2            1 S1                 0.0000
     17 ****         2.5876   1.0246  -3.0046 C.2            1 S1                 0.0000
     18 ****         2.5695   2.3396  -3.7056 C.3            1 S1                 0.0000
     19 ****         1.5927   0.1562  -3.1398 N.2            1 S1                 0.0000
     20 ****         1.9882  -0.9158  -2.3278 O.3            1 S1                 0.0000
     21 ****        -1.4435  -2.5536   4.4714 H              1 S1                 0.0000
     22 ****        -0.7958  -2.4352   2.8325 H              1 S1                 0.0000
     23 ****        -2.5038  -2.8283   3.0838 H              1 S1                 0.0000
     24 ****        -2.6654  -1.1824   1.2249 H              1 S1                 0.0000
     25 ****        -4.5322   0.2136   1.9856 H              1 S1                 0.0000
     26 ****        -3.5109   1.6299   2.0255 H              1 S1                 0.0000
     27 ****        -4.2735   0.0324  -0.4655 H              1 S1                 0.0000
     28 ****        -4.8578   1.6245  -0.0418 H              1 S1                 0.0000
     29 ****        -3.0237   1.7509  -1.7346 H              1 S1                 0.0000
     30 ****        -2.5826   2.5728  -0.2564 H              1 S1                 0.0000
     31 ****        -1.7178  -0.2347  -1.0901 H              1 S1                 0.0000
     32 ****        -0.7021   1.1837  -1.0395 H              1 S1                 0.0000
     33 ****        -0.9433   1.3281   1.4230 H              1 S1                 0.0000
     34 ****        -0.2854  -1.5018   1.0929 H              1 S1                 0.0000
     35 ****         1.6159  -2.1364   1.0063 H              1 S1                 0.0000
     36 ****         3.8744  -0.2096   0.9471 H              1 S1                 0.0000
     37 ****         3.9428  -1.9150   1.3006 H              1 S1                 0.0000
     38 ****         4.9237  -1.4032  -0.9431 H              1 S1                 0.0000
     39 ****         3.5726  -2.5006  -1.0654 H              1 S1                 0.0000
     40 ****         1.5728   2.5635  -4.0876 H              1 S1                 0.0000
     41 ****         3.2673   2.3278  -4.5430 H              1 S1                 0.0000
     42 ****         2.8614   3.1366  -3.0213 H              1 S1                 0.0000
     43 ****         0.9230   1.7456   0.6908 LP             1 S1                 0.0000
     44 ****         2.5669   1.2024   0.6417 LP             1 S1                 0.0000
     45 ****         4.4501   1.1255  -1.9534 LP             1 S1                 0.0000
     46 ****         0.7615   0.2453  -3.6886 LP             1 S1                 0.0000
     47 ****         1.3217  -1.0632  -1.5970 LP             1 S1                 0.0000
     48 ****         2.0765  -1.7502  -2.8717 LP             1 S1                 0.0000
@<TRIPOS>BOND
    1    1    2 1     
    2    1   21 1     
    3    1   22 1     
    4    1   23 1     
    5    2    3 1     
    6    3    8 1     
    7    3    4 1     
    8    3   24 1     
    9    4    5 1     
   10    4   25 1     
   11    4   26 1     
   12    5    6 1     
   13    5   27 1     
   14    5   28 1     
   15    6    7 1     
   16    6   29 1     
   17    6   30 1     
   18    7    8 1     
   19    7   31 1     
   20    7   32 1     
   21    8    9 1     
   22    8   33 1     
   23    9   10 am    
   24    9   34 1     
   25   10   11 2     
   26   10   12 am    
   27   12   13 1     
   28   12   35 1     
   29   13   14 1     
   30   13   36 1     
   31   13   37 1     
   32   14   15 1     
   33   14   38 1     
   34   14   39 1     
   35   15   20 1     
   36   15   16 2     
   37   16   17 1     
   38   17   18 1     
   39   17   19 2     
   40   18   40 1     
   41   18   41 1     
   42   18   42 1     
   43   19   20 1     
   44   11   43 1     
   45   11   44 1     
   46   16   45 1     
   47   19   46 1     
   48   20   47 1     
   49   20   48 1     
@<TRIPOS>SUBSTRUCTURE
      1 S1             1
@<TRIPOS>SET
LONE_PAIRS      STATIC     ATOMS    <user>   **** ""
6 43 44 45 46 47 48
DONOR_HYDROGENS      STATIC     ATOMS    <user>   **** ""
2 34 35
ATOM$BLUE        STATIC     ATOMS    COLORGROUP SYSTEM
6 43 44 45 46 47 48
ATOM$RED        STATIC     ATOMS    COLORGROUP SYSTEM
2 34 35
