AV-unprocessed.smi:1999|AV-procd|sdf|8098|dock7
  -GOLD-   2272010323D 1   1.00000     0.00000
 Structure written by MMmdl.
 38 39  0  0  0  0  0  0  0  0  3 V2000
  145.9118  134.0445  162.3015 C   0  0  0  0  0  0  0  0  0  0  0  0
  146.7299  135.1258  161.6828 C   0  0  0  0  0  0  0  0  0  0  0  0
  146.9244  136.3123  162.2640 N   0  0  0  0  0  0  0  0  0  0  0  0
  147.7195  137.1477  161.4935 N   0  0  0  0  0  0  0  0  0  0  0  0
  148.1045  136.5876  160.3378 C   0  0  0  0  0  0  0  0  0  0  0  0
  148.8758  137.2339  159.4482 N   0  5  0  0  0  0  0  0  0  0  0  0
  149.3185  136.5869  158.3483 C   0  0  0  0  0  0  0  0  0  0  0  0
  150.4506  136.1293  158.1784 O   0  0  0  0  0  0  0  0  0  0  0  0
  148.3804  136.4301  157.4018 N   0  0  0  0  0  0  0  0  0  0  0  0
  148.5157  135.6808  156.1512 C   0  0  2  0  0  0  0  0  0  0  0  0
  149.8015  136.1168  155.4360 C   0  0  0  0  0  0  0  0  0  0  0  0
  147.2724  135.8834  155.2552 C   0  0  0  0  0  0  0  0  0  0  0  0
  147.3439  135.1040  153.9935 N   0  3  0  0  0  0  0  0  0  0  0  0
  148.0219  133.7962  154.1419 C   0  0  0  0  0  0  0  0  0  0  0  0
  148.1482  133.1126  152.7696 C   0  0  0  0  0  0  0  0  0  0  0  0
  146.8588  132.9696  152.1839 O   0  0  0  0  0  0  0  0  0  0  0  0
  146.2261  134.2265  151.9716 C   0  0  0  0  0  0  0  0  0  0  0  0
  146.0336  134.9363  153.3216 C   0  0  0  0  0  0  0  0  0  0  0  0
  147.5130  134.9410  160.1225 S   0  0  0  0  0  0  0  0  0  0  0  0
  144.9277  134.0099  161.8343 H   0  0  0  0  0  0  0  0  0  0  0  0
  145.7873  134.2219  163.3703 H   0  0  0  0  0  0  0  0  0  0  0  0
  146.4004  133.0799  162.1635 H   0  0  0  0  0  0  0  0  0  0  0  0
  147.4743  136.8354  157.5880 H   0  0  0  0  0  0  0  0  0  0  0  0
  148.6238  134.6184  156.3738 H   0  0  0  0  0  0  0  0  0  0  0  0
  149.9442  135.5575  154.5110 H   0  0  0  0  0  0  0  0  0  0  0  0
  150.6767  135.9434  156.0631 H   0  0  0  0  0  0  0  0  0  0  0  0
  149.7775  137.1775  155.1838 H   0  0  0  0  0  0  0  0  0  0  0  0
  146.3956  135.5618  155.8197 H   0  0  0  0  0  0  0  0  0  0  0  0
  147.1187  136.9402  155.0323 H   0  0  0  0  0  0  0  0  0  0  0  0
  149.0147  133.9386  154.5708 H   0  0  0  0  0  0  0  0  0  0  0  0
  147.4582  133.1650  154.8306 H   0  0  0  0  0  0  0  0  0  0  0  0
  148.7988  133.6868  152.1075 H   0  0  0  0  0  0  0  0  0  0  0  0
  148.5978  132.1257  152.8804 H   0  0  0  0  0  0  0  0  0  0  0  0
  146.8202  134.8385  151.2905 H   0  0  0  0  0  0  0  0  0  0  0  0
  145.2610  134.0610  151.4927 H   0  0  0  0  0  0  0  0  0  0  0  0
  145.3638  134.3567  153.9584 H   0  0  0  0  0  0  0  0  0  0  0  0
  145.5617  135.9053  153.1610 H   0  0  0  0  0  0  0  0  0  0  0  0
  147.9238  135.6476  153.3683 H   0  0  0  0  0  0  0  0  0  0  0  0
  1  2  1  0  0  0  0
  1 20  1  0  0  0  0
  1 21  1  0  0  0  0
  1 22  1  0  0  0  0
  2 19  1  0  0  0  0
  2  3  2  0  0  0  0
  3  4  1  0  0  0  0
  4  5  2  0  0  0  0
  5  6  1  0  0  0  0
  5 19  1  0  0  0  0
  6  7  1  0  0  0  0
  7  8  2  0  0  0  0
  7  9  1  0  0  0  0
  9 10  1  0  0  0  0
  9 23  1  0  0  0  0
 10 11  1  0  0  0  0
 10 12  1  0  0  0  0
 10 24  1  0  0  0  0
 11 25  1  0  0  0  0
 11 26  1  0  0  0  0
 11 27  1  0  0  0  0
 12 13  1  0  0  0  0
 12 28  1  0  0  0  0
 12 29  1  0  0  0  0
 13 18  1  0  0  0  0
 13 14  1  0  0  0  0
 13 38  1  0  0  0  0
 14 15  1  0  0  0  0
 14 30  1  0  0  0  0
 14 31  1  0  0  0  0
 15 16  1  0  0  0  0
 15 32  1  0  0  0  0
 15 33  1  0  0  0  0
 16 17  1  0  0  0  0
 17 18  1  0  0  0  0
 17 34  1  0  0  0  0
 17 35  1  0  0  0  0
 18 36  1  0  0  0  0
 18 37  1  0  0  0  0
M  CHG  1   6  -1
M  CHG  1  13   1
M  END
> <s_m_source_file>
AV-unprocessed.smi

> <i_m_source_file_index>
1999

> <i_lp_mmshare_version>
43012

> <i_f3d_flags>
0

> <s_epik_input>
W0NIM11jMW5uYyhzMSlbTkhdQyg9TylbTkhdW0NASF0oW0NIM10pW0NIMl1OMltDSDJdW0NIMl1PW0NIMl1bQ0gyXTI=

> <s_epik_cmdline>
J2VwaWtfcHl0aG9uJywgJy1waCcsICc3LjAnLCAnLXRuJywgJzgnLCAnLW1hJywgJzIwMCcsICctbWV0YWxfYmluZGluZycsICctaW1hZScsICc8aW5maWxlLm1hZT4nLCAnLW9tYWUnLCAnPG91dGZpbGUubWFlPic=

> <r_lp_tautomer_probability>
1

> <r_epik_Ionization_Penalty>
3.39984

> <r_epik_Ionization_Penalty_Charging>
3.28696

> <r_epik_Ionization_Penalty_Neutral>
0.11288

> <r_epik_State_Penalty>
3.47917

> <r_epik_Charging_Adjusted_Penalty>
6.76613

> <i_epik_Tot_Q>
0

> <i_epik_Tot_abs_Q>
2

> <r_epik_Metal_State_Penalty>
1.13142

> <b_epik_Metal_Only>
1

> <s_lp_Force_Field>
OPLS_2005

> <r_lp_Energy>
12.288

> <b_lp_Chiralities_Consistent>
1

> <s_lp_Variant>
AV-unprocessed.smi:1999-7

> <Gold.Version>
5.8.1

> <Gold.Id.Protein>
6NUR|6NUR_protein|mol2

> <Gold.PLP.Fitness>
39.7525

> <Gold.PLP.PLP>
-27.8986

> <Gold.PLP.part.hbond>
-4.7703

> <Gold.PLP.part.metal>
0.0000

> <Gold.PLP.part.buried>
-3.4848

> <Gold.PLP.part.nonpolar>
-19.5797

> <Gold.PLP.part.repulsive>
0.4010

> <Gold.PLP.ligand.clash>
0.0000

> <Gold.PLP.ligand.torsion>
1.0114

> <Gold.PLP.Chemscore.Hbond>
4.5680

> <Gold.PLP.Chemscore.CHOScore>
0.0000

> <Gold.PLP.Chemscore.Metal>
0.0000

> <Gold.Chemscore.Hbonds>
donor molecule, donor type, donor heavy atom, donor atom, acceptor molecule, acceptor atom, score
      L1  H    13    38       P1  7948  2.00
      P1  H  6896  6907       L1     8  0.78
      P1  H  6931  6943       L1     4  1.00
      P1  H  6934  6947       L1     4  0.77

> <Gold.PLP.Chemscore.Internal.Correction>
0.1727

> <Gold.Rescore>
     Score         DG    S(hbond)    S(metal)    S(lipo)     H(rot)  DE(clash)    DE(int)     intcor
     13.41     -15.78       2.70        0.00      46.06       1.60       0.02       2.34       ----

> <Gold.Chemscore.Fitness>
13.4134

> <Gold.Chemscore.DG>
-15.7781

> <Gold.Chemscore.ZeroCoef>
-5.4800

> <Gold.Chemscore.Hbond>
2.6990

> <Gold.Chemscore.Metal>
0.0000

> <Gold.Chemscore.Lipo>
46.0565

> <Gold.Chemscore.Internal_Hbond>
0.0000

> <Gold.Chemscore.DEClash>
0.0243

> <Gold.Chemscore.DEInternal>
2.3404

> <Gold.Chemscore.Rot>
1.6036

> <Gold.Chemscore.Internal.Correction>
   9.000000E+99

> <Gold.Chemscore.Hbonds>
donor molecule, donor type, donor heavy atom, donor atom, acceptor molecule, acceptor atom, score
      L1  H    13    38       P1  7948  1.00
      P1  H  6896  6907       L1     8  0.55
      P1  H  6931  6943       L1     4  0.48
      P1  H  6934  6947       L1     4  0.29

> <Gold.Chemscore.Hbond.Weighted>
-9.0148

> <Gold.Chemscore.Metal.Weighted>
-0.0000

> <Gold.Chemscore.Lipo.Weighted>
-5.3886

> <Gold.Chemscore.Internal_Hbond.Weighted>
0.0000

> <Gold.Chemscore.DEClash.Weighted>
0.0243

> <Gold.Chemscore.DEInternal.Weighted>
2.3404

> <Gold.Chemscore.Rot.Weighted>
4.1053

> <Gold.Chemscore.Internal.Correction.Weighted>
   9.000000E+99

> <Gold.Protein.RotatedTorsions>
[ 6907 6896 6895 6894 ] final  -41.99 input  -60.11 | X-H torsion
[ 7974 7965 7964 7962 ] final  152.01 input  175.53 | X-H torsion
[ 8008 7997 7996 7995 ] final -151.97 input   59.86 | X-H torsion
[ 10167 10162 10161 10158 ] final -124.62 input  -65.29 | X-H torsion
[ 10718 10713 10712 10709 ] final  153.65 input   66.30 | X-H torsion
[ 10763 10752 10751 10750 ] final -167.72 input  -60.55 | X-H torsion
[ 11005 11000 10999 10996 ] final   24.17 input  -57.11 | X-H torsion

> <Gold.Protein.ActiveResidues>
 VAL166  LYS551  ARG553  GLY616  TRP617  ASP618  TYR619  PRO620  LYS621  CYS622 
 ASP623  PHE694  ASN695  SER759  ASP760  ASP761  ALA762  ILE779  LEU786  VAL792 
 PHE793  MET794  SER795  GLU796  ALA797  LYS798  CYS799  TRP800  GLU811  SER814 

> <Gold.Protein.RotatedAtoms>
  150.9603  134.8992  159.7726 H   0  0  0  0  0  0  0  0  0  0  0  0  # atno 6907 bound_to 6896
  152.5154  134.3682  159.9318 H   0  0  0  0  0  0  0  0  0  0  0  0  # atno 6908 bound_to 6896
  151.3694  133.3820  159.2733 H   0  0  0  0  0  0  0  0  0  0  0  0  # atno 6909 bound_to 6896
  144.8252  139.6612  143.6083 H   0  0  0  0  0  0  0  0  0  0  0  0  # atno 7974 bound_to 7965
  155.6477  140.0708  157.2597 H   0  0  0  0  0  0  0  0  0  0  0  0  # atno 8008 bound_to 7997
  154.4169  140.1739  156.1691 H   0  0  0  0  0  0  0  0  0  0  0  0  # atno 8009 bound_to 7997
  155.9803  140.3354  155.6660 H   0  0  0  0  0  0  0  0  0  0  0  0  # atno 8010 bound_to 7997
  139.9909  143.5642  152.2342 H   0  0  0  0  0  0  0  0  0  0  0  0  # atno 10167 bound_to 10162
  157.2420  131.0761  151.1786 H   0  0  0  0  0  0  0  0  0  0  0  0  # atno 10718 bound_to 10713
  154.6702  135.2938  154.9751 H   0  0  0  0  0  0  0  0  0  0  0  0  # atno 10763 bound_to 10752
  154.0781  135.6608  153.4838 H   0  0  0  0  0  0  0  0  0  0  0  0  # atno 10764 bound_to 10752
  153.0482  135.5191  154.7695 H   0  0  0  0  0  0  0  0  0  0  0  0  # atno 10765 bound_to 10752
  140.3616  134.2119  155.7672 H   0  0  0  0  0  0  0  0  0  0  0  0  # atno 11005 bound_to 11000
  146.2558  139.6298  142.9396 LP  0  0  0  0  0  0  0  0  0  0  0  0  # atno 17320 bound_to 7965
  145.5015  141.0437  143.2537 LP  0  0  0  0  0  0  0  0  0  0  0  0  # atno 17321 bound_to 7965
  139.6341  144.7648  151.2475 LP  0  0  0  0  0  0  0  0  0  0  0  0  # atno 17342 bound_to 10162
  140.7455  143.6429  150.8319 LP  0  0  0  0  0  0  0  0  0  0  0  0  # atno 17343 bound_to 10162
  157.3369  130.7013  149.6357 LP  0  0  0  0  0  0  0  0  0  0  0  0  # atno 17370 bound_to 10713
  155.9669  130.4291  150.4819 LP  0  0  0  0  0  0  0  0  0  0  0  0  # atno 17371 bound_to 10713
  141.1982  133.8040  157.0592 LP  0  0  0  0  0  0  0  0  0  0  0  0  # atno 17394 bound_to 11000
  140.0622  134.9748  157.1325 LP  0  0  0  0  0  0  0  0  0  0  0  0  # atno 17395 bound_to 11000

$$$$
