AV-unprocessed.smi:3321|AV-procd|sdf|12769|dock9
  -GOLD-   2272019113D 1   1.00000     0.00000
 Structure written by MMmdl.
 41 42  0  0  0  0  0  0  0  0  2 V2000
  148.9770  142.1907  158.2980 C   0  0  0  0  0  0  0  0  0  0  0  0
  150.3753  141.9956  157.6896 C   0  0  2  0  0  0  0  0  0  0  0  0
  150.2849  141.0727  156.5334 N   0  3  0  0  0  0  0  0  0  0  0  0
  149.1407  141.3157  155.6287 C   0  0  0  0  0  0  0  0  0  0  0  0
  149.1848  140.3718  154.4185 C   0  0  0  0  0  0  0  0  0  0  0  0
  150.2915  139.4385  154.5038 N   0  0  0  0  0  0  0  0  0  0  0  0
  150.2649  138.0631  154.4050 C   0  0  0  0  0  0  0  0  0  0  0  0
  151.5484  137.6208  154.5515 C   0  0  0  0  0  0  0  0  0  0  0  0
  152.2983  138.8148  154.7429 C   0  0  0  0  0  0  0  0  0  0  0  0
  151.5424  139.9010  154.7159 N   0  0  0  0  0  0  0  0  0  0  0  0
  151.3528  141.4717  158.7634 C   0  0  0  0  0  0  0  0  0  0  0  0
  151.3096  140.2732  159.0478 O   0  0  0  0  0  0  0  0  0  0  0  0
  152.2234  142.3213  159.3646 N   0  0  0  0  0  0  0  0  0  0  0  0
  153.1874  141.9767  160.4186 C   0  0  0  0  0  0  0  0  0  0  0  0
  152.6767  142.5516  161.7518 C   0  0  0  0  0  0  0  0  0  0  0  0
  152.4673  144.0749  161.6426 C   0  0  0  0  0  0  0  0  0  0  0  0
  151.6373  144.4541  160.4002 C   0  0  0  0  0  0  0  0  0  0  0  0
  152.1905  143.7720  159.1349 C   0  0  0  0  0  0  0  0  0  0  0  0
  148.9985  142.8759  159.1464 H   0  0  0  0  0  0  0  0  0  0  0  0
  148.5584  141.2461  158.6483 H   0  0  0  0  0  0  0  0  0  0  0  0
  148.2866  142.6056  157.5631 H   0  0  0  0  0  0  0  0  0  0  0  0
  150.7219  142.9476  157.2897 H   0  0  0  0  0  0  0  0  0  0  0  0
  151.1436  141.1394  156.0054 H   0  0  0  0  0  0  0  0  0  0  0  0
  148.2102  141.1701  156.1790 H   0  0  0  0  0  0  0  0  0  0  0  0
  149.1551  142.3528  155.2911 H   0  0  0  0  0  0  0  0  0  0  0  0
  148.2571  139.8024  154.3426 H   0  0  0  0  0  0  0  0  0  0  0  0
  149.2841  140.9431  153.4945 H   0  0  0  0  0  0  0  0  0  0  0  0
  149.3466  137.5190  154.2392 H   0  0  0  0  0  0  0  0  0  0  0  0
  151.8991  136.5997  154.5269 H   0  0  0  0  0  0  0  0  0  0  0  0
  153.3615  138.9234  154.8996 H   0  0  0  0  0  0  0  0  0  0  0  0
  153.3844  140.9108  160.5108 H   0  0  0  0  0  0  0  0  0  0  0  0
  154.1553  142.4179  160.1759 H   0  0  0  0  0  0  0  0  0  0  0  0
  151.7363  142.0694  162.0225 H   0  0  0  0  0  0  0  0  0  0  0  0
  153.3817  142.3292  162.5533 H   0  0  0  0  0  0  0  0  0  0  0  0
  151.9907  144.4562  162.5460 H   0  0  0  0  0  0  0  0  0  0  0  0
  153.4410  144.5624  161.5795 H   0  0  0  0  0  0  0  0  0  0  0  0
  150.5992  144.1541  160.5497 H   0  0  0  0  0  0  0  0  0  0  0  0
  151.6309  145.5367  160.2714 H   0  0  0  0  0  0  0  0  0  0  0  0
  153.1987  144.1315  158.9236 H   0  0  0  0  0  0  0  0  0  0  0  0
  151.5907  144.0544  158.2688 H   0  0  0  0  0  0  0  0  0  0  0  0
  150.1972  140.1322  156.8908 H   0  0  0  0  0  0  0  0  0  0  0  0
  1  2  1  0  0  0  0
  1 19  1  0  0  0  0
  1 20  1  0  0  0  0
  1 21  1  0  0  0  0
  2  3  1  0  0  0  0
  2 11  1  0  0  0  0
  2 22  1  0  0  0  0
  3  4  1  0  0  0  0
  3 23  1  0  0  0  0
  3 41  1  0  0  0  0
  4  5  1  0  0  0  0
  4 24  1  0  0  0  0
  4 25  1  0  0  0  0
  5  6  1  0  0  0  0
  5 26  1  0  0  0  0
  5 27  1  0  0  0  0
  6 10  1  0  0  0  0
  6  7  1  0  0  0  0
  7  8  2  0  0  0  0
  7 28  1  0  0  0  0
  8  9  1  0  0  0  0
  8 29  1  0  0  0  0
  9 10  2  0  0  0  0
  9 30  1  0  0  0  0
 11 12  2  0  0  0  0
 11 13  1  0  0  0  0
 13 18  1  0  0  0  0
 13 14  1  0  0  0  0
 14 15  1  0  0  0  0
 14 31  1  0  0  0  0
 14 32  1  0  0  0  0
 15 16  1  0  0  0  0
 15 33  1  0  0  0  0
 15 34  1  0  0  0  0
 16 17  1  0  0  0  0
 16 35  1  0  0  0  0
 16 36  1  0  0  0  0
 17 18  1  0  0  0  0
 17 37  1  0  0  0  0
 17 38  1  0  0  0  0
 18 39  1  0  0  0  0
 18 40  1  0  0  0  0
M  CHG  1   3   1
M  END
> <s_m_source_file>
AV-unprocessed.smi

> <i_m_source_file_index>
3321

> <i_lp_mmshare_version>
43012

> <i_f3d_flags>
0

> <s_epik_input>
W0NIMl0xW0NIMl1bQ0gyXVtDSDJdW0NIMl1OMUMoPU8pW0NASF0oW0NIM10pW05IXVtDSDJdW0NIMl1uMltjSF1bY0hdW2NIXW4y

> <s_epik_cmdline>
J2VwaWtfcHl0aG9uJywgJy1waCcsICc3LjAnLCAnLXRuJywgJzgnLCAnLW1hJywgJzIwMCcsICctbWV0YWxfYmluZGluZycsICctaW1hZScsICc8aW5maWxlLm1hZT4nLCAnLW9tYWUnLCAnPG91dGZpbGUubWFlPic=

> <r_lp_tautomer_probability>
1

> <r_epik_Ionization_Penalty>
0.202061

> <r_epik_Ionization_Penalty_Charging>
0.202058

> <r_epik_Ionization_Penalty_Neutral>
2.46932e-06

> <r_epik_State_Penalty>
0.191938

> <r_epik_Charging_Adjusted_Penalty>
0.393996

> <i_epik_Tot_Q>
1

> <i_epik_Tot_abs_Q>
1

> <r_epik_Metal_State_Penalty>
0.192188

> <b_epik_Metal_Only>
0

> <s_lp_Force_Field>
OPLS_2005

> <r_lp_Energy>
26.3396

> <b_lp_Chiralities_Consistent>
1

> <s_lp_Variant>
AV-unprocessed.smi:3321-1

> <Gold.Version>
5.8.1

> <Gold.Id.Protein>
6NUR|6NUR_protein|mol2

> <Gold.PLP.Fitness>
47.9420

> <Gold.PLP.PLP>
-45.7611

> <Gold.PLP.part.hbond>
-0.9089

> <Gold.PLP.part.metal>
0.0000

> <Gold.PLP.part.buried>
-6.1198

> <Gold.PLP.part.nonpolar>
-39.2478

> <Gold.PLP.part.repulsive>
0.1179

> <Gold.PLP.ligand.clash>
0.0000

> <Gold.PLP.ligand.torsion>
1.0448

> <Gold.PLP.Chemscore.Hbond>
0.9500

> <Gold.PLP.Chemscore.CHOScore>
0.4517

> <Gold.PLP.Chemscore.Metal>
0.0000

> <Gold.Chemscore.Hbonds>
donor molecule, donor type, donor heavy atom, donor atom, acceptor molecule, acceptor atom, score
      P1  H  7989  7998       L1    10  0.95
      L1  C     7    28       P1  7948  0.42

> <Gold.PLP.Chemscore.Internal.Correction>
0.0655

> <Gold.Rescore>
     Score         DG    S(hbond)    S(metal)    S(lipo)     H(rot)  DE(clash)    DE(int)     intcor
     13.24     -15.81       0.93        0.00     100.94       1.79       0.02       2.55       ----

> <Gold.Chemscore.Fitness>
13.2367

> <Gold.Chemscore.DG>
-15.8105

> <Gold.Chemscore.ZeroCoef>
-5.4800

> <Gold.Chemscore.Hbond>
0.9312

> <Gold.Chemscore.Metal>
0.0000

> <Gold.Chemscore.Lipo>
100.9392

> <Gold.Chemscore.Internal_Hbond>
0.0000

> <Gold.Chemscore.DEClash>
0.0232

> <Gold.Chemscore.DEInternal>
2.5506

> <Gold.Chemscore.Rot>
1.7928

> <Gold.Chemscore.Internal.Correction>
   9.000000E+99

> <Gold.Chemscore.Hbonds>
donor molecule, donor type, donor heavy atom, donor atom, acceptor molecule, acceptor atom, score
      P1  H  7989  7998       L1    10  0.20

> <Gold.Chemscore.Hbond.Weighted>
-3.1101

> <Gold.Chemscore.Metal.Weighted>
-0.0000

> <Gold.Chemscore.Lipo.Weighted>
-11.8099

> <Gold.Chemscore.Internal_Hbond.Weighted>
0.0000

> <Gold.Chemscore.DEClash.Weighted>
0.0232

> <Gold.Chemscore.DEInternal.Weighted>
2.5506

> <Gold.Chemscore.Rot.Weighted>
4.5895

> <Gold.Chemscore.Internal.Correction.Weighted>
   9.000000E+99

> <Gold.Protein.RotatedTorsions>
[ 6907 6896 6895 6894 ] final  161.89 input  -60.11 | X-H torsion
[ 7974 7965 7964 7962 ] final   66.42 input  175.53 | X-H torsion
[ 8008 7997 7996 7995 ] final  -34.28 input   59.86 | X-H torsion
[ 10167 10162 10161 10158 ] final  156.85 input  -65.29 | X-H torsion
[ 10718 10713 10712 10709 ] final  -30.81 input   66.30 | X-H torsion
[ 10763 10752 10751 10750 ] final  -83.47 input  -60.55 | X-H torsion
[ 11005 11000 10999 10996 ] final -157.08 input  -57.11 | X-H torsion

> <Gold.Protein.ActiveResidues>
 VAL166  LYS551  ARG553  GLY616  TRP617  ASP618  TYR619  PRO620  LYS621  CYS622 
 ASP623  PHE694  ASN695  SER759  ASP760  ASP761  ALA762  ILE779  LEU786  VAL792 
 PHE793  MET794  SER795  GLU796  ALA797  LYS798  CYS799  TRP800  GLU811  SER814 

> <Gold.Protein.RotatedAtoms>
  151.9488  133.3659  159.3991 H   0  0  0  0  0  0  0  0  0  0  0  0  # atno 6907 bound_to 6896
  150.6984  134.4362  159.5280 H   0  0  0  0  0  0  0  0  0  0  0  0  # atno 6908 bound_to 6896
  152.2032  134.8569  160.0556 H   0  0  0  0  0  0  0  0  0  0  0  0  # atno 6909 bound_to 6896
  145.8269  139.3116  143.1010 H   0  0  0  0  0  0  0  0  0  0  0  0  # atno 7974 bound_to 7965
  154.4125  140.1688  156.2023 H   0  0  0  0  0  0  0  0  0  0  0  0  # atno 8008 bound_to 7997
  155.9513  140.3400  155.6387 H   0  0  0  0  0  0  0  0  0  0  0  0  # atno 8009 bound_to 7997
  155.6866  140.0729  157.2455 H   0  0  0  0  0  0  0  0  0  0  0  0  # atno 8010 bound_to 7997
  139.4822  144.4971  151.8223 H   0  0  0  0  0  0  0  0  0  0  0  0  # atno 10167 bound_to 10162
  156.3951  130.4380  149.7365 H   0  0  0  0  0  0  0  0  0  0  0  0  # atno 10718 bound_to 10713
  154.5881  135.5555  153.7251 H   0  0  0  0  0  0  0  0  0  0  0  0  # atno 10763 bound_to 10752
  153.0106  135.6336  154.1888 H   0  0  0  0  0  0  0  0  0  0  0  0  # atno 10764 bound_to 10752
  154.1829  135.2886  155.3026 H   0  0  0  0  0  0  0  0  0  0  0  0  # atno 10765 bound_to 10752
  140.6685  134.4273  157.5232 H   0  0  0  0  0  0  0  0  0  0  0  0  # atno 11005 bound_to 11000
  145.9614  140.8832  143.0209 LP  0  0  0  0  0  0  0  0  0  0  0  0  # atno 17320 bound_to 7965
  144.6743  140.1818  143.7405 LP  0  0  0  0  0  0  0  0  0  0  0  0  # atno 17321 bound_to 7965
  140.4461  144.1919  150.5894 LP  0  0  0  0  0  0  0  0  0  0  0  0  # atno 17342 bound_to 10162
  140.4633  143.2440  151.9190 LP  0  0  0  0  0  0  0  0  0  0  0  0  # atno 17343 bound_to 10162
  156.4403  130.7858  151.2879 LP  0  0  0  0  0  0  0  0  0  0  0  0  # atno 17370 bound_to 10713
  157.7501  131.0127  150.3394 LP  0  0  0  0  0  0  0  0  0  0  0  0  # atno 17371 bound_to 10713
  139.8989  134.8602  156.1981 LP  0  0  0  0  0  0  0  0  0  0  0  0  # atno 17394 bound_to 11000
  141.0411  133.6937  156.1599 LP  0  0  0  0  0  0  0  0  0  0  0  0  # atno 17395 bound_to 11000

$$$$
