#       Name:                AV-unprocessed.smi:3240
#       Creating user name   scv26
#       Creation time:       Fri Mar 27 18:24:27 2020


#       File generated by GOLD software.
#

@<TRIPOS>MOLECULE
AV-unprocessed.smi:3240
    47    48     1
SMALL
NO_CHARGES


@<TRIPOS>ATOM
      1 ****        -0.5457   0.0325   5.3493 C.3            1 S1                 0.0000
      2 ****        -1.3626   0.0970   4.0912 C.2            1 S1                 0.0000
      3 ****        -2.0838   1.2091   3.5708 C.2            1 S1                 0.0000
      4 ****        -2.7047   0.9324   2.4358 N.2            1 S1                 0.0000
      5 ****        -2.3983  -0.3587   2.1881 N.pl3          1 S1                 0.0000
      6 ****        -2.9295  -1.0166   1.0066 C.3            1 S1                 0.0000
      7 ****        -2.4703  -0.3539  -0.3084 C.3            1 S1                 0.0000
      8 ****        -3.1205  -1.0446  -1.5188 C.3            1 S1                 0.0000
      9 ****        -0.9928  -0.3853  -0.4038 N.4            1 S1                 1.0000
     10 ****        -0.3986   0.5333  -1.4003 C.3            1 S1                 0.0000
     11 ****         1.1451   0.5382  -1.3428 C.3            1 S1                 0.0000
     12 ****         1.5141   0.9899  -0.0515 O.3            1 S1                 0.0000
     13 ****         1.7402  -0.8715  -1.5854 C.3            1 S1                 0.0000
     14 ****         3.2770  -0.8676  -1.6760 C.3            1 S1                 0.0000
     15 ****         3.7730   0.1209  -2.7402 C.3            1 S1                 0.0000
     16 ****         3.2395   1.5333  -2.4653 C.3            1 S1                 0.0000
     17 ****         1.7028   1.5428  -2.3795 C.3            1 S1                 0.0000
     18 ****        -1.5972  -0.8901   3.1765 C.2            1 S1                 0.0000
     19 ****        -0.5488   0.9824   5.8846 H              1 S1                 0.0000
     20 ****         0.4952  -0.2148   5.1402 H              1 S1                 0.0000
     21 ****        -0.9243  -0.7244   6.0365 H              1 S1                 0.0000
     22 ****        -2.1752   2.2031   3.9835 H              1 S1                 0.0000
     23 ****        -2.6299  -2.0655   1.0285 H              1 S1                 0.0000
     24 ****        -4.0180  -1.0026   1.0772 H              1 S1                 0.0000
     25 ****        -2.7918   0.6887  -0.2964 H              1 S1                 0.0000
     26 ****        -4.2073  -1.0437  -1.4291 H              1 S1                 0.0000
     27 ****        -2.7971  -2.0825  -1.6055 H              1 S1                 0.0000
     28 ****        -2.8785  -0.5397  -2.4538 H              1 S1                 0.0000
     29 ****        -0.6250  -0.1121   0.4969 H              1 S1                 0.0000
     30 ****        -0.7254   0.2426  -2.3987 H              1 S1                 0.0000
     31 ****        -0.7791   1.5409  -1.2245 H              1 S1                 0.0000
     32 ****         2.4572   1.0463  -0.0113 H              1 S1                 0.0000
     33 ****         1.4314  -1.5602  -0.7981 H              1 S1                 0.0000
     34 ****         1.3375  -1.2756  -2.5153 H              1 S1                 0.0000
     35 ****         3.7050  -0.6066  -0.7073 H              1 S1                 0.0000
     36 ****         3.6358  -1.8707  -1.9083 H              1 S1                 0.0000
     37 ****         4.8633   0.1320  -2.7597 H              1 S1                 0.0000
     38 ****         3.4490  -0.2090  -3.7281 H              1 S1                 0.0000
     39 ****         3.6661   1.9125  -1.5360 H              1 S1                 0.0000
     40 ****         3.5692   2.2123  -3.2523 H              1 S1                 0.0000
     41 ****         1.3016   1.3005  -3.3648 H              1 S1                 0.0000
     42 ****         1.3550   2.5520  -2.1544 H              1 S1                 0.0000
     43 ****        -1.2613  -1.9164   3.1482 H              1 S1                 0.0000
     44 ****        -0.6921  -1.3292  -0.5986 H              1 S1                 0.0000
     45 ****        -3.2736   1.5429   1.8848 LP             1 S1                 0.0000
     46 ****         1.1851   0.3449   0.6382 LP             1 S1                 0.0000
     47 ****         1.1148   1.8910   0.1175 LP             1 S1                 0.0000
@<TRIPOS>BOND
    1    1    2 1     
    2    1   19 1     
    3    1   20 1     
    4    1   21 1     
    5    2   18 2     
    6    2    3 1     
    7    3    4 2     
    8    3   22 1     
    9    4    5 1     
   10    5    6 1     
   11    5   18 1     
   12    6    7 1     
   13    6   23 1     
   14    6   24 1     
   15    7    8 1     
   16    7    9 1     
   17    7   25 1     
   18    8   26 1     
   19    8   27 1     
   20    8   28 1     
   21    9   10 1     
   22    9   29 1     
   23    9   44 1     
   24   10   11 1     
   25   10   30 1     
   26   10   31 1     
   27   11   17 1     
   28   11   12 1     
   29   11   13 1     
   30   12   32 1     
   31   13   14 1     
   32   13   33 1     
   33   13   34 1     
   34   14   15 1     
   35   14   35 1     
   36   14   36 1     
   37   15   16 1     
   38   15   37 1     
   39   15   38 1     
   40   16   17 1     
   41   16   39 1     
   42   16   40 1     
   43   17   41 1     
   44   17   42 1     
   45   18   43 1     
   46    4   45 1     
   47   12   46 1     
   48   12   47 1     
@<TRIPOS>SUBSTRUCTURE
      1 S1             1
@<TRIPOS>SET
LONE_PAIRS      STATIC     ATOMS    <user>   **** ""
3 45 46 47
DONOR_HYDROGENS      STATIC     ATOMS    <user>   **** ""
3 29 44 32
ATOM$BLUE        STATIC     ATOMS    COLORGROUP SYSTEM
3 45 46 47
ATOM$RED        STATIC     ATOMS    COLORGROUP SYSTEM
3 29 44 32
