#       Name:                AV-unprocessed.smi:919
#       Creating user name   scv26
#       Creation time:       Fri Mar 27 02:07:24 2020


#       File generated by GOLD software.
#

@<TRIPOS>MOLECULE
AV-unprocessed.smi:919
    48    50     1
SMALL
NO_CHARGES


@<TRIPOS>ATOM
      1 ****        -4.1823   2.8845  -0.2709 C.3            1 S1                 0.0000
      2 ****        -4.5673   1.4383  -0.3973 C.2            1 S1                 0.0000
      3 ****        -5.8450   1.1051  -0.4708 N.2            1 S1                 0.0000
      4 ****        -5.8710  -0.2890  -0.5782 O.3            1 S1                 0.0000
      5 ****        -4.5926  -0.7454  -0.5659 C.2            1 S1                 0.0000
      6 ****        -4.4118  -2.2219  -0.6678 C.3            1 S1                 0.0000
      7 ****        -3.7158   0.2986  -0.4574 C.2            1 S1                 0.0000
      8 ****        -2.2129   0.2703  -0.4071 C.3            1 S1                 0.0000
      9 ****        -1.7025   0.1653   1.0384 C.3            1 S1                 0.0000
     10 ****        -0.2463   0.1664   1.0881 N.am           1 S1                 0.0000
     11 ****         0.5247   1.2655   1.0343 C.2            1 S1                 0.0000
     12 ****         0.0737   2.4074   0.9642 O.2            1 S1                 0.0000
     13 ****         1.8471   1.0247   1.0610 N.am           1 S1                 0.0000
     14 ****         2.9386   2.0014   1.0173 C.3            1 S1                 0.0000
     15 ****         4.3054   1.3022   0.8465 C.3            1 S1                 0.0000
     16 ****         5.0985   1.7783   2.0774 C.3            1 S1                 0.0000
     17 ****         4.5384   1.1050   3.3448 C.3            1 S1                 0.0000
     18 ****         3.1989   1.8357   3.5552 C.3            1 S1                 0.0000
     19 ****         3.1394   2.7866   2.3402 C.3            1 S1                 0.0000
     20 ****         4.6006   3.2090   2.2314 C.3            1 S1                 0.0000
     21 ****        -3.3131   3.0039   0.3764 H              1 S1                 0.0000
     22 ****        -4.9916   3.4809   0.1523 H              1 S1                 0.0000
     23 ****        -3.9307   3.3059  -1.2444 H              1 S1                 0.0000
     24 ****        -3.4021  -2.5138  -0.3786 H              1 S1                 0.0000
     25 ****        -4.5834  -2.5617  -1.6891 H              1 S1                 0.0000
     26 ****        -5.1117  -2.7438  -0.0150 H              1 S1                 0.0000
     27 ****        -1.8235  -0.5660  -0.9888 H              1 S1                 0.0000
     28 ****        -1.8033   1.1664  -0.8746 H              1 S1                 0.0000
     29 ****        -2.0963   0.9824   1.6455 H              1 S1                 0.0000
     30 ****        -2.0590  -0.7593   1.4936 H              1 S1                 0.0000
     31 ****         0.2105  -0.7318   1.1508 H              1 S1                 0.0000
     32 ****         2.1266   0.0579   1.1449 H              1 S1                 0.0000
     33 ****         2.7870   2.6921   0.1857 H              1 S1                 0.0000
     34 ****         4.2342   0.2141   0.8045 H              1 S1                 0.0000
     35 ****         4.7884   1.6339  -0.0735 H              1 S1                 0.0000
     36 ****         6.1782   1.6743   1.9673 H              1 S1                 0.0000
     37 ****         4.4094   0.0296   3.2164 H              1 S1                 0.0000
     38 ****         5.1995   1.2640   4.1975 H              1 S1                 0.0000
     39 ****         2.3511   1.1536   3.6197 H              1 S1                 0.0000
     40 ****         3.2236   2.4081   4.4835 H              1 S1                 0.0000
     41 ****         2.4379   3.6112   2.4707 H              1 S1                 0.0000
     42 ****         4.9782   3.7053   3.1274 H              1 S1                 0.0000
     43 ****         4.8069   3.8356   1.3618 H              1 S1                 0.0000
     44 ****        -6.6311   1.7231  -0.4532 LP             1 S1                 0.0000
     45 ****        -6.3154  -0.5532  -1.4342 LP             1 S1                 0.0000
     46 ****        -6.3754  -0.6775   0.1930 LP             1 S1                 0.0000
     47 ****        -0.9153   2.5541   0.9446 LP             1 S1                 0.0000
     48 ****         0.6959   3.1893   0.9268 LP             1 S1                 0.0000
@<TRIPOS>BOND
    1    1    2 1     
    2    1   21 1     
    3    1   22 1     
    4    1   23 1     
    5    2    7 1     
    6    2    3 2     
    7    3    4 1     
    8    4    5 1     
    9    5    6 1     
   10    5    7 2     
   11    6   24 1     
   12    6   25 1     
   13    6   26 1     
   14    7    8 1     
   15    8    9 1     
   16    8   27 1     
   17    8   28 1     
   18    9   10 1     
   19    9   29 1     
   20    9   30 1     
   21   10   11 am    
   22   10   31 1     
   23   11   12 2     
   24   11   13 am    
   25   13   14 1     
   26   13   32 1     
   27   14   19 1     
   28   14   15 1     
   29   14   33 1     
   30   15   16 1     
   31   15   34 1     
   32   15   35 1     
   33   16   20 1     
   34   16   17 1     
   35   16   36 1     
   36   17   18 1     
   37   17   37 1     
   38   17   38 1     
   39   18   19 1     
   40   18   39 1     
   41   18   40 1     
   42   19   20 1     
   43   19   41 1     
   44   20   42 1     
   45   20   43 1     
   46    3   44 1     
   47    4   45 1     
   48    4   46 1     
   49   12   47 1     
   50   12   48 1     
@<TRIPOS>SUBSTRUCTURE
      1 S1             1
@<TRIPOS>SET
LONE_PAIRS      STATIC     ATOMS    <user>   **** ""
5 44 45 46 47 48
DONOR_HYDROGENS      STATIC     ATOMS    <user>   **** ""
2 31 32
ATOM$BLUE        STATIC     ATOMS    COLORGROUP SYSTEM
5 44 45 46 47 48
ATOM$RED        STATIC     ATOMS    COLORGROUP SYSTEM
2 31 32
