AV-unprocessed.smi:3058|AV-procd|sdf|11671|dock3
  -GOLD-   2272017 73D 1   1.00000     0.00000
 Structure written by MMmdl.
 38 40  0  0  0  0  0  0  0  0  1 V2000
  145.7521  135.3723  153.2386 O   0  0  0  0  0  0  0  0  0  0  0  0
  145.5730  135.7634  152.0843 C   0  0  0  0  0  0  0  0  0  0  0  0
  145.7000  137.0488  151.7214 N   0  0  0  0  0  0  0  0  0  0  0  0
  146.0657  138.1413  152.6147 C   0  0  0  0  0  0  0  0  0  0  0  0
  147.5057  137.9907  153.1309 C   0  0  0  0  0  0  0  0  0  0  0  0
  148.0739  139.3048  153.6293 C   0  0  0  0  0  0  0  0  0  0  0  0
  147.3073  140.4877  153.5867 C   0  0  0  0  0  0  0  0  0  0  0  0
  147.8785  141.6830  154.0645 C   0  0  0  0  0  0  0  0  0  0  0  0
  149.1949  141.6437  154.5665 C   0  0  0  0  0  0  0  0  0  0  0  0
  149.9374  140.5166  154.6132 N   0  0  0  0  0  0  0  0  0  0  0  0
  149.3826  139.3748  154.1526 C   0  0  0  0  0  0  0  0  0  0  0  0
  145.1527  134.7866  150.9716 C   0  0  2  0  0  0  0  0  0  0  0  0
  143.8746  133.9669  151.2781 C   0  0  0  0  0  0  0  0  0  0  0  0
  144.3276  132.5149  151.0333 C   0  0  2  0  0  0  0  0  0  0  0  0
  145.2512  132.0639  152.1802 C   0  0  0  0  0  0  0  0  0  0  0  0
  146.5574  132.8222  151.8816 C   0  0  0  0  0  0  0  0  0  0  0  0
  146.1831  133.6723  150.6472 C   0  0  1  0  0  0  0  0  0  0  0  0
  145.3106  132.6827  149.8801 C   0  0  0  0  0  0  0  0  0  0  0  0
  145.5275  137.2876  150.7555 H   0  0  0  0  0  0  0  0  0  0  0  0
  145.9372  139.0996  152.1080 H   0  0  0  0  0  0  0  0  0  0  0  0
  145.3685  138.1369  153.4530 H   0  0  0  0  0  0  0  0  0  0  0  0
  147.5382  137.2623  153.9420 H   0  0  0  0  0  0  0  0  0  0  0  0
  148.1526  137.6021  152.3432 H   0  0  0  0  0  0  0  0  0  0  0  0
  146.2998  140.4806  153.1968 H   0  0  0  0  0  0  0  0  0  0  0  0
  147.3213  142.6080  154.0476 H   0  0  0  0  0  0  0  0  0  0  0  0
  149.6633  142.5417  154.9413 H   0  0  0  0  0  0  0  0  0  0  0  0
  150.0010  138.4907  154.2053 H   0  0  0  0  0  0  0  0  0  0  0  0
  144.9743  135.3653  150.0630 H   0  0  0  0  0  0  0  0  0  0  0  0
  143.4818  134.1040  152.2864 H   0  0  0  0  0  0  0  0  0  0  0  0
  143.0786  134.2397  150.5840 H   0  0  0  0  0  0  0  0  0  0  0  0
  143.5032  131.8278  150.8409 H   0  0  0  0  0  0  0  0  0  0  0  0
  144.8417  132.3118  153.1600 H   0  0  0  0  0  0  0  0  0  0  0  0
  145.4174  130.9864  152.1488 H   0  0  0  0  0  0  0  0  0  0  0  0
  146.9165  133.4041  152.7294 H   0  0  0  0  0  0  0  0  0  0  0  0
  147.3485  132.1164  151.6250 H   0  0  0  0  0  0  0  0  0  0  0  0
  147.0473  134.0311  150.0873 H   0  0  0  0  0  0  0  0  0  0  0  0
  145.8289  131.7593  149.6151 H   0  0  0  0  0  0  0  0  0  0  0  0
  144.8569  133.1065  148.9823 H   0  0  0  0  0  0  0  0  0  0  0  0
  1  2  2  0  0  0  0
  2  3  1  0  0  0  0
  2 12  1  0  0  0  0
  3  4  1  0  0  0  0
  3 19  1  0  0  0  0
  4  5  1  0  0  0  0
  4 20  1  0  0  0  0
  4 21  1  0  0  0  0
  5  6  1  0  0  0  0
  5 22  1  0  0  0  0
  5 23  1  0  0  0  0
  6 11  1  0  0  0  0
  6  7  2  0  0  0  0
  7  8  1  0  0  0  0
  7 24  1  0  0  0  0
  8  9  2  0  0  0  0
  8 25  1  0  0  0  0
  9 10  1  0  0  0  0
  9 26  1  0  0  0  0
 10 11  2  0  0  0  0
 11 27  1  0  0  0  0
 12 17  1  0  0  0  0
 12 13  1  0  0  0  0
 12 28  1  0  0  0  0
 13 14  1  0  0  0  0
 13 29  1  0  0  0  0
 13 30  1  0  0  0  0
 14 18  1  0  0  0  0
 14 15  1  0  0  0  0
 14 31  1  0  0  0  0
 15 16  1  0  0  0  0
 15 32  1  0  0  0  0
 15 33  1  0  0  0  0
 16 17  1  0  0  0  0
 16 34  1  0  0  0  0
 16 35  1  0  0  0  0
 17 18  1  0  0  0  0
 17 36  1  0  0  0  0
 18 37  1  0  0  0  0
 18 38  1  0  0  0  0
M  END
> <s_m_source_file>
AV-unprocessed.smi

> <i_m_source_file_index>
3058

> <i_lp_mmshare_version>
43012

> <i_f3d_flags>
0

> <s_epik_input>
W0NIMl0xW0NIMl1bQ0BIXShbQ0gyXTIpW0NAQEhdKFtDSDJdW0NAQEhdMTIpQyg9TylbTkhdW0NIMl1bQ0gyXWMzW2NIXVtjSF1bY0hdbltjSF0z

> <s_epik_cmdline>
J2VwaWtfcHl0aG9uJywgJy1waCcsICc3LjAnLCAnLXRuJywgJzgnLCAnLW1hJywgJzIwMCcsICctbWV0YWxfYmluZGluZycsICctaW1hZScsICc8aW5maWxlLm1hZT4nLCAnLW9tYWUnLCAnPG91dGZpbGUubWFlPic=

> <r_epik_Ionization_Penalty>
0.0135821

> <r_epik_Ionization_Penalty_Charging>
0

> <r_epik_Ionization_Penalty_Neutral>
0.0135821

> <r_epik_State_Penalty>
0.0105782

> <r_epik_Charging_Adjusted_Penalty>
0.0105782

> <i_epik_Tot_Q>
0

> <i_epik_Tot_abs_Q>
0

> <r_epik_Metal_State_Penalty>
0.0103407

> <b_epik_Metal_Only>
0

> <s_lp_Force_Field>
OPLS_2005

> <r_lp_Energy>
46.6846

> <b_lp_Chiralities_Consistent>
1

> <s_lp_Variant>
AV-unprocessed.smi:3058-3

> <Gold.Version>
5.8.1

> <Gold.Id.Protein>
6NUR|6NUR_protein|mol2

> <Gold.PLP.Fitness>
37.9530

> <Gold.PLP.PLP>
-31.9710

> <Gold.PLP.part.hbond>
-1.8996

> <Gold.PLP.part.metal>
0.0000

> <Gold.PLP.part.buried>
3.5468

> <Gold.PLP.part.nonpolar>
-33.0843

> <Gold.PLP.part.repulsive>
0.2274

> <Gold.PLP.ligand.clash>
0.0000

> <Gold.PLP.ligand.torsion>
0.1474

> <Gold.PLP.Chemscore.Hbond>
1.0824

> <Gold.PLP.Chemscore.CHOScore>
1.0000

> <Gold.PLP.Chemscore.Metal>
0.0000

> <Gold.Chemscore.Hbonds>
donor molecule, donor type, donor heavy atom, donor atom, acceptor molecule, acceptor atom, score
      L1  H     3    19       P1 10171  0.20
      P1  H  7989  7998       L1    10  0.83
      L1  C     9    26       P1  8028  1.00

> <Gold.PLP.Chemscore.Internal.Correction>
0.0296

> <Gold.Rescore>
     Score         DG    S(hbond)    S(metal)    S(lipo)     H(rot)  DE(clash)    DE(int)     intcor
     12.73     -15.29       0.71        0.00      93.43       1.37       1.35       1.21       ----

> <Gold.Chemscore.Fitness>
12.7330

> <Gold.Chemscore.DG>
-15.2927

> <Gold.Chemscore.ZeroCoef>
-5.4800

> <Gold.Chemscore.Hbond>
0.7116

> <Gold.Chemscore.Metal>
0.0000

> <Gold.Chemscore.Lipo>
93.4284

> <Gold.Chemscore.Internal_Hbond>
0.0000

> <Gold.Chemscore.DEClash>
1.3457

> <Gold.Chemscore.DEInternal>
1.2141

> <Gold.Chemscore.Rot>
1.3653

> <Gold.Chemscore.Internal.Correction>
   9.000000E+99

> <Gold.Chemscore.Hbonds>
donor molecule, donor type, donor heavy atom, donor atom, acceptor molecule, acceptor atom, score
      L1  H     3    19       P1 10171  0.20
      P1  H  7989  7998       L1    10  0.28

> <Gold.Chemscore.Hbond.Weighted>
-2.3767

> <Gold.Chemscore.Metal.Weighted>
-0.0000

> <Gold.Chemscore.Lipo.Weighted>
-10.9311

> <Gold.Chemscore.Internal_Hbond.Weighted>
0.0000

> <Gold.Chemscore.DEClash.Weighted>
1.3457

> <Gold.Chemscore.DEInternal.Weighted>
1.2141

> <Gold.Chemscore.Rot.Weighted>
3.4951

> <Gold.Chemscore.Internal.Correction.Weighted>
   9.000000E+99

> <Gold.Protein.RotatedTorsions>
[ 6907 6896 6895 6894 ] final  -21.84 input  -60.11 | X-H torsion
[ 7974 7965 7964 7962 ] final -124.94 input  175.53 | X-H torsion
[ 8008 7997 7996 7995 ] final -154.72 input   59.86 | X-H torsion
[ 10167 10162 10161 10158 ] final -129.77 input  -65.29 | X-H torsion
[ 10718 10713 10712 10709 ] final  -99.29 input   66.30 | X-H torsion
[ 10763 10752 10751 10750 ] final  -90.12 input  -60.55 | X-H torsion
[ 11005 11000 10999 10996 ] final  -52.91 input  -57.11 | X-H torsion

> <Gold.Protein.ActiveResidues>
 VAL166  LYS551  ARG553  GLY616  TRP617  ASP618  TYR619  PRO620  LYS621  CYS622 
 ASP623  PHE694  ASN695  SER759  ASP760  ASP761  ALA762  ILE779  LEU786  VAL792 
 PHE793  MET794  SER795  GLU796  ALA797  LYS798  CYS799  TRP800  GLU811  SER814 

> <Gold.Protein.RotatedAtoms>
  151.2274  135.0541  159.8973 H   0  0  0  0  0  0  0  0  0  0  0  0  # atno 6907 bound_to 6896
  152.5409  134.0574  159.8147 H   0  0  0  0  0  0  0  0  0  0  0  0  # atno 6908 bound_to 6896
  151.0749  133.5388  159.2656 H   0  0  0  0  0  0  0  0  0  0  0  0  # atno 6909 bound_to 6896
  145.0028  140.7835  143.4486 H   0  0  0  0  0  0  0  0  0  0  0  0  # atno 7974 bound_to 7965
  155.6907  140.0755  157.2449 H   0  0  0  0  0  0  0  0  0  0  0  0  # atno 8008 bound_to 7997
  154.4089  140.1665  156.2136 H   0  0  0  0  0  0  0  0  0  0  0  0  # atno 8009 bound_to 7997
  155.9454  140.3381  155.6365 H   0  0  0  0  0  0  0  0  0  0  0  0  # atno 8010 bound_to 7997
  139.9363  143.6214  152.2516 H   0  0  0  0  0  0  0  0  0  0  0  0  # atno 10167 bound_to 10162
  156.0130  130.5276  150.6648 H   0  0  0  0  0  0  0  0  0  0  0  0  # atno 10718 bound_to 10713
  154.6624  135.5316  153.8035 H   0  0  0  0  0  0  0  0  0  0  0  0  # atno 10763 bound_to 10752
  153.0450  135.6509  154.0851 H   0  0  0  0  0  0  0  0  0  0  0  0  # atno 10764 bound_to 10752
  154.0758  135.2951  155.3279 H   0  0  0  0  0  0  0  0  0  0  0  0  # atno 10765 bound_to 10752
  141.0949  133.6626  156.4094 H   0  0  0  0  0  0  0  0  0  0  0  0  # atno 11005 bound_to 11000
  145.2130  139.2195  143.5133 LP  0  0  0  0  0  0  0  0  0  0  0  0  # atno 17320 bound_to 7965
  146.3455  140.1972  142.8589 LP  0  0  0  0  0  0  0  0  0  0  0  0  # atno 17321 bound_to 7965
  139.6741  144.7659  151.1729 LP  0  0  0  0  0  0  0  0  0  0  0  0  # atno 17342 bound_to 10162
  140.7623  143.5821  150.8884 LP  0  0  0  0  0  0  0  0  0  0  0  0  # atno 17343 bound_to 10162
  157.4383  131.0858  151.0970 LP  0  0  0  0  0  0  0  0  0  0  0  0  # atno 17370 bound_to 10713
  157.1521  130.6189  149.5585 LP  0  0  0  0  0  0  0  0  0  0  0  0  # atno 17371 bound_to 10713
  140.5164  134.6346  157.5303 LP  0  0  0  0  0  0  0  0  0  0  0  0  # atno 17394 bound_to 11000
  139.9783  134.7179  155.9908 LP  0  0  0  0  0  0  0  0  0  0  0  0  # atno 17395 bound_to 11000

$$$$
