AV-unprocessed.smi:458|AV-procd|sdf|2620|dock4
  -GOLD-   2262023 23D 1   1.00000     0.00000
 Structure written by MMmdl.
 36 38  0  0  0  0  0  0  0  0  1 V2000
  153.2305  138.6196  156.4032 O   0  0  0  0  0  0  0  0  0  0  0  0
  151.9482  139.0973  156.7473 C   0  0  0  0  0  0  0  0  0  0  0  0
  151.9898  140.3253  157.6063 C   0  0  0  0  0  0  0  0  0  0  0  0
  152.5004  140.2980  158.8381 N   0  0  0  0  0  0  0  0  0  0  0  0
  152.3670  141.6080  159.2530 C   0  0  0  0  0  0  0  0  0  0  0  0
  152.7275  142.2260  160.4719 C   0  0  0  0  0  0  0  0  0  0  0  0
  152.4973  143.6032  160.6693 C   0  0  0  0  0  0  0  0  0  0  0  0
  151.9070  144.3811  159.6523 C   0  0  0  0  0  0  0  0  0  0  0  0
  151.5401  143.7847  158.4306 C   0  0  0  0  0  0  0  0  0  0  0  0
  151.7678  142.4083  158.2398 C   0  0  0  0  0  0  0  0  0  0  0  0
  151.5256  141.5312  157.1867 N   0  0  0  0  0  0  0  0  0  0  0  0
  150.9147  141.8799  155.9090 C   0  0  0  0  0  0  0  0  0  0  0  0
  149.8869  140.8341  155.4286 C   0  0  2  0  0  0  0  0  0  0  0  0
  150.3528  140.1928  154.2579 O   0  0  0  0  0  0  0  0  0  0  0  0
  148.5148  141.4598  155.2329 C   0  0  0  0  0  0  0  0  0  0  0  0
  147.7572  141.8640  156.3532 C   0  0  0  0  0  0  0  0  0  0  0  0
  146.4889  142.4514  156.1778 C   0  0  0  0  0  0  0  0  0  0  0  0
  145.9724  142.6399  154.8814 C   0  0  0  0  0  0  0  0  0  0  0  0
  144.7535  143.2050  154.7135 F   0  0  0  0  0  0  0  0  0  0  0  0
  146.7252  142.2423  153.7600 C   0  0  0  0  0  0  0  0  0  0  0  0
  147.9932  141.6549  153.9347 C   0  0  0  0  0  0  0  0  0  0  0  0
  153.4559  137.9143  156.9899 H   0  0  0  0  0  0  0  0  0  0  0  0
  151.4078  139.3211  155.8269 H   0  0  0  0  0  0  0  0  0  0  0  0
  151.3857  138.3126  157.2530 H   0  0  0  0  0  0  0  0  0  0  0  0
  153.1828  141.6393  161.2559 H   0  0  0  0  0  0  0  0  0  0  0  0
  152.7766  144.0655  161.6048 H   0  0  0  0  0  0  0  0  0  0  0  0
  151.7363  145.4358  159.8108 H   0  0  0  0  0  0  0  0  0  0  0  0
  151.0891  144.3788  157.6499 H   0  0  0  0  0  0  0  0  0  0  0  0
  150.4280  142.8488  156.0267 H   0  0  0  0  0  0  0  0  0  0  0  0
  151.6876  142.0203  155.1546 H   0  0  0  0  0  0  0  0  0  0  0  0
  149.7957  140.0546  156.1854 H   0  0  0  0  0  0  0  0  0  0  0  0
  149.6474  140.1653  153.6300 H   0  0  0  0  0  0  0  0  0  0  0  0
  148.1460  141.7267  157.3518 H   0  0  0  0  0  0  0  0  0  0  0  0
  145.9127  142.7588  157.0380 H   0  0  0  0  0  0  0  0  0  0  0  0
  146.3309  142.3890  152.7651 H   0  0  0  0  0  0  0  0  0  0  0  0
  148.5656  141.3565  153.0684 H   0  0  0  0  0  0  0  0  0  0  0  0
  1  2  1  0  0  0  0
  1 22  1  0  0  0  0
  2  3  1  0  0  0  0
  2 23  1  0  0  0  0
  2 24  1  0  0  0  0
  3 11  1  0  0  0  0
  3  4  2  0  0  0  0
  4  5  1  0  0  0  0
  5 10  2  0  0  0  0
  5  6  1  0  0  0  0
  6  7  2  0  0  0  0
  6 25  1  0  0  0  0
  7  8  1  0  0  0  0
  7 26  1  0  0  0  0
  8  9  2  0  0  0  0
  8 27  1  0  0  0  0
  9 10  1  0  0  0  0
  9 28  1  0  0  0  0
 10 11  1  0  0  0  0
 11 12  1  0  0  0  0
 12 13  1  0  0  0  0
 12 29  1  0  0  0  0
 12 30  1  0  0  0  0
 13 14  1  0  0  0  0
 13 15  1  0  0  0  0
 13 31  1  0  0  0  0
 14 32  1  0  0  0  0
 15 21  1  0  0  0  0
 15 16  2  0  0  0  0
 16 17  1  0  0  0  0
 16 33  1  0  0  0  0
 17 18  2  0  0  0  0
 17 34  1  0  0  0  0
 18 19  1  0  0  0  0
 18 20  1  0  0  0  0
 20 21  2  0  0  0  0
 20 35  1  0  0  0  0
 21 36  1  0  0  0  0
M  END
> <s_m_source_file>
AV-unprocessed.smi

> <i_m_source_file_index>
458

> <i_lp_mmshare_version>
43012

> <i_f3d_flags>
0

> <s_epik_input>
W2NIXTFbY0hdW2NIXVtjSF1jKGMxMiluKGMobjIpW0NIMl1bT0hdKVtDSDJdW0NASF0oW09IXSljM1tjSF1bY0hdYyhGKVtjSF1bY0hdMw==

> <s_epik_cmdline>
J2VwaWtfcHl0aG9uJywgJy1waCcsICc3LjAnLCAnLXRuJywgJzgnLCAnLW1hJywgJzIwMCcsICctbWV0YWxfYmluZGluZycsICctaW1hZScsICc8aW5maWxlLm1hZT4nLCAnLW9tYWUnLCAnPG91dGZpbGUubWFlPic=

> <r_epik_Ionization_Penalty>
0.0634724

> <r_epik_Ionization_Penalty_Charging>
0

> <r_epik_Ionization_Penalty_Neutral>
0.0634724

> <r_epik_State_Penalty>
0.0551572

> <r_epik_Charging_Adjusted_Penalty>
0.0551572

> <i_epik_Tot_Q>
0

> <i_epik_Tot_abs_Q>
0

> <r_epik_Metal_State_Penalty>
5.78034e-05

> <b_epik_Metal_Only>
0

> <s_lp_Force_Field>
OPLS_2005

> <r_lp_Energy>
12.4444

> <b_lp_Chiralities_Consistent>
1

> <s_lp_Variant>
AV-unprocessed.smi:458-1

> <Gold.Version>
5.8.1

> <Gold.Id.Protein>
6NUR|6NUR_protein|mol2

> <Gold.PLP.Fitness>
49.8728

> <Gold.PLP.PLP>
-46.4277

> <Gold.PLP.part.hbond>
-2.5653

> <Gold.PLP.part.metal>
0.0000

> <Gold.PLP.part.buried>
-6.5071

> <Gold.PLP.part.nonpolar>
-36.5103

> <Gold.PLP.part.repulsive>
0.0000

> <Gold.PLP.ligand.clash>
0.0000

> <Gold.PLP.ligand.torsion>
1.2991

> <Gold.PLP.Chemscore.Hbond>
2.0000

> <Gold.PLP.Chemscore.CHOScore>
0.0000

> <Gold.PLP.Chemscore.Metal>
0.0000

> <Gold.Chemscore.Hbonds>
donor molecule, donor type, donor heavy atom, donor atom, acceptor molecule, acceptor atom, score
      P1  H  7989  7998       L1    14  1.00
      P1  H  7997  8009       L1     1  1.00

> <Gold.PLP.Chemscore.Internal.Correction>
0.0433

> <Gold.Rescore>
     Score         DG    S(hbond)    S(metal)    S(lipo)     H(rot)  DE(clash)    DE(int)     intcor
     15.33     -16.79       1.53        0.00     113.15       2.75       0.21       1.25       ----

> <Gold.Chemscore.Fitness>
15.3347

> <Gold.Chemscore.DG>
-16.7865

> <Gold.Chemscore.ZeroCoef>
-5.4800

> <Gold.Chemscore.Hbond>
1.5293

> <Gold.Chemscore.Metal>
0.0000

> <Gold.Chemscore.Lipo>
113.1492

> <Gold.Chemscore.Internal_Hbond>
0.0000

> <Gold.Chemscore.DEClash>
0.2063

> <Gold.Chemscore.DEInternal>
1.2455

> <Gold.Chemscore.Rot>
2.7500

> <Gold.Chemscore.Internal.Correction>
   9.000000E+99

> <Gold.Chemscore.Hbonds>
donor molecule, donor type, donor heavy atom, donor atom, acceptor molecule, acceptor atom, score
      L1  H    14    32       P1  7957  0.02
      P1  H  7989  7998       L1    14  0.50
      P1  H  7997  8009       L1     1  0.53

> <Gold.Chemscore.Hbond.Weighted>
-5.1080

> <Gold.Chemscore.Metal.Weighted>
-0.0000

> <Gold.Chemscore.Lipo.Weighted>
-13.2385

> <Gold.Chemscore.Internal_Hbond.Weighted>
0.0000

> <Gold.Chemscore.DEClash.Weighted>
0.2063

> <Gold.Chemscore.DEInternal.Weighted>
1.2455

> <Gold.Chemscore.Rot.Weighted>
7.0399

> <Gold.Chemscore.Internal.Correction.Weighted>
   9.000000E+99

> <Gold.Protein.RotatedTorsions>
[ 6907 6896 6895 6894 ] final   45.02 input  -60.11 | X-H torsion
[ 7974 7965 7964 7962 ] final  -66.62 input  175.53 | X-H torsion
[ 8008 7997 7996 7995 ] final -168.22 input   59.86 | X-H torsion
[ 10167 10162 10161 10158 ] final  -79.00 input  -65.29 | X-H torsion
[ 10718 10713 10712 10709 ] final  -60.42 input   66.30 | X-H torsion
[ 10763 10752 10751 10750 ] final -155.50 input  -60.55 | X-H torsion
[ 11005 11000 10999 10996 ] final -111.62 input  -57.11 | X-H torsion

> <Gold.Protein.ActiveResidues>
 VAL166  LYS551  ARG553  GLY616  TRP617  ASP618  TYR619  PRO620  LYS621  CYS622 
 ASP623  PHE694  ASN695  SER759  ASP760  ASP761  ALA762  ILE779  LEU786  VAL792 
 PHE793  MET794  SER795  GLU796  ALA797  LYS798  CYS799  TRP800  GLU811  SER814 

> <Gold.Protein.RotatedAtoms>
  152.2396  134.8242  160.0462 H   0  0  0  0  0  0  0  0  0  0  0  0  # atno 6907 bound_to 6896
  151.8961  133.3522  159.3823 H   0  0  0  0  0  0  0  0  0  0  0  0  # atno 6908 bound_to 6896
  150.7049  134.4801  159.5510 H   0  0  0  0  0  0  0  0  0  0  0  0  # atno 6909 bound_to 6896
  145.7395  140.8960  143.0537 H   0  0  0  0  0  0  0  0  0  0  0  0  # atno 7974 bound_to 7965
  155.8885  140.1021  157.1435 H   0  0  0  0  0  0  0  0  0  0  0  0  # atno 8008 bound_to 7997
  154.4012  140.1315  156.4349 H   0  0  0  0  0  0  0  0  0  0  0  0  # atno 8009 bound_to 7997
  155.7561  140.3464  155.5177 H   0  0  0  0  0  0  0  0  0  0  0  0  # atno 8010 bound_to 7997
  140.4632  143.2447  151.8317 H   0  0  0  0  0  0  0  0  0  0  0  0  # atno 10167 bound_to 10162
  156.0992  130.4188  150.0851 H   0  0  0  0  0  0  0  0  0  0  0  0  # atno 10718 bound_to 10713
  154.7782  135.3166  154.8046 H   0  0  0  0  0  0  0  0  0  0  0  0  # atno 10763 bound_to 10752
  153.8764  135.6839  153.4774 H   0  0  0  0  0  0  0  0  0  0  0  0  # atno 10764 bound_to 10752
  153.1412  135.4738  154.9434 H   0  0  0  0  0  0  0  0  0  0  0  0  # atno 10765 bound_to 10752
  141.0723  133.9359  157.2460 H   0  0  0  0  0  0  0  0  0  0  0  0  # atno 11005 bound_to 11000
  144.6874  139.9440  143.7476 LP  0  0  0  0  0  0  0  0  0  0  0  0  # atno 17320 bound_to 7965
  146.0462  139.3467  143.0667 LP  0  0  0  0  0  0  0  0  0  0  0  0  # atno 17321 bound_to 7965
  139.4809  144.4982  151.9096 LP  0  0  0  0  0  0  0  0  0  0  0  0  # atno 17342 bound_to 10162
  140.4067  144.2422  150.5890 LP  0  0  0  0  0  0  0  0  0  0  0  0  # atno 17343 bound_to 10162
  156.8843  130.9567  151.3596 LP  0  0  0  0  0  0  0  0  0  0  0  0  # atno 17370 bound_to 10713
  157.6159  130.8618  149.9027 LP  0  0  0  0  0  0  0  0  0  0  0  0  # atno 17371 bound_to 10713
  139.9536  135.0170  156.9065 LP  0  0  0  0  0  0  0  0  0  0  0  0  # atno 17394 bound_to 11000
  140.5647  134.0501  155.7410 LP  0  0  0  0  0  0  0  0  0  0  0  0  # atno 17395 bound_to 11000

$$$$
