AV-unprocessed.smi:1312|AV-procd|sdf|5448|dock7
  -GOLD-   22720 5 23D 1   1.00000     0.00000
 Structure written by MMmdl.
 50 51  0  0  0  0  0  0  0  0  2 V2000
  147.5550  132.2367  155.8296 C   0  0  0  0  0  0  0  0  0  0  0  0
  146.8090  133.0586  154.7667 C   0  0  0  0  0  0  0  0  0  0  0  0
  147.5886  134.2932  154.2370 C   0  0  2  0  0  0  0  0  0  0  0  0
  147.7382  135.4013  155.3108 C   0  0  0  0  0  0  0  0  0  0  0  0
  148.7089  136.4165  154.9175 N   0  0  0  0  0  0  0  0  0  0  0  0
  149.7961  136.7481  155.6284 C   0  0  0  0  0  0  0  0  0  0  0  0
  150.0767  136.2241  156.7075 O   0  0  0  0  0  0  0  0  0  0  0  0
  150.6968  137.8238  155.0100 C   0  0  0  0  0  0  0  0  0  0  0  0
  150.8875  138.9947  155.9440 C   0  0  0  0  0  0  0  0  0  0  0  0
  151.4786  138.9792  157.2415 C   0  0  0  0  0  0  0  0  0  0  0  0
  152.0400  137.8042  157.9898 C   0  0  0  0  0  0  0  0  0  0  0  0
  151.4989  140.1773  157.8020 N   0  0  0  0  0  0  0  0  0  0  0  0
  150.9245  140.9915  156.8939 N   0  0  0  0  0  0  0  0  0  0  0  0
  150.7837  142.4036  157.1926 C   0  0  0  0  0  0  0  0  0  0  0  0
  150.5404  140.3061  155.7577 C   0  0  0  0  0  0  0  0  0  0  0  0
  149.8750  140.9856  154.6048 C   0  0  0  0  0  0  0  0  0  0  0  0
  146.9803  134.8181  152.9784 N   0  3  0  0  0  0  0  0  0  0  0  0
  146.8661  133.8533  151.8627 C   0  0  0  0  0  0  0  0  0  0  0  0
  145.8132  134.4456  150.9336 C   0  0  0  0  0  0  0  0  0  0  0  0
  144.8113  135.0600  151.9031 C   0  0  0  0  0  0  0  0  0  0  0  0
  145.6439  135.4487  153.1323 C   0  0  0  0  0  0  0  0  0  0  0  0
  146.9355  131.4101  156.1783 H   0  0  0  0  0  0  0  0  0  0  0  0
  147.8110  132.8429  156.6986 H   0  0  0  0  0  0  0  0  0  0  0  0
  148.4751  131.8071  155.4339 H   0  0  0  0  0  0  0  0  0  0  0  0
  146.5536  132.4006  153.9360 H   0  0  0  0  0  0  0  0  0  0  0  0
  145.8465  133.3657  155.1751 H   0  0  0  0  0  0  0  0  0  0  0  0
  148.5951  133.9562  153.9830 H   0  0  0  0  0  0  0  0  0  0  0  0
  146.7911  135.9160  155.4740 H   0  0  0  0  0  0  0  0  0  0  0  0
  148.0215  134.9585  156.2669 H   0  0  0  0  0  0  0  0  0  0  0  0
  148.5500  136.8936  154.0417 H   0  0  0  0  0  0  0  0  0  0  0  0
  151.6519  137.3614  154.7599 H   0  0  0  0  0  0  0  0  0  0  0  0
  150.2651  138.1490  154.0627 H   0  0  0  0  0  0  0  0  0  0  0  0
  152.7813  137.2771  157.3895 H   0  0  0  0  0  0  0  0  0  0  0  0
  151.2522  137.0944  158.2428 H   0  0  0  0  0  0  0  0  0  0  0  0
  152.5242  138.1084  158.9185 H   0  0  0  0  0  0  0  0  0  0  0  0
  151.3279  142.9903  156.4523 H   0  0  0  0  0  0  0  0  0  0  0  0
  151.1799  142.6305  158.1833 H   0  0  0  0  0  0  0  0  0  0  0  0
  149.7300  142.6812  157.1634 H   0  0  0  0  0  0  0  0  0  0  0  0
  149.5617  140.2662  153.8485 H   0  0  0  0  0  0  0  0  0  0  0  0
  150.5524  141.6966  154.1319 H   0  0  0  0  0  0  0  0  0  0  0  0
  148.9886  141.5284  154.9332 H   0  0  0  0  0  0  0  0  0  0  0  0
  147.8184  133.7015  151.3538 H   0  0  0  0  0  0  0  0  0  0  0  0
  146.5213  132.8892  152.2412 H   0  0  0  0  0  0  0  0  0  0  0  0
  146.2595  135.2258  150.3156 H   0  0  0  0  0  0  0  0  0  0  0  0
  145.3650  133.7044  150.2713 H   0  0  0  0  0  0  0  0  0  0  0  0
  144.2778  135.9069  151.4710 H   0  0  0  0  0  0  0  0  0  0  0  0
  144.0701  134.3114  152.1854 H   0  0  0  0  0  0  0  0  0  0  0  0
  145.1363  135.1122  154.0374 H   0  0  0  0  0  0  0  0  0  0  0  0
  145.7664  136.5300  153.2019 H   0  0  0  0  0  0  0  0  0  0  0  0
  147.5918  135.5482  152.6417 H   0  0  0  0  0  0  0  0  0  0  0  0
  1  2  1  0  0  0  0
  1 22  1  0  0  0  0
  1 23  1  0  0  0  0
  1 24  1  0  0  0  0
  2  3  1  0  0  0  0
  2 25  1  0  0  0  0
  2 26  1  0  0  0  0
  3  4  1  0  0  0  0
  3 17  1  0  0  0  0
  3 27  1  0  0  0  0
  4  5  1  0  0  0  0
  4 28  1  0  0  0  0
  4 29  1  0  0  0  0
  5  6  1  0  0  0  0
  5 30  1  0  0  0  0
  6  7  2  0  0  0  0
  6  8  1  0  0  0  0
  8  9  1  0  0  0  0
  8 31  1  0  0  0  0
  8 32  1  0  0  0  0
  9 15  2  0  0  0  0
  9 10  1  0  0  0  0
 10 11  1  0  0  0  0
 10 12  2  0  0  0  0
 11 33  1  0  0  0  0
 11 34  1  0  0  0  0
 11 35  1  0  0  0  0
 12 13  1  0  0  0  0
 13 14  1  0  0  0  0
 13 15  1  0  0  0  0
 14 36  1  0  0  0  0
 14 37  1  0  0  0  0
 14 38  1  0  0  0  0
 15 16  1  0  0  0  0
 16 39  1  0  0  0  0
 16 40  1  0  0  0  0
 16 41  1  0  0  0  0
 17 21  1  0  0  0  0
 17 18  1  0  0  0  0
 17 50  1  0  0  0  0
 18 19  1  0  0  0  0
 18 42  1  0  0  0  0
 18 43  1  0  0  0  0
 19 20  1  0  0  0  0
 19 44  1  0  0  0  0
 19 45  1  0  0  0  0
 20 21  1  0  0  0  0
 20 46  1  0  0  0  0
 20 47  1  0  0  0  0
 21 48  1  0  0  0  0
 21 49  1  0  0  0  0
M  CHG  1  17   1
M  END
> <s_m_source_file>
AV-unprocessed.smi

> <i_m_source_file_index>
1312

> <i_lp_mmshare_version>
43012

> <i_f3d_flags>
0

> <s_epik_input>
W0NIMl0xW0NIMl1bQ0gyXVtDSDJdTjFbQ0BIXShbQ0gyXVtDSDNdKVtDSDJdW05IXUMoPU8pW0NIMl1jMmMoW0NIM10pbm4oW0NIM10pYzJbQ0gzXQ==

> <s_epik_cmdline>
J2VwaWtfcHl0aG9uJywgJy1waCcsICc3LjAnLCAnLXRuJywgJzgnLCAnLW1hJywgJzIwMCcsICctbWV0YWxfYmluZGluZycsICctaW1hZScsICc8aW5maWxlLm1hZT4nLCAnLW9tYWUnLCAnPG91dGZpbGUubWFlPic=

> <r_lp_tautomer_probability>
1

> <r_epik_Ionization_Penalty>
0.00585463

> <r_epik_Ionization_Penalty_Charging>
0.00366302

> <r_epik_Ionization_Penalty_Neutral>
0.00219161

> <r_epik_State_Penalty>
-0

> <r_epik_Charging_Adjusted_Penalty>
0.00366302

> <i_epik_Tot_Q>
1

> <i_epik_Tot_abs_Q>
1

> <r_epik_Metal_State_Penalty>
-0

> <b_epik_Metal_Only>
0

> <s_lp_Force_Field>
OPLS_2005

> <r_lp_Energy>
29.647

> <b_lp_Chiralities_Consistent>
1

> <s_lp_Variant>
AV-unprocessed.smi:1312-1

> <Gold.Version>
5.8.1

> <Gold.Id.Protein>
6NUR|6NUR_protein|mol2

> <Gold.PLP.Fitness>
50.7036

> <Gold.PLP.PLP>
-38.5778

> <Gold.PLP.part.hbond>
-4.0000

> <Gold.PLP.part.metal>
0.0000

> <Gold.PLP.part.buried>
-0.6914

> <Gold.PLP.part.nonpolar>
-34.5690

> <Gold.PLP.part.repulsive>
0.1085

> <Gold.PLP.ligand.clash>
0.0000

> <Gold.PLP.ligand.torsion>
0.1672

> <Gold.PLP.Chemscore.Hbond>
4.1085

> <Gold.PLP.Chemscore.CHOScore>
0.0000

> <Gold.PLP.Chemscore.Metal>
0.0000

> <Gold.Chemscore.Hbonds>
donor molecule, donor type, donor heavy atom, donor atom, acceptor molecule, acceptor atom, score
      L1  H     5    30       P1  7948  0.19
      L1  H    17    50       P1  7948  2.00

> <Gold.PLP.Chemscore.Internal.Correction>
0.1349

> <Gold.Rescore>
     Score         DG    S(hbond)    S(metal)    S(lipo)     H(rot)  DE(clash)    DE(int)     intcor
     17.33     -18.78       2.37        0.00      83.67       1.72       0.93       0.52       ----

> <Gold.Chemscore.Fitness>
17.3299

> <Gold.Chemscore.DG>
-18.7793

> <Gold.Chemscore.ZeroCoef>
-5.4800

> <Gold.Chemscore.Hbond>
2.3702

> <Gold.Chemscore.Metal>
0.0000

> <Gold.Chemscore.Lipo>
83.6709

> <Gold.Chemscore.Internal_Hbond>
0.0000

> <Gold.Chemscore.DEClash>
0.9258

> <Gold.Chemscore.DEInternal>
0.5236

> <Gold.Chemscore.Rot>
1.7213

> <Gold.Chemscore.Internal.Correction>
   9.000000E+99

> <Gold.Chemscore.Hbonds>
donor molecule, donor type, donor heavy atom, donor atom, acceptor molecule, acceptor atom, score
      L1  H     5    30       P1  7948  0.19
      L1  H    17    50       P1  7948  0.98

> <Gold.Chemscore.Hbond.Weighted>
-7.9164

> <Gold.Chemscore.Metal.Weighted>
-0.0000

> <Gold.Chemscore.Lipo.Weighted>
-9.7895

> <Gold.Chemscore.Internal_Hbond.Weighted>
0.0000

> <Gold.Chemscore.DEClash.Weighted>
0.9258

> <Gold.Chemscore.DEInternal.Weighted>
0.5236

> <Gold.Chemscore.Rot.Weighted>
4.4065

> <Gold.Chemscore.Internal.Correction.Weighted>
   9.000000E+99

> <Gold.Protein.RotatedTorsions>
[ 6907 6896 6895 6894 ] final  149.27 input  -60.11 | X-H torsion
[ 7974 7965 7964 7962 ] final   43.83 input  175.53 | X-H torsion
[ 8008 7997 7996 7995 ] final   49.29 input   59.86 | X-H torsion
[ 10167 10162 10161 10158 ] final  -60.50 input  -65.29 | X-H torsion
[ 10718 10713 10712 10709 ] final  -75.35 input   66.30 | X-H torsion
[ 10763 10752 10751 10750 ] final -163.89 input  -60.55 | X-H torsion
[ 11005 11000 10999 10996 ] final  -17.75 input  -57.11 | X-H torsion

> <Gold.Protein.ActiveResidues>
 VAL166  LYS551  ARG553  GLY616  TRP617  ASP618  TYR619  PRO620  LYS621  CYS622 
 ASP623  PHE694  ASN695  SER759  ASP760  ASP761  ALA762  ILE779  LEU786  VAL792 
 PHE793  MET794  SER795  GLU796  ALA797  LYS798  CYS799  TRP800  GLU811  SER814 

> <Gold.Protein.RotatedAtoms>
  152.1302  133.4403  159.4717 H   0  0  0  0  0  0  0  0  0  0  0  0  # atno 6907 bound_to 6896
  150.6877  134.2429  159.4489 H   0  0  0  0  0  0  0  0  0  0  0  0  # atno 6908 bound_to 6896
  152.0313  134.9766  160.0623 H   0  0  0  0  0  0  0  0  0  0  0  0  # atno 6909 bound_to 6896
  146.0621  139.5142  142.9651 H   0  0  0  0  0  0  0  0  0  0  0  0  # atno 7974 bound_to 7965
  155.3997  140.3437  155.4256 H   0  0  0  0  0  0  0  0  0  0  0  0  # atno 8008 bound_to 7997
  156.1510  140.1571  156.8801 H   0  0  0  0  0  0  0  0  0  0  0  0  # atno 8009 bound_to 7997
  154.5053  140.0804  156.7862 H   0  0  0  0  0  0  0  0  0  0  0  0  # atno 8010 bound_to 7997
  140.6067  143.2375  151.5804 H   0  0  0  0  0  0  0  0  0  0  0  0  # atno 10167 bound_to 10162
  156.0210  130.4439  150.3030 H   0  0  0  0  0  0  0  0  0  0  0  0  # atno 10718 bound_to 10713
  154.7080  135.3000  154.9241 H   0  0  0  0  0  0  0  0  0  0  0  0  # atno 10763 bound_to 10752
  154.0151  135.6690  153.4772 H   0  0  0  0  0  0  0  0  0  0  0  0  # atno 10764 bound_to 10752
  153.0732  135.5049  154.8262 H   0  0  0  0  0  0  0  0  0  0  0  0  # atno 10765 bound_to 10752
  140.8200  133.8076  155.9649 H   0  0  0  0  0  0  0  0  0  0  0  0  # atno 11005 bound_to 11000
  145.6542  141.0256  143.1744 LP  0  0  0  0  0  0  0  0  0  0  0  0  # atno 17320 bound_to 7965
  144.7181  139.8126  143.7391 LP  0  0  0  0  0  0  0  0  0  0  0  0  # atno 17321 bound_to 7965
  139.5330  144.2860  152.1191 LP  0  0  0  0  0  0  0  0  0  0  0  0  # atno 17342 bound_to 10162
  140.2051  144.4619  150.6412 LP  0  0  0  0  0  0  0  0  0  0  0  0  # atno 17343 bound_to 10162
  157.1132  131.0227  151.3039 LP  0  0  0  0  0  0  0  0  0  0  0  0  # atno 17370 bound_to 10713
  157.4687  130.7696  149.7303 LP  0  0  0  0  0  0  0  0  0  0  0  0  # atno 17371 bound_to 10713
  140.9109  134.2261  157.4986 LP  0  0  0  0  0  0  0  0  0  0  0  0  # atno 17394 bound_to 11000
  139.8709  134.9750  156.4865 LP  0  0  0  0  0  0  0  0  0  0  0  0  # atno 17395 bound_to 11000

$$$$
