AV-unprocessed.smi:102|AV-procd|sdf|967|dock3
  -GOLD-   2262017513D 1   1.00000     0.00000
 Structure written by MMmdl.
 43 44  0  0  0  0  0  0  0  0  2 V2000
  146.0223  141.6060  154.0476 C   0  0  0  0  0  0  0  0  0  0  0  0
  146.4550  141.6932  155.5053 C   0  0  0  0  0  0  0  0  0  0  0  0
  145.6341  141.8187  156.4143 O   0  0  0  0  0  0  0  0  0  0  0  0
  147.7851  141.6204  155.6474 O   0  0  0  0  0  0  0  0  0  0  0  0
  148.3712  141.8044  156.9262 C   0  0  0  0  0  0  0  0  0  0  0  0
  149.9017  141.7922  156.8122 C   0  0  2  0  0  0  0  0  0  0  0  0
  150.3407  140.6951  156.0263 O   0  0  0  0  0  0  0  0  0  0  0  0
  151.6423  140.3484  156.3936 C   0  0  2  0  0  0  0  0  0  0  0  0
  151.6962  138.8432  156.5557 N   0  0  0  0  0  0  0  0  0  0  0  0
  150.8971  138.2204  157.4991 C   0  0  0  0  0  0  0  0  0  0  0  0
  150.9357  136.8847  157.6770 C   0  0  0  0  0  0  0  0  0  0  0  0
  150.1499  136.3101  158.6040 F   0  0  0  0  0  0  0  0  0  0  0  0
  151.8381  136.0737  156.8619 C   0  0  0  0  0  0  0  0  0  0  0  0
  151.8626  134.8544  157.0211 O   0  0  0  0  0  0  0  0  0  0  0  0
  152.6256  136.7159  155.9507 N   0  5  0  0  0  0  0  0  0  0  0  0
  152.5973  138.0697  155.7741 C   0  0  0  0  0  0  0  0  0  0  0  0
  153.3275  138.6572  154.9760 O   0  0  0  0  0  0  0  0  0  0  0  0
  151.9991  141.0974  157.6983 C   0  0  2  0  0  0  0  0  0  0  0  0
  152.5345  140.2299  158.6933 O   0  0  0  0  0  0  0  0  0  0  0  0
  153.6337  139.5020  158.4435 C   0  0  0  0  0  0  0  0  0  0  0  0
  154.0271  138.6275  159.6263 C   0  0  0  0  0  0  0  0  0  0  0  0
  154.2877  139.5072  157.4004 O   0  0  0  0  0  0  0  0  0  0  0  0
  150.6566  141.6617  158.1366 C   0  0  1  0  0  0  0  0  0  0  0  0
  150.8464  142.9283  158.7530 O   0  0  0  0  0  0  0  0  0  0  0  0
  151.3851  143.9448  158.0589 C   0  0  0  0  0  0  0  0  0  0  0  0
  151.6865  145.1511  158.9379 C   0  0  0  0  0  0  0  0  0  0  0  0
  151.6313  143.9512  156.8528 O   0  0  0  0  0  0  0  0  0  0  0  0
  146.6696  140.9242  153.4953 H   0  0  0  0  0  0  0  0  0  0  0  0
  146.0762  142.5891  153.5798 H   0  0  0  0  0  0  0  0  0  0  0  0
  144.9971  141.2428  153.9749 H   0  0  0  0  0  0  0  0  0  0  0  0
  148.0306  142.7463  157.3574 H   0  0  0  0  0  0  0  0  0  0  0  0
  148.0505  141.0048  157.5955 H   0  0  0  0  0  0  0  0  0  0  0  0
  150.2313  142.6969  156.2986 H   0  0  0  0  0  0  0  0  0  0  0  0
  152.3040  140.6066  155.5666 H   0  0  0  0  0  0  0  0  0  0  0  0
  150.2344  138.8104  158.1136 H   0  0  0  0  0  0  0  0  0  0  0  0
  152.6921  141.8975  157.4328 H   0  0  0  0  0  0  0  0  0  0  0  0
  154.3729  139.2464  160.4542 H   0  0  0  0  0  0  0  0  0  0  0  0
  154.8277  137.9422  159.3474 H   0  0  0  0  0  0  0  0  0  0  0  0
  153.1724  138.0412  159.9648 H   0  0  0  0  0  0  0  0  0  0  0  0
  150.1663  140.9408  158.7930 H   0  0  0  0  0  0  0  0  0  0  0  0
  152.5795  144.9685  159.5358 H   0  0  0  0  0  0  0  0  0  0  0  0
  150.8523  145.3502  159.6110 H   0  0  0  0  0  0  0  0  0  0  0  0
  151.8551  146.0376  158.3259 H   0  0  0  0  0  0  0  0  0  0  0  0
  1  2  1  0  0  0  0
  1 28  1  0  0  0  0
  1 29  1  0  0  0  0
  1 30  1  0  0  0  0
  2  3  2  0  0  0  0
  2  4  1  0  0  0  0
  4  5  1  0  0  0  0
  5  6  1  0  0  0  0
  5 31  1  0  0  0  0
  5 32  1  0  0  0  0
  6 23  1  0  0  0  0
  6  7  1  0  0  0  0
  6 33  1  0  0  0  0
  7  8  1  0  0  0  0
  8  9  1  0  0  0  0
  8 18  1  0  0  0  0
  8 34  1  0  0  0  0
  9 16  1  0  0  0  0
  9 10  1  0  0  0  0
 10 11  2  0  0  0  0
 10 35  1  0  0  0  0
 11 12  1  0  0  0  0
 11 13  1  0  0  0  0
 13 14  2  0  0  0  0
 13 15  1  0  0  0  0
 15 16  1  0  0  0  0
 16 17  2  0  0  0  0
 18 19  1  0  0  0  0
 18 23  1  0  0  0  0
 18 36  1  0  0  0  0
 19 20  1  0  0  0  0
 20 21  1  0  0  0  0
 20 22  2  0  0  0  0
 21 37  1  0  0  0  0
 21 38  1  0  0  0  0
 21 39  1  0  0  0  0
 23 24  1  0  0  0  0
 23 40  1  0  0  0  0
 24 25  1  0  0  0  0
 25 26  1  0  0  0  0
 25 27  2  0  0  0  0
 26 41  1  0  0  0  0
 26 42  1  0  0  0  0
 26 43  1  0  0  0  0
M  CHG  1  15  -1
M  END
> <s_m_source_file>
AV-unprocessed.smi

> <i_m_source_file_index>
102

> <i_lp_mmshare_version>
43012

> <i_f3d_flags>
0

> <s_epik_input>
W0NIM11DKD1PKU9bQ0gyXVtDQEBIXTFPW0NASF0oW0NAQEhdKE9DKD1PKVtDSDNdKVtDQEhdMU9DKD1PKVtDSDNdKW4yW2NIXWMoRiljKD1PKVtuSF1jMj1P

> <s_epik_cmdline>
J2VwaWtfcHl0aG9uJywgJy1waCcsICc3LjAnLCAnLXRuJywgJzgnLCAnLW1hJywgJzIwMCcsICctbWV0YWxfYmluZGluZycsICctaW1hZScsICc8aW5maWxlLm1hZT4nLCAnLW9tYWUnLCAnPG91dGZpbGUubWFlPic=

> <r_epik_Ionization_Penalty>
1.40304

> <r_epik_Ionization_Penalty_Charging>
1.43915e-08

> <r_epik_Ionization_Penalty_Neutral>
1.40304

> <r_epik_State_Penalty>
1.48536

> <r_epik_Charging_Adjusted_Penalty>
1.48536

> <i_epik_Tot_Q>
-1

> <i_epik_Tot_abs_Q>
1

> <r_epik_Metal_State_Penalty>
0.00663881

> <b_epik_Metal_Only>
0

> <s_epik_Chemistry_Notes>
This compound has an ester and may undergo hydrolysis at high or low pH. This compound contains an acetal/aminal-like group ( X-CH(R)-Y where X, Y are N, S, or O) that may be acid/base labile, releasing an aldehyde.

> <s_lp_Force_Field>
OPLS_2005

> <r_lp_Energy>
21.6407

> <b_lp_Chiralities_Consistent>
1

> <s_lp_Variant>
AV-unprocessed.smi:102-23

> <Gold.Version>
5.8.1

> <Gold.Id.Protein>
6NUR|6NUR_protein|mol2

> <Gold.PLP.Fitness>
44.2972

> <Gold.PLP.PLP>
-34.0300

> <Gold.PLP.part.hbond>
-3.9757

> <Gold.PLP.part.metal>
0.0000

> <Gold.PLP.part.buried>
-6.0797

> <Gold.PLP.part.nonpolar>
-25.6341

> <Gold.PLP.part.repulsive>
2.4282

> <Gold.PLP.ligand.clash>
0.0000

> <Gold.PLP.ligand.torsion>
0.2181

> <Gold.PLP.Chemscore.Hbond>
3.5360

> <Gold.PLP.Chemscore.CHOScore>
0.0000

> <Gold.PLP.Chemscore.Metal>
0.0000

> <Gold.Chemscore.Hbonds>
donor molecule, donor type, donor heavy atom, donor atom, acceptor molecule, acceptor atom, score
      P1  H  7997  8010       L1    17  0.76
      P1  H 10752 10763       L1    15  1.76

> <Gold.PLP.Chemscore.Internal.Correction>
0.0955

> <Gold.Rescore>
     Score         DG    S(hbond)    S(metal)    S(lipo)     H(rot)  DE(clash)    DE(int)     intcor
      4.60      -9.54       2.52        0.00      50.19       4.00       0.18       4.76       ----

> <Gold.Chemscore.Fitness>
4.5999

> <Gold.Chemscore.DG>
-9.5362

> <Gold.Chemscore.ZeroCoef>
-5.4800

> <Gold.Chemscore.Hbond>
2.5184

> <Gold.Chemscore.Metal>
0.0000

> <Gold.Chemscore.Lipo>
50.1905

> <Gold.Chemscore.Internal_Hbond>
0.0000

> <Gold.Chemscore.DEClash>
0.1763

> <Gold.Chemscore.DEInternal>
4.7600

> <Gold.Chemscore.Rot>
3.9951

> <Gold.Chemscore.Internal.Correction>
   9.000000E+99

> <Gold.Chemscore.Hbonds>
donor molecule, donor type, donor heavy atom, donor atom, acceptor molecule, acceptor atom, score
      P1  H  7997  8010       L1    17  0.68
      P1  H 10752 10763       L1    15  0.26

> <Gold.Chemscore.Hbond.Weighted>
-8.4113

> <Gold.Chemscore.Metal.Weighted>
-0.0000

> <Gold.Chemscore.Lipo.Weighted>
-5.8723

> <Gold.Chemscore.Internal_Hbond.Weighted>
0.0000

> <Gold.Chemscore.DEClash.Weighted>
0.1763

> <Gold.Chemscore.DEInternal.Weighted>
4.7600

> <Gold.Chemscore.Rot.Weighted>
10.2274

> <Gold.Chemscore.Internal.Correction.Weighted>
   9.000000E+99

> <Gold.Protein.RotatedTorsions>
[ 6907 6896 6895 6894 ] final   -3.09 input  -60.11 | X-H torsion
[ 7974 7965 7964 7962 ] final  -65.88 input  175.53 | X-H torsion
[ 8008 7997 7996 7995 ] final  115.08 input   59.86 | X-H torsion
[ 10167 10162 10161 10158 ] final  109.69 input  -65.29 | X-H torsion
[ 10718 10713 10712 10709 ] final  -93.21 input   66.30 | X-H torsion
[ 10763 10752 10751 10750 ] final   97.63 input  -60.55 | X-H torsion
[ 11005 11000 10999 10996 ] final  165.68 input  -57.11 | X-H torsion

> <Gold.Protein.ActiveResidues>
 VAL166  LYS551  ARG553  GLY616  TRP617  ASP618  TYR619  PRO620  LYS621  CYS622 
 ASP623  PHE694  ASN695  SER759  ASP760  ASP761  ALA762  ILE779  LEU786  VAL792 
 PHE793  MET794  SER795  GLU796  ALA797  LYS798  CYS799  TRP800  GLU811  SER814 

> <Gold.Protein.RotatedAtoms>
  151.5194  135.1067  159.9874 H   0  0  0  0  0  0  0  0  0  0  0  0  # atno 6907 bound_to 6896
  152.4627  133.7852  159.6883 H   0  0  0  0  0  0  0  0  0  0  0  0  # atno 6908 bound_to 6896
  150.8596  133.7599  159.3022 H   0  0  0  0  0  0  0  0  0  0  0  0  # atno 6909 bound_to 6896
  145.7487  140.8919  143.0491 H   0  0  0  0  0  0  0  0  0  0  0  0  # atno 7974 bound_to 7965
  156.2360  140.2946  156.0315 H   0  0  0  0  0  0  0  0  0  0  0  0  # atno 8008 bound_to 7997
  155.2089  140.0412  157.2947 H   0  0  0  0  0  0  0  0  0  0  0  0  # atno 8009 bound_to 7997
  154.6080  140.2444  155.7713 H   0  0  0  0  0  0  0  0  0  0  0  0  # atno 8010 bound_to 7997
  139.6747  144.7123  151.1624 H   0  0  0  0  0  0  0  0  0  0  0  0  # atno 10167 bound_to 10162
  156.0010  130.5018  150.5741 H   0  0  0  0  0  0  0  0  0  0  0  0  # atno 10718 bound_to 10713
  153.2792  135.4176  155.1062 H   0  0  0  0  0  0  0  0  0  0  0  0  # atno 10763 bound_to 10752
  154.8483  135.3491  154.6135 H   0  0  0  0  0  0  0  0  0  0  0  0  # atno 10764 bound_to 10752
  153.6556  135.7050  153.5252 H   0  0  0  0  0  0  0  0  0  0  0  0  # atno 10765 bound_to 10752
  140.2586  134.7920  157.3569 H   0  0  0  0  0  0  0  0  0  0  0  0  # atno 11005 bound_to 11000
  144.6854  139.9561  143.7479 LP  0  0  0  0  0  0  0  0  0  0  0  0  # atno 17320 bound_to 7965
  146.0377  139.3393  143.0716 LP  0  0  0  0  0  0  0  0  0  0  0  0  # atno 17321 bound_to 7965
  140.7631  143.5790  150.8915 LP  0  0  0  0  0  0  0  0  0  0  0  0  # atno 17342 bound_to 10162
  139.9458  143.6329  152.3042 LP  0  0  0  0  0  0  0  0  0  0  0  0  # atno 17343 bound_to 10162
  157.3632  131.0753  151.1619 LP  0  0  0  0  0  0  0  0  0  0  0  0  # atno 17370 bound_to 10713
  157.2397  130.6564  149.5884 LP  0  0  0  0  0  0  0  0  0  0  0  0  # atno 17371 bound_to 10713
  140.1487  134.4878  155.7977 LP  0  0  0  0  0  0  0  0  0  0  0  0  # atno 17394 bound_to 11000
  141.2193  133.6853  156.7339 LP  0  0  0  0  0  0  0  0  0  0  0  0  # atno 17395 bound_to 11000

$$$$
