#       Name:                AV-unprocessed.smi:102
#       Creating user name   scv26
#       Creation time:       Thu Mar 26 17:52:04 2020


#       File generated by GOLD software.
#

@<TRIPOS>MOLECULE
AV-unprocessed.smi:102
    56    57     1
SMALL
NO_CHARGES


@<TRIPOS>ATOM
      1 ****        -1.3259   4.6866   2.7714 C.3            1 S1                 0.0000
      2 ****        -1.4949   3.4554   1.8911 C.2            1 S1                 0.0000
      3 ****        -2.2171   2.5177   2.2306 O.2            1 S1                 0.0000
      4 ****        -0.7828   3.5390   0.7527 O.3            1 S1                 0.0000
      5 ****        -0.8060   2.4762  -0.1905 C.3            1 S1                 0.0000
      6 ****         0.3140   1.4629   0.0933 C.3            1 S1                 0.0000
      7 ****        -0.0291   0.6412   1.1969 O.3            1 S1                 0.0000
      8 ****         0.7410  -0.5161   1.1455 C.3            1 S1                 0.0000
      9 ****        -0.0243  -1.6427   1.8038 N.am           1 S1                 0.0000
     10 ****        -1.4089  -1.6360   1.8332 C.2            1 S1                 0.0000
     11 ****        -2.0990  -2.6468   2.3995 C.2            1 S1                 0.0000
     12 ****        -3.4428  -2.6152   2.4126 F              1 S1                 0.0000
     13 ****        -1.3778  -3.7732   2.9901 C.2            1 S1                 0.0000
     14 ****        -2.0123  -4.6873   3.5143 O.2            1 S1                 0.0000
     15 ****        -0.0142  -3.7608   2.9291 N.pl3          1 S1                -1.0000
     16 ****         0.6885  -2.7437   2.3497 C.2            1 S1                 0.0000
     17 ****         1.9169  -2.7346   2.2653 O.2            1 S1                 0.0000
     18 ****         1.0676  -0.7854  -0.3382 C.3            1 S1                 0.0000
     19 ****         0.4362  -1.9647  -0.8278 O.3            1 S1                 0.0000
     20 ****         0.9254  -2.6003  -1.9040 C.2            1 S1                 0.0000
     21 ****         0.1312  -3.8539  -2.2440 C.3            1 S1                 0.0000
     22 ****         1.8963  -2.2505  -2.5755 O.2            1 S1                 0.0000
     23 ****         0.5135   0.4512  -1.0380 C.3            1 S1                 0.0000
     24 ****         1.4652   0.9139  -1.9879 O.3            1 S1                 0.0000
     25 ****         1.0647   1.4000  -3.1746 C.2            1 S1                 0.0000
     26 ****         2.2351   1.8220  -4.0524 C.3            1 S1                 0.0000
     27 ****        -0.0993   1.5137  -3.5586 O.2            1 S1                 0.0000
     28 ****        -1.7717   5.5584   2.2923 H              1 S1                 0.0000
     29 ****        -0.2685   4.8878   2.9439 H              1 S1                 0.0000
     30 ****        -1.8104   4.5370   3.7365 H              1 S1                 0.0000
     31 ****        -1.7807   1.9873  -0.2302 H              1 S1                 0.0000
     32 ****        -0.6448   2.9223  -1.1716 H              1 S1                 0.0000
     33 ****         1.2556   1.9710   0.3103 H              1 S1                 0.0000
     34 ****         1.6333  -0.3493   1.7514 H              1 S1                 0.0000
     35 ****        -1.9557  -0.8162   1.3914 H              1 S1                 0.0000
     36 ****         2.1539  -0.8494  -0.4237 H              1 S1                 0.0000
     37 ****         0.2122  -4.5817  -1.4364 H              1 S1                 0.0000
     38 ****         0.5063  -4.3098  -3.1604 H              1 S1                 0.0000
     39 ****        -0.9214  -3.6086  -2.3854 H              1 S1                 0.0000
     40 ****        -0.4500   0.2046  -1.4880 H              1 S1                 0.0000
     41 ****         2.6889   0.9481  -4.5200 H              1 S1                 0.0000
     42 ****         2.9941   2.3322  -3.4589 H              1 S1                 0.0000
     43 ****         1.8987   2.4995  -4.8372 H              1 S1                 0.0000
     44 ****        -2.7081   2.5544   3.1009 LP             1 S1                 0.0000
     45 ****        -2.3127   1.7194   1.6359 LP             1 S1                 0.0000
     46 ****        -0.9991   0.4026   1.1504 LP             1 S1                 0.0000
     47 ****         0.1535   1.1296   2.0501 LP             1 S1                 0.0000
     48 ****        -3.0116  -4.6554   3.5336 LP             1 S1                 0.0000
     49 ****        -1.5289  -5.4624   3.9211 LP             1 S1                 0.0000
     50 ****         0.4906  -4.5280   3.3249 LP             1 S1                 0.0000
     51 ****         2.3820  -1.9679   1.8228 LP             1 S1                 0.0000
     52 ****         2.4494  -3.4940   2.6391 LP             1 S1                 0.0000
     53 ****         2.3988  -1.4206  -2.3334 LP             1 S1                 0.0000
     54 ****         2.1823  -2.7964  -3.3631 LP             1 S1                 0.0000
     55 ****        -0.8519   1.2300  -2.9643 LP             1 S1                 0.0000
     56 ****        -0.2924   1.8896  -4.4649 LP             1 S1                 0.0000
@<TRIPOS>BOND
    1    1    2 1     
    2    1   28 1     
    3    1   29 1     
    4    1   30 1     
    5    2    3 2     
    6    2    4 1     
    7    4    5 1     
    8    5    6 1     
    9    5   31 1     
   10    5   32 1     
   11    6   23 1     
   12    6    7 1     
   13    6   33 1     
   14    7    8 1     
   15    8    9 1     
   16    8   18 1     
   17    8   34 1     
   18    9   16 am    
   19    9   10 1     
   20   10   11 2     
   21   10   35 1     
   22   11   12 1     
   23   11   13 1     
   24   13   14 2     
   25   13   15 1     
   26   15   16 1     
   27   16   17 2     
   28   18   19 1     
   29   18   23 1     
   30   18   36 1     
   31   19   20 1     
   32   20   21 1     
   33   20   22 2     
   34   21   37 1     
   35   21   38 1     
   36   21   39 1     
   37   23   24 1     
   38   23   40 1     
   39   24   25 1     
   40   25   26 1     
   41   25   27 2     
   42   26   41 1     
   43   26   42 1     
   44   26   43 1     
   45    3   44 1     
   46    3   45 1     
   47    7   46 1     
   48    7   47 1     
   49   14   48 1     
   50   14   49 1     
   51   15   50 1     
   52   17   51 1     
   53   17   52 1     
   54   22   53 1     
   55   22   54 1     
   56   27   55 1     
   57   27   56 1     
@<TRIPOS>SUBSTRUCTURE
      1 S1             1
@<TRIPOS>SET
LONE_PAIRS      STATIC     ATOMS    <user>   **** ""
13 44 45 46 47 48 49 50 51 52 53 54 55 56
ATOM$BLUE        STATIC     ATOMS    COLORGROUP SYSTEM
13 44 45 46 47 48 49 50 51 52 53 54 55 56
