AV-unprocessed.smi:3128|AV-procd|sdf|11919|dock9
  -GOLD-   2272017303D 1   1.00000     0.00000
 Structure written by MMmdl.
 40 40  0  0  0  0  0  0  0  0  2 V2000
  144.6029  134.5033  150.4613 C   0  0  0  0  0  0  0  0  0  0  0  0
  145.5703  133.8723  151.4816 C   0  0  0  0  0  0  0  0  0  0  0  0
  145.0325  132.4959  151.9130 C   0  0  0  0  0  0  0  0  0  0  0  0
  145.8387  134.8074  152.6908 C   0  0  1  0  0  0  0  0  0  0  0  0
  146.8356  134.2229  153.7075 C   0  0  0  0  0  0  0  0  0  0  0  0
  146.3582  136.0952  152.2292 N   0  0  0  0  0  0  0  0  0  0  0  0
  145.7299  137.2782  152.3185 C   0  0  0  0  0  0  0  0  0  0  0  0
  144.6127  137.4205  152.8166 O   0  0  0  0  0  0  0  0  0  0  0  0
  146.4955  138.4844  151.7724 C   0  0  0  0  0  0  0  0  0  0  0  0
  147.8545  138.5879  152.3420 N   0  3  0  0  0  0  0  0  0  0  0  0
  147.8868  139.1044  153.7238 C   0  0  0  0  0  0  0  0  0  0  0  0
  149.2444  138.8309  154.3867 C   0  0  0  0  0  0  0  0  0  0  0  0
  149.6315  139.9082  155.2769 N   0  0  0  0  0  0  0  0  0  0  0  0
  148.9191  140.4576  156.3225 C   0  0  0  0  0  0  0  0  0  0  0  0
  149.6910  141.4451  156.8645 C   0  0  0  0  0  0  0  0  0  0  0  0
  150.8741  141.4224  156.0740 C   0  0  0  0  0  0  0  0  0  0  0  0
  150.8352  140.5011  155.1245 N   0  0  0  0  0  0  0  0  0  0  0  0
  143.6436  134.7408  150.9225 H   0  0  0  0  0  0  0  0  0  0  0  0
  144.4109  133.8241  149.6301 H   0  0  0  0  0  0  0  0  0  0  0  0
  145.0033  135.4222  150.0328 H   0  0  0  0  0  0  0  0  0  0  0  0
  146.5173  133.7035  150.9666 H   0  0  0  0  0  0  0  0  0  0  0  0
  144.1179  132.5929  152.4989 H   0  0  0  0  0  0  0  0  0  0  0  0
  145.7584  131.9457  152.5111 H   0  0  0  0  0  0  0  0  0  0  0  0
  144.8052  131.8744  151.0462 H   0  0  0  0  0  0  0  0  0  0  0  0
  144.8890  134.9604  153.2071 H   0  0  0  0  0  0  0  0  0  0  0  0
  146.4459  133.3248  154.1861 H   0  0  0  0  0  0  0  0  0  0  0  0
  147.0470  134.9374  154.5037 H   0  0  0  0  0  0  0  0  0  0  0  0
  147.7832  133.9664  153.2324 H   0  0  0  0  0  0  0  0  0  0  0  0
  147.2762  136.0807  151.8088 H   0  0  0  0  0  0  0  0  0  0  0  0
  146.5613  138.3938  150.6874 H   0  0  0  0  0  0  0  0  0  0  0  0
  145.9420  139.3985  151.9930 H   0  0  0  0  0  0  0  0  0  0  0  0
  148.2754  137.6699  152.3276 H   0  0  0  0  0  0  0  0  0  0  0  0
  147.6845  140.1764  153.7067 H   0  0  0  0  0  0  0  0  0  0  0  0
  147.0902  138.6344  154.3021 H   0  0  0  0  0  0  0  0  0  0  0  0
  149.2080  137.9035  154.9601 H   0  0  0  0  0  0  0  0  0  0  0  0
  150.0229  138.7074  153.6322 H   0  0  0  0  0  0  0  0  0  0  0  0
  147.9337  140.1059  156.5904 H   0  0  0  0  0  0  0  0  0  0  0  0
  149.4486  142.0858  157.6993 H   0  0  0  0  0  0  0  0  0  0  0  0
  151.7535  142.0435  156.1616 H   0  0  0  0  0  0  0  0  0  0  0  0
  148.4007  139.2006  151.7527 H   0  0  0  0  0  0  0  0  0  0  0  0
  1  2  1  0  0  0  0
  1 18  1  0  0  0  0
  1 19  1  0  0  0  0
  1 20  1  0  0  0  0
  2  3  1  0  0  0  0
  2  4  1  0  0  0  0
  2 21  1  0  0  0  0
  3 22  1  0  0  0  0
  3 23  1  0  0  0  0
  3 24  1  0  0  0  0
  4  5  1  0  0  0  0
  4  6  1  0  0  0  0
  4 25  1  0  0  0  0
  5 26  1  0  0  0  0
  5 27  1  0  0  0  0
  5 28  1  0  0  0  0
  6  7  1  0  0  0  0
  6 29  1  0  0  0  0
  7  8  2  0  0  0  0
  7  9  1  0  0  0  0
  9 10  1  0  0  0  0
  9 30  1  0  0  0  0
  9 31  1  0  0  0  0
 10 11  1  0  0  0  0
 10 32  1  0  0  0  0
 10 40  1  0  0  0  0
 11 12  1  0  0  0  0
 11 33  1  0  0  0  0
 11 34  1  0  0  0  0
 12 13  1  0  0  0  0
 12 35  1  0  0  0  0
 12 36  1  0  0  0  0
 13 17  1  0  0  0  0
 13 14  1  0  0  0  0
 14 15  2  0  0  0  0
 14 37  1  0  0  0  0
 15 16  1  0  0  0  0
 15 38  1  0  0  0  0
 16 17  2  0  0  0  0
 16 39  1  0  0  0  0
M  CHG  1  10   1
M  END
> <s_m_source_file>
AV-unprocessed.smi

> <i_m_source_file_index>
3128

> <i_lp_mmshare_version>
43012

> <i_f3d_flags>
0

> <s_epik_input>
W0NIM11bQ0hdKFtDSDNdKVtDQEhdKFtDSDNdKVtOSF1DKD1PKVtDSDJdW05IXVtDSDJdW0NIMl1uMVtjSF1bY0hdW2NIXW4x

> <s_epik_cmdline>
J2VwaWtfcHl0aG9uJywgJy1waCcsICc3LjAnLCAnLXRuJywgJzgnLCAnLW1hJywgJzIwMCcsICctbWV0YWxfYmluZGluZycsICctaW1hZScsICc8aW5maWxlLm1hZT4nLCAnLW9tYWUnLCAnPG91dGZpbGUubWFlPic=

> <r_lp_tautomer_probability>
1

> <r_epik_Ionization_Penalty>
0.20724

> <r_epik_Ionization_Penalty_Charging>
0.207237

> <r_epik_Ionization_Penalty_Neutral>
3.20642e-06

> <r_epik_State_Penalty>
0.197613

> <r_epik_Charging_Adjusted_Penalty>
0.40485

> <i_epik_Tot_Q>
1

> <i_epik_Tot_abs_Q>
1

> <r_epik_Metal_State_Penalty>
0.197789

> <b_epik_Metal_Only>
0

> <s_lp_Force_Field>
OPLS_2005

> <r_lp_Energy>
4.49363

> <b_lp_Chiralities_Consistent>
1

> <s_lp_Variant>
AV-unprocessed.smi:3128-2

> <Gold.Version>
5.8.1

> <Gold.Id.Protein>
6NUR|6NUR_protein|mol2

> <Gold.PLP.Fitness>
43.7335

> <Gold.PLP.PLP>
-29.5988

> <Gold.PLP.part.hbond>
-3.9171

> <Gold.PLP.part.metal>
0.0000

> <Gold.PLP.part.buried>
-3.5528

> <Gold.PLP.part.nonpolar>
-22.1906

> <Gold.PLP.part.repulsive>
0.3864

> <Gold.PLP.ligand.clash>
0.0000

> <Gold.PLP.ligand.torsion>
0.4833

> <Gold.PLP.Chemscore.Hbond>
4.9913

> <Gold.PLP.Chemscore.CHOScore>
0.0000

> <Gold.PLP.Chemscore.Metal>
0.0000

> <Gold.Chemscore.Hbonds>
donor molecule, donor type, donor heavy atom, donor atom, acceptor molecule, acceptor atom, score
      L1  H     6    29       P1  7948  1.00
      L1  H    10    32       P1  7948  2.00
      L1  H    10    40       P1  7957  1.00
      P1  H  7989  7998       L1    17  1.00

> <Gold.PLP.Chemscore.Internal.Correction>
0.1275

> <Gold.Rescore>
     Score         DG    S(hbond)    S(metal)    S(lipo)     H(rot)  DE(clash)    DE(int)     intcor
     18.93     -19.41       3.80        0.00      59.64       2.24       0.01       0.47       ----

> <Gold.Chemscore.Fitness>
18.9273

> <Gold.Chemscore.DG>
-19.4088

> <Gold.Chemscore.ZeroCoef>
-5.4800

> <Gold.Chemscore.Hbond>
3.7993

> <Gold.Chemscore.Metal>
0.0000

> <Gold.Chemscore.Lipo>
59.6371

> <Gold.Chemscore.Internal_Hbond>
0.0000

> <Gold.Chemscore.DEClash>
0.0077

> <Gold.Chemscore.DEInternal>
0.4738

> <Gold.Chemscore.Rot>
2.2416

> <Gold.Chemscore.Internal.Correction>
   9.000000E+99

> <Gold.Chemscore.Hbonds>
donor molecule, donor type, donor heavy atom, donor atom, acceptor molecule, acceptor atom, score
      L1  H     6    29       P1  7948  0.98
      L1  H    10    32       P1  7948  0.99
      L1  H    10    40       P1  7957  0.92
      P1  H  7989  7998       L1    17  0.90

> <Gold.Chemscore.Hbond.Weighted>
-12.6898

> <Gold.Chemscore.Metal.Weighted>
-0.0000

> <Gold.Chemscore.Lipo.Weighted>
-6.9775

> <Gold.Chemscore.Internal_Hbond.Weighted>
0.0000

> <Gold.Chemscore.DEClash.Weighted>
0.0077

> <Gold.Chemscore.DEInternal.Weighted>
0.4738

> <Gold.Chemscore.Rot.Weighted>
5.7385

> <Gold.Chemscore.Internal.Correction.Weighted>
   9.000000E+99

> <Gold.Protein.RotatedTorsions>
[ 6907 6896 6895 6894 ] final  164.64 input  -60.11 | X-H torsion
[ 7974 7965 7964 7962 ] final   83.05 input  175.53 | X-H torsion
[ 8008 7997 7996 7995 ] final   13.76 input   59.86 | X-H torsion
[ 10167 10162 10161 10158 ] final   94.17 input  -65.29 | X-H torsion
[ 10718 10713 10712 10709 ] final -168.82 input   66.30 | X-H torsion
[ 10763 10752 10751 10750 ] final -125.07 input  -60.55 | X-H torsion
[ 11005 11000 10999 10996 ] final  -81.30 input  -57.11 | X-H torsion

> <Gold.Protein.ActiveResidues>
 VAL166  LYS551  ARG553  GLY616  TRP617  ASP618  TYR619  PRO620  LYS621  CYS622 
 ASP623  PHE694  ASN695  SER759  ASP760  ASP761  ALA762  ILE779  LEU786  VAL792 
 PHE793  MET794  SER795  GLU796  ALA797  LYS798  CYS799  TRP800  GLU811  SER814 

> <Gold.Protein.RotatedAtoms>
  151.9067  133.3551  159.3849 H   0  0  0  0  0  0  0  0  0  0  0  0  # atno 6907 bound_to 6896
  150.7067  134.4773  159.5463 H   0  0  0  0  0  0  0  0  0  0  0  0  # atno 6908 bound_to 6896
  152.2372  134.8264  160.0516 H   0  0  0  0  0  0  0  0  0  0  0  0  # atno 6909 bound_to 6896
  145.6171  139.2379  143.2159 H   0  0  0  0  0  0  0  0  0  0  0  0  # atno 7974 bound_to 7965
  154.8389  140.2911  155.5672 H   0  0  0  0  0  0  0  0  0  0  0  0  # atno 8008 bound_to 7997
  156.3010  140.2517  156.3260 H   0  0  0  0  0  0  0  0  0  0  0  0  # atno 8009 bound_to 7997
  154.9147  140.0387  157.1955 H   0  0  0  0  0  0  0  0  0  0  0  0  # atno 8010 bound_to 7997
  139.8109  144.6774  150.9642 H   0  0  0  0  0  0  0  0  0  0  0  0  # atno 10167 bound_to 10162
  156.7024  130.9202  151.3081 H   0  0  0  0  0  0  0  0  0  0  0  0  # atno 10718 bound_to 10713
  154.8731  135.4042  154.3208 H   0  0  0  0  0  0  0  0  0  0  0  0  # atno 10763 bound_to 10752
  153.4037  135.7019  153.6413 H   0  0  0  0  0  0  0  0  0  0  0  0  # atno 10764 bound_to 10752
  153.5145  135.3700  155.2573 H   0  0  0  0  0  0  0  0  0  0  0  0  # atno 10765 bound_to 10752
  141.1667  133.7190  156.8401 H   0  0  0  0  0  0  0  0  0  0  0  0  # atno 11005 bound_to 11000
  146.1460  140.6992  142.9344 LP  0  0  0  0  0  0  0  0  0  0  0  0  # atno 17320 bound_to 7965
  144.7246  140.4484  143.6982 LP  0  0  0  0  0  0  0  0  0  0  0  0  # atno 17321 bound_to 7965
  140.7818  143.4186  151.0877 LP  0  0  0  0  0  0  0  0  0  0  0  0  # atno 17342 bound_to 10162
  139.7853  143.8297  152.3144 LP  0  0  0  0  0  0  0  0  0  0  0  0  # atno 17343 bound_to 10162
  157.6968  130.9290  150.0667 LP  0  0  0  0  0  0  0  0  0  0  0  0  # atno 17370 bound_to 10713
  156.1719  130.3647  149.9153 LP  0  0  0  0  0  0  0  0  0  0  0  0  # atno 17371 bound_to 10713
  140.1989  134.8911  157.3146 LP  0  0  0  0  0  0  0  0  0  0  0  0  # atno 17394 bound_to 11000
  140.2209  134.4025  155.7566 LP  0  0  0  0  0  0  0  0  0  0  0  0  # atno 17395 bound_to 11000

$$$$
