AV-unprocessed.smi:284|AV-procd|sdf|2161|dock5
  -GOLD-   2262021513D 1   1.00000     0.00000
 Structure written by MMmdl.
 60 62  0  0  0  0  0  0  0  0  1 V2000
  156.0364  132.6967  156.8910 C   0  0  0  0  0  0  0  0  0  0  0  0
  155.9833  134.1977  157.1300 C   0  0  0  0  0  0  0  0  0  0  0  0
  156.6898  135.0720  156.3772 C   0  0  0  0  0  0  0  0  0  0  0  0
  156.6645  136.4437  156.5624 N   0  0  0  0  0  0  0  0  0  0  0  0
  157.5473  137.3750  155.7528 C   0  0  2  0  0  0  0  0  0  0  0  0
  156.7825  138.3251  154.8195 C   0  0  0  0  0  0  0  0  0  0  0  0
  157.0626  137.7293  153.4510 C   0  0  1  0  0  0  0  0  0  0  0  0
  157.0560  138.7334  152.4564 O   0  0  0  0  0  0  0  0  0  0  0  0
  158.4485  137.1075  153.6449 C   0  0  2  0  0  0  0  0  0  0  0  0
  158.7565  135.9744  152.6543 C   0  0  0  0  0  0  0  0  0  0  0  0
  160.1505  135.7721  152.5653 O   0  0  0  0  0  0  0  0  0  0  0  0
  158.3891  136.5864  154.9693 O   0  0  0  0  0  0  0  0  0  0  0  0
  155.9501  136.9744  157.6587 C   0  0  0  0  0  0  0  0  0  0  0  0
  155.9929  138.1784  157.9217 O   0  0  0  0  0  0  0  0  0  0  0  0
  155.1804  136.0914  158.4496 N   0  0  0  0  0  0  0  0  0  0  0  0
  154.4012  136.6479  159.5787 C   0  0  0  0  0  0  0  0  0  0  0  0
  153.5785  137.8937  159.2123 C   0  0  0  0  0  0  0  0  0  0  0  0
  152.7047  137.8349  158.3463 O   0  0  0  0  0  0  0  0  0  0  0  0
  153.9156  139.0118  159.8808 N   0  0  0  0  0  0  0  0  0  0  0  0
  153.3451  140.3104  159.7910 C   0  0  0  0  0  0  0  0  0  0  0  0
  153.6551  141.3678  160.6770 C   0  0  0  0  0  0  0  0  0  0  0  0
  153.0661  142.6359  160.5078 C   0  0  0  0  0  0  0  0  0  0  0  0
  152.1606  142.8837  159.4467 C   0  0  0  0  0  0  0  0  0  0  0  0
  151.4994  144.2583  159.2285 C   0  0  0  0  0  0  0  0  0  0  0  0
  151.9672  145.2356  160.3265 C   0  0  0  0  0  0  0  0  0  0  0  0
  149.9559  144.2002  159.2784 C   0  0  0  0  0  0  0  0  0  0  0  0
  151.9006  144.8154  157.8464 C   0  0  0  0  0  0  0  0  0  0  0  0
  151.8710  141.8218  158.5579 C   0  0  0  0  0  0  0  0  0  0  0  0
  152.4584  140.5538  158.7247 C   0  0  0  0  0  0  0  0  0  0  0  0
  155.1525  134.6933  158.2284 C   0  0  0  0  0  0  0  0  0  0  0  0
  154.4719  133.9566  158.9450 O   0  0  0  0  0  0  0  0  0  0  0  0
  156.6766  132.4412  156.0462 H   0  0  0  0  0  0  0  0  0  0  0  0
  155.0391  132.3084  156.6815 H   0  0  0  0  0  0  0  0  0  0  0  0
  156.4260  132.1844  157.7713 H   0  0  0  0  0  0  0  0  0  0  0  0
  157.3116  134.6591  155.5999 H   0  0  0  0  0  0  0  0  0  0  0  0
  158.1278  137.9535  156.4724 H   0  0  0  0  0  0  0  0  0  0  0  0
  155.7265  138.4251  155.0704 H   0  0  0  0  0  0  0  0  0  0  0  0
  157.2406  139.3118  154.9069 H   0  0  0  0  0  0  0  0  0  0  0  0
  156.3287  136.9611  153.2071 H   0  0  0  0  0  0  0  0  0  0  0  0
  157.9502  138.9526  152.2424 H   0  0  0  0  0  0  0  0  0  0  0  0
  159.2093  137.8899  153.6049 H   0  0  0  0  0  0  0  0  0  0  0  0
  158.2540  135.0499  152.9408 H   0  0  0  0  0  0  0  0  0  0  0  0
  158.4030  136.2392  151.6576 H   0  0  0  0  0  0  0  0  0  0  0  0
  160.3289  135.2328  151.8101 H   0  0  0  0  0  0  0  0  0  0  0  0
  153.7269  135.8946  159.9898 H   0  0  0  0  0  0  0  0  0  0  0  0
  155.0506  136.9010  160.4182 H   0  0  0  0  0  0  0  0  0  0  0  0
  154.7163  138.9337  160.4907 H   0  0  0  0  0  0  0  0  0  0  0  0
  154.3554  141.2363  161.4871 H   0  0  0  0  0  0  0  0  0  0  0  0
  153.3368  143.4068  161.2120 H   0  0  0  0  0  0  0  0  0  0  0  0
  151.5026  146.2154  160.2102 H   0  0  0  0  0  0  0  0  0  0  0  0
  153.0462  145.3897  160.3066 H   0  0  0  0  0  0  0  0  0  0  0  0
  151.7072  144.8661  161.3193 H   0  0  0  0  0  0  0  0  0  0  0  0
  149.5954  143.8507  160.2467 H   0  0  0  0  0  0  0  0  0  0  0  0
  149.5518  143.5417  158.5083 H   0  0  0  0  0  0  0  0  0  0  0  0
  149.5185  145.1859  159.1153 H   0  0  0  0  0  0  0  0  0  0  0  0
  151.4285  145.7797  157.6553 H   0  0  0  0  0  0  0  0  0  0  0  0
  151.5986  144.1393  157.0458 H   0  0  0  0  0  0  0  0  0  0  0  0
  152.9765  144.9665  157.7595 H   0  0  0  0  0  0  0  0  0  0  0  0
  151.1925  141.9712  157.7315 H   0  0  0  0  0  0  0  0  0  0  0  0
  152.2193  139.7638  158.0279 H   0  0  0  0  0  0  0  0  0  0  0  0
  1  2  1  0  0  0  0
  1 32  1  0  0  0  0
  1 33  1  0  0  0  0
  1 34  1  0  0  0  0
  2 30  1  0  0  0  0
  2  3  2  0  0  0  0
  3  4  1  0  0  0  0
  3 35  1  0  0  0  0
  4  5  1  0  0  0  0
  4 13  1  0  0  0  0
  5 12  1  0  0  0  0
  5  6  1  0  0  0  0
  5 36  1  0  0  0  0
  6  7  1  0  0  0  0
  6 37  1  0  0  0  0
  6 38  1  0  0  0  0
  7  8  1  0  0  0  0
  7  9  1  0  0  0  0
  7 39  1  0  0  0  0
  8 40  1  0  0  0  0
  9 10  1  0  0  0  0
  9 12  1  0  0  0  0
  9 41  1  0  0  0  0
 10 11  1  0  0  0  0
 10 42  1  0  0  0  0
 10 43  1  0  0  0  0
 11 44  1  0  0  0  0
 13 14  2  0  0  0  0
 13 15  1  0  0  0  0
 15 16  1  0  0  0  0
 15 30  1  0  0  0  0
 16 17  1  0  0  0  0
 16 45  1  0  0  0  0
 16 46  1  0  0  0  0
 17 18  2  0  0  0  0
 17 19  1  0  0  0  0
 19 20  1  0  0  0  0
 19 47  1  0  0  0  0
 20 29  1  0  0  0  0
 20 21  2  0  0  0  0
 21 22  1  0  0  0  0
 21 48  1  0  0  0  0
 22 23  2  0  0  0  0
 22 49  1  0  0  0  0
 23 24  1  0  0  0  0
 23 28  1  0  0  0  0
 24 25  1  0  0  0  0
 24 26  1  0  0  0  0
 24 27  1  0  0  0  0
 25 50  1  0  0  0  0
 25 51  1  0  0  0  0
 25 52  1  0  0  0  0
 26 53  1  0  0  0  0
 26 54  1  0  0  0  0
 26 55  1  0  0  0  0
 27 56  1  0  0  0  0
 27 57  1  0  0  0  0
 27 58  1  0  0  0  0
 28 29  2  0  0  0  0
 28 59  1  0  0  0  0
 29 60  1  0  0  0  0
 30 31  2  0  0  0  0
M  END
> <s_m_source_file>
AV-unprocessed.smi

> <i_m_source_file_index>
284

> <i_lp_mmshare_version>
43012

> <i_f3d_flags>
0

> <s_epik_input>
W09IXVtDSDJdW0NAQEhdKE8xKVtDQEhdKFtPSF0pW0NIMl1bQ0BIXTFuKFtjSF1jMltDSDNdKWMoPU8pbihjMj1PKVtDSDJdQyg9TylbTkhdYzNbY0hdW2NIXWMoQyhbQ0gzXSkoW0NIM10pW0NIM10pW2NIXVtjSF0z

> <s_epik_cmdline>
J2VwaWtfcHl0aG9uJywgJy1waCcsICc3LjAnLCAnLXRuJywgJzgnLCAnLW1hJywgJzIwMCcsICctbWV0YWxfYmluZGluZycsICctaW1hZScsICc8aW5maWxlLm1hZT4nLCAnLW9tYWUnLCAnPG91dGZpbGUubWFlPic=

> <r_lp_tautomer_probability>
1

> <r_epik_Ionization_Penalty>
4.92358e-06

> <r_epik_Ionization_Penalty_Charging>
1.29777e-07

> <r_epik_Ionization_Penalty_Neutral>
4.79381e-06

> <r_epik_State_Penalty>
-0

> <r_epik_Charging_Adjusted_Penalty>
1.29777e-07

> <i_epik_Tot_Q>
0

> <i_epik_Tot_abs_Q>
0

> <r_epik_Metal_State_Penalty>
-0

> <b_epik_Metal_Only>
0

> <s_epik_Chemistry_Notes>
This compound contains an acetal/aminal-like group ( X-CH(R)-Y where X, Y are N, S, or O) that may be acid/base labile, releasing an aldehyde.

> <s_lp_Force_Field>
OPLS_2005

> <r_lp_Energy>
40.5501

> <b_lp_Chiralities_Consistent>
1

> <s_lp_Variant>
AV-unprocessed.smi:284-5

> <Gold.Version>
5.8.1

> <Gold.Id.Protein>
6NUR|6NUR_protein|mol2

> <Gold.PLP.Fitness>
55.7729

> <Gold.PLP.PLP>
-51.5368

> <Gold.PLP.part.hbond>
-3.0000

> <Gold.PLP.part.metal>
0.0000

> <Gold.PLP.part.buried>
-6.8228

> <Gold.PLP.part.nonpolar>
-41.6424

> <Gold.PLP.part.repulsive>
0.2031

> <Gold.PLP.ligand.clash>
0.0000

> <Gold.PLP.ligand.torsion>
0.6386

> <Gold.PLP.Chemscore.Hbond>
1.7593

> <Gold.PLP.Chemscore.CHOScore>
0.0000

> <Gold.PLP.Chemscore.Metal>
0.0000

> <Gold.Chemscore.Hbonds>
donor molecule, donor type, donor heavy atom, donor atom, acceptor molecule, acceptor atom, score
      P1  H  6896  6909       L1    31  0.94
      P1  H  7997  8008       L1    14  0.75

> <Gold.PLP.Chemscore.Internal.Correction>
0.2356

> <Gold.Rescore>
     Score         DG    S(hbond)    S(metal)    S(lipo)     H(rot)  DE(clash)    DE(int)     intcor
     15.70     -19.24       1.48        0.00     147.01       3.27       0.03       3.52       ----

> <Gold.Chemscore.Fitness>
15.6969

> <Gold.Chemscore.DG>
-19.2418

> <Gold.Chemscore.ZeroCoef>
-5.4800

> <Gold.Chemscore.Hbond>
1.4797

> <Gold.Chemscore.Metal>
0.0000

> <Gold.Chemscore.Lipo>
147.0053

> <Gold.Chemscore.Internal_Hbond>
0.0000

> <Gold.Chemscore.DEClash>
0.0259

> <Gold.Chemscore.DEInternal>
3.5191

> <Gold.Chemscore.Rot>
3.2735

> <Gold.Chemscore.Internal.Correction>
   9.000000E+99

> <Gold.Chemscore.Hbonds>
donor molecule, donor type, donor heavy atom, donor atom, acceptor molecule, acceptor atom, score
      P1  H  6896  6909       L1    31  0.90
      P1  H  7997  8008       L1    14  0.74

> <Gold.Chemscore.Hbond.Weighted>
-4.9423

> <Gold.Chemscore.Metal.Weighted>
-0.0000

> <Gold.Chemscore.Lipo.Weighted>
-17.1996

> <Gold.Chemscore.Internal_Hbond.Weighted>
0.0000

> <Gold.Chemscore.DEClash.Weighted>
0.0259

> <Gold.Chemscore.DEInternal.Weighted>
3.5191

> <Gold.Chemscore.Rot.Weighted>
8.3801

> <Gold.Chemscore.Internal.Correction.Weighted>
   9.000000E+99

> <Gold.Protein.RotatedTorsions>
[ 6907 6896 6895 6894 ] final -131.12 input  -60.11 | X-H torsion
[ 7974 7965 7964 7962 ] final  -61.50 input  175.53 | X-H torsion
[ 8008 7997 7996 7995 ] final -146.77 input   59.86 | X-H torsion
[ 10167 10162 10161 10158 ] final  127.43 input  -65.29 | X-H torsion
[ 10718 10713 10712 10709 ] final   39.24 input   66.30 | X-H torsion
[ 10763 10752 10751 10750 ] final   80.98 input  -60.55 | X-H torsion
[ 11005 11000 10999 10996 ] final  141.73 input  -57.11 | X-H torsion

> <Gold.Protein.ActiveResidues>
 VAL166  LYS551  ARG553  GLY616  TRP617  ASP618  TYR619  PRO620  LYS621  CYS622 
 ASP623  PHE694  ASN695  SER759  ASP760  ASP761  ALA762  ILE779  LEU786  VAL792 
 PHE793  MET794  SER795  GLU796  ALA797  LYS798  CYS799  TRP800  GLU811  SER814 

> <Gold.Protein.RotatedAtoms>
  150.9474  133.6587  159.2778 H   0  0  0  0  0  0  0  0  0  0  0  0  # atno 6907 bound_to 6896
  151.3955  135.0961  159.9549 H   0  0  0  0  0  0  0  0  0  0  0  0  # atno 6908 bound_to 6896
  152.5095  133.8979  159.7481 H   0  0  0  0  0  0  0  0  0  0  0  0  # atno 6909 bound_to 6896
  145.8027  140.8645  143.0223 H   0  0  0  0  0  0  0  0  0  0  0  0  # atno 7974 bound_to 7965
  155.5647  140.0628  157.2820 H   0  0  0  0  0  0  0  0  0  0  0  0  # atno 8008 bound_to 7997
  154.4379  140.1879  156.0864 H   0  0  0  0  0  0  0  0  0  0  0  0  # atno 8009 bound_to 7997
  156.0420  140.3294  155.7259 H   0  0  0  0  0  0  0  0  0  0  0  0  # atno 8010 bound_to 7997
  139.5578  144.6861  151.4130 H   0  0  0  0  0  0  0  0  0  0  0  0  # atno 10167 bound_to 10162
  157.3682  130.7687  149.7099 H   0  0  0  0  0  0  0  0  0  0  0  0  # atno 10718 bound_to 10713
  153.1079  135.4782  154.8983 H   0  0  0  0  0  0  0  0  0  0  0  0  # atno 10763 bound_to 10752
  154.7449  135.3091  154.8664 H   0  0  0  0  0  0  0  0  0  0  0  0  # atno 10764 bound_to 10752
  153.9262  135.6849  153.4800 H   0  0  0  0  0  0  0  0  0  0  0  0  # atno 10765 bound_to 10752
  140.0423  134.9298  157.0866 H   0  0  0  0  0  0  0  0  0  0  0  0  # atno 11005 bound_to 11000
  144.6767  140.0282  143.7483 LP  0  0  0  0  0  0  0  0  0  0  0  0  # atno 17320 bound_to 7965
  145.9860  139.2978  143.1013 LP  0  0  0  0  0  0  0  0  0  0  0  0  # atno 17321 bound_to 7965
  140.6854  143.7986  150.7179 LP  0  0  0  0  0  0  0  0  0  0  0  0  # atno 17342 bound_to 10162
  140.1452  143.4406  152.2168 LP  0  0  0  0  0  0  0  0  0  0  0  0  # atno 17343 bound_to 10162
  155.9750  130.4095  150.3880 LP  0  0  0  0  0  0  0  0  0  0  0  0  # atno 17370 bound_to 10713
  157.1967  131.0428  151.2672 LP  0  0  0  0  0  0  0  0  0  0  0  0  # atno 17371 bound_to 10713
  140.4049  134.2043  155.7163 LP  0  0  0  0  0  0  0  0  0  0  0  0  # atno 17394 bound_to 11000
  141.1889  133.8250  157.0976 LP  0  0  0  0  0  0  0  0  0  0  0  0  # atno 17395 bound_to 11000

$$$$
