AV-unprocessed.smi:544|AV-procd|sdf|2880|dock3
  -GOLD-   2262023373D 1   1.00000     0.00000
 Structure written by MMmdl.
 48 50  0  0  0  0  0  0  0  0  2 V2000
  154.8885  136.6501  155.6508 C   0  0  0  0  0  0  0  0  0  0  0  0
  153.3719  136.4702  155.5547 C   0  0  0  0  0  0  0  0  0  0  0  0
  152.8032  136.7691  156.8167 O   0  0  0  0  0  0  0  0  0  0  0  0
  151.3873  136.7271  156.8213 C   0  0  0  0  0  0  0  0  0  0  0  0
  150.8189  137.4388  158.0673 C   0  0  0  0  0  0  0  0  0  0  0  0
  149.3807  137.6947  157.9788 N   0  0  0  0  0  0  0  0  0  0  0  0
  148.3750  137.2940  158.8163 C   0  0  0  0  0  0  0  0  0  0  0  0
  148.5614  136.5530  159.9974 N   0  0  0  0  0  0  0  0  0  0  0  0
  149.6880  136.5544  160.9342 C   0  0  0  0  0  0  0  0  0  0  0  0
  149.2374  136.8765  162.3701 C   0  0  0  0  0  0  0  0  0  0  0  0
  148.1982  135.8543  162.8460 C   0  0  0  0  0  0  0  0  0  0  0  0
  147.0619  135.7374  161.8170 C   0  0  2  0  0  0  0  0  0  0  0  0
  146.0559  134.6480  162.2117 C   0  0  0  0  0  0  0  0  0  0  0  0
  147.6471  135.4832  160.4125 C   0  0  0  0  0  0  0  0  0  0  0  0
  147.1634  137.7151  158.4434 N   0  0  0  0  0  0  0  0  0  0  0  0
  147.4065  138.4488  157.2974 C   0  0  0  0  0  0  0  0  0  0  0  0
  148.7341  138.4806  157.0108 C   0  0  0  0  0  0  0  0  0  0  0  0
  149.3021  139.2513  155.8764 C   0  0  0  0  0  0  0  0  0  0  0  0
  150.5150  139.3173  155.6895 O   0  0  0  0  0  0  0  0  0  0  0  0
  148.3322  139.8565  155.1206 N   0  5  0  0  0  0  0  0  0  0  0  0
  146.9776  139.8288  155.3681 C   0  0  0  0  0  0  0  0  0  0  0  0
  146.1706  140.4031  154.6358 O   0  0  0  0  0  0  0  0  0  0  0  0
  146.4997  139.1485  156.4558 N   0  0  0  0  0  0  0  0  0  0  0  0
  145.0651  139.1164  156.7550 C   0  0  0  0  0  0  0  0  0  0  0  0
  155.3695  136.4297  154.6977 H   0  0  0  0  0  0  0  0  0  0  0  0
  155.3129  135.9842  156.4032 H   0  0  0  0  0  0  0  0  0  0  0  0
  155.1441  137.6734  155.9274 H   0  0  0  0  0  0  0  0  0  0  0  0
  152.9642  137.1334  154.7903 H   0  0  0  0  0  0  0  0  0  0  0  0
  153.1346  135.4448  155.2675 H   0  0  0  0  0  0  0  0  0  0  0  0
  151.0269  137.1907  155.9045 H   0  0  0  0  0  0  0  0  0  0  0  0
  151.0495  135.6900  156.8118 H   0  0  0  0  0  0  0  0  0  0  0  0
  151.0360  136.8721  158.9684 H   0  0  0  0  0  0  0  0  0  0  0  0
  151.3366  138.3836  158.2236 H   0  0  0  0  0  0  0  0  0  0  0  0
  150.1589  135.5705  160.9134 H   0  0  0  0  0  0  0  0  0  0  0  0
  150.4649  137.2414  160.6237 H   0  0  0  0  0  0  0  0  0  0  0  0
  150.0968  136.8734  163.0408 H   0  0  0  0  0  0  0  0  0  0  0  0
  148.8121  137.8793  162.4142 H   0  0  0  0  0  0  0  0  0  0  0  0
  148.6792  134.8842  162.9768 H   0  0  0  0  0  0  0  0  0  0  0  0
  147.8045  136.1429  163.8210 H   0  0  0  0  0  0  0  0  0  0  0  0
  146.5263  136.6878  161.7907 H   0  0  0  0  0  0  0  0  0  0  0  0
  146.5314  133.6679  162.2598 H   0  0  0  0  0  0  0  0  0  0  0  0
  145.2413  134.5869  161.4898 H   0  0  0  0  0  0  0  0  0  0  0  0
  145.6169  134.8541  163.1881 H   0  0  0  0  0  0  0  0  0  0  0  0
  146.8248  135.3943  159.7023 H   0  0  0  0  0  0  0  0  0  0  0  0
  148.1726  134.5274  160.3860 H   0  0  0  0  0  0  0  0  0  0  0  0
  144.6792  140.1280  156.8881 H   0  0  0  0  0  0  0  0  0  0  0  0
  144.8357  138.5606  157.6638 H   0  0  0  0  0  0  0  0  0  0  0  0
  144.5163  138.6464  155.9380 H   0  0  0  0  0  0  0  0  0  0  0  0
  1  2  1  0  0  0  0
  1 25  1  0  0  0  0
  1 26  1  0  0  0  0
  1 27  1  0  0  0  0
  2  3  1  0  0  0  0
  2 28  1  0  0  0  0
  2 29  1  0  0  0  0
  3  4  1  0  0  0  0
  4  5  1  0  0  0  0
  4 30  1  0  0  0  0
  4 31  1  0  0  0  0
  5  6  1  0  0  0  0
  5 32  1  0  0  0  0
  5 33  1  0  0  0  0
  6 17  1  0  0  0  0
  6  7  1  0  0  0  0
  7  8  1  0  0  0  0
  7 15  2  0  0  0  0
  8 14  1  0  0  0  0
  8  9  1  0  0  0  0
  9 10  1  0  0  0  0
  9 34  1  0  0  0  0
  9 35  1  0  0  0  0
 10 11  1  0  0  0  0
 10 36  1  0  0  0  0
 10 37  1  0  0  0  0
 11 12  1  0  0  0  0
 11 38  1  0  0  0  0
 11 39  1  0  0  0  0
 12 13  1  0  0  0  0
 12 14  1  0  0  0  0
 12 40  1  0  0  0  0
 13 41  1  0  0  0  0
 13 42  1  0  0  0  0
 13 43  1  0  0  0  0
 14 44  1  0  0  0  0
 14 45  1  0  0  0  0
 15 16  1  0  0  0  0
 16 23  1  0  0  0  0
 16 17  2  0  0  0  0
 17 18  1  0  0  0  0
 18 19  2  0  0  0  0
 18 20  1  0  0  0  0
 20 21  1  0  0  0  0
 21 22  2  0  0  0  0
 21 23  1  0  0  0  0
 23 24  1  0  0  0  0
 24 46  1  0  0  0  0
 24 47  1  0  0  0  0
 24 48  1  0  0  0  0
M  CHG  1  20  -1
M  END
> <s_m_source_file>
AV-unprocessed.smi

> <i_m_source_file_index>
544

> <i_lp_mmshare_version>
43012

> <i_f3d_flags>
0

> <s_epik_input>
W0NIM11uMWMoPU8pW25IXWMoPU8pYyhjMTIpbihbQ0gyXVtDSDJdT1tDSDJdW0NIM10pYyhuMilOM1tDSDJdW0NIMl1bQ0gyXVtDQEBIXShbQ0gzXSlbQ0gyXTM=

> <s_epik_cmdline>
J2VwaWtfcHl0aG9uJywgJy1waCcsICc3LjAnLCAnLXRuJywgJzgnLCAnLW1hJywgJzIwMCcsICctbWV0YWxfYmluZGluZycsICctaW1hZScsICc8aW5maWxlLm1hZT4nLCAnLW9tYWUnLCAnPG91dGZpbGUubWFlPic=

> <r_lp_tautomer_probability>
1

> <r_epik_Ionization_Penalty>
5.1213

> <r_epik_Ionization_Penalty_Charging>
0.0741877

> <r_epik_Ionization_Penalty_Neutral>
5.04711

> <r_epik_State_Penalty>
5.04142

> <r_epik_Charging_Adjusted_Penalty>
5.11561

> <i_epik_Tot_Q>
-1

> <i_epik_Tot_abs_Q>
1

> <r_epik_Metal_State_Penalty>
1.14934

> <b_epik_Metal_Only>
1

> <s_lp_Force_Field>
OPLS_2005

> <r_lp_Energy>
42.4298

> <b_lp_Chiralities_Consistent>
1

> <s_lp_Variant>
AV-unprocessed.smi:544-4

> <Gold.Version>
5.8.1

> <Gold.Id.Protein>
6NUR|6NUR_protein|mol2

> <Gold.PLP.Fitness>
40.9696

> <Gold.PLP.PLP>
-32.4649

> <Gold.PLP.part.hbond>
-3.2702

> <Gold.PLP.part.metal>
0.0000

> <Gold.PLP.part.buried>
-4.7828

> <Gold.PLP.part.nonpolar>
-24.2522

> <Gold.PLP.part.repulsive>
0.0172

> <Gold.PLP.ligand.clash>
0.0000

> <Gold.PLP.ligand.torsion>
0.6488

> <Gold.PLP.Chemscore.Hbond>
3.2460

> <Gold.PLP.Chemscore.CHOScore>
0.0000

> <Gold.PLP.Chemscore.Metal>
0.0000

> <Gold.PLP.Chemscore.Internal.Correction>
0.0641

> <Gold.Rescore>
     Score         DG    S(hbond)    S(metal)    S(lipo)     H(rot)  DE(clash)    DE(int)     intcor
     12.81     -13.63       1.78        0.00      52.84       1.55       0.01       0.81       ----

> <Gold.Chemscore.Fitness>
12.8130

> <Gold.Chemscore.DG>
-13.6301

> <Gold.Chemscore.ZeroCoef>
-5.4800

> <Gold.Chemscore.Hbond>
1.7798

> <Gold.Chemscore.Metal>
0.0000

> <Gold.Chemscore.Lipo>
52.8419

> <Gold.Chemscore.Internal_Hbond>
0.0000

> <Gold.Chemscore.DEClash>
0.0073

> <Gold.Chemscore.DEInternal>
0.8097

> <Gold.Chemscore.Rot>
1.5534

> <Gold.Chemscore.Internal.Correction>
   9.000000E+99

> <Gold.Chemscore.Hbond.Weighted>
-5.9444

> <Gold.Chemscore.Metal.Weighted>
-0.0000

> <Gold.Chemscore.Lipo.Weighted>
-6.1825

> <Gold.Chemscore.Internal_Hbond.Weighted>
0.0000

> <Gold.Chemscore.DEClash.Weighted>
0.0073

> <Gold.Chemscore.DEInternal.Weighted>
0.8097

> <Gold.Chemscore.Rot.Weighted>
3.9768

> <Gold.Chemscore.Internal.Correction.Weighted>
   9.000000E+99

> <Gold.Protein.RotatedTorsions>
[ 6907 6896 6895 6894 ] final  -26.46 input  -60.11 | X-H torsion
[ 7974 7965 7964 7962 ] final  -78.74 input  175.53 | X-H torsion
[ 8008 7997 7996 7995 ] final   71.78 input   59.86 | X-H torsion
[ 10167 10162 10161 10158 ] final  137.31 input  -65.29 | X-H torsion
[ 10718 10713 10712 10709 ] final -128.05 input   66.30 | X-H torsion
[ 10763 10752 10751 10750 ] final   86.36 input  -60.55 | X-H torsion
[ 11005 11000 10999 10996 ] final  133.48 input  -57.11 | X-H torsion

> <Gold.Protein.ActiveResidues>
 VAL166  LYS551  ARG553  GLY616  TRP617  ASP618  TYR619  PRO620  LYS621  CYS622 
 ASP623  PHE694  ASN695  SER759  ASP760  ASP761  ALA762  ILE779  LEU786  VAL792 
 PHE793  MET794  SER795  GLU796  ALA797  LYS798  CYS799  TRP800  GLU811  SER814 

> <Gold.Protein.RotatedAtoms>
  151.1607  135.0272  159.8708 H   0  0  0  0  0  0  0  0  0  0  0  0  # atno 6907 bound_to 6896
  152.5451  134.1283  159.8438 H   0  0  0  0  0  0  0  0  0  0  0  0  # atno 6908 bound_to 6896
  151.1378  133.4946  159.2630 H   0  0  0  0  0  0  0  0  0  0  0  0  # atno 6909 bound_to 6896
  145.5825  140.9445  143.1336 H   0  0  0  0  0  0  0  0  0  0  0  0  # atno 7974 bound_to 7965
  155.7590  140.3487  155.5188 H   0  0  0  0  0  0  0  0  0  0  0  0  # atno 8008 bound_to 7997
  155.8932  140.1021  157.1424 H   0  0  0  0  0  0  0  0  0  0  0  0  # atno 8009 bound_to 7997
  154.4035  140.1300  156.4329 H   0  0  0  0  0  0  0  0  0  0  0  0  # atno 8010 bound_to 7997
  139.5149  144.6417  151.5551 H   0  0  0  0  0  0  0  0  0  0  0  0  # atno 10167 bound_to 10162
  156.1914  130.6798  151.0429 H   0  0  0  0  0  0  0  0  0  0  0  0  # atno 10718 bound_to 10713
  153.1563  135.4583  154.9709 H   0  0  0  0  0  0  0  0  0  0  0  0  # atno 10763 bound_to 10752
  154.7864  135.3205  154.7879 H   0  0  0  0  0  0  0  0  0  0  0  0  # atno 10764 bound_to 10752
  153.8376  135.6933  153.4861 H   0  0  0  0  0  0  0  0  0  0  0  0  # atno 10765 bound_to 10752
  139.9854  134.9534  156.9730 H   0  0  0  0  0  0  0  0  0  0  0  0  # atno 11005 bound_to 11000
  144.7387  139.7510  143.7319 LP  0  0  0  0  0  0  0  0  0  0  0  0  # atno 17320 bound_to 7965
  146.1706  139.4855  142.9930 LP  0  0  0  0  0  0  0  0  0  0  0  0  # atno 17321 bound_to 7965
  140.6186  143.9302  150.6508 LP  0  0  0  0  0  0  0  0  0  0  0  0  # atno 17342 bound_to 10162
  140.2568  143.3553  152.1358 LP  0  0  0  0  0  0  0  0  0  0  0  0  # atno 17343 bound_to 10162
  157.6931  131.0803  150.7048 LP  0  0  0  0  0  0  0  0  0  0  0  0  # atno 17370 bound_to 10713
  156.7105  130.4650  149.5548 LP  0  0  0  0  0  0  0  0  0  0  0  0  # atno 17371 bound_to 10713
  140.5013  134.1095  155.7251 LP  0  0  0  0  0  0  0  0  0  0  0  0  # atno 17394 bound_to 11000
  141.1520  133.8952  157.2074 LP  0  0  0  0  0  0  0  0  0  0  0  0  # atno 17395 bound_to 11000

$$$$
