AV-unprocessed.smi:994|AV-procd|sdf|4340|dock4
  -GOLD-   22720 2243D 1   1.00000     0.00000
 Structure written by MMmdl.
 38 39  0  0  0  0  0  0  0  0  3 V2000
  151.8037  138.7509  157.8372 O   0  0  0  0  0  0  0  0  0  0  0  0
  151.3624  139.8736  157.5902 C   0  0  0  0  0  0  0  0  0  0  0  0
  150.7615  140.1914  156.4330 N   0  0  0  0  0  0  0  0  0  0  0  0
  150.5904  139.2958  155.2885 C   0  0  1  0  0  0  0  0  0  0  0  0
  150.0910  140.1135  154.0778 C   0  0  0  0  0  0  0  0  0  0  0  0
  148.6329  139.9211  153.7290 C   0  0  0  0  0  0  0  0  0  0  0  0
  147.5319  140.7434  153.8965 C   0  0  0  0  0  0  0  0  0  0  0  0
  146.4283  140.0682  153.4024 N   0  0  0  0  0  0  0  0  0  0  0  0
  146.8639  138.8881  152.9666 C   0  0  0  0  0  0  0  0  0  0  0  0
  148.1770  138.7508  153.1417 N   0  3  0  0  0  0  0  0  0  0  0  0
  151.9464  138.6736  154.9284 C   0  0  0  0  0  0  0  0  0  0  0  0
  152.9051  139.4598  154.7695 O   0  0  0  0  0  0  0  0  0  0  0  0
  152.0062  137.4274  154.8283 O   0  5  0  0  0  0  0  0  0  0  0  0
  151.4662  140.9930  158.6342 C   0  0  0  0  0  0  0  0  0  0  0  0
  151.4067  142.3833  157.9653 C   0  0  0  0  0  0  0  0  0  0  0  0
  151.5346  143.5110  159.0029 C   0  0  0  0  0  0  0  0  0  0  0  0
  152.8182  143.3599  159.8349 C   0  0  0  0  0  0  0  0  0  0  0  0
  152.8879  141.9771  160.5022 C   0  0  0  0  0  0  0  0  0  0  0  0
  152.7602  140.8504  159.4639 C   0  0  0  0  0  0  0  0  0  0  0  0
  145.4763  140.4056  153.3810 H   0  0  0  0  0  0  0  0  0  0  0  0
  150.4485  141.1433  156.3098 H   0  0  0  0  0  0  0  0  0  0  0  0
  149.8767  138.4999  155.5109 H   0  0  0  0  0  0  0  0  0  0  0  0
  150.2598  141.1788  154.2445 H   0  0  0  0  0  0  0  0  0  0  0  0
  150.6688  139.8469  153.1913 H   0  0  0  0  0  0  0  0  0  0  0  0
  147.4342  141.7347  154.3148 H   0  0  0  0  0  0  0  0  0  0  0  0
  146.2299  138.1333  152.5247 H   0  0  0  0  0  0  0  0  0  0  0  0
  150.6159  140.9087  159.3137 H   0  0  0  0  0  0  0  0  0  0  0  0
  152.2058  142.4829  157.2289 H   0  0  0  0  0  0  0  0  0  0  0  0
  150.4694  142.4971  157.4187 H   0  0  0  0  0  0  0  0  0  0  0  0
  151.5293  144.4791  158.5015 H   0  0  0  0  0  0  0  0  0  0  0  0
  150.6670  143.5002  159.6636 H   0  0  0  0  0  0  0  0  0  0  0  0
  153.6884  143.4995  159.1921 H   0  0  0  0  0  0  0  0  0  0  0  0
  152.8649  144.1420  160.5932 H   0  0  0  0  0  0  0  0  0  0  0  0
  153.8262  141.8750  161.0482 H   0  0  0  0  0  0  0  0  0  0  0  0
  152.0890  141.8868  161.2395 H   0  0  0  0  0  0  0  0  0  0  0  0
  152.7757  139.8850  159.9714 H   0  0  0  0  0  0  0  0  0  0  0  0
  153.6322  140.8675  158.8079 H   0  0  0  0  0  0  0  0  0  0  0  0
  148.7370  137.9474  152.8931 H   0  0  0  0  0  0  0  0  0  0  0  0
  1  2  2  0  0  0  0
  2  3  1  0  0  0  0
  2 14  1  0  0  0  0
  3  4  1  0  0  0  0
  3 21  1  0  0  0  0
  4  5  1  0  0  0  0
  4 11  1  0  0  0  0
  4 22  1  0  0  0  0
  5  6  1  0  0  0  0
  5 23  1  0  0  0  0
  5 24  1  0  0  0  0
  6 10  1  0  0  0  0
  6  7  2  0  0  0  0
  7  8  1  0  0  0  0
  7 25  1  0  0  0  0
  8 20  1  0  0  0  0
  8  9  1  0  0  0  0
  9 10  2  0  0  0  0
  9 26  1  0  0  0  0
 10 38  1  0  0  0  0
 11 12  2  0  0  0  0
 11 13  1  0  0  0  0
 14 19  1  0  0  0  0
 14 15  1  0  0  0  0
 14 27  1  0  0  0  0
 15 16  1  0  0  0  0
 15 28  1  0  0  0  0
 15 29  1  0  0  0  0
 16 17  1  0  0  0  0
 16 30  1  0  0  0  0
 16 31  1  0  0  0  0
 17 18  1  0  0  0  0
 17 32  1  0  0  0  0
 17 33  1  0  0  0  0
 18 19  1  0  0  0  0
 18 34  1  0  0  0  0
 18 35  1  0  0  0  0
 19 36  1  0  0  0  0
 19 37  1  0  0  0  0
M  CHG  1  10   1
M  CHG  1  13  -1
M  END
> <s_m_source_file>
AV-unprocessed.smi

> <i_m_source_file_index>
994

> <i_lp_mmshare_version>
43012

> <i_f3d_flags>
0

> <s_epik_input>
W0NIMl0xW0NIMl1bQ0gyXVtDSDJdW0NIMl1bQ0hdMUMoPU8pW05IXVtDQEBIXShDKD1PKVtPSF0pW0NIMl1jMltjSF1bbkhdW2NIXW4y

> <s_epik_cmdline>
J2VwaWtfcHl0aG9uJywgJy1waCcsICc3LjAnLCAnLXRuJywgJzgnLCAnLW1hJywgJzIwMCcsICctbWV0YWxfYmluZGluZycsICctaW1hZScsICc8aW5maWxlLm1hZT4nLCAnLW9tYWUnLCAnPG91dGZpbGUubWFlPic=

> <r_lp_tautomer_probability>
1

> <r_epik_Ionization_Penalty>
0.469853

> <r_epik_Ionization_Penalty_Charging>
5.5863e-05

> <r_epik_Ionization_Penalty_Neutral>
0.469797

> <r_epik_State_Penalty>
0.377582

> <r_epik_Charging_Adjusted_Penalty>
0.377638

> <i_epik_Tot_Q>
0

> <i_epik_Tot_abs_Q>
2

> <r_epik_Metal_State_Penalty>
0.796804

> <b_epik_Metal_Only>
0

> <s_lp_Force_Field>
OPLS_2005

> <r_lp_Energy>
8.41083

> <b_lp_Chiralities_Consistent>
1

> <s_lp_Variant>
AV-unprocessed.smi:994-2

> <Gold.Version>
5.8.1

> <Gold.Id.Protein>
6NUR|6NUR_protein|mol2

> <Gold.PLP.Fitness>
56.0295

> <Gold.PLP.PLP>
-35.8580

> <Gold.PLP.part.hbond>
-5.9813

> <Gold.PLP.part.metal>
0.0000

> <Gold.PLP.part.buried>
1.1067

> <Gold.PLP.part.nonpolar>
-32.6278

> <Gold.PLP.part.repulsive>
0.2400

> <Gold.PLP.ligand.clash>
0.0000

> <Gold.PLP.ligand.torsion>
1.6837

> <Gold.PLP.Chemscore.Hbond>
7.8286

> <Gold.PLP.Chemscore.CHOScore>
0.0000

> <Gold.PLP.Chemscore.Metal>
0.0000

> <Gold.Chemscore.Hbonds>
donor molecule, donor type, donor heavy atom, donor atom, acceptor molecule, acceptor atom, score
      L1  H     8    20       P1 10175  1.98
      L1  H    10    38       P1  7948  2.00
      P1  H  7989  7998       L1    12  0.14
      P1  H  7997  8010       L1    12  1.95
      P1  H 10752 10765       L1    13  1.66

> <Gold.PLP.Chemscore.Internal.Correction>
0.0530

> <Gold.Rescore>
     Score         DG    S(hbond)    S(metal)    S(lipo)     H(rot)  DE(clash)    DE(int)     intcor
     15.44     -20.68       3.58        0.00      87.31       2.72       2.23       3.02       ----

> <Gold.Chemscore.Fitness>
15.4393

> <Gold.Chemscore.DG>
-20.6828

> <Gold.Chemscore.ZeroCoef>
-5.4800

> <Gold.Chemscore.Hbond>
3.5786

> <Gold.Chemscore.Metal>
0.0000

> <Gold.Chemscore.Lipo>
87.3130

> <Gold.Chemscore.Internal_Hbond>
0.0000

> <Gold.Chemscore.DEClash>
2.2253

> <Gold.Chemscore.DEInternal>
3.0182

> <Gold.Chemscore.Rot>
2.7208

> <Gold.Chemscore.Internal.Correction>
   9.000000E+99

> <Gold.Chemscore.Hbonds>
donor molecule, donor type, donor heavy atom, donor atom, acceptor molecule, acceptor atom, score
      L1  H     8    20       P1 10175  0.89
      L1  H    10    38       P1  7948  0.91
      P1  H  7989  7998       L1    12  0.01
      P1  H  7997  8010       L1    12  0.91
      P1  H 10752 10765       L1    13  0.77

> <Gold.Chemscore.Hbond.Weighted>
-11.9524

> <Gold.Chemscore.Metal.Weighted>
-0.0000

> <Gold.Chemscore.Lipo.Weighted>
-10.2156

> <Gold.Chemscore.Internal_Hbond.Weighted>
0.0000

> <Gold.Chemscore.DEClash.Weighted>
2.2253

> <Gold.Chemscore.DEInternal.Weighted>
3.0182

> <Gold.Chemscore.Rot.Weighted>
6.9652

> <Gold.Chemscore.Internal.Correction.Weighted>
   9.000000E+99

> <Gold.Protein.RotatedTorsions>
[ 6907 6896 6895 6894 ] final   59.14 input  -60.11 | X-H torsion
[ 7974 7965 7964 7962 ] final    3.79 input  175.53 | X-H torsion
[ 8008 7997 7996 7995 ] final  105.50 input   59.86 | X-H torsion
[ 10167 10162 10161 10158 ] final   82.76 input  -65.29 | X-H torsion
[ 10718 10713 10712 10709 ] final -122.13 input   66.30 | X-H torsion
[ 10763 10752 10751 10750 ] final  175.97 input  -60.55 | X-H torsion
[ 11005 11000 10999 10996 ] final -101.36 input  -57.11 | X-H torsion

> <Gold.Protein.ActiveResidues>
 VAL166  LYS551  ARG553  GLY616  TRP617  ASP618  TYR619  PRO620  LYS621  CYS622 
 ASP623  PHE694  ASN695  SER759  ASP760  ASP761  ALA762  ILE779  LEU786  VAL792 
 PHE793  MET794  SER795  GLU796  ALA797  LYS798  CYS799  TRP800  GLU811  SER814 

> <Gold.Protein.RotatedAtoms>
  152.3888  134.6474  160.0115 H   0  0  0  0  0  0  0  0  0  0  0  0  # atno 6907 bound_to 6896
  151.6715  133.3308  159.3205 H   0  0  0  0  0  0  0  0  0  0  0  0  # atno 6908 bound_to 6896
  150.7808  134.6795  159.6481 H   0  0  0  0  0  0  0  0  0  0  0  0  # atno 6909 bound_to 6896
  146.2445  140.0632  142.8367 H   0  0  0  0  0  0  0  0  0  0  0  0  # atno 7974 bound_to 7965
  156.1664  140.3129  155.8896 H   0  0  0  0  0  0  0  0  0  0  0  0  # atno 8008 bound_to 7997
  155.3678  140.0480  157.3063 H   0  0  0  0  0  0  0  0  0  0  0  0  # atno 8009 bound_to 7997
  154.5196  140.2194  155.9011 H   0  0  0  0  0  0  0  0  0  0  0  0  # atno 8010 bound_to 7997
  139.9254  144.6186  150.8398 H   0  0  0  0  0  0  0  0  0  0  0  0  # atno 10167 bound_to 10162
  156.1393  130.6454  150.9746 H   0  0  0  0  0  0  0  0  0  0  0  0  # atno 10718 bound_to 10713
  154.4748  135.2772  155.1616 H   0  0  0  0  0  0  0  0  0  0  0  0  # atno 10763 bound_to 10752
  154.3350  135.6182  153.5573 H   0  0  0  0  0  0  0  0  0  0  0  0  # atno 10764 bound_to 10752
  152.9868  135.5774  154.5136 H   0  0  0  0  0  0  0  0  0  0  0  0  # atno 10765 bound_to 10752
  141.1234  133.8472  157.1222 H   0  0  0  0  0  0  0  0  0  0  0  0  # atno 11005 bound_to 11000
  145.0882  140.9266  143.4785 LP  0  0  0  0  0  0  0  0  0  0  0  0  # atno 17320 bound_to 7965
  145.0799  139.2968  143.5789 LP  0  0  0  0  0  0  0  0  0  0  0  0  # atno 17321 bound_to 7965
  140.7651  143.3267  151.2500 LP  0  0  0  0  0  0  0  0  0  0  0  0  # atno 17342 bound_to 10162
  139.6826  143.9828  152.2817 LP  0  0  0  0  0  0  0  0  0  0  0  0  # atno 17343 bound_to 10162
  157.6561  131.0889  150.7944 LP  0  0  0  0  0  0  0  0  0  0  0  0  # atno 17370 bound_to 10713
  156.8021  130.4924  149.5368 LP  0  0  0  0  0  0  0  0  0  0  0  0  # atno 17371 bound_to 10713
  140.0210  134.9946  157.0591 LP  0  0  0  0  0  0  0  0  0  0  0  0  # atno 17394 bound_to 11000
  140.4440  134.1652  155.7176 LP  0  0  0  0  0  0  0  0  0  0  0  0  # atno 17395 bound_to 11000

$$$$
