AV-unprocessed.smi:2446|AV-procd|sdf|9648|dock1
  -GOLD-   2272013283D 1   1.00000     0.00000
 Structure written by MMmdl.
 40 41  0  0  0  0  0  0  0  0  2 V2000
  150.4171  139.0496  154.2521 C   0  0  0  0  0  0  0  0  0  0  0  0
  149.2658  140.0403  154.2840 C   0  0  0  0  0  0  0  0  0  0  0  0
  149.5058  141.3710  154.6901 C   0  0  0  0  0  0  0  0  0  0  0  0
  148.4926  142.2616  154.7276 N   0  3  0  0  0  0  0  0  0  0  0  0
  147.2256  141.9395  154.3944 C   0  0  0  0  0  0  0  0  0  0  0  0
  146.9193  140.6281  153.9804 C   0  0  0  0  0  0  0  0  0  0  0  0
  147.9523  139.6585  153.9077 C   0  0  0  0  0  0  0  0  0  0  0  0
  147.7267  138.3093  153.5148 N   0  0  0  0  0  0  0  0  0  0  0  0
  146.6987  137.4946  153.8238 C   0  0  0  0  0  0  0  0  0  0  0  0
  145.7649  137.7952  154.5638 O   0  0  0  0  0  0  0  0  0  0  0  0
  146.7580  136.2854  153.2364 N   0  0  0  0  0  0  0  0  0  0  0  0
  145.8186  135.1640  153.3478 C   0  0  1  0  0  0  0  0  0  0  0  0
  145.3717  134.7070  151.9461 C   0  0  0  0  0  0  0  0  0  0  0  0
  146.5005  133.9986  151.1783 C   0  0  0  0  0  0  0  0  0  0  0  0
  147.0774  132.8252  151.9854 C   0  0  0  0  0  0  0  0  0  0  0  0
  147.5716  133.2779  153.3751 C   0  0  2  0  0  0  0  0  0  0  0  0
  148.1706  132.1104  154.1861 C   0  0  0  0  0  0  0  0  0  0  0  0
  148.6205  132.5346  155.3674 F   0  0  0  0  0  0  0  0  0  0  0  0
  147.2456  131.1723  154.3882 F   0  0  0  0  0  0  0  0  0  0  0  0
  149.1808  131.5596  153.5125 F   0  0  0  0  0  0  0  0  0  0  0  0
  146.4290  133.9848  154.1391 C   0  0  0  0  0  0  0  0  0  0  0  0
  151.3405  139.5039  154.6127 H   0  0  0  0  0  0  0  0  0  0  0  0
  150.5893  138.6994  153.2341 H   0  0  0  0  0  0  0  0  0  0  0  0
  150.1981  138.1872  154.8826 H   0  0  0  0  0  0  0  0  0  0  0  0
  150.4734  141.7494  154.9869 H   0  0  0  0  0  0  0  0  0  0  0  0
  146.4974  142.7336  154.4737 H   0  0  0  0  0  0  0  0  0  0  0  0
  145.8946  140.3909  153.7395 H   0  0  0  0  0  0  0  0  0  0  0  0
  148.3845  137.9422  152.8428 H   0  0  0  0  0  0  0  0  0  0  0  0
  147.5634  136.1164  152.6505 H   0  0  0  0  0  0  0  0  0  0  0  0
  144.9262  135.5119  153.8708 H   0  0  0  0  0  0  0  0  0  0  0  0
  144.5282  134.0226  152.0462 H   0  0  0  0  0  0  0  0  0  0  0  0
  145.0033  135.5569  151.3699 H   0  0  0  0  0  0  0  0  0  0  0  0
  146.1249  133.6388  150.2199 H   0  0  0  0  0  0  0  0  0  0  0  0
  147.2950  134.7094  150.9478 H   0  0  0  0  0  0  0  0  0  0  0  0
  146.3160  132.0521  152.0966 H   0  0  0  0  0  0  0  0  0  0  0  0
  147.8959  132.3718  151.4256 H   0  0  0  0  0  0  0  0  0  0  0  0
  148.3714  134.0039  153.2210 H   0  0  0  0  0  0  0  0  0  0  0  0
  146.7858  134.3282  155.1100 H   0  0  0  0  0  0  0  0  0  0  0  0
  145.6413  133.2613  154.3522 H   0  0  0  0  0  0  0  0  0  0  0  0
  148.6918  143.2170  155.0257 H   0  0  0  0  0  0  0  0  0  0  0  0
  1  2  1  0  0  0  0
  1 22  1  0  0  0  0
  1 23  1  0  0  0  0
  1 24  1  0  0  0  0
  2  7  1  0  0  0  0
  2  3  2  0  0  0  0
  3  4  1  0  0  0  0
  3 25  1  0  0  0  0
  4  5  2  0  0  0  0
  4 40  1  0  0  0  0
  5  6  1  0  0  0  0
  5 26  1  0  0  0  0
  6  7  2  0  0  0  0
  6 27  1  0  0  0  0
  7  8  1  0  0  0  0
  8  9  1  0  0  0  0
  8 28  1  0  0  0  0
  9 10  2  0  0  0  0
  9 11  1  0  0  0  0
 11 12  1  0  0  0  0
 11 29  1  0  0  0  0
 12 21  1  0  0  0  0
 12 13  1  0  0  0  0
 12 30  1  0  0  0  0
 13 14  1  0  0  0  0
 13 31  1  0  0  0  0
 13 32  1  0  0  0  0
 14 15  1  0  0  0  0
 14 33  1  0  0  0  0
 14 34  1  0  0  0  0
 15 16  1  0  0  0  0
 15 35  1  0  0  0  0
 15 36  1  0  0  0  0
 16 17  1  0  0  0  0
 16 21  1  0  0  0  0
 16 37  1  0  0  0  0
 17 18  1  0  0  0  0
 17 19  1  0  0  0  0
 17 20  1  0  0  0  0
 21 38  1  0  0  0  0
 21 39  1  0  0  0  0
M  CHG  1   4   1
M  END
> <s_m_source_file>
AV-unprocessed.smi

> <i_m_source_file_index>
2446

> <i_lp_mmshare_version>
43012

> <i_f3d_flags>
0

> <s_epik_input>
W0NIM11jMVtjSF1uW2NIXVtjSF1jMVtOSF1DKD1PKVtOSF1bQ0BASF0yW0NIMl1bQ0gyXVtDSDJdW0NAQEhdKEMoRikoRilGKVtDSDJdMg==

> <s_epik_cmdline>
J2VwaWtfcHl0aG9uJywgJy1waCcsICc3LjAnLCAnLXRuJywgJzgnLCAnLW1hJywgJzIwMCcsICctbWV0YWxfYmluZGluZycsICctaW1hZScsICc8aW5maWxlLm1hZT4nLCAnLW9tYWUnLCAnPG91dGZpbGUubWFlPic=

> <r_epik_Ionization_Penalty>
0.736582

> <r_epik_Ionization_Penalty_Charging>
0.736562

> <r_epik_Ionization_Penalty_Neutral>
1.98379e-05

> <r_epik_State_Penalty>
0.762314

> <r_epik_Charging_Adjusted_Penalty>
1.49888

> <i_epik_Tot_Q>
1

> <i_epik_Tot_abs_Q>
1

> <r_epik_Metal_State_Penalty>
0.914579

> <b_epik_Metal_Only>
0

> <s_lp_Force_Field>
OPLS_2005

> <r_lp_Energy>
31.0639

> <b_lp_Chiralities_Consistent>
1

> <s_lp_Variant>
AV-unprocessed.smi:2446-8

> <Gold.Version>
5.8.1

> <Gold.Id.Protein>
6NUR|6NUR_protein|mol2

> <Gold.PLP.Fitness>
43.6195

> <Gold.PLP.PLP>
-32.6939

> <Gold.PLP.part.hbond>
-3.0000

> <Gold.PLP.part.metal>
0.0000

> <Gold.PLP.part.buried>
-2.1413

> <Gold.PLP.part.nonpolar>
-26.9141

> <Gold.PLP.part.repulsive>
0.3222

> <Gold.PLP.ligand.clash>
0.0000

> <Gold.PLP.ligand.torsion>
0.3948

> <Gold.PLP.Chemscore.Hbond>
3.8960

> <Gold.PLP.Chemscore.CHOScore>
0.0000

> <Gold.PLP.Chemscore.Metal>
0.0000

> <Gold.Chemscore.Hbonds>
donor molecule, donor type, donor heavy atom, donor atom, acceptor molecule, acceptor atom, score
      L1  H     4    40       P1  8028  2.00
      L1  H     8    28       P1  7948  0.89
      L1  H    11    29       P1  7948  1.00

> <Gold.PLP.Chemscore.Internal.Correction>
0.0273

> <Gold.Rescore>
     Score         DG    S(hbond)    S(metal)    S(lipo)     H(rot)  DE(clash)    DE(int)     intcor
     20.54     -20.92       2.89        0.00      71.22       1.00       0.00       0.37       ----

> <Gold.Chemscore.Fitness>
20.5430

> <Gold.Chemscore.DG>
-20.9170

> <Gold.Chemscore.ZeroCoef>
-5.4800

> <Gold.Chemscore.Hbond>
2.8934

> <Gold.Chemscore.Metal>
0.0000

> <Gold.Chemscore.Lipo>
71.2232

> <Gold.Chemscore.Internal_Hbond>
0.0000

> <Gold.Chemscore.DEClash>
0.0004

> <Gold.Chemscore.DEInternal>
0.3736

> <Gold.Chemscore.Rot>
1.0000

> <Gold.Chemscore.Internal.Correction>
   9.000000E+99

> <Gold.Chemscore.Hbonds>
donor molecule, donor type, donor heavy atom, donor atom, acceptor molecule, acceptor atom, score
      L1  H     4    40       P1  8028  0.99
      L1  H     8    28       P1  7948  0.81
      L1  H    11    29       P1  7948  0.98

> <Gold.Chemscore.Hbond.Weighted>
-9.6639

> <Gold.Chemscore.Metal.Weighted>
-0.0000

> <Gold.Chemscore.Lipo.Weighted>
-8.3331

> <Gold.Chemscore.Internal_Hbond.Weighted>
0.0000

> <Gold.Chemscore.DEClash.Weighted>
0.0004

> <Gold.Chemscore.DEInternal.Weighted>
0.3736

> <Gold.Chemscore.Rot.Weighted>
2.5600

> <Gold.Chemscore.Internal.Correction.Weighted>
   9.000000E+99

> <Gold.Protein.RotatedTorsions>
[ 6907 6896 6895 6894 ] final  -44.74 input  -60.11 | X-H torsion
[ 7974 7965 7964 7962 ] final  -70.72 input  175.53 | X-H torsion
[ 8008 7997 7996 7995 ] final   47.79 input   59.86 | X-H torsion
[ 10167 10162 10161 10158 ] final -144.37 input  -65.29 | X-H torsion
[ 10718 10713 10712 10709 ] final  -96.32 input   66.30 | X-H torsion
[ 10763 10752 10751 10750 ] final   56.14 input  -60.55 | X-H torsion
[ 11005 11000 10999 10996 ] final -163.51 input  -57.11 | X-H torsion

> <Gold.Protein.ActiveResidues>
 VAL166  LYS551  ARG553  GLY616  TRP617  ASP618  TYR619  PRO620  LYS621  CYS622 
 ASP623  PHE694  ASN695  SER759  ASP760  ASP761  ALA762  ILE779  LEU786  VAL792 
 PHE793  MET794  SER795  GLU796  ALA797  LYS798  CYS799  TRP800  GLU811  SER814 

> <Gold.Protein.RotatedAtoms>
  150.9296  134.8711  159.7542 H   0  0  0  0  0  0  0  0  0  0  0  0  # atno 6907 bound_to 6896
  152.5031  134.4099  159.9455 H   0  0  0  0  0  0  0  0  0  0  0  0  # atno 6908 bound_to 6896
  151.4127  133.3682  159.2781 H   0  0  0  0  0  0  0  0  0  0  0  0  # atno 6909 bound_to 6896
  145.6873  140.9166  143.0800 H   0  0  0  0  0  0  0  0  0  0  0  0  # atno 7974 bound_to 7965
  155.3750  140.3425  155.4244 H   0  0  0  0  0  0  0  0  0  0  0  0  # atno 8008 bound_to 7997
  156.1642  140.1610  156.8594 H   0  0  0  0  0  0  0  0  0  0  0  0  # atno 8009 bound_to 7997
  154.5169  140.0776  156.8079 H   0  0  0  0  0  0  0  0  0  0  0  0  # atno 8010 bound_to 7997
  139.7905  143.7972  152.2649 H   0  0  0  0  0  0  0  0  0  0  0  0  # atno 10167 bound_to 10162
  156.0060  130.5146  150.6207 H   0  0  0  0  0  0  0  0  0  0  0  0  # atno 10718 bound_to 10713
  152.9827  135.5686  154.5181 H   0  0  0  0  0  0  0  0  0  0  0  0  # atno 10763 bound_to 10752
  154.4673  135.2783  155.1670 H   0  0  0  0  0  0  0  0  0  0  0  0  # atno 10764 bound_to 10752
  154.3233  135.6264  153.5571 H   0  0  0  0  0  0  0  0  0  0  0  0  # atno 10765 bound_to 10752
  140.5973  134.4983  157.5201 H   0  0  0  0  0  0  0  0  0  0  0  0  # atno 11005 bound_to 11000
  144.7007  139.8775  143.7445 LP  0  0  0  0  0  0  0  0  0  0  0  0  # atno 17320 bound_to 7965
  146.0912  139.3902  143.0404 LP  0  0  0  0  0  0  0  0  0  0  0  0  # atno 17321 bound_to 7965
  139.8062  144.7354  150.9758 LP  0  0  0  0  0  0  0  0  0  0  0  0  # atno 17342 bound_to 10162
  140.7820  143.4295  151.0716 LP  0  0  0  0  0  0  0  0  0  0  0  0  # atno 17343 bound_to 10162
  157.4023  131.0812  151.1297 LP  0  0  0  0  0  0  0  0  0  0  0  0  # atno 17370 bound_to 10713
  157.1954  130.6371  149.5719 LP  0  0  0  0  0  0  0  0  0  0  0  0  # atno 17371 bound_to 10713
  139.9247  134.8078  156.1103 LP  0  0  0  0  0  0  0  0  0  0  0  0  # atno 17394 bound_to 11000
  141.0895  133.6720  156.2510 LP  0  0  0  0  0  0  0  0  0  0  0  0  # atno 17395 bound_to 11000

$$$$
