AV-unprocessed.smi:1627|AV-procd|sdf|6517|dock5
  -GOLD-   22720 7193D 1   1.00000     0.00000
 Structure written by MMmdl.
 43 44  0  0  0  0  0  0  0  0  1 V2000
  156.7801  134.6149  161.7228 C   0  0  0  0  0  0  0  0  0  0  0  0
  155.2717  134.4882  161.4628 C   0  0  1  0  0  0  0  0  0  0  0  0
  154.6594  134.0837  162.6850 O   0  0  0  0  0  0  0  0  0  0  0  0
  155.2435  132.9504  163.3197 C   0  0  0  0  0  0  0  0  0  0  0  0
  154.3830  132.5433  164.5218 C   0  0  0  0  0  0  0  0  0  0  0  0
  153.3342  131.8418  164.0937 F   0  0  0  0  0  0  0  0  0  0  0  0
  155.0901  131.7860  165.3599 F   0  0  0  0  0  0  0  0  0  0  0  0
  153.9417  133.6265  165.1604 F   0  0  0  0  0  0  0  0  0  0  0  0
  154.6752  135.8200  160.9780 C   0  0  0  0  0  0  0  0  0  0  0  0
  154.0020  135.8456  159.9479 O   0  0  0  0  0  0  0  0  0  0  0  0
  154.9763  136.9000  161.7226 N   0  0  0  0  0  0  0  0  0  0  0  0
  154.5780  138.2509  161.5319 C   0  0  0  0  0  0  0  0  0  0  0  0
  154.9443  139.3201  162.3810 C   0  0  0  0  0  0  0  0  0  0  0  0
  154.4999  140.6204  162.0735 C   0  0  0  0  0  0  0  0  0  0  0  0
  153.7033  140.8286  160.9192 C   0  0  0  0  0  0  0  0  0  0  0  0
  153.2319  142.1093  160.5498 N   0  0  0  0  0  0  0  0  0  0  0  0
  152.8813  142.2888  159.1372 C   0  0  0  0  0  0  0  0  0  0  0  0
  152.8264  143.7783  158.7574 C   0  0  0  0  0  0  0  0  0  0  0  0
  151.9006  144.5564  159.7026 C   0  0  0  0  0  0  0  0  0  0  0  0
  152.3456  144.3466  161.1564 C   0  0  0  0  0  0  0  0  0  0  0  0
  152.4094  142.8505  161.5082 C   0  0  0  0  0  0  0  0  0  0  0  0
  153.3677  139.8004  160.1032 N   0  0  0  0  0  0  0  0  0  0  0  0
  153.7964  138.5565  160.4010 C   0  0  0  0  0  0  0  0  0  0  0  0
  157.3118  134.9358  160.8263 H   0  0  0  0  0  0  0  0  0  0  0  0
  157.2006  133.6569  162.0290 H   0  0  0  0  0  0  0  0  0  0  0  0
  156.9925  135.3342  162.5149 H   0  0  0  0  0  0  0  0  0  0  0  0
  155.1189  133.7144  160.7078 H   0  0  0  0  0  0  0  0  0  0  0  0
  155.3205  132.1109  162.6275 H   0  0  0  0  0  0  0  0  0  0  0  0
  156.2536  133.1911  163.6545 H   0  0  0  0  0  0  0  0  0  0  0  0
  155.6116  136.7418  162.4914 H   0  0  0  0  0  0  0  0  0  0  0  0
  155.5644  139.1754  163.2518 H   0  0  0  0  0  0  0  0  0  0  0  0
  154.7757  141.4282  162.7341 H   0  0  0  0  0  0  0  0  0  0  0  0
  153.5903  141.7901  158.4767 H   0  0  0  0  0  0  0  0  0  0  0  0
  151.9104  141.8246  158.9601 H   0  0  0  0  0  0  0  0  0  0  0  0
  153.8309  144.2017  158.7991 H   0  0  0  0  0  0  0  0  0  0  0  0
  152.4868  143.8875  157.7272 H   0  0  0  0  0  0  0  0  0  0  0  0
  151.9119  145.6178  159.4536 H   0  0  0  0  0  0  0  0  0  0  0  0
  150.8723  144.2148  159.5776 H   0  0  0  0  0  0  0  0  0  0  0  0
  153.3278  144.7974  161.3049 H   0  0  0  0  0  0  0  0  0  0  0  0
  151.6638  144.8597  161.8348 H   0  0  0  0  0  0  0  0  0  0  0  0
  151.4047  142.4254  161.5197 H   0  0  0  0  0  0  0  0  0  0  0  0
  152.8186  142.7501  162.5139 H   0  0  0  0  0  0  0  0  0  0  0  0
  153.4992  137.7785  159.7129 H   0  0  0  0  0  0  0  0  0  0  0  0
  1  2  1  0  0  0  0
  1 24  1  0  0  0  0
  1 25  1  0  0  0  0
  1 26  1  0  0  0  0
  2  3  1  0  0  0  0
  2  9  1  0  0  0  0
  2 27  1  0  0  0  0
  3  4  1  0  0  0  0
  4  5  1  0  0  0  0
  4 28  1  0  0  0  0
  4 29  1  0  0  0  0
  5  6  1  0  0  0  0
  5  7  1  0  0  0  0
  5  8  1  0  0  0  0
  9 10  2  0  0  0  0
  9 11  1  0  0  0  0
 11 12  1  0  0  0  0
 11 30  1  0  0  0  0
 12 23  1  0  0  0  0
 12 13  2  0  0  0  0
 13 14  1  0  0  0  0
 13 31  1  0  0  0  0
 14 15  2  0  0  0  0
 14 32  1  0  0  0  0
 15 16  1  0  0  0  0
 15 22  1  0  0  0  0
 16 21  1  0  0  0  0
 16 17  1  0  0  0  0
 17 18  1  0  0  0  0
 17 33  1  0  0  0  0
 17 34  1  0  0  0  0
 18 19  1  0  0  0  0
 18 35  1  0  0  0  0
 18 36  1  0  0  0  0
 19 20  1  0  0  0  0
 19 37  1  0  0  0  0
 19 38  1  0  0  0  0
 20 21  1  0  0  0  0
 20 39  1  0  0  0  0
 20 40  1  0  0  0  0
 21 41  1  0  0  0  0
 21 42  1  0  0  0  0
 22 23  2  0  0  0  0
 23 43  1  0  0  0  0
M  END
> <s_m_source_file>
AV-unprocessed.smi

> <i_m_source_file_index>
1627

> <i_lp_mmshare_version>
43012

> <i_f3d_flags>
0

> <s_epik_input>
RkMoRikoRilbQ0gyXU9bQ0BASF0oW0NIM10pQyg9TylbTkhdYzFbY0hdW2NIXWMobltjSF0xKU4yW0NIMl1bQ0gyXVtDSDJdW0NIMl1bQ0gyXTI=

> <s_epik_cmdline>
J2VwaWtfcHl0aG9uJywgJy1waCcsICc3LjAnLCAnLXRuJywgJzgnLCAnLW1hJywgJzIwMCcsICctbWV0YWxfYmluZGluZycsICctaW1hZScsICc8aW5maWxlLm1hZT4nLCAnLW9tYWUnLCAnPG91dGZpbGUubWFlPic=

> <r_lp_tautomer_probability>
1

> <r_epik_Ionization_Penalty>
0.0254771

> <r_epik_Ionization_Penalty_Charging>
0

> <r_epik_Ionization_Penalty_Neutral>
0.0254771

> <r_epik_State_Penalty>
0.0187406

> <r_epik_Charging_Adjusted_Penalty>
0.0187406

> <i_epik_Tot_Q>
0

> <i_epik_Tot_abs_Q>
0

> <r_epik_Metal_State_Penalty>
0.017939

> <b_epik_Metal_Only>
0

> <s_lp_Force_Field>
OPLS_2005

> <r_lp_Energy>
25.1621

> <b_lp_Chiralities_Consistent>
1

> <s_lp_Variant>
AV-unprocessed.smi:1627-2

> <Gold.Version>
5.8.1

> <Gold.Id.Protein>
6NUR|6NUR_protein|mol2

> <Gold.PLP.Fitness>
48.2381

> <Gold.PLP.PLP>
-47.1282

> <Gold.PLP.part.hbond>
-1.0000

> <Gold.PLP.part.metal>
0.0000

> <Gold.PLP.part.buried>
-5.1305

> <Gold.PLP.part.nonpolar>
-41.3408

> <Gold.PLP.part.repulsive>
0.0130

> <Gold.PLP.ligand.clash>
0.0000

> <Gold.PLP.ligand.torsion>
1.1045

> <Gold.PLP.Chemscore.Hbond>
1.0000

> <Gold.PLP.Chemscore.CHOScore>
0.0000

> <Gold.PLP.Chemscore.Metal>
0.0000

> <Gold.Chemscore.Hbonds>
donor molecule, donor type, donor heavy atom, donor atom, acceptor molecule, acceptor atom, score
      P1  H  6896  6909       L1    10  1.00

> <Gold.PLP.Chemscore.Internal.Correction>
0.3189

> <Gold.Rescore>
     Score         DG    S(hbond)    S(metal)    S(lipo)     H(rot)  DE(clash)    DE(int)     intcor
     14.33     -16.59       0.98        0.00     102.67       1.63       0.07       2.19       ----

> <Gold.Chemscore.Fitness>
14.3270

> <Gold.Chemscore.DG>
-16.5943

> <Gold.Chemscore.ZeroCoef>
-5.4800

> <Gold.Chemscore.Hbond>
0.9774

> <Gold.Chemscore.Metal>
0.0000

> <Gold.Chemscore.Lipo>
102.6697

> <Gold.Chemscore.Internal_Hbond>
0.0000

> <Gold.Chemscore.DEClash>
0.0733

> <Gold.Chemscore.DEInternal>
2.1939

> <Gold.Chemscore.Rot>
1.6260

> <Gold.Chemscore.Internal.Correction>
   9.000000E+99

> <Gold.Chemscore.Hbonds>
donor molecule, donor type, donor heavy atom, donor atom, acceptor molecule, acceptor atom, score
      P1  H  6896  6909       L1    10  0.85

> <Gold.Chemscore.Hbond.Weighted>
-3.2644

> <Gold.Chemscore.Metal.Weighted>
-0.0000

> <Gold.Chemscore.Lipo.Weighted>
-12.0124

> <Gold.Chemscore.Internal_Hbond.Weighted>
0.0000

> <Gold.Chemscore.DEClash.Weighted>
0.0733

> <Gold.Chemscore.DEInternal.Weighted>
2.1939

> <Gold.Chemscore.Rot.Weighted>
4.1625

> <Gold.Chemscore.Internal.Correction.Weighted>
   9.000000E+99

> <Gold.Protein.RotatedTorsions>
[ 6907 6896 6895 6894 ] final -179.18 input  -60.11 | X-H torsion
[ 7974 7965 7964 7962 ] final -106.71 input  175.53 | X-H torsion
[ 8008 7997 7996 7995 ] final -153.68 input   59.86 | X-H torsion
[ 10167 10162 10161 10158 ] final  144.92 input  -65.29 | X-H torsion
[ 10718 10713 10712 10709 ] final -119.99 input   66.30 | X-H torsion
[ 10763 10752 10751 10750 ] final -176.05 input  -60.55 | X-H torsion
[ 11005 11000 10999 10996 ] final  105.45 input  -57.11 | X-H torsion

> <Gold.Protein.ActiveResidues>
 VAL166  LYS551  ARG553  GLY616  TRP617  ASP618  TYR619  PRO620  LYS621  CYS622 
 ASP623  PHE694  ASN695  SER759  ASP760  ASP761  ALA762  ILE779  LEU786  VAL792 
 PHE793  MET794  SER795  GLU796  ALA797  LYS798  CYS799  TRP800  GLU811  SER814 

> <Gold.Protein.RotatedAtoms>
  151.6492  133.3322  159.3147 H   0  0  0  0  0  0  0  0  0  0  0  0  # atno 6907 bound_to 6896
  150.7968  134.7038  159.6574 H   0  0  0  0  0  0  0  0  0  0  0  0  # atno 6908 bound_to 6896
  152.4056  134.6216  160.0103 H   0  0  0  0  0  0  0  0  0  0  0  0  # atno 6909 bound_to 6896
  145.2144  140.9109  143.3295 H   0  0  0  0  0  0  0  0  0  0  0  0  # atno 7974 bound_to 7965
  155.6746  140.0737  157.2507 H   0  0  0  0  0  0  0  0  0  0  0  0  # atno 8008 bound_to 7997
  154.4117  140.1693  156.1968 H   0  0  0  0  0  0  0  0  0  0  0  0  # atno 8009 bound_to 7997
  155.9587  140.3371  155.6474 H   0  0  0  0  0  0  0  0  0  0  0  0  # atno 8010 bound_to 7997
  139.4937  144.5938  151.6625 H   0  0  0  0  0  0  0  0  0  0  0  0  # atno 10167 bound_to 10162
  156.1224  130.6333  150.9485 H   0  0  0  0  0  0  0  0  0  0  0  0  # atno 10718 bound_to 10713
  154.5770  135.2833  155.0771 H   0  0  0  0  0  0  0  0  0  0  0  0  # atno 10763 bound_to 10752
  154.2121  135.6406  153.5122 H   0  0  0  0  0  0  0  0  0  0  0  0  # atno 10764 bound_to 10752
  153.0076  135.5494  154.6412 H   0  0  0  0  0  0  0  0  0  0  0  0  # atno 10765 bound_to 10752
  139.8802  134.9336  156.5516 H   0  0  0  0  0  0  0  0  0  0  0  0  # atno 11005 bound_to 11000
  144.9825  139.3769  143.6255 LP  0  0  0  0  0  0  0  0  0  0  0  0  # atno 17320 bound_to 7965
  146.3390  139.8971  142.8800 LP  0  0  0  0  0  0  0  0  0  0  0  0  # atno 17321 bound_to 7965
  140.5571  144.0329  150.6153 LP  0  0  0  0  0  0  0  0  0  0  0  0  # atno 17342 bound_to 10162
  140.3403  143.3023  152.0595 LP  0  0  0  0  0  0  0  0  0  0  0  0  # atno 17343 bound_to 10162
  157.6407  131.0910  150.8258 LP  0  0  0  0  0  0  0  0  0  0  0  0  # atno 17370 bound_to 10713
  156.8353  130.5029  149.5327 LP  0  0  0  0  0  0  0  0  0  0  0  0  # atno 17371 bound_to 10713
  140.8236  133.8334  155.8918 LP  0  0  0  0  0  0  0  0  0  0  0  0  # atno 17394 bound_to 11000
  140.9395  134.1919  157.4807 LP  0  0  0  0  0  0  0  0  0  0  0  0  # atno 17395 bound_to 11000

$$$$
