AV-unprocessed.smi:2087|AV-procd|sdf|8524|dock4
  -GOLD-   2272011243D 1   1.00000     0.00000
 Structure written by MMmdl.
 50 51  0  0  0  0  0  0  0  0  1 V2000
  152.0446  143.9819  158.5572 C   0  0  0  0  0  0  0  0  0  0  0  0
  151.0155  143.2297  157.7009 C   0  0  0  0  0  0  0  0  0  0  0  0
  149.8792  142.6848  158.5817 C   0  0  0  0  0  0  0  0  0  0  0  0
  151.7040  142.1083  156.8932 C   0  0  0  0  0  0  0  0  0  0  0  0
  150.8101  141.1400  156.2558 N   0  0  0  0  0  0  0  0  0  0  0  0
  150.0539  141.7117  155.1438 C   0  0  0  0  0  0  0  0  0  0  0  0
  149.1349  140.6707  154.4817 C   0  0  0  0  0  0  0  0  0  0  0  0
  149.9020  139.5500  154.0552 O   0  0  0  0  0  0  0  0  0  0  0  0
  150.6308  138.9347  155.1150 C   0  0  1  0  0  0  0  0  0  0  0  0
  151.3809  137.7032  154.5714 C   0  0  0  0  0  0  0  0  0  0  0  0
  150.5139  136.5387  154.4129 N   0  0  0  0  0  0  0  0  0  0  0  0
  150.6260  135.3906  155.0977 C   0  0  0  0  0  0  0  0  0  0  0  0
  151.4942  135.1934  155.9492 O   0  0  0  0  0  0  0  0  0  0  0  0
  149.5783  134.3144  154.7817 C   0  0  0  0  0  0  0  0  0  0  0  0
  149.9281  132.9947  155.3228 N   0  0  0  0  0  0  0  0  0  0  0  0
  150.0791  131.9202  154.4653 C   0  0  0  0  0  0  0  0  0  0  0  0
  150.3877  130.6726  154.8818 C   0  0  0  0  0  0  0  0  0  0  0  0
  150.5849  130.3814  156.2970 C   0  0  0  0  0  0  0  0  0  0  0  0
  150.8688  129.2587  156.7158 O   0  0  0  0  0  0  0  0  0  0  0  0
  150.4228  131.4988  157.1520 N   0  0  0  0  0  0  0  0  0  0  0  0
  150.5930  131.3289  158.5801 C   0  0  0  0  0  0  0  0  0  0  0  0
  150.0985  132.8001  156.7101 C   0  0  0  0  0  0  0  0  0  0  0  0
  149.9659  133.7390  157.4995 O   0  0  0  0  0  0  0  0  0  0  0  0
  151.5544  139.9824  155.7728 C   0  0  0  0  0  0  0  0  0  0  0  0
  152.5133  143.3204  159.2867 H   0  0  0  0  0  0  0  0  0  0  0  0
  151.5776  144.8017  159.1038 H   0  0  0  0  0  0  0  0  0  0  0  0
  152.8347  144.4090  157.9387 H   0  0  0  0  0  0  0  0  0  0  0  0
  150.5901  143.9599  157.0132 H   0  0  0  0  0  0  0  0  0  0  0  0
  150.2488  141.9452  159.2923 H   0  0  0  0  0  0  0  0  0  0  0  0
  149.1037  142.2099  157.9801 H   0  0  0  0  0  0  0  0  0  0  0  0
  149.4042  143.4850  159.1499 H   0  0  0  0  0  0  0  0  0  0  0  0
  152.3477  142.5548  156.1337 H   0  0  0  0  0  0  0  0  0  0  0  0
  152.3738  141.5770  157.5710 H   0  0  0  0  0  0  0  0  0  0  0  0
  149.4398  142.5430  155.4871 H   0  0  0  0  0  0  0  0  0  0  0  0
  150.7399  142.1152  154.3974 H   0  0  0  0  0  0  0  0  0  0  0  0
  148.3594  140.3446  155.1764 H   0  0  0  0  0  0  0  0  0  0  0  0
  148.6299  141.1050  153.6186 H   0  0  0  0  0  0  0  0  0  0  0  0
  149.9123  138.5838  155.8580 H   0  0  0  0  0  0  0  0  0  0  0  0
  151.7971  137.9381  153.5917 H   0  0  0  0  0  0  0  0  0  0  0  0
  152.2327  137.4669  155.2115 H   0  0  0  0  0  0  0  0  0  0  0  0
  149.7689  136.6148  153.7355 H   0  0  0  0  0  0  0  0  0  0  0  0
  148.6219  134.6415  155.1923 H   0  0  0  0  0  0  0  0  0  0  0  0
  149.4283  134.2500  153.7024 H   0  0  0  0  0  0  0  0  0  0  0  0
  149.9394  132.0832  153.4064 H   0  0  0  0  0  0  0  0  0  0  0  0
  150.4892  129.8780  154.1572 H   0  0  0  0  0  0  0  0  0  0  0  0
  151.4058  131.9888  158.8890 H   0  0  0  0  0  0  0  0  0  0  0  0
  150.8393  130.2982  158.8324 H   0  0  0  0  0  0  0  0  0  0  0  0
  149.6502  131.6095  159.0532 H   0  0  0  0  0  0  0  0  0  0  0  0
  152.3111  140.3098  155.0583 H   0  0  0  0  0  0  0  0  0  0  0  0
  152.0898  139.5176  156.6016 H   0  0  0  0  0  0  0  0  0  0  0  0
  1  2  1  0  0  0  0
  1 25  1  0  0  0  0
  1 26  1  0  0  0  0
  1 27  1  0  0  0  0
  2  3  1  0  0  0  0
  2  4  1  0  0  0  0
  2 28  1  0  0  0  0
  3 29  1  0  0  0  0
  3 30  1  0  0  0  0
  3 31  1  0  0  0  0
  4  5  1  0  0  0  0
  4 32  1  0  0  0  0
  4 33  1  0  0  0  0
  5 24  1  0  0  0  0
  5  6  1  0  0  0  0
  6  7  1  0  0  0  0
  6 34  1  0  0  0  0
  6 35  1  0  0  0  0
  7  8  1  0  0  0  0
  7 36  1  0  0  0  0
  7 37  1  0  0  0  0
  8  9  1  0  0  0  0
  9 10  1  0  0  0  0
  9 24  1  0  0  0  0
  9 38  1  0  0  0  0
 10 11  1  0  0  0  0
 10 39  1  0  0  0  0
 10 40  1  0  0  0  0
 11 12  1  0  0  0  0
 11 41  1  0  0  0  0
 12 13  2  0  0  0  0
 12 14  1  0  0  0  0
 14 15  1  0  0  0  0
 14 42  1  0  0  0  0
 14 43  1  0  0  0  0
 15 22  1  0  0  0  0
 15 16  1  0  0  0  0
 16 17  2  0  0  0  0
 16 44  1  0  0  0  0
 17 18  1  0  0  0  0
 17 45  1  0  0  0  0
 18 19  2  0  0  0  0
 18 20  1  0  0  0  0
 20 21  1  0  0  0  0
 20 22  1  0  0  0  0
 21 46  1  0  0  0  0
 21 47  1  0  0  0  0
 21 48  1  0  0  0  0
 22 23  2  0  0  0  0
 24 49  1  0  0  0  0
 24 50  1  0  0  0  0
M  END
> <s_m_source_file>
AV-unprocessed.smi

> <i_m_source_file_index>
2087

> <i_lp_mmshare_version>
43012

> <i_f3d_flags>
0

> <s_epik_input>
W0NIM11bQ0hdKFtDSDNdKVtDSDJdTjFbQ0gyXVtDSDJdT1tDQEhdKFtDSDJdMSlbQ0gyXVtOSF1DKD1PKVtDSDJdbjJbY0hdW2NIXWMoPU8pbihbQ0gzXSljMj1P

> <s_epik_cmdline>
J2VwaWtfcHl0aG9uJywgJy1waCcsICc3LjAnLCAnLXRuJywgJzgnLCAnLW1hJywgJzIwMCcsICctbWV0YWxfYmluZGluZycsICctaW1hZScsICc8aW5maWxlLm1hZT4nLCAnLW9tYWUnLCAnPG91dGZpbGUubWFlPic=

> <r_lp_tautomer_probability>
1

> <r_epik_Ionization_Penalty>
1.11669

> <r_epik_Ionization_Penalty_Charging>
1.16423e-08

> <r_epik_Ionization_Penalty_Neutral>
1.11669

> <r_epik_State_Penalty>
1.17516

> <r_epik_Charging_Adjusted_Penalty>
1.17516

> <i_epik_Tot_Q>
0

> <i_epik_Tot_abs_Q>
0

> <r_epik_Metal_State_Penalty>
1.17513

> <b_epik_Metal_Only>
0

> <s_lp_Force_Field>
OPLS_2005

> <r_lp_Energy>
34.2639

> <b_lp_Chiralities_Consistent>
1

> <s_lp_Variant>
AV-unprocessed.smi:2087-5

> <Gold.Version>
5.8.1

> <Gold.Id.Protein>
6NUR|6NUR_protein|mol2

> <Gold.PLP.Fitness>
45.2372

> <Gold.PLP.PLP>
-36.4421

> <Gold.PLP.part.hbond>
-4.6083

> <Gold.PLP.part.metal>
0.0000

> <Gold.PLP.part.buried>
-3.7072

> <Gold.PLP.part.nonpolar>
-29.4797

> <Gold.PLP.part.repulsive>
1.3892

> <Gold.PLP.ligand.clash>
0.0000

> <Gold.PLP.ligand.torsion>
0.5208

> <Gold.PLP.Chemscore.Hbond>
3.2267

> <Gold.PLP.Chemscore.CHOScore>
0.0000

> <Gold.PLP.Chemscore.Metal>
0.0000

> <Gold.Chemscore.Hbonds>
donor molecule, donor type, donor heavy atom, donor atom, acceptor molecule, acceptor atom, score
      L1  H    11    41       P1  7948  0.96
      P1  H  6896  6909       L1    23  1.00
      P1  H  7989  7998       L1     8  0.19
      P1  H 10752 10765       L1    13  1.00

> <Gold.PLP.Chemscore.Internal.Correction>
0.1566

> <Gold.Rescore>
     Score         DG    S(hbond)    S(metal)    S(lipo)     H(rot)  DE(clash)    DE(int)     intcor
     14.61     -18.99       2.42        0.00      93.70       2.16       1.57       2.82       ----

> <Gold.Chemscore.Fitness>
14.6115

> <Gold.Chemscore.DG>
-18.9945

> <Gold.Chemscore.ZeroCoef>
-5.4800

> <Gold.Chemscore.Hbond>
2.4225

> <Gold.Chemscore.Metal>
0.0000

> <Gold.Chemscore.Lipo>
93.6984

> <Gold.Chemscore.Internal_Hbond>
0.0000

> <Gold.Chemscore.DEClash>
1.5664

> <Gold.Chemscore.DEInternal>
2.8167

> <Gold.Chemscore.Rot>
2.1638

> <Gold.Chemscore.Internal.Correction>
   9.000000E+99

> <Gold.Chemscore.Hbonds>
donor molecule, donor type, donor heavy atom, donor atom, acceptor molecule, acceptor atom, score
      L1  H    11    41       P1  7948  0.43
      P1  H  6896  6909       L1    23  0.96
      P1  H 10752 10765       L1    13  0.43

> <Gold.Chemscore.Hbond.Weighted>
-8.0911

> <Gold.Chemscore.Metal.Weighted>
-0.0000

> <Gold.Chemscore.Lipo.Weighted>
-10.9627

> <Gold.Chemscore.Internal_Hbond.Weighted>
0.0000

> <Gold.Chemscore.DEClash.Weighted>
1.5664

> <Gold.Chemscore.DEInternal.Weighted>
2.8167

> <Gold.Chemscore.Rot.Weighted>
5.5393

> <Gold.Chemscore.Internal.Correction.Weighted>
   9.000000E+99

> <Gold.Protein.RotatedTorsions>
[ 6907 6896 6895 6894 ] final   -0.07 input  -60.11 | X-H torsion
[ 7974 7965 7964 7962 ] final  -65.69 input  175.53 | X-H torsion
[ 8008 7997 7996 7995 ] final  -72.04 input   59.86 | X-H torsion
[ 10167 10162 10161 10158 ] final   64.80 input  -65.29 | X-H torsion
[ 10718 10713 10712 10709 ] final -117.92 input   66.30 | X-H torsion
[ 10763 10752 10751 10750 ] final -151.60 input  -60.55 | X-H torsion
[ 11005 11000 10999 10996 ] final -115.31 input  -57.11 | X-H torsion

> <Gold.Protein.ActiveResidues>
 VAL166  LYS551  ARG553  GLY616  TRP617  ASP618  TYR619  PRO620  LYS621  CYS622 
 ASP623  PHE694  ASN695  SER759  ASP760  ASP761  ALA762  ILE779  LEU786  VAL792 
 PHE793  MET794  SER795  GLU796  ALA797  LYS798  CYS799  TRP800  GLU811  SER814 

> <Gold.Protein.RotatedAtoms>
  151.5683  135.1063  159.9988 H   0  0  0  0  0  0  0  0  0  0  0  0  # atno 6907 bound_to 6896
  152.4413  133.7450  159.6672 H   0  0  0  0  0  0  0  0  0  0  0  0  # atno 6908 bound_to 6896
  150.8319  133.8007  159.3118 H   0  0  0  0  0  0  0  0  0  0  0  0  # atno 6909 bound_to 6896
  145.7511  140.8908  143.0479 H   0  0  0  0  0  0  0  0  0  0  0  0  # atno 7974 bound_to 7965
  154.5135  140.0804  156.8036 H   0  0  0  0  0  0  0  0  0  0  0  0  # atno 8008 bound_to 7997
  155.3732  140.3424  155.4226 H   0  0  0  0  0  0  0  0  0  0  0  0  # atno 8009 bound_to 7997
  156.1601  140.1585  156.8614 H   0  0  0  0  0  0  0  0  0  0  0  0  # atno 8010 bound_to 7997
  140.1183  144.4755  150.6936 H   0  0  0  0  0  0  0  0  0  0  0  0  # atno 10167 bound_to 10162
  156.1068  130.6217  150.9225 H   0  0  0  0  0  0  0  0  0  0  0  0  # atno 10718 bound_to 10713
  154.8047  135.3256  154.7460 H   0  0  0  0  0  0  0  0  0  0  0  0  # atno 10763 bound_to 10752
  153.8121  135.6895  153.4843 H   0  0  0  0  0  0  0  0  0  0  0  0  # atno 10764 bound_to 10752
  153.1785  135.4595  154.9942 H   0  0  0  0  0  0  0  0  0  0  0  0  # atno 10765 bound_to 10752
  141.0496  133.9708  157.2859 H   0  0  0  0  0  0  0  0  0  0  0  0  # atno 11005 bound_to 11000
  144.6849  139.9592  143.7480 LP  0  0  0  0  0  0  0  0  0  0  0  0  # atno 17320 bound_to 7965
  146.0356  139.3374  143.0729 LP  0  0  0  0  0  0  0  0  0  0  0  0  # atno 17321 bound_to 7965
  140.6887  143.2364  151.5191 LP  0  0  0  0  0  0  0  0  0  0  0  0  # atno 17342 bound_to 10162
  139.5582  144.2222  152.1648 LP  0  0  0  0  0  0  0  0  0  0  0  0  # atno 17343 bound_to 10162
  157.6246  131.0927  150.8558 LP  0  0  0  0  0  0  0  0  0  0  0  0  # atno 17370 bound_to 10713
  156.8676  130.5135  149.5299 LP  0  0  0  0  0  0  0  0  0  0  0  0  # atno 17371 bound_to 10713
  139.9339  135.0198  156.8493 LP  0  0  0  0  0  0  0  0  0  0  0  0  # atno 17394 bound_to 11000
  140.6081  134.0109  155.7565 LP  0  0  0  0  0  0  0  0  0  0  0  0  # atno 17395 bound_to 11000

$$$$
