AV-unprocessed.smi:2684|AV-procd|sdf|10379|dock7
  -GOLD-   2272014413D 1   1.00000     0.00000
 Structure written by MMmdl.
 45 46  0  0  0  0  0  0  0  0  2 V2000
  152.2640  139.3694  158.5787 C   0  0  0  0  0  0  0  0  0  0  0  0
  151.6714  139.5261  157.2083 C   0  0  0  0  0  0  0  0  0  0  0  0
  151.5078  140.7253  156.4584 C   0  0  0  0  0  0  0  0  0  0  0  0
  150.9406  140.5213  155.2804 N   0  0  0  0  0  0  0  0  0  0  0  0
  150.7183  139.1906  155.2385 N   0  0  0  0  0  0  0  0  0  0  0  0
  150.0768  138.6010  154.0771 C   0  0  0  0  0  0  0  0  0  0  0  0
  148.5948  139.0123  153.9188 C   0  0  1  0  0  0  0  0  0  0  0  0
  148.4339  140.5257  154.1150 C   0  0  0  0  0  0  0  0  0  0  0  0
  148.0658  138.6337  152.5878 N   0  3  0  0  0  0  0  0  0  0  0  0
  146.6123  138.8379  152.4068 C   0  0  0  0  0  0  0  0  0  0  0  0
  145.8315  137.5247  152.5469 C   0  0  0  0  0  0  0  0  0  0  0  0
  144.7378  137.5330  153.1085 O   0  0  0  0  0  0  0  0  0  0  0  0
  146.3536  136.3764  152.0792 N   0  0  0  0  0  0  0  0  0  0  0  0
  145.7756  135.0332  152.1144 C   0  0  0  0  0  0  0  0  0  0  0  0
  146.7754  134.0594  152.7561 C   0  0  0  0  0  0  0  0  0  0  0  0
  146.2449  132.6174  152.6982 C   0  0  0  0  0  0  0  0  0  0  0  0
  145.9676  132.2555  151.3500 O   0  0  0  0  0  0  0  0  0  0  0  0
  144.9578  133.0633  150.7554 C   0  0  0  0  0  0  0  0  0  0  0  0
  145.4187  134.5287  150.7039 C   0  0  0  0  0  0  0  0  0  0  0  0
  151.1600  138.5638  156.3847 C   0  0  0  0  0  0  0  0  0  0  0  0
  153.0330  140.1169  158.7741 H   0  0  0  0  0  0  0  0  0  0  0  0
  152.7273  138.3914  158.7103 H   0  0  0  0  0  0  0  0  0  0  0  0
  151.5083  139.4734  159.3568 H   0  0  0  0  0  0  0  0  0  0  0  0
  151.7800  141.7332  156.7358 H   0  0  0  0  0  0  0  0  0  0  0  0
  150.6447  138.9007  153.1948 H   0  0  0  0  0  0  0  0  0  0  0  0
  150.1648  137.5157  154.1456 H   0  0  0  0  0  0  0  0  0  0  0  0
  147.9978  138.5237  154.6907 H   0  0  0  0  0  0  0  0  0  0  0  0
  148.7831  140.8329  155.1014 H   0  0  0  0  0  0  0  0  0  0  0  0
  147.3886  140.8243  154.0302 H   0  0  0  0  0  0  0  0  0  0  0  0
  149.0022  141.0869  153.3723 H   0  0  0  0  0  0  0  0  0  0  0  0
  148.5316  139.1956  151.8893 H   0  0  0  0  0  0  0  0  0  0  0  0
  146.2630  139.5782  153.1190 H   0  0  0  0  0  0  0  0  0  0  0  0
  146.4335  139.2472  151.4121 H   0  0  0  0  0  0  0  0  0  0  0  0
  147.2735  136.4401  151.6665 H   0  0  0  0  0  0  0  0  0  0  0  0
  144.8827  135.0358  152.7394 H   0  0  0  0  0  0  0  0  0  0  0  0
  147.7318  134.1090  152.2335 H   0  0  0  0  0  0  0  0  0  0  0  0
  146.9691  134.3430  153.7913 H   0  0  0  0  0  0  0  0  0  0  0  0
  146.9874  131.9287  153.1020 H   0  0  0  0  0  0  0  0  0  0  0  0
  145.3457  132.5069  153.3058 H   0  0  0  0  0  0  0  0  0  0  0  0
  144.7621  132.6968  149.7477 H   0  0  0  0  0  0  0  0  0  0  0  0
  144.0254  132.9696  151.3149 H   0  0  0  0  0  0  0  0  0  0  0  0
  144.6358  135.1400  150.2558 H   0  0  0  0  0  0  0  0  0  0  0  0
  146.2885  134.6092  150.0504 H   0  0  0  0  0  0  0  0  0  0  0  0
  151.0657  137.4970  156.5242 H   0  0  0  0  0  0  0  0  0  0  0  0
  148.2897  137.6645  152.4142 H   0  0  0  0  0  0  0  0  0  0  0  0
  1  2  1  0  0  0  0
  1 21  1  0  0  0  0
  1 22  1  0  0  0  0
  1 23  1  0  0  0  0
  2 20  2  0  0  0  0
  2  3  1  0  0  0  0
  3  4  2  0  0  0  0
  3 24  1  0  0  0  0
  4  5  1  0  0  0  0
  5  6  1  0  0  0  0
  5 20  1  0  0  0  0
  6  7  1  0  0  0  0
  6 25  1  0  0  0  0
  6 26  1  0  0  0  0
  7  8  1  0  0  0  0
  7  9  1  0  0  0  0
  7 27  1  0  0  0  0
  8 28  1  0  0  0  0
  8 29  1  0  0  0  0
  8 30  1  0  0  0  0
  9 10  1  0  0  0  0
  9 31  1  0  0  0  0
  9 45  1  0  0  0  0
 10 11  1  0  0  0  0
 10 32  1  0  0  0  0
 10 33  1  0  0  0  0
 11 12  2  0  0  0  0
 11 13  1  0  0  0  0
 13 14  1  0  0  0  0
 13 34  1  0  0  0  0
 14 19  1  0  0  0  0
 14 15  1  0  0  0  0
 14 35  1  0  0  0  0
 15 16  1  0  0  0  0
 15 36  1  0  0  0  0
 15 37  1  0  0  0  0
 16 17  1  0  0  0  0
 16 38  1  0  0  0  0
 16 39  1  0  0  0  0
 17 18  1  0  0  0  0
 18 19  1  0  0  0  0
 18 40  1  0  0  0  0
 18 41  1  0  0  0  0
 19 42  1  0  0  0  0
 19 43  1  0  0  0  0
 20 44  1  0  0  0  0
M  CHG  1   9   1
M  END
> <s_m_source_file>
AV-unprocessed.smi

> <i_m_source_file_index>
2684

> <i_lp_mmshare_version>
43012

> <i_f3d_flags>
0

> <s_epik_input>
W0NIM11jMVtjSF1ubihbY0hdMSlbQ0gyXVtDQEhdKFtDSDNdKVtOSF1bQ0gyXUMoPU8pW05IXVtDSF0yW0NIMl1bQ0gyXU9bQ0gyXVtDSDJdMg==

> <s_epik_cmdline>
J2VwaWtfcHl0aG9uJywgJy1waCcsICc3LjAnLCAnLXRuJywgJzgnLCAnLW1hJywgJzIwMCcsICctbWV0YWxfYmluZGluZycsICctaW1hZScsICc8aW5maWxlLm1hZT4nLCAnLW9tYWUnLCAnPG91dGZpbGUubWFlPic=

> <r_lp_tautomer_probability>
1

> <r_epik_Ionization_Penalty>
0.128576

> <r_epik_Ionization_Penalty_Charging>
0.128567

> <r_epik_Ionization_Penalty_Neutral>
8.60003e-06

> <r_epik_State_Penalty>
0.117991

> <r_epik_Charging_Adjusted_Penalty>
0.246558

> <i_epik_Tot_Q>
1

> <i_epik_Tot_abs_Q>
1

> <r_epik_Metal_State_Penalty>
0.118015

> <b_epik_Metal_Only>
0

> <s_lp_Force_Field>
OPLS_2005

> <r_lp_Energy>
10.4868

> <b_lp_Chiralities_Consistent>
1

> <s_lp_Variant>
AV-unprocessed.smi:2684-2

> <Gold.Version>
5.8.1

> <Gold.Id.Protein>
6NUR|6NUR_protein|mol2

> <Gold.PLP.Fitness>
46.7438

> <Gold.PLP.PLP>
-33.5111

> <Gold.PLP.part.hbond>
-3.9392

> <Gold.PLP.part.metal>
0.0000

> <Gold.PLP.part.buried>
-3.7332

> <Gold.PLP.part.nonpolar>
-26.2831

> <Gold.PLP.part.repulsive>
0.4656

> <Gold.PLP.ligand.clash>
0.0000

> <Gold.PLP.ligand.torsion>
0.8230

> <Gold.PLP.Chemscore.Hbond>
4.9353

> <Gold.PLP.Chemscore.CHOScore>
0.0000

> <Gold.PLP.Chemscore.Metal>
0.0000

> <Gold.Chemscore.Hbonds>
donor molecule, donor type, donor heavy atom, donor atom, acceptor molecule, acceptor atom, score
      L1  H     9    31       P1  7957  0.99
      L1  H     9    45       P1  7948  2.00
      L1  H    13    34       P1  7948  0.98
      P1  H  7989  7998       L1     4  0.96

> <Gold.PLP.Chemscore.Internal.Correction>
0.0728

> <Gold.Rescore>
     Score         DG    S(hbond)    S(metal)    S(lipo)     H(rot)  DE(clash)    DE(int)     intcor
     19.30     -21.56       3.81        0.00      73.38       2.04       0.02       2.24       ----

> <Gold.Chemscore.Fitness>
19.2982

> <Gold.Chemscore.DG>
-21.5600

> <Gold.Chemscore.ZeroCoef>
-5.4800

> <Gold.Chemscore.Hbond>
3.8104

> <Gold.Chemscore.Metal>
0.0000

> <Gold.Chemscore.Lipo>
73.3770

> <Gold.Chemscore.Internal_Hbond>
0.0000

> <Gold.Chemscore.DEClash>
0.0183

> <Gold.Chemscore.DEInternal>
2.2435

> <Gold.Chemscore.Rot>
2.0437

> <Gold.Chemscore.Internal.Correction>
   9.000000E+99

> <Gold.Chemscore.Hbonds>
donor molecule, donor type, donor heavy atom, donor atom, acceptor molecule, acceptor atom, score
      L1  H     9    31       P1  7957  0.91
      L1  H     9    45       P1  7948  1.00
      L1  H    13    34       P1  7948  0.93
      P1  H  7989  7998       L1     4  0.36

> <Gold.Chemscore.Hbond.Weighted>
-12.7267

> <Gold.Chemscore.Metal.Weighted>
-0.0000

> <Gold.Chemscore.Lipo.Weighted>
-8.5851

> <Gold.Chemscore.Internal_Hbond.Weighted>
0.0000

> <Gold.Chemscore.DEClash.Weighted>
0.0183

> <Gold.Chemscore.DEInternal.Weighted>
2.2435

> <Gold.Chemscore.Rot.Weighted>
5.2318

> <Gold.Chemscore.Internal.Correction.Weighted>
   9.000000E+99

> <Gold.Protein.RotatedTorsions>
[ 6907 6896 6895 6894 ] final   -1.61 input  -60.11 | X-H torsion
[ 7974 7965 7964 7962 ] final  165.27 input  175.53 | X-H torsion
[ 8008 7997 7996 7995 ] final   93.56 input   59.86 | X-H torsion
[ 10167 10162 10161 10158 ] final  -86.27 input  -65.29 | X-H torsion
[ 10718 10713 10712 10709 ] final   -4.82 input   66.30 | X-H torsion
[ 10763 10752 10751 10750 ] final   66.76 input  -60.55 | X-H torsion
[ 11005 11000 10999 10996 ] final  150.49 input  -57.11 | X-H torsion

> <Gold.Protein.ActiveResidues>
 VAL166  LYS551  ARG553  GLY616  TRP617  ASP618  TYR619  PRO620  LYS621  CYS622 
 ASP623  PHE694  ASN695  SER759  ASP760  ASP761  ALA762  ILE779  LEU786  VAL792 
 PHE793  MET794  SER795  GLU796  ALA797  LYS798  CYS799  TRP800  GLU811  SER814 

> <Gold.Protein.RotatedAtoms>
  151.5432  135.1068  159.9931 H   0  0  0  0  0  0  0  0  0  0  0  0  # atno 6907 bound_to 6896
  152.4525  133.7654  159.6780 H   0  0  0  0  0  0  0  0  0  0  0  0  # atno 6908 bound_to 6896
  150.8458  133.7797  159.3068 H   0  0  0  0  0  0  0  0  0  0  0  0  # atno 6909 bound_to 6896
  144.7509  139.8446  143.6366 H   0  0  0  0  0  0  0  0  0  0  0  0  # atno 7974 bound_to 7965
  156.0481  140.3311  155.7319 H   0  0  0  0  0  0  0  0  0  0  0  0  # atno 8008 bound_to 7997
  155.5643  140.0622  157.2839 H   0  0  0  0  0  0  0  0  0  0  0  0  # atno 8009 bound_to 7997
  154.4423  140.1872  156.0802 H   0  0  0  0  0  0  0  0  0  0  0  0  # atno 8010 bound_to 7997
  140.3958  143.2684  151.9206 H   0  0  0  0  0  0  0  0  0  0  0  0  # atno 10167 bound_to 10162
  156.7556  130.5253  149.5795 H   0  0  0  0  0  0  0  0  0  0  0  0  # atno 10718 bound_to 10713
  153.0155  135.5308  154.6874 H   0  0  0  0  0  0  0  0  0  0  0  0  # atno 10763 bound_to 10752
  154.6018  135.2869  155.0529 H   0  0  0  0  0  0  0  0  0  0  0  0  # atno 10764 bound_to 10752
  154.1583  135.6551  153.5032 H   0  0  0  0  0  0  0  0  0  0  0  0  # atno 10765 bound_to 10752
  140.1136  134.8909  157.1971 H   0  0  0  0  0  0  0  0  0  0  0  0  # atno 11005 bound_to 11000
  146.1458  139.4527  143.0080 LP  0  0  0  0  0  0  0  0  0  0  0  0  # atno 17320 bound_to 7965
  145.6947  141.0154  143.1537 LP  0  0  0  0  0  0  0  0  0  0  0  0  # atno 17321 bound_to 7965
  139.4787  144.5683  151.8130 LP  0  0  0  0  0  0  0  0  0  0  0  0  # atno 17342 bound_to 10162
  140.4792  144.1474  150.5930 LP  0  0  0  0  0  0  0  0  0  0  0  0  # atno 17343 bound_to 10162
  156.1372  130.6219  151.0417 LP  0  0  0  0  0  0  0  0  0  0  0  0  # atno 17370 bound_to 10713
  157.6757  131.0851  150.7499 LP  0  0  0  0  0  0  0  0  0  0  0  0  # atno 17371 bound_to 10713
  140.3058  134.3079  155.7278 LP  0  0  0  0  0  0  0  0  0  0  0  0  # atno 17394 bound_to 11000
  141.2136  133.7620  156.9707 LP  0  0  0  0  0  0  0  0  0  0  0  0  # atno 17395 bound_to 11000

$$$$
