AV-unprocessed.smi:598|AV-procd|sdf|3025|dock8
  -GOLD-   2262023533D 1   1.00000     0.00000
 Structure written by MMmdl.
 43 44  0  0  0  0  0  0  0  0  3 V2000
  152.4270  142.9516  161.4140 C   0  0  0  0  0  0  0  0  0  0  0  0
  152.6606  143.8069  160.1516 C   0  0  2  0  0  0  0  0  0  0  0  0
  152.1811  145.2589  160.3532 C   0  0  0  0  0  0  0  0  0  0  0  0
  150.6484  145.3688  160.3569 C   0  0  0  0  0  0  0  0  0  0  0  0
  150.0478  144.7778  159.0741 C   0  0  0  0  0  0  0  0  0  0  0  0
  150.5022  143.3218  158.8423 C   0  0  1  0  0  0  0  0  0  0  0  0
  149.9683  142.8401  157.5697 N   0  0  0  0  0  0  0  0  0  0  0  0
  149.3028  141.6892  157.3902 C   0  0  0  0  0  0  0  0  0  0  0  0
  149.0438  140.9079  158.3065 O   0  0  0  0  0  0  0  0  0  0  0  0
  148.8466  141.3949  155.9543 C   0  0  0  0  0  0  0  0  0  0  0  0
  149.5625  140.2642  155.3396 N   0  0  0  0  0  0  0  0  0  0  0  0
  150.8163  139.9256  155.8863 C   0  0  0  0  0  0  0  0  0  0  0  0
  151.5607  138.9141  155.3978 C   0  0  0  0  0  0  0  0  0  0  0  0
  152.8486  138.5841  155.9677 N   0  3  0  0  0  0  0  0  0  0  0  0
  153.4933  137.6652  155.4724 O   0  0  0  0  0  0  0  0  0  0  0  0
  153.2580  139.2302  156.9278 O   0  5  0  0  0  0  0  0  0  0  0  0
  151.0288  138.1668  154.2745 C   0  0  0  0  0  0  0  0  0  0  0  0
  149.8317  138.4878  153.7453 C   0  0  0  0  0  0  0  0  0  0  0  0
  149.0249  139.5914  154.2763 C   0  0  0  0  0  0  0  0  0  0  0  0
  147.9328  139.8928  153.7944 O   0  0  0  0  0  0  0  0  0  0  0  0
  152.0489  143.2093  158.8558 C   0  0  2  0  0  0  0  0  0  0  0  0
  152.5503  141.7784  158.5757 C   0  0  0  0  0  0  0  0  0  0  0  0
  151.3679  142.7963  161.6170 H   0  0  0  0  0  0  0  0  0  0  0  0
  152.8613  143.4299  162.2922 H   0  0  0  0  0  0  0  0  0  0  0  0
  152.8937  141.9708  161.3260 H   0  0  0  0  0  0  0  0  0  0  0  0
  153.7415  143.8510  160.0102 H   0  0  0  0  0  0  0  0  0  0  0  0
  152.5863  145.6668  161.2798 H   0  0  0  0  0  0  0  0  0  0  0  0
  152.5787  145.8825  159.5513 H   0  0  0  0  0  0  0  0  0  0  0  0
  150.2379  144.8550  161.2266 H   0  0  0  0  0  0  0  0  0  0  0  0
  150.3542  146.4141  160.4538 H   0  0  0  0  0  0  0  0  0  0  0  0
  148.9597  144.8290  159.1257 H   0  0  0  0  0  0  0  0  0  0  0  0
  150.3442  145.3946  158.2244 H   0  0  0  0  0  0  0  0  0  0  0  0
  150.1068  142.6986  159.6462 H   0  0  0  0  0  0  0  0  0  0  0  0
  150.1296  143.4237  156.7618 H   0  0  0  0  0  0  0  0  0  0  0  0
  147.7728  141.2046  155.9729 H   0  0  0  0  0  0  0  0  0  0  0  0
  148.9659  142.2917  155.3429 H   0  0  0  0  0  0  0  0  0  0  0  0
  151.1264  140.5463  156.7145 H   0  0  0  0  0  0  0  0  0  0  0  0
  151.5864  137.3453  153.8491 H   0  0  0  0  0  0  0  0  0  0  0  0
  149.4554  137.9184  152.9081 H   0  0  0  0  0  0  0  0  0  0  0  0
  152.4189  143.8242  158.0334 H   0  0  0  0  0  0  0  0  0  0  0  0
  152.1280  141.0601  159.2789 H   0  0  0  0  0  0  0  0  0  0  0  0
  153.6364  141.7217  158.6497 H   0  0  0  0  0  0  0  0  0  0  0  0
  152.2801  141.4488  157.5723 H   0  0  0  0  0  0  0  0  0  0  0  0
  1  2  1  0  0  0  0
  1 23  1  0  0  0  0
  1 24  1  0  0  0  0
  1 25  1  0  0  0  0
  2 21  1  0  0  0  0
  2  3  1  0  0  0  0
  2 26  1  0  0  0  0
  3  4  1  0  0  0  0
  3 27  1  0  0  0  0
  3 28  1  0  0  0  0
  4  5  1  0  0  0  0
  4 29  1  0  0  0  0
  4 30  1  0  0  0  0
  5  6  1  0  0  0  0
  5 31  1  0  0  0  0
  5 32  1  0  0  0  0
  6  7  1  0  0  0  0
  6 21  1  0  0  0  0
  6 33  1  0  0  0  0
  7  8  1  0  0  0  0
  7 34  1  0  0  0  0
  8  9  2  0  0  0  0
  8 10  1  0  0  0  0
 10 11  1  0  0  0  0
 10 35  1  0  0  0  0
 10 36  1  0  0  0  0
 11 19  1  0  0  0  0
 11 12  1  0  0  0  0
 12 13  2  0  0  0  0
 12 37  1  0  0  0  0
 13 14  1  0  0  0  0
 13 17  1  0  0  0  0
 14 15  2  0  0  0  0
 14 16  1  0  0  0  0
 17 18  2  0  0  0  0
 17 38  1  0  0  0  0
 18 19  1  0  0  0  0
 18 39  1  0  0  0  0
 19 20  2  0  0  0  0
 21 22  1  0  0  0  0
 21 40  1  0  0  0  0
 22 41  1  0  0  0  0
 22 42  1  0  0  0  0
 22 43  1  0  0  0  0
M  CHG  1  14   1
M  CHG  1  16  -1
M  END
> <s_m_source_file>
AV-unprocessed.smi

> <i_m_source_file_index>
598

> <i_lp_mmshare_version>
43012

> <i_f3d_flags>
0

> <s_epik_input>
W0NIM11bQ0BASF0xW0NIMl1bQ0gyXVtDSDJdW0NASF0oW0NASF0xW0NIM10pW05IXUMoPU8pW0NIMl1uMltjSF1jKFtOK10oPU8pW08tXSlbY0hdW2NIXWMyPU8=

> <s_epik_cmdline>
J2VwaWtfcHl0aG9uJywgJy1waCcsICc3LjAnLCAnLXRuJywgJzgnLCAnLW1hJywgJzIwMCcsICctbWV0YWxfYmluZGluZycsICctaW1hZScsICc8aW5maWxlLm1hZT4nLCAnLW9tYWUnLCAnPG91dGZpbGUubWFlPic=

> <r_lp_tautomer_probability>
1

> <r_epik_Ionization_Penalty>
1.91291e-08

> <r_epik_Ionization_Penalty_Charging>
8.21931e-11

> <r_epik_Ionization_Penalty_Neutral>
1.90469e-08

> <r_epik_State_Penalty>
-0

> <r_epik_Charging_Adjusted_Penalty>
8.21931e-11

> <i_epik_Tot_Q>
0

> <i_epik_Tot_abs_Q>
2

> <r_epik_Metal_State_Penalty>
-0

> <b_epik_Metal_Only>
0

> <s_lp_Force_Field>
OPLS_2005

> <r_lp_Energy>
25.21

> <b_lp_Chiralities_Consistent>
1

> <s_lp_Variant>
AV-unprocessed.smi:598-5

> <Gold.Version>
5.8.1

> <Gold.Id.Protein>
6NUR|6NUR_protein|mol2

> <Gold.PLP.Fitness>
42.5518

> <Gold.PLP.PLP>
-38.5809

> <Gold.PLP.part.hbond>
-3.3557

> <Gold.PLP.part.metal>
0.0000

> <Gold.PLP.part.buried>
-0.1783

> <Gold.PLP.part.nonpolar>
-36.2737

> <Gold.PLP.part.repulsive>
0.2457

> <Gold.PLP.ligand.clash>
0.0000

> <Gold.PLP.ligand.torsion>
0.4967

> <Gold.PLP.Chemscore.Hbond>
1.6516

> <Gold.PLP.Chemscore.CHOScore>
0.0000

> <Gold.PLP.Chemscore.Metal>
0.0000

> <Gold.Chemscore.Hbonds>
donor molecule, donor type, donor heavy atom, donor atom, acceptor molecule, acceptor atom, score
      L1  H     7    34       P1  8028  0.54
      P1  H  7997  8008       L1    16  0.89
      P1  H 10752 10765       L1    15  0.09

> <Gold.PLP.Chemscore.Internal.Correction>
0.0096

> <Gold.Rescore>
     Score         DG    S(hbond)    S(metal)    S(lipo)     H(rot)  DE(clash)    DE(int)     intcor
     19.46     -21.38       1.91        0.00     115.16       1.54       1.49       0.43       ----

> <Gold.Chemscore.Fitness>
19.4592

> <Gold.Chemscore.DG>
-21.3819

> <Gold.Chemscore.ZeroCoef>
-5.4800

> <Gold.Chemscore.Hbond>
1.9070

> <Gold.Chemscore.Metal>
0.0000

> <Gold.Chemscore.Lipo>
115.1570

> <Gold.Chemscore.Internal_Hbond>
0.0000

> <Gold.Chemscore.DEClash>
1.4943

> <Gold.Chemscore.DEInternal>
0.4285

> <Gold.Chemscore.Rot>
1.5393

> <Gold.Chemscore.Internal.Correction>
   9.000000E+99

> <Gold.Chemscore.Hbonds>
donor molecule, donor type, donor heavy atom, donor atom, acceptor molecule, acceptor atom, score
      L1  H     7    34       P1  8028  0.53
      P1  H  7997  8008       L1    16  0.82
      P1  H 10752 10765       L1    15  0.09

> <Gold.Chemscore.Hbond.Weighted>
-6.3692

> <Gold.Chemscore.Metal.Weighted>
-0.0000

> <Gold.Chemscore.Lipo.Weighted>
-13.4734

> <Gold.Chemscore.Internal_Hbond.Weighted>
0.0000

> <Gold.Chemscore.DEClash.Weighted>
1.4943

> <Gold.Chemscore.DEInternal.Weighted>
0.4285

> <Gold.Chemscore.Rot.Weighted>
3.9407

> <Gold.Chemscore.Internal.Correction.Weighted>
   9.000000E+99

> <Gold.Protein.RotatedTorsions>
[ 6907 6896 6895 6894 ] final   19.50 input  -60.11 | X-H torsion
[ 7974 7965 7964 7962 ] final   26.45 input  175.53 | X-H torsion
[ 8008 7997 7996 7995 ] final  -78.12 input   59.86 | X-H torsion
[ 10167 10162 10161 10158 ] final -171.31 input  -65.29 | X-H torsion
[ 10718 10713 10712 10709 ] final  -81.56 input   66.30 | X-H torsion
[ 10763 10752 10751 10750 ] final -159.24 input  -60.55 | X-H torsion
[ 11005 11000 10999 10996 ] final   81.91 input  -57.11 | X-H torsion

> <Gold.Protein.ActiveResidues>
 VAL166  LYS551  ARG553  GLY616  TRP617  ASP618  TYR619  PRO620  LYS621  CYS622 
 ASP623  PHE694  ASN695  SER759  ASP760  ASP761  ALA762  ILE779  LEU786  VAL792 
 PHE793  MET794  SER795  GLU796  ALA797  LYS798  CYS799  TRP800  GLU811  SER814 

> <Gold.Protein.RotatedAtoms>
  151.8819  135.0450  160.0489 H   0  0  0  0  0  0  0  0  0  0  0  0  # atno 6907 bound_to 6896
  152.2506  133.5207  159.5331 H   0  0  0  0  0  0  0  0  0  0  0  0  # atno 6908 bound_to 6896
  150.7082  134.0882  159.3964 H   0  0  0  0  0  0  0  0  0  0  0  0  # atno 6909 bound_to 6896
  146.1837  139.7327  142.8882 H   0  0  0  0  0  0  0  0  0  0  0  0  # atno 7974 bound_to 7965
  154.5659  140.0699  156.8891 H   0  0  0  0  0  0  0  0  0  0  0  0  # atno 8008 bound_to 7997
  155.2724  140.3366  155.4246 H   0  0  0  0  0  0  0  0  0  0  0  0  # atno 8009 bound_to 7997
  156.2080  140.1748  156.7743 H   0  0  0  0  0  0  0  0  0  0  0  0  # atno 8010 bound_to 7997
  139.5810  144.1424  152.1514 H   0  0  0  0  0  0  0  0  0  0  0  0  # atno 10167 bound_to 10162
  156.0048  130.4607  150.3972 H   0  0  0  0  0  0  0  0  0  0  0  0  # atno 10718 bound_to 10713
  154.7491  135.3088  154.8590 H   0  0  0  0  0  0  0  0  0  0  0  0  # atno 10763 bound_to 10752
  153.9383  135.6777  153.4749 H   0  0  0  0  0  0  0  0  0  0  0  0  # atno 10764 bound_to 10752
  153.1087  135.4877  154.8924 H   0  0  0  0  0  0  0  0  0  0  0  0  # atno 10765 bound_to 10752
  139.9081  134.8032  156.2104 H   0  0  0  0  0  0  0  0  0  0  0  0  # atno 11005 bound_to 11000
  145.4002  141.0384  143.3075 LP  0  0  0  0  0  0  0  0  0  0  0  0  # atno 17320 bound_to 7965
  144.8359  139.5551  143.6922 LP  0  0  0  0  0  0  0  0  0  0  0  0  # atno 17321 bound_to 7965
  140.0977  144.5566  150.7010 LP  0  0  0  0  0  0  0  0  0  0  0  0  # atno 17342 bound_to 10162
  140.7088  143.2488  151.4645 LP  0  0  0  0  0  0  0  0  0  0  0  0  # atno 17343 bound_to 10162
  157.2043  131.0445  151.2634 LP  0  0  0  0  0  0  0  0  0  0  0  0  # atno 17370 bound_to 10713
  157.3947  130.7301  149.6723 LP  0  0  0  0  0  0  0  0  0  0  0  0  # atno 17371 bound_to 10713
  141.0469  133.6909  156.1699 LP  0  0  0  0  0  0  0  0  0  0  0  0  # atno 17394 bound_to 11000
  140.6871  134.4706  157.5589 LP  0  0  0  0  0  0  0  0  0  0  0  0  # atno 17395 bound_to 11000

$$$$
