AV-unprocessed.smi:3084|AV-procd|sdf|11749|dock8
  -GOLD-   2272017143D 1   1.00000     0.00000
 Structure written by MMmdl.
 27 28  0  0  0  0  0  0  0  0  2 V2000
  148.9486  140.6416  154.1892 C   0  0  0  0  0  0  0  0  0  0  0  0
  148.1924  141.5245  154.9071 N   0  0  0  0  0  0  0  0  0  0  0  0
  149.0557  141.8282  155.8659 C   0  0  0  0  0  0  0  0  0  0  0  0
  150.2304  141.2067  155.7489 N   0  0  0  0  0  0  0  0  0  0  0  0
  151.4141  141.2570  156.5875 C   0  0  0  0  0  0  0  0  0  0  0  0
  151.2973  142.2763  157.7393 C   0  0  1  0  0  0  0  0  0  0  0  0
  152.4701  142.1926  158.7433 C   0  0  0  0  0  0  0  0  0  0  0  0
  152.3457  143.2597  159.8420 C   0  0  0  0  0  0  0  0  0  0  0  0
  152.2038  144.6556  159.2191 C   0  0  0  0  0  0  0  0  0  0  0  0
  151.0321  144.6899  158.2252 C   0  0  0  0  0  0  0  0  0  0  0  0
  151.1946  143.6478  157.1878 N   0  3  0  0  0  0  0  0  0  0  0  0
  150.1767  140.4118  154.6545 N   0  0  0  0  0  0  0  0  0  0  0  0
  148.5825  140.1521  153.2986 H   0  0  0  0  0  0  0  0  0  0  0  0
  148.8274  142.5174  156.6658 H   0  0  0  0  0  0  0  0  0  0  0  0
  151.5924  140.2574  156.9865 H   0  0  0  0  0  0  0  0  0  0  0  0
  152.2683  141.4971  155.9529 H   0  0  0  0  0  0  0  0  0  0  0  0
  150.3687  142.0775  158.2771 H   0  0  0  0  0  0  0  0  0  0  0  0
  152.5068  141.2063  159.2072 H   0  0  0  0  0  0  0  0  0  0  0  0
  153.4167  142.3208  158.2165 H   0  0  0  0  0  0  0  0  0  0  0  0
  151.4764  143.0456  160.4651 H   0  0  0  0  0  0  0  0  0  0  0  0
  153.2155  143.2272  160.4989 H   0  0  0  0  0  0  0  0  0  0  0  0
  152.0536  145.4011  160.0008 H   0  0  0  0  0  0  0  0  0  0  0  0
  153.1289  144.9250  158.7074 H   0  0  0  0  0  0  0  0  0  0  0  0
  150.0866  144.5342  158.7466 H   0  0  0  0  0  0  0  0  0  0  0  0
  150.9736  145.6659  157.7431 H   0  0  0  0  0  0  0  0  0  0  0  0
  152.0345  143.8462  156.6633 H   0  0  0  0  0  0  0  0  0  0  0  0
  150.4029  143.6881  156.5618 H   0  0  0  0  0  0  0  0  0  0  0  0
  1 12  2  0  0  0  0
  1  2  1  0  0  0  0
  1 13  1  0  0  0  0
  2  3  2  0  0  0  0
  3  4  1  0  0  0  0
  3 14  1  0  0  0  0
  4  5  1  0  0  0  0
  4 12  1  0  0  0  0
  5  6  1  0  0  0  0
  5 15  1  0  0  0  0
  5 16  1  0  0  0  0
  6 11  1  0  0  0  0
  6  7  1  0  0  0  0
  6 17  1  0  0  0  0
  7  8  1  0  0  0  0
  7 18  1  0  0  0  0
  7 19  1  0  0  0  0
  8  9  1  0  0  0  0
  8 20  1  0  0  0  0
  8 21  1  0  0  0  0
  9 10  1  0  0  0  0
  9 22  1  0  0  0  0
  9 23  1  0  0  0  0
 10 11  1  0  0  0  0
 10 24  1  0  0  0  0
 10 25  1  0  0  0  0
 11 26  1  0  0  0  0
 11 27  1  0  0  0  0
M  CHG  1  11   1
M  END
> <s_m_source_file>
AV-unprocessed.smi

> <i_m_source_file_index>
3084

> <i_lp_mmshare_version>
43012

> <i_f3d_flags>
0

> <s_epik_input>
bjFbY0hdbltjSF1uMVtDSDJdW0NAQEhdMltDSDJdW0NIMl1bQ0gyXVtDSDJdW05IXTI=

> <s_epik_cmdline>
J2VwaWtfcHl0aG9uJywgJy1waCcsICc3LjAnLCAnLXRuJywgJzgnLCAnLW1hJywgJzIwMCcsICctbWV0YWxfYmluZGluZycsICctaW1hZScsICc8aW5maWxlLm1hZT4nLCAnLW9tYWUnLCAnPG91dGZpbGUubWFlPic=

> <r_lp_tautomer_probability>
1

> <r_epik_Ionization_Penalty>
0.000475214

> <r_epik_Ionization_Penalty_Charging>
0.000474443

> <r_epik_Ionization_Penalty_Neutral>
7.70992e-07

> <r_epik_State_Penalty>
0.000294136

> <r_epik_Charging_Adjusted_Penalty>
0.000768579

> <i_epik_Tot_Q>
1

> <i_epik_Tot_abs_Q>
1

> <r_epik_Metal_State_Penalty>
-0

> <b_epik_Metal_Only>
0

> <s_lp_Force_Field>
OPLS_2005

> <r_lp_Energy>
15.8084

> <b_lp_Chiralities_Consistent>
1

> <s_lp_Variant>
AV-unprocessed.smi:3084-2

> <Gold.Version>
5.8.1

> <Gold.Id.Protein>
6NUR|6NUR_protein|mol2

> <Gold.PLP.Fitness>
40.3410

> <Gold.PLP.PLP>
-26.9685

> <Gold.PLP.part.hbond>
-2.0000

> <Gold.PLP.part.metal>
0.0000

> <Gold.PLP.part.buried>
-1.4679

> <Gold.PLP.part.nonpolar>
-23.5726

> <Gold.PLP.part.repulsive>
0.2288

> <Gold.PLP.ligand.clash>
0.0000

> <Gold.PLP.ligand.torsion>
0.0363

> <Gold.PLP.Chemscore.Hbond>
2.9760

> <Gold.PLP.Chemscore.CHOScore>
1.5041

> <Gold.PLP.Chemscore.Metal>
0.0000

> <Gold.Chemscore.Hbonds>
donor molecule, donor type, donor heavy atom, donor atom, acceptor molecule, acceptor atom, score
      L1  H    11    27       P1  8028  1.98
      P1  H  7989  7998       L1    12  0.98
      L1  C     1    13       P1  7957  0.97
      L1  C     3    14       P1  8028  0.52

> <Gold.PLP.Chemscore.Internal.Correction>
0.0047

> <Gold.Rescore>
     Score         DG    S(hbond)    S(metal)    S(lipo)     H(rot)  DE(clash)    DE(int)     intcor
     14.51     -14.74       1.81        0.00      60.55       1.51       0.05       0.18       ----

> <Gold.Chemscore.Fitness>
14.5057

> <Gold.Chemscore.DG>
-14.7398

> <Gold.Chemscore.ZeroCoef>
-5.4800

> <Gold.Chemscore.Hbond>
1.8061

> <Gold.Chemscore.Metal>
0.0000

> <Gold.Chemscore.Lipo>
60.5496

> <Gold.Chemscore.Internal_Hbond>
0.0000

> <Gold.Chemscore.DEClash>
0.0504

> <Gold.Chemscore.DEInternal>
0.1837

> <Gold.Chemscore.Rot>
1.5066

> <Gold.Chemscore.Internal.Correction>
   9.000000E+99

> <Gold.Chemscore.Hbonds>
donor molecule, donor type, donor heavy atom, donor atom, acceptor molecule, acceptor atom, score
      L1  H    11    27       P1  8028  0.87
      P1  H  7989  7998       L1    12  0.60

> <Gold.Chemscore.Hbond.Weighted>
-6.0325

> <Gold.Chemscore.Metal.Weighted>
-0.0000

> <Gold.Chemscore.Lipo.Weighted>
-7.0843

> <Gold.Chemscore.Internal_Hbond.Weighted>
0.0000

> <Gold.Chemscore.DEClash.Weighted>
0.0504

> <Gold.Chemscore.DEInternal.Weighted>
0.1837

> <Gold.Chemscore.Rot.Weighted>
3.8569

> <Gold.Chemscore.Internal.Correction.Weighted>
   9.000000E+99

> <Gold.Protein.RotatedTorsions>
[ 6907 6896 6895 6894 ] final  124.97 input  -60.11 | X-H torsion
[ 7974 7965 7964 7962 ] final   33.63 input  175.53 | X-H torsion
[ 8008 7997 7996 7995 ] final    9.80 input   59.86 | X-H torsion
[ 10167 10162 10161 10158 ] final  -97.37 input  -65.29 | X-H torsion
[ 10718 10713 10712 10709 ] final   49.85 input   66.30 | X-H torsion
[ 10763 10752 10751 10750 ] final  144.69 input  -60.55 | X-H torsion
[ 11005 11000 10999 10996 ] final   -6.20 input  -57.11 | X-H torsion

> <Gold.Protein.ActiveResidues>
 VAL166  LYS551  ARG553  GLY616  TRP617  ASP618  TYR619  PRO620  LYS621  CYS622 
 ASP623  PHE694  ASN695  SER759  ASP760  ASP761  ALA762  ILE779  LEU786  VAL792 
 PHE793  MET794  SER795  GLU796  ALA797  LYS798  CYS799  TRP800  GLU811  SER814 

> <Gold.Protein.RotatedAtoms>
  152.4033  133.6850  159.6334 H   0  0  0  0  0  0  0  0  0  0  0  0  # atno 6907 bound_to 6896
  150.7921  133.8754  159.3279 H   0  0  0  0  0  0  0  0  0  0  0  0  # atno 6908 bound_to 6896
  151.6514  135.1002  160.0213 H   0  0  0  0  0  0  0  0  0  0  0  0  # atno 6909 bound_to 6896
  146.1407  139.6372  142.9165 H   0  0  0  0  0  0  0  0  0  0  0  0  # atno 7974 bound_to 7965
  154.7849  140.2825  155.6035 H   0  0  0  0  0  0  0  0  0  0  0  0  # atno 8008 bound_to 7997
  156.2956  140.2616  156.2611 H   0  0  0  0  0  0  0  0  0  0  0  0  # atno 8009 bound_to 7997
  154.9740  140.0375  157.2237 H   0  0  0  0  0  0  0  0  0  0  0  0  # atno 8010 bound_to 7997
  140.2842  143.3263  152.0411 H   0  0  0  0  0  0  0  0  0  0  0  0  # atno 10167 bound_to 10162
  157.4827  130.8325  149.8111 H   0  0  0  0  0  0  0  0  0  0  0  0  # atno 10718 bound_to 10713
  153.9930  135.2930  155.3410 H   0  0  0  0  0  0  0  0  0  0  0  0  # atno 10763 bound_to 10752
  154.7204  135.5112  153.8806 H   0  0  0  0  0  0  0  0  0  0  0  0  # atno 10764 bound_to 10752
  153.0801  135.6676  154.0180 H   0  0  0  0  0  0  0  0  0  0  0  0  # atno 10765 bound_to 10752
  140.6994  133.9002  155.8673 H   0  0  0  0  0  0  0  0  0  0  0  0  # atno 11005 bound_to 11000
  145.5052  141.0437  143.2518 LP  0  0  0  0  0  0  0  0  0  0  0  0  # atno 17320 bound_to 7965
  144.7790  139.6568  143.7162 LP  0  0  0  0  0  0  0  0  0  0  0  0  # atno 17321 bound_to 7965
  139.4955  144.6571  151.6549 LP  0  0  0  0  0  0  0  0  0  0  0  0  # atno 17342 bound_to 10162
  140.5787  143.9984  150.6256 LP  0  0  0  0  0  0  0  0  0  0  0  0  # atno 17343 bound_to 10162
  156.0130  130.3825  150.2202 LP  0  0  0  0  0  0  0  0  0  0  0  0  # atno 17370 bound_to 10713
  157.0388  131.0029  151.3290 LP  0  0  0  0  0  0  0  0  0  0  0  0  # atno 17371 bound_to 10713
  141.0176  134.0934  157.4155 LP  0  0  0  0  0  0  0  0  0  0  0  0  # atno 17394 bound_to 11000
  139.8901  135.0109  156.6716 LP  0  0  0  0  0  0  0  0  0  0  0  0  # atno 17395 bound_to 11000

$$$$
