AV-unprocessed.smi:3161|AV-procd|sdf|12057|dock8
  -GOLD-   2272017483D 1   1.00000     0.00000
 Structure written by MMmdl.
 41 42  0  0  0  0  0  0  0  0  2 V2000
  143.9449  143.9549  155.1222 C   0  0  0  0  0  0  0  0  0  0  0  0
  145.2346  143.1863  155.0936 C   0  0  0  0  0  0  0  0  0  0  0  0
  145.8831  142.5280  156.1769 C   0  0  0  0  0  0  0  0  0  0  0  0
  147.0155  141.9444  155.8199 N   0  0  0  0  0  0  0  0  0  0  0  0
  147.1282  142.2056  154.4999 N   0  0  0  0  0  0  0  0  0  0  0  0
  148.2861  141.7257  153.7651 C   0  0  0  0  0  0  0  0  0  0  0  0
  149.3071  141.0288  154.6849 C   0  0  2  0  0  0  0  0  0  0  0  0
  148.8544  139.6026  155.0358 C   0  0  0  0  0  0  0  0  0  0  0  0
  149.5155  141.8308  155.9114 N   0  3  0  0  0  0  0  0  0  0  0  0
  150.7954  141.5983  156.6106 C   0  0  0  0  0  0  0  0  0  0  0  0
  150.9103  142.5051  157.8433 C   0  0  1  0  0  0  0  0  0  0  0  0
  151.8834  141.9321  158.8916 C   0  0  0  0  0  0  0  0  0  0  0  0
  152.0576  142.9107  160.0589 C   0  0  0  0  0  0  0  0  0  0  0  0
  152.4508  144.2914  159.5229 C   0  0  0  0  0  0  0  0  0  0  0  0
  151.4571  144.7470  158.4431 C   0  0  0  0  0  0  0  0  0  0  0  0
  151.3939  143.7739  157.4051 O   0  0  0  0  0  0  0  0  0  0  0  0
  146.0664  142.9524  154.0351 C   0  0  0  0  0  0  0  0  0  0  0  0
  143.2832  143.6054  155.9149 H   0  0  0  0  0  0  0  0  0  0  0  0
  143.3974  143.8623  154.1840 H   0  0  0  0  0  0  0  0  0  0  0  0
  144.1159  145.0180  155.2914 H   0  0  0  0  0  0  0  0  0  0  0  0
  145.5672  142.4604  157.2076 H   0  0  0  0  0  0  0  0  0  0  0  0
  147.9529  141.0518  152.9737 H   0  0  0  0  0  0  0  0  0  0  0  0
  148.7479  142.5815  153.2709 H   0  0  0  0  0  0  0  0  0  0  0  0
  150.2526  140.9685  154.1432 H   0  0  0  0  0  0  0  0  0  0  0  0
  148.6962  139.0103  154.1343 H   0  0  0  0  0  0  0  0  0  0  0  0
  147.9184  139.6103  155.5954 H   0  0  0  0  0  0  0  0  0  0  0  0
  149.5985  139.0810  155.6379 H   0  0  0  0  0  0  0  0  0  0  0  0
  149.5084  142.8027  155.6330 H   0  0  0  0  0  0  0  0  0  0  0  0
  150.8545  140.5514  156.9089 H   0  0  0  0  0  0  0  0  0  0  0  0
  151.6287  141.7897  155.9333 H   0  0  0  0  0  0  0  0  0  0  0  0
  149.9228  142.6268  158.2928 H   0  0  0  0  0  0  0  0  0  0  0  0
  151.5201  140.9730  159.2622 H   0  0  0  0  0  0  0  0  0  0  0  0
  152.8529  141.7415  158.4294 H   0  0  0  0  0  0  0  0  0  0  0  0
  151.1242  142.9854  160.6182 H   0  0  0  0  0  0  0  0  0  0  0  0
  152.8122  142.5432  160.7549 H   0  0  0  0  0  0  0  0  0  0  0  0
  152.4857  145.0170  160.3362 H   0  0  0  0  0  0  0  0  0  0  0  0
  153.4543  144.2484  159.0978 H   0  0  0  0  0  0  0  0  0  0  0  0
  150.4650  144.9073  158.8681 H   0  0  0  0  0  0  0  0  0  0  0  0
  151.7770  145.6976  158.0160 H   0  0  0  0  0  0  0  0  0  0  0  0
  145.9934  143.2572  153.0014 H   0  0  0  0  0  0  0  0  0  0  0  0
  148.7456  141.6785  156.5471 H   0  0  0  0  0  0  0  0  0  0  0  0
  1  2  1  0  0  0  0
  1 18  1  0  0  0  0
  1 19  1  0  0  0  0
  1 20  1  0  0  0  0
  2 17  2  0  0  0  0
  2  3  1  0  0  0  0
  3  4  2  0  0  0  0
  3 21  1  0  0  0  0
  4  5  1  0  0  0  0
  5  6  1  0  0  0  0
  5 17  1  0  0  0  0
  6  7  1  0  0  0  0
  6 22  1  0  0  0  0
  6 23  1  0  0  0  0
  7  8  1  0  0  0  0
  7  9  1  0  0  0  0
  7 24  1  0  0  0  0
  8 25  1  0  0  0  0
  8 26  1  0  0  0  0
  8 27  1  0  0  0  0
  9 10  1  0  0  0  0
  9 28  1  0  0  0  0
  9 41  1  0  0  0  0
 10 11  1  0  0  0  0
 10 29  1  0  0  0  0
 10 30  1  0  0  0  0
 11 16  1  0  0  0  0
 11 12  1  0  0  0  0
 11 31  1  0  0  0  0
 12 13  1  0  0  0  0
 12 32  1  0  0  0  0
 12 33  1  0  0  0  0
 13 14  1  0  0  0  0
 13 34  1  0  0  0  0
 13 35  1  0  0  0  0
 14 15  1  0  0  0  0
 14 36  1  0  0  0  0
 14 37  1  0  0  0  0
 15 16  1  0  0  0  0
 15 38  1  0  0  0  0
 15 39  1  0  0  0  0
 17 40  1  0  0  0  0
M  CHG  1   9   1
M  END
> <s_m_source_file>
AV-unprocessed.smi

> <i_m_source_file_index>
3161

> <i_lp_mmshare_version>
43012

> <i_f3d_flags>
0

> <s_epik_input>
W0NIM11jMVtjSF1ubihbY0hdMSlbQ0gyXVtDQEhdKFtDSDNdKVtOSF1bQ0gyXVtDQEBIXTJbQ0gyXVtDSDJdW0NIMl1bQ0gyXU8y

> <s_epik_cmdline>
J2VwaWtfcHl0aG9uJywgJy1waCcsICc3LjAnLCAnLXRuJywgJzgnLCAnLW1hJywgJzIwMCcsICctbWV0YWxfYmluZGluZycsICctaW1hZScsICc8aW5maWxlLm1hZT4nLCAnLW9tYWUnLCAnPG91dGZpbGUubWFlPic=

> <r_lp_tautomer_probability>
1

> <r_epik_Ionization_Penalty>
0.00849661

> <r_epik_Ionization_Penalty_Charging>
0.00848754

> <r_epik_Ionization_Penalty_Neutral>
9.06711e-06

> <r_epik_State_Penalty>
0.00639836

> <r_epik_Charging_Adjusted_Penalty>
0.0148859

> <i_epik_Tot_Q>
1

> <i_epik_Tot_abs_Q>
1

> <r_epik_Metal_State_Penalty>
0.00639921

> <b_epik_Metal_Only>
0

> <s_lp_Force_Field>
OPLS_2005

> <r_lp_Energy>
12.1076

> <b_lp_Chiralities_Consistent>
1

> <s_lp_Variant>
AV-unprocessed.smi:3161-3

> <Gold.Version>
5.8.1

> <Gold.Id.Protein>
6NUR|6NUR_protein|mol2

> <Gold.PLP.Fitness>
42.6059

> <Gold.PLP.PLP>
-37.8243

> <Gold.PLP.part.hbond>
-1.0000

> <Gold.PLP.part.metal>
0.0000

> <Gold.PLP.part.buried>
-4.5563

> <Gold.PLP.part.nonpolar>
-33.5467

> <Gold.PLP.part.repulsive>
0.3768

> <Gold.PLP.ligand.clash>
0.0000

> <Gold.PLP.ligand.torsion>
0.6179

> <Gold.PLP.Chemscore.Hbond>
2.0000

> <Gold.PLP.Chemscore.CHOScore>
0.0000

> <Gold.PLP.Chemscore.Metal>
0.0000

> <Gold.Chemscore.Hbonds>
donor molecule, donor type, donor heavy atom, donor atom, acceptor molecule, acceptor atom, score
      L1  H     9    28       P1  8028  2.00

> <Gold.PLP.Chemscore.Internal.Correction>
0.0174

> <Gold.Rescore>
     Score         DG    S(hbond)    S(metal)    S(lipo)     H(rot)  DE(clash)    DE(int)     intcor
     15.30     -15.91       0.99        0.00      95.18       1.57       0.04       0.57       ----

> <Gold.Chemscore.Fitness>
15.3018

> <Gold.Chemscore.DG>
-15.9119

> <Gold.Chemscore.ZeroCoef>
-5.4800

> <Gold.Chemscore.Hbond>
0.9937

> <Gold.Chemscore.Metal>
0.0000

> <Gold.Chemscore.Lipo>
95.1759

> <Gold.Chemscore.Internal_Hbond>
0.0000

> <Gold.Chemscore.DEClash>
0.0402

> <Gold.Chemscore.DEInternal>
0.5698

> <Gold.Chemscore.Rot>
1.5714

> <Gold.Chemscore.Internal.Correction>
   9.000000E+99

> <Gold.Chemscore.Hbonds>
donor molecule, donor type, donor heavy atom, donor atom, acceptor molecule, acceptor atom, score
      L1  H     9    28       P1  8028  0.93

> <Gold.Chemscore.Hbond.Weighted>
-3.3191

> <Gold.Chemscore.Metal.Weighted>
-0.0000

> <Gold.Chemscore.Lipo.Weighted>
-11.1356

> <Gold.Chemscore.Internal_Hbond.Weighted>
0.0000

> <Gold.Chemscore.DEClash.Weighted>
0.0402

> <Gold.Chemscore.DEInternal.Weighted>
0.5698

> <Gold.Chemscore.Rot.Weighted>
4.0228

> <Gold.Chemscore.Internal.Correction.Weighted>
   9.000000E+99

> <Gold.Protein.RotatedTorsions>
[ 6907 6896 6895 6894 ] final    2.26 input  -60.11 | X-H torsion
[ 7974 7965 7964 7962 ] final   65.43 input  175.53 | X-H torsion
[ 8008 7997 7996 7995 ] final  -79.51 input   59.86 | X-H torsion
[ 10167 10162 10161 10158 ] final  -80.44 input  -65.29 | X-H torsion
[ 10718 10713 10712 10709 ] final   49.07 input   66.30 | X-H torsion
[ 10763 10752 10751 10750 ] final   20.55 input  -60.55 | X-H torsion
[ 11005 11000 10999 10996 ] final  -82.40 input  -57.11 | X-H torsion

> <Gold.Protein.ActiveResidues>
 VAL166  LYS551  ARG553  GLY616  TRP617  ASP618  TYR619  PRO620  LYS621  CYS622 
 ASP623  PHE694  ASN695  SER759  ASP760  ASP761  ALA762  ILE779  LEU786  VAL792 
 PHE793  MET794  SER795  GLU796  ALA797  LYS798  CYS799  TRP800  GLU811  SER814 

> <Gold.Protein.RotatedAtoms>
  151.6060  135.1044  160.0070 H   0  0  0  0  0  0  0  0  0  0  0  0  # atno 6907 bound_to 6896
  152.4233  133.7148  159.6510 H   0  0  0  0  0  0  0  0  0  0  0  0  # atno 6908 bound_to 6896
  150.8121  133.8330  159.3199 H   0  0  0  0  0  0  0  0  0  0  0  0  # atno 6909 bound_to 6896
  145.8386  139.3181  143.0945 H   0  0  0  0  0  0  0  0  0  0  0  0  # atno 7974 bound_to 7965
  154.5792  140.0677  156.9079 H   0  0  0  0  0  0  0  0  0  0  0  0  # atno 8008 bound_to 7997
  155.2493  140.3350  155.4265 H   0  0  0  0  0  0  0  0  0  0  0  0  # atno 8009 bound_to 7997
  156.2177  140.1785  156.7536 H   0  0  0  0  0  0  0  0  0  0  0  0  # atno 8010 bound_to 7997
  140.4503  143.2485  151.8498 H   0  0  0  0  0  0  0  0  0  0  0  0  # atno 10167 bound_to 10162
  157.4750  130.8279  149.8029 H   0  0  0  0  0  0  0  0  0  0  0  0  # atno 10718 bound_to 10713
  153.1068  135.6686  153.9572 H   0  0  0  0  0  0  0  0  0  0  0  0  # atno 10763 bound_to 10752
  153.9127  135.3023  155.3450 H   0  0  0  0  0  0  0  0  0  0  0  0  # atno 10764 bound_to 10752
  154.7489  135.5044  153.9329 H   0  0  0  0  0  0  0  0  0  0  0  0  # atno 10765 bound_to 10752
  141.1663  133.7243  156.8566 H   0  0  0  0  0  0  0  0  0  0  0  0  # atno 11005 bound_to 11000
  145.9491  140.8922  143.0268 LP  0  0  0  0  0  0  0  0  0  0  0  0  # atno 17320 bound_to 7965
  144.6735  140.1655  143.7419 LP  0  0  0  0  0  0  0  0  0  0  0  0  # atno 17321 bound_to 7965
  139.4796  144.5128  151.8910 LP  0  0  0  0  0  0  0  0  0  0  0  0  # atno 17342 bound_to 10162
  140.4215  144.2237  150.5887 LP  0  0  0  0  0  0  0  0  0  0  0  0  # atno 17343 bound_to 10162
  156.0092  130.3841  150.2323 LP  0  0  0  0  0  0  0  0  0  0  0  0  # atno 17370 bound_to 10713
  157.0507  131.0062  151.3254 LP  0  0  0  0  0  0  0  0  0  0  0  0  # atno 17371 bound_to 10713
  140.1878  134.8987  157.3024 LP  0  0  0  0  0  0  0  0  0  0  0  0  # atno 17394 bound_to 11000
  140.2324  134.3893  155.7516 LP  0  0  0  0  0  0  0  0  0  0  0  0  # atno 17395 bound_to 11000

$$$$
