AV-unprocessed.smi:2746|AV-procd|sdf|10572|dock4
  -GOLD-   2272015 23D 1   1.00000     0.00000
 Structure written by MMmdl.
 38 39  0  0  0  0  0  0  0  0  1 V2000
  152.2920  145.0283  158.5647 C   0  0  0  0  0  0  0  0  0  0  0  0
  152.3887  143.9251  159.3217 C   0  0  0  0  0  0  0  0  0  0  0  0
  152.6502  142.5318  158.7801 C   0  0  1  0  0  0  0  0  0  0  0  0
  152.6890  141.4969  159.9118 C   0  0  0  0  0  0  0  0  0  0  0  0
  151.6180  142.1599  157.8189 N   0  0  0  0  0  0  0  0  0  0  0  0
  151.6007  141.0321  157.0874 C   0  0  0  0  0  0  0  0  0  0  0  0
  152.4864  140.1777  157.1420 O   0  0  0  0  0  0  0  0  0  0  0  0
  150.4377  140.8827  156.1432 C   0  0  0  0  0  0  0  0  0  0  0  0
  149.2157  141.5376  156.4232 C   0  0  0  0  0  0  0  0  0  0  0  0
  148.1387  141.4002  155.5190 C   0  0  0  0  0  0  0  0  0  0  0  0
  146.9011  142.0220  155.7333 N   0  0  0  0  0  0  0  0  0  0  0  0
  146.7960  142.6898  157.0244 C   0  0  0  0  0  0  0  0  0  0  0  0
  145.3704  143.2356  157.2189 C   0  0  0  0  0  0  0  0  0  0  0  0
  145.0352  144.0957  156.1334 O   0  0  0  0  0  0  0  0  0  0  0  0
  145.0701  143.4156  154.8816 C   0  0  0  0  0  0  0  0  0  0  0  0
  146.4884  142.8760  154.6274 C   0  0  0  0  0  0  0  0  0  0  0  0
  148.3284  140.6155  154.3652 C   0  0  0  0  0  0  0  0  0  0  0  0
  149.5801  140.0036  154.1671 C   0  0  0  0  0  0  0  0  0  0  0  0
  150.6114  140.1312  155.0280 N   0  0  0  0  0  0  0  0  0  0  0  0
  152.3978  144.9820  157.4905 H   0  0  0  0  0  0  0  0  0  0  0  0
  152.1047  145.9936  159.0112 H   0  0  0  0  0  0  0  0  0  0  0  0
  152.2773  144.0111  160.3930 H   0  0  0  0  0  0  0  0  0  0  0  0
  153.6218  142.5234  158.2821 H   0  0  0  0  0  0  0  0  0  0  0  0
  153.4691  141.7370  160.6349 H   0  0  0  0  0  0  0  0  0  0  0  0
  152.8981  140.4995  159.5234 H   0  0  0  0  0  0  0  0  0  0  0  0
  151.7398  141.4540  160.4476 H   0  0  0  0  0  0  0  0  0  0  0  0
  150.8518  142.8062  157.6959 H   0  0  0  0  0  0  0  0  0  0  0  0
  149.1033  142.1365  157.3157 H   0  0  0  0  0  0  0  0  0  0  0  0
  147.0405  141.9891  157.8237 H   0  0  0  0  0  0  0  0  0  0  0  0
  147.5145  143.5086  157.0804 H   0  0  0  0  0  0  0  0  0  0  0  0
  144.6478  142.4208  157.2872 H   0  0  0  0  0  0  0  0  0  0  0  0
  145.3061  143.7973  158.1507 H   0  0  0  0  0  0  0  0  0  0  0  0
  144.3390  142.6056  154.8756 H   0  0  0  0  0  0  0  0  0  0  0  0
  144.7837  144.1092  154.0912 H   0  0  0  0  0  0  0  0  0  0  0  0
  147.1868  143.7074  154.5211 H   0  0  0  0  0  0  0  0  0  0  0  0
  146.5126  142.3114  153.6945 H   0  0  0  0  0  0  0  0  0  0  0  0
  147.5335  140.4840  153.6456 H   0  0  0  0  0  0  0  0  0  0  0  0
  149.7587  139.3957  153.2927 H   0  0  0  0  0  0  0  0  0  0  0  0
  1  2  2  0  0  0  0
  1 20  1  0  0  0  0
  1 21  1  0  0  0  0
  2  3  1  0  0  0  0
  2 22  1  0  0  0  0
  3  4  1  0  0  0  0
  3  5  1  0  0  0  0
  3 23  1  0  0  0  0
  4 24  1  0  0  0  0
  4 25  1  0  0  0  0
  4 26  1  0  0  0  0
  5  6  1  0  0  0  0
  5 27  1  0  0  0  0
  6  7  2  0  0  0  0
  6  8  1  0  0  0  0
  8 19  1  0  0  0  0
  8  9  2  0  0  0  0
  9 10  1  0  0  0  0
  9 28  1  0  0  0  0
 10 11  1  0  0  0  0
 10 17  2  0  0  0  0
 11 16  1  0  0  0  0
 11 12  1  0  0  0  0
 12 13  1  0  0  0  0
 12 29  1  0  0  0  0
 12 30  1  0  0  0  0
 13 14  1  0  0  0  0
 13 31  1  0  0  0  0
 13 32  1  0  0  0  0
 14 15  1  0  0  0  0
 15 16  1  0  0  0  0
 15 33  1  0  0  0  0
 15 34  1  0  0  0  0
 16 35  1  0  0  0  0
 16 36  1  0  0  0  0
 17 18  1  0  0  0  0
 17 37  1  0  0  0  0
 18 19  2  0  0  0  0
 18 38  1  0  0  0  0
M  END
> <s_m_source_file>
AV-unprocessed.smi

> <i_m_source_file_index>
2746

> <i_lp_mmshare_version>
43012

> <i_f3d_flags>
0

> <s_epik_input>
W0NIMl09W0NIXVtDQEhdKFtDSDNdKVtOSF1DKD1PKWMxW2NIXWMoW2NIXVtjSF1uMSlOMltDSDJdW0NIMl1PW0NIMl1bQ0gyXTI=

> <s_epik_cmdline>
J2VwaWtfcHl0aG9uJywgJy1waCcsICc3LjAnLCAnLXRuJywgJzgnLCAnLW1hJywgJzIwMCcsICctbWV0YWxfYmluZGluZycsICctaW1hZScsICc8aW5maWxlLm1hZT4nLCAnLW9tYWUnLCAnPG91dGZpbGUubWFlPic=

> <r_lp_tautomer_probability>
1

> <r_epik_Ionization_Penalty>
0.373275

> <r_epik_Ionization_Penalty_Charging>
0

> <r_epik_Ionization_Penalty_Neutral>
0.373275

> <r_epik_State_Penalty>
0.370855

> <r_epik_Charging_Adjusted_Penalty>
0.370855

> <i_epik_Tot_Q>
0

> <i_epik_Tot_abs_Q>
0

> <r_epik_Metal_State_Penalty>
0.225885

> <b_epik_Metal_Only>
0

> <s_lp_Force_Field>
OPLS_2005

> <r_lp_Energy>
21.8565

> <b_lp_Chiralities_Consistent>
1

> <s_lp_Variant>
AV-unprocessed.smi:2746-2

> <Gold.Version>
5.8.1

> <Gold.Id.Protein>
6NUR|6NUR_protein|mol2

> <Gold.PLP.Fitness>
41.5963

> <Gold.PLP.PLP>
-35.2814

> <Gold.PLP.part.hbond>
-2.0000

> <Gold.PLP.part.metal>
0.0000

> <Gold.PLP.part.buried>
-0.9506

> <Gold.PLP.part.nonpolar>
-30.8604

> <Gold.PLP.part.repulsive>
0.3645

> <Gold.PLP.ligand.clash>
0.1216

> <Gold.PLP.ligand.torsion>
0.3540

> <Gold.PLP.Chemscore.Hbond>
1.3500

> <Gold.PLP.Chemscore.CHOScore>
0.9886

> <Gold.PLP.Chemscore.Metal>
0.0000

> <Gold.Chemscore.Hbonds>
donor molecule, donor type, donor heavy atom, donor atom, acceptor molecule, acceptor atom, score
      P1  H  7989  7998       L1    19  0.30
      P1  H  7997  8009       L1     7  1.00
      L1  C    18    38       P1  7957  0.95

> <Gold.PLP.Chemscore.Internal.Correction>
0.1286

> <Gold.Rescore>
     Score         DG    S(hbond)    S(metal)    S(lipo)     H(rot)  DE(clash)    DE(int)     intcor
     15.53     -16.28       1.03        0.00      90.84       1.27       0.39       0.37       ----

> <Gold.Chemscore.Fitness>
15.5254

> <Gold.Chemscore.DG>
-16.2804

> <Gold.Chemscore.ZeroCoef>
-5.4800

> <Gold.Chemscore.Hbond>
1.0282

> <Gold.Chemscore.Metal>
0.0000

> <Gold.Chemscore.Lipo>
90.8376

> <Gold.Chemscore.Internal_Hbond>
0.0000

> <Gold.Chemscore.DEClash>
0.3877

> <Gold.Chemscore.DEInternal>
0.3673

> <Gold.Chemscore.Rot>
1.2742

> <Gold.Chemscore.Internal.Correction>
   9.000000E+99

> <Gold.Chemscore.Hbonds>
donor molecule, donor type, donor heavy atom, donor atom, acceptor molecule, acceptor atom, score
      P1  H  7997  8009       L1     7  0.96

> <Gold.Chemscore.Hbond.Weighted>
-3.4343

> <Gold.Chemscore.Metal.Weighted>
-0.0000

> <Gold.Chemscore.Lipo.Weighted>
-10.6280

> <Gold.Chemscore.Internal_Hbond.Weighted>
0.0000

> <Gold.Chemscore.DEClash.Weighted>
0.3877

> <Gold.Chemscore.DEInternal.Weighted>
0.3673

> <Gold.Chemscore.Rot.Weighted>
3.2619

> <Gold.Chemscore.Internal.Correction.Weighted>
   9.000000E+99

> <Gold.Protein.RotatedTorsions>
[ 6907 6896 6895 6894 ] final  -70.16 input  -60.11 | X-H torsion
[ 7974 7965 7964 7962 ] final   53.22 input  175.53 | X-H torsion
[ 8008 7997 7996 7995 ] final -178.09 input   59.86 | X-H torsion
[ 10167 10162 10161 10158 ] final -118.64 input  -65.29 | X-H torsion
[ 10718 10713 10712 10709 ] final  176.48 input   66.30 | X-H torsion
[ 10763 10752 10751 10750 ] final   -6.59 input  -60.55 | X-H torsion
[ 11005 11000 10999 10996 ] final   27.98 input  -57.11 | X-H torsion

> <Gold.Protein.ActiveResidues>
 VAL166  LYS551  ARG553  GLY616  TRP617  ASP618  TYR619  PRO620  LYS621  CYS622 
 ASP623  PHE694  ASN695  SER759  ASP760  ASP761  ALA762  ILE779  LEU786  VAL792 
 PHE793  MET794  SER795  GLU796  ALA797  LYS798  CYS799  TRP800  GLU811  SER814 

> <Gold.Protein.RotatedAtoms>
  150.7271  134.5493  159.5786 H   0  0  0  0  0  0  0  0  0  0  0  0  # atno 6907 bound_to 6896
  152.2984  134.7637  160.0372 H   0  0  0  0  0  0  0  0  0  0  0  0  # atno 6908 bound_to 6896
  151.8226  133.3361  159.3625 H   0  0  0  0  0  0  0  0  0  0  0  0  # atno 6909 bound_to 6896
  145.9733  139.4170  143.0176 H   0  0  0  0  0  0  0  0  0  0  0  0  # atno 7974 bound_to 7965
  156.0147  140.1248  157.0418 H   0  0  0  0  0  0  0  0  0  0  0  0  # atno 8008 bound_to 7997
  154.4289  140.1080  156.5949 H   0  0  0  0  0  0  0  0  0  0  0  0  # atno 8009 bound_to 7997
  155.6030  140.3470  155.4601 H   0  0  0  0  0  0  0  0  0  0  0  0  # atno 8010 bound_to 7997
  140.0553  143.5020  152.2060 H   0  0  0  0  0  0  0  0  0  0  0  0  # atno 10167 bound_to 10162
  156.9195  130.9936  151.3007 H   0  0  0  0  0  0  0  0  0  0  0  0  # atno 10718 bound_to 10713
  153.4144  135.7008  153.6337 H   0  0  0  0  0  0  0  0  0  0  0  0  # atno 10763 bound_to 10752
  153.4817  135.3692  155.2446 H   0  0  0  0  0  0  0  0  0  0  0  0  # atno 10764 bound_to 10752
  154.8719  135.4067  154.3502 H   0  0  0  0  0  0  0  0  0  0  0  0  # atno 10765 bound_to 10752
  140.3205  134.2549  155.7718 H   0  0  0  0  0  0  0  0  0  0  0  0  # atno 11005 bound_to 11000
  145.7874  140.9829  143.1067 LP  0  0  0  0  0  0  0  0  0  0  0  0  # atno 17320 bound_to 7965
  144.6842  139.9640  143.7481 LP  0  0  0  0  0  0  0  0  0  0  0  0  # atno 17321 bound_to 7965
  139.5927  144.7556  151.3360 LP  0  0  0  0  0  0  0  0  0  0  0  0  # atno 17342 bound_to 10162
  140.7198  143.7168  150.7726 LP  0  0  0  0  0  0  0  0  0  0  0  0  # atno 17343 bound_to 10162
  157.5917  130.8448  149.8668 LP  0  0  0  0  0  0  0  0  0  0  0  0  # atno 17370 bound_to 10713
  156.0498  130.3720  150.1230 LP  0  0  0  0  0  0  0  0  0  0  0  0  # atno 17371 bound_to 10713
  141.2088  133.7768  157.0039 LP  0  0  0  0  0  0  0  0  0  0  0  0  # atno 17394 bound_to 11000
  140.0946  134.9572  157.1830 LP  0  0  0  0  0  0  0  0  0  0  0  0  # atno 17395 bound_to 11000

$$$$
