AV-unprocessed.smi:2573|AV-procd|sdf|10112|dock1
  -GOLD-   2272014133D 1   1.00000     0.00000
 Structure written by MMmdl.
 38 39  0  0  0  0  0  0  0  0  1 V2000
  150.7340  136.0420  156.3337 C   0  0  0  0  0  0  0  0  0  0  0  0
  150.3358  136.6457  154.9799 C   0  0  0  0  0  0  0  0  0  0  0  0
  151.2678  137.7736  154.5003 C   0  0  0  0  0  0  0  0  0  0  0  0
  150.7881  139.0987  154.8915 N   0  0  0  0  0  0  0  0  0  0  0  0
  151.4339  139.9988  155.6706 C   0  0  0  0  0  0  0  0  0  0  0  0
  152.5455  139.8512  156.1779 O   0  0  0  0  0  0  0  0  0  0  0  0
  150.6471  141.0937  155.7898 N   0  0  0  0  0  0  0  0  0  0  0  0
  150.9623  142.3142  156.5303 C   0  0  0  0  0  0  0  0  0  0  0  0
  150.9174  142.0801  158.0544 C   0  0  2  0  0  0  0  0  0  0  0  0
  149.7877  141.2788  158.3399 O   0  0  0  0  0  0  0  0  0  0  0  0
  150.7803  143.4042  158.8351 C   0  0  0  0  0  0  0  0  0  0  0  0
  152.1090  144.1362  159.1006 C   0  0  0  0  0  0  0  0  0  0  0  0
  151.8858  145.1460  159.9414 F   0  0  0  0  0  0  0  0  0  0  0  0
  153.0105  143.3232  159.6504 F   0  0  0  0  0  0  0  0  0  0  0  0
  152.5994  144.6322  157.9646 F   0  0  0  0  0  0  0  0  0  0  0  0
  149.4693  140.8950  155.0542 C   0  0  0  0  0  0  0  0  0  0  0  0
  148.3550  141.7267  154.8465 C   0  0  0  0  0  0  0  0  0  0  0  0
  147.3123  141.2200  154.0357 C   0  0  0  0  0  0  0  0  0  0  0  0
  147.4014  139.9252  153.4614 C   0  0  0  0  0  0  0  0  0  0  0  0
  148.5359  139.1105  153.6840 C   0  0  0  0  0  0  0  0  0  0  0  0
  149.5572  139.6384  154.4927 C   0  0  0  0  0  0  0  0  0  0  0  0
  150.0858  135.2036  156.5889 H   0  0  0  0  0  0  0  0  0  0  0  0
  150.6537  136.7742  157.1372 H   0  0  0  0  0  0  0  0  0  0  0  0
  151.7606  135.6753  156.3137 H   0  0  0  0  0  0  0  0  0  0  0  0
  150.3336  135.8535  154.2310 H   0  0  0  0  0  0  0  0  0  0  0  0
  149.3094  137.0100  155.0345 H   0  0  0  0  0  0  0  0  0  0  0  0
  152.2764  137.6091  154.8827 H   0  0  0  0  0  0  0  0  0  0  0  0
  151.3542  137.7401  153.4137 H   0  0  0  0  0  0  0  0  0  0  0  0
  151.9623  142.6286  156.2299 H   0  0  0  0  0  0  0  0  0  0  0  0
  150.3018  143.1322  156.2364 H   0  0  0  0  0  0  0  0  0  0  0  0
  151.8205  141.5618  158.3795 H   0  0  0  0  0  0  0  0  0  0  0  0
  149.0134  141.8189  158.2910 H   0  0  0  0  0  0  0  0  0  0  0  0
  150.1405  144.0806  158.2670 H   0  0  0  0  0  0  0  0  0  0  0  0
  150.2619  143.2260  159.7784 H   0  0  0  0  0  0  0  0  0  0  0  0
  148.2928  142.7121  155.2840 H   0  0  0  0  0  0  0  0  0  0  0  0
  146.4377  141.8262  153.8510 H   0  0  0  0  0  0  0  0  0  0  0  0
  146.5939  139.5571  152.8457 H   0  0  0  0  0  0  0  0  0  0  0  0
  148.6108  138.1250  153.2487 H   0  0  0  0  0  0  0  0  0  0  0  0
  1  2  1  0  0  0  0
  1 22  1  0  0  0  0
  1 23  1  0  0  0  0
  1 24  1  0  0  0  0
  2  3  1  0  0  0  0
  2 25  1  0  0  0  0
  2 26  1  0  0  0  0
  3  4  1  0  0  0  0
  3 27  1  0  0  0  0
  3 28  1  0  0  0  0
  4 21  1  0  0  0  0
  4  5  1  0  0  0  0
  5  6  2  0  0  0  0
  5  7  1  0  0  0  0
  7  8  1  0  0  0  0
  7 16  1  0  0  0  0
  8  9  1  0  0  0  0
  8 29  1  0  0  0  0
  8 30  1  0  0  0  0
  9 10  1  0  0  0  0
  9 11  1  0  0  0  0
  9 31  1  0  0  0  0
 10 32  1  0  0  0  0
 11 12  1  0  0  0  0
 11 33  1  0  0  0  0
 11 34  1  0  0  0  0
 12 13  1  0  0  0  0
 12 14  1  0  0  0  0
 12 15  1  0  0  0  0
 16 21  2  0  0  0  0
 16 17  1  0  0  0  0
 17 18  2  0  0  0  0
 17 35  1  0  0  0  0
 18 19  1  0  0  0  0
 18 36  1  0  0  0  0
 19 20  2  0  0  0  0
 19 37  1  0  0  0  0
 20 21  1  0  0  0  0
 20 38  1  0  0  0  0
M  END
> <s_m_source_file>
AV-unprocessed.smi

> <i_m_source_file_index>
2573

> <i_lp_mmshare_version>
43012

> <i_f3d_flags>
0

> <s_epik_input>
W2NIXTFbY0hdW2NIXVtjSF1jKGMxMiluKFtDSDJdW0NIMl1bQ0gzXSljKD1PKW4yW0NIMl1bQ0BIXShbT0hdKVtDSDJdQyhGKShGKUY=

> <s_epik_cmdline>
J2VwaWtfcHl0aG9uJywgJy1waCcsICc3LjAnLCAnLXRuJywgJzgnLCAnLW1hJywgJzIwMCcsICctbWV0YWxfYmluZGluZycsICctaW1hZScsICc8aW5maWxlLm1hZT4nLCAnLW9tYWUnLCAnPG91dGZpbGUubWFlPic=

> <r_lp_tautomer_probability>
1

> <r_epik_Ionization_Penalty>
2.4024e-06

> <r_epik_Ionization_Penalty_Charging>
3.10219e-09

> <r_epik_Ionization_Penalty_Neutral>
2.3993e-06

> <r_epik_State_Penalty>
-0

> <r_epik_Charging_Adjusted_Penalty>
3.10219e-09

> <i_epik_Tot_Q>
0

> <i_epik_Tot_abs_Q>
0

> <r_epik_Metal_State_Penalty>
-0

> <b_epik_Metal_Only>
0

> <s_lp_Force_Field>
OPLS_2005

> <r_lp_Energy>
43.3878

> <b_lp_Chiralities_Consistent>
1

> <s_lp_Variant>
AV-unprocessed.smi:2573-1

> <Gold.Version>
5.8.1

> <Gold.Id.Protein>
6NUR|6NUR_protein|mol2

> <Gold.PLP.Fitness>
53.9717

> <Gold.PLP.PLP>
-52.4678

> <Gold.PLP.part.hbond>
-1.0000

> <Gold.PLP.part.metal>
0.0000

> <Gold.PLP.part.buried>
-1.9196

> <Gold.PLP.part.nonpolar>
-49.5101

> <Gold.PLP.part.repulsive>
0.0000

> <Gold.PLP.ligand.clash>
0.0000

> <Gold.PLP.ligand.torsion>
0.8074

> <Gold.PLP.Chemscore.Hbond>
1.0000

> <Gold.PLP.Chemscore.CHOScore>
0.0000

> <Gold.PLP.Chemscore.Metal>
0.0000

> <Gold.Chemscore.Hbonds>
donor molecule, donor type, donor heavy atom, donor atom, acceptor molecule, acceptor atom, score
      P1  H  7997  8008       L1     6  1.00

> <Gold.PLP.Chemscore.Internal.Correction>
0.1186

> <Gold.Rescore>
     Score         DG    S(hbond)    S(metal)    S(lipo)     H(rot)  DE(clash)    DE(int)     intcor
     12.65     -13.59       0.98        0.00      95.52       2.48       0.25       0.69       ----

> <Gold.Chemscore.Fitness>
12.6520

> <Gold.Chemscore.DG>
-13.5928

> <Gold.Chemscore.ZeroCoef>
-5.4800

> <Gold.Chemscore.Hbond>
0.9846

> <Gold.Chemscore.Metal>
0.0000

> <Gold.Chemscore.Lipo>
95.5222

> <Gold.Chemscore.Internal_Hbond>
0.0000

> <Gold.Chemscore.DEClash>
0.2546

> <Gold.Chemscore.DEInternal>
0.6862

> <Gold.Chemscore.Rot>
2.4812

> <Gold.Chemscore.Internal.Correction>
   9.000000E+99

> <Gold.Chemscore.Hbonds>
donor molecule, donor type, donor heavy atom, donor atom, acceptor molecule, acceptor atom, score
      P1  H  7997  8008       L1     6  0.98

> <Gold.Chemscore.Hbond.Weighted>
-3.2885

> <Gold.Chemscore.Metal.Weighted>
-0.0000

> <Gold.Chemscore.Lipo.Weighted>
-11.1761

> <Gold.Chemscore.Internal_Hbond.Weighted>
0.0000

> <Gold.Chemscore.DEClash.Weighted>
0.2546

> <Gold.Chemscore.DEInternal.Weighted>
0.6862

> <Gold.Chemscore.Rot.Weighted>
6.3518

> <Gold.Chemscore.Internal.Correction.Weighted>
   9.000000E+99

> <Gold.Protein.RotatedTorsions>
[ 6907 6896 6895 6894 ] final  163.99 input  -60.11 | X-H torsion
[ 7974 7965 7964 7962 ] final  -49.44 input  175.53 | X-H torsion
[ 8008 7997 7996 7995 ] final  -55.93 input   59.86 | X-H torsion
[ 10167 10162 10161 10158 ] final  -86.07 input  -65.29 | X-H torsion
[ 10718 10713 10712 10709 ] final -171.09 input   66.30 | X-H torsion
[ 10763 10752 10751 10750 ] final   53.15 input  -60.55 | X-H torsion
[ 11005 11000 10999 10996 ] final  -20.83 input  -57.11 | X-H torsion

> <Gold.Protein.ActiveResidues>
 VAL166  LYS551  ARG553  GLY616  TRP617  ASP618  TYR619  PRO620  LYS621  CYS622 
 ASP623  PHE694  ASN695  SER759  ASP760  ASP761  ALA762  ILE779  LEU786  VAL792 
 PHE793  MET794  SER795  GLU796  ALA797  LYS798  CYS799  TRP800  GLU811  SER814 

> <Gold.Protein.RotatedAtoms>
  151.9167  133.3575  159.3882 H   0  0  0  0  0  0  0  0  0  0  0  0  # atno 6907 bound_to 6896
  150.7046  134.4677  159.5420 H   0  0  0  0  0  0  0  0  0  0  0  0  # atno 6908 bound_to 6896
  152.2293  134.8337  160.0526 H   0  0  0  0  0  0  0  0  0  0  0  0  # atno 6909 bound_to 6896
  145.9405  140.7666  142.9554 H   0  0  0  0  0  0  0  0  0  0  0  0  # atno 7974 bound_to 7965
  154.4212  140.1141  156.5555 H   0  0  0  0  0  0  0  0  0  0  0  0  # atno 8008 bound_to 7997
  155.6365  140.3496  155.4681 H   0  0  0  0  0  0  0  0  0  0  0  0  # atno 8009 bound_to 7997
  155.9905  140.1178  157.0632 H   0  0  0  0  0  0  0  0  0  0  0  0  # atno 8010 bound_to 7997
  140.3977  143.2676  151.9183 H   0  0  0  0  0  0  0  0  0  0  0  0  # atno 10167 bound_to 10162
  156.7358  130.9323  151.3107 H   0  0  0  0  0  0  0  0  0  0  0  0  # atno 10718 bound_to 10713
  152.9793  135.5788  154.4694 H   0  0  0  0  0  0  0  0  0  0  0  0  # atno 10763 bound_to 10752
  154.4259  135.2772  155.1947 H   0  0  0  0  0  0  0  0  0  0  0  0  # atno 10764 bound_to 10752
  154.3676  135.6175  153.5777 H   0  0  0  0  0  0  0  0  0  0  0  0  # atno 10765 bound_to 10752
  140.8503  133.7862  155.9958 H   0  0  0  0  0  0  0  0  0  0  0  0  # atno 11005 bound_to 11000
  144.6778  140.2273  143.7359 LP  0  0  0  0  0  0  0  0  0  0  0  0  # atno 17320 bound_to 7965
  145.8306  139.2084  143.1885 LP  0  0  0  0  0  0  0  0  0  0  0  0  # atno 17321 bound_to 7965
  139.4786  144.5665  151.8157 LP  0  0  0  0  0  0  0  0  0  0  0  0  # atno 17342 bound_to 10162
  140.4773  144.1501  150.5927 LP  0  0  0  0  0  0  0  0  0  0  0  0  # atno 17343 bound_to 10162
  157.6839  130.9167  150.0337 LP  0  0  0  0  0  0  0  0  0  0  0  0  # atno 17370 bound_to 10713
  156.1498  130.3642  149.9456 LP  0  0  0  0  0  0  0  0  0  0  0  0  # atno 17371 bound_to 10713
  140.8798  134.2625  157.5150 LP  0  0  0  0  0  0  0  0  0  0  0  0  # atno 17394 bound_to 11000
  139.8704  134.9609  156.4379 LP  0  0  0  0  0  0  0  0  0  0  0  0  # atno 17395 bound_to 11000

$$$$
