AV-unprocessed.smi:564|AV-procd|sdf|2948|dock7
  -GOLD-   2262023443D 1   1.00000     0.00000
 Structure written by MMmdl.
 50 51  0  0  0  0  0  0  0  0  2 V2000
  152.5089  138.0452  154.8875 C   0  0  0  0  0  0  0  0  0  0  0  0
  151.8346  139.1882  155.5910 C   0  0  0  0  0  0  0  0  0  0  0  0
  152.4023  139.7194  156.6610 N   0  0  0  0  0  0  0  0  0  0  0  0
  151.5639  140.7036  157.0426 N   0  0  0  0  0  0  0  0  0  0  0  0
  151.8898  141.5023  158.2083 C   0  0  0  0  0  0  0  0  0  0  0  0
  150.4631  140.7932  156.2127 C   0  0  0  0  0  0  0  0  0  0  0  0
  149.3866  141.8084  156.4238 C   0  0  0  0  0  0  0  0  0  0  0  0
  150.6013  139.8214  155.2577 C   0  0  0  0  0  0  0  0  0  0  0  0
  149.6789  139.4812  154.1141 C   0  0  0  0  0  0  0  0  0  0  0  0
  148.4342  138.7547  154.6307 C   0  0  0  0  0  0  0  0  0  0  0  0
  147.6457  139.3282  155.3828 O   0  0  0  0  0  0  0  0  0  0  0  0
  148.2653  137.4903  154.2170 N   0  0  0  0  0  0  0  0  0  0  0  0
  147.1474  136.6395  154.6010 C   0  0  0  0  0  0  0  0  0  0  0  0
  146.0386  136.6985  153.5367 C   0  0  0  0  0  0  0  0  0  0  0  0
  146.1130  135.5923  152.5440 N   0  3  1  0  0  0  0  0  0  0  0  0
  146.3433  134.2741  153.1955 C   0  0  0  0  0  0  0  0  0  0  0  0
  146.6391  133.1787  152.1588 C   0  0  0  0  0  0  0  0  0  0  0  0
  145.5156  133.0849  151.1212 C   0  0  0  0  0  0  0  0  0  0  0  0
  145.2860  134.4589  150.4773 C   0  0  0  0  0  0  0  0  0  0  0  0
  145.0143  135.5580  151.5267 C   0  0  1  0  0  0  0  0  0  0  0  0
  143.6031  135.4387  152.1417 C   0  0  0  0  0  0  0  0  0  0  0  0
  152.6074  138.2491  153.8212 H   0  0  0  0  0  0  0  0  0  0  0  0
  151.9327  137.1267  154.9982 H   0  0  0  0  0  0  0  0  0  0  0  0
  153.5090  137.8595  155.2811 H   0  0  0  0  0  0  0  0  0  0  0  0
  151.1780  141.2910  159.0063 H   0  0  0  0  0  0  0  0  0  0  0  0
  151.8392  142.5614  157.9554 H   0  0  0  0  0  0  0  0  0  0  0  0
  152.8962  141.2745  158.5621 H   0  0  0  0  0  0  0  0  0  0  0  0
  148.6315  141.7530  155.6400 H   0  0  0  0  0  0  0  0  0  0  0  0
  149.7985  142.8177  156.4171 H   0  0  0  0  0  0  0  0  0  0  0  0
  148.8888  141.6515  157.3808 H   0  0  0  0  0  0  0  0  0  0  0  0
  149.3535  140.3787  153.5875 H   0  0  0  0  0  0  0  0  0  0  0  0
  150.1885  138.8669  153.3706 H   0  0  0  0  0  0  0  0  0  0  0  0
  148.9594  137.0941  153.5995 H   0  0  0  0  0  0  0  0  0  0  0  0
  147.5286  135.6255  154.7198 H   0  0  0  0  0  0  0  0  0  0  0  0
  146.7508  136.9555  155.5674 H   0  0  0  0  0  0  0  0  0  0  0  0
  145.0794  136.6303  154.0523 H   0  0  0  0  0  0  0  0  0  0  0  0
  146.0361  137.6646  153.0316 H   0  0  0  0  0  0  0  0  0  0  0  0
  147.1910  134.3464  153.8778 H   0  0  0  0  0  0  0  0  0  0  0  0
  145.4804  134.0000  153.8032 H   0  0  0  0  0  0  0  0  0  0  0  0
  147.5834  133.3948  151.6574 H   0  0  0  0  0  0  0  0  0  0  0  0
  146.7670  132.2176  152.6577 H   0  0  0  0  0  0  0  0  0  0  0  0
  145.7712  132.3501  150.3571 H   0  0  0  0  0  0  0  0  0  0  0  0
  144.5988  132.7325  151.5948 H   0  0  0  0  0  0  0  0  0  0  0  0
  146.1694  134.7292  149.8970 H   0  0  0  0  0  0  0  0  0  0  0  0
  144.4635  134.4039  149.7631 H   0  0  0  0  0  0  0  0  0  0  0  0
  145.0405  136.4984  150.9775 H   0  0  0  0  0  0  0  0  0  0  0  0
  142.8459  135.3877  151.3589 H   0  0  0  0  0  0  0  0  0  0  0  0
  143.3548  136.3025  152.7578 H   0  0  0  0  0  0  0  0  0  0  0  0
  143.4912  134.5463  152.7567 H   0  0  0  0  0  0  0  0  0  0  0  0
  146.9557  135.7697  152.0157 H   0  0  0  0  0  0  0  0  0  0  0  0
  1  2  1  0  0  0  0
  1 22  1  0  0  0  0
  1 23  1  0  0  0  0
  1 24  1  0  0  0  0
  2  8  1  0  0  0  0
  2  3  2  0  0  0  0
  3  4  1  0  0  0  0
  4  5  1  0  0  0  0
  4  6  1  0  0  0  0
  5 25  1  0  0  0  0
  5 26  1  0  0  0  0
  5 27  1  0  0  0  0
  6  7  1  0  0  0  0
  6  8  2  0  0  0  0
  7 28  1  0  0  0  0
  7 29  1  0  0  0  0
  7 30  1  0  0  0  0
  8  9  1  0  0  0  0
  9 10  1  0  0  0  0
  9 31  1  0  0  0  0
  9 32  1  0  0  0  0
 10 11  2  0  0  0  0
 10 12  1  0  0  0  0
 12 13  1  0  0  0  0
 12 33  1  0  0  0  0
 13 14  1  0  0  0  0
 13 34  1  0  0  0  0
 13 35  1  0  0  0  0
 14 15  1  0  0  0  0
 14 36  1  0  0  0  0
 14 37  1  0  0  0  0
 15 20  1  0  0  0  0
 15 16  1  0  0  0  0
 15 50  1  0  0  0  0
 16 17  1  0  0  0  0
 16 38  1  0  0  0  0
 16 39  1  0  0  0  0
 17 18  1  0  0  0  0
 17 40  1  0  0  0  0
 17 41  1  0  0  0  0
 18 19  1  0  0  0  0
 18 42  1  0  0  0  0
 18 43  1  0  0  0  0
 19 20  1  0  0  0  0
 19 44  1  0  0  0  0
 19 45  1  0  0  0  0
 20 21  1  0  0  0  0
 20 46  1  0  0  0  0
 21 47  1  0  0  0  0
 21 48  1  0  0  0  0
 21 49  1  0  0  0  0
M  CHG  1  15   1
M  END
> <s_m_source_file>
AV-unprocessed.smi

> <i_m_source_file_index>
564

> <i_lp_mmshare_version>
43012

> <i_f3d_flags>
0

> <s_epik_input>
W0NIM11jMW5uKFtDSDNdKWMoW0NIM10pYzFbQ0gyXUMoPU8pW05IXVtDSDJdW0NIMl1OMltDSDJdW0NIMl1bQ0gyXVtDSDJdW0NASF0yW0NIM10=

> <s_epik_cmdline>
J2VwaWtfcHl0aG9uJywgJy1waCcsICc3LjAnLCAnLXRuJywgJzgnLCAnLW1hJywgJzIwMCcsICctbWV0YWxfYmluZGluZycsICctaW1hZScsICc8aW5maWxlLm1hZT4nLCAnLW9tYWUnLCAnPG91dGZpbGUubWFlPic=

> <r_lp_tautomer_probability>
1

> <r_epik_Ionization_Penalty>
0.00456826

> <r_epik_Ionization_Penalty_Charging>
0.00240401

> <r_epik_Ionization_Penalty_Neutral>
0.00216425

> <r_epik_State_Penalty>
-0

> <r_epik_Charging_Adjusted_Penalty>
0.00240401

> <i_epik_Tot_Q>
1

> <i_epik_Tot_abs_Q>
1

> <r_epik_Metal_State_Penalty>
-0

> <b_epik_Metal_Only>
0

> <s_lp_Force_Field>
OPLS_2005

> <r_lp_Energy>
16.0318

> <b_lp_Chiralities_Consistent>
1

> <s_lp_Variant>
AV-unprocessed.smi:564-2

> <Gold.Version>
5.8.1

> <Gold.Id.Protein>
6NUR|6NUR_protein|mol2

> <Gold.PLP.Fitness>
44.6893

> <Gold.PLP.PLP>
-34.7418

> <Gold.PLP.part.hbond>
-3.0000

> <Gold.PLP.part.metal>
0.0000

> <Gold.PLP.part.buried>
-2.3262

> <Gold.PLP.part.nonpolar>
-29.4007

> <Gold.PLP.part.repulsive>
0.0031

> <Gold.PLP.ligand.clash>
0.0000

> <Gold.PLP.ligand.torsion>
0.6565

> <Gold.PLP.Chemscore.Hbond>
3.7360

> <Gold.PLP.Chemscore.CHOScore>
0.0000

> <Gold.PLP.Chemscore.Metal>
0.0000

> <Gold.Chemscore.Hbonds>
donor molecule, donor type, donor heavy atom, donor atom, acceptor molecule, acceptor atom, score
      L1  H    12    33       P1  7948  0.75
      L1  H    15    50       P1  7948  2.00
      P1  H  7997  8009       L1     3  0.94

> <Gold.PLP.Chemscore.Internal.Correction>
0.0524

> <Gold.Rescore>
     Score         DG    S(hbond)    S(metal)    S(lipo)     H(rot)  DE(clash)    DE(int)     intcor
     19.92     -20.80       2.76        0.00      87.53       1.61       0.36       0.52       ----

> <Gold.Chemscore.Fitness>
19.9216

> <Gold.Chemscore.DG>
-20.7972

> <Gold.Chemscore.ZeroCoef>
-5.4800

> <Gold.Chemscore.Hbond>
2.7571

> <Gold.Chemscore.Metal>
0.0000

> <Gold.Chemscore.Lipo>
87.5276

> <Gold.Chemscore.Internal_Hbond>
0.0000

> <Gold.Chemscore.DEClash>
0.3568

> <Gold.Chemscore.DEInternal>
0.5188

> <Gold.Chemscore.Rot>
1.6142

> <Gold.Chemscore.Internal.Correction>
   9.000000E+99

> <Gold.Chemscore.Hbonds>
donor molecule, donor type, donor heavy atom, donor atom, acceptor molecule, acceptor atom, score
      L1  H    12    33       P1  7948  0.74
      L1  H    15    50       P1  7948  0.91
      P1  H  7997  8009       L1     3  0.55

> <Gold.Chemscore.Hbond.Weighted>
-9.2089

> <Gold.Chemscore.Metal.Weighted>
-0.0000

> <Gold.Chemscore.Lipo.Weighted>
-10.2407

> <Gold.Chemscore.Internal_Hbond.Weighted>
0.0000

> <Gold.Chemscore.DEClash.Weighted>
0.3568

> <Gold.Chemscore.DEInternal.Weighted>
0.5188

> <Gold.Chemscore.Rot.Weighted>
4.1324

> <Gold.Chemscore.Internal.Correction.Weighted>
   9.000000E+99

> <Gold.Protein.RotatedTorsions>
[ 6907 6896 6895 6894 ] final  113.88 input  -60.11 | X-H torsion
[ 7974 7965 7964 7962 ] final   31.31 input  175.53 | X-H torsion
[ 8008 7997 7996 7995 ] final -152.40 input   59.86 | X-H torsion
[ 10167 10162 10161 10158 ] final -125.05 input  -65.29 | X-H torsion
[ 10718 10713 10712 10709 ] final  148.78 input   66.30 | X-H torsion
[ 10763 10752 10751 10750 ] final   25.83 input  -60.55 | X-H torsion
[ 11005 11000 10999 10996 ] final  105.42 input  -57.11 | X-H torsion

> <Gold.Protein.ActiveResidues>
 VAL166  LYS551  ARG553  GLY616  TRP617  ASP618  TYR619  PRO620  LYS621  CYS622 
 ASP623  PHE694  ASN695  SER759  ASP760  ASP761  ALA762  ILE779  LEU786  VAL792 
 PHE793  MET794  SER795  GLU796  ALA797  LYS798  CYS799  TRP800  GLU811  SER814 

> <Gold.Protein.RotatedAtoms>
  152.4835  133.8313  159.7104 H   0  0  0  0  0  0  0  0  0  0  0  0  # atno 6907 bound_to 6896
  150.8902  133.7243  159.2913 H   0  0  0  0  0  0  0  0  0  0  0  0  # atno 6908 bound_to 6896
  151.4719  135.1050  159.9806 H   0  0  0  0  0  0  0  0  0  0  0  0  # atno 6909 bound_to 6896
  146.1558  139.6673  142.9068 H   0  0  0  0  0  0  0  0  0  0  0  0  # atno 7974 bound_to 7965
  155.6546  140.0716  157.2575 H   0  0  0  0  0  0  0  0  0  0  0  0  # atno 8008 bound_to 7997
  154.4155  140.1727  156.1761 H   0  0  0  0  0  0  0  0  0  0  0  0  # atno 8009 bound_to 7997
  155.9748  140.3359  155.6612 H   0  0  0  0  0  0  0  0  0  0  0  0  # atno 8010 bound_to 7997
  139.9862  143.5689  152.2359 H   0  0  0  0  0  0  0  0  0  0  0  0  # atno 10167 bound_to 10162
  157.3044  131.0876  151.1365 H   0  0  0  0  0  0  0  0  0  0  0  0  # atno 10718 bound_to 10713
  153.0664  135.6574  154.0345 H   0  0  0  0  0  0  0  0  0  0  0  0  # atno 10763 bound_to 10752
  154.0000  135.2938  155.3405 H   0  0  0  0  0  0  0  0  0  0  0  0  # atno 10764 bound_to 10752
  154.7023  135.5239  153.8614 H   0  0  0  0  0  0  0  0  0  0  0  0  # atno 10765 bound_to 10752
  139.8802  134.9335  156.5511 H   0  0  0  0  0  0  0  0  0  0  0  0  # atno 11005 bound_to 11000
  145.4712  141.0436  143.2697 LP  0  0  0  0  0  0  0  0  0  0  0  0  # atno 17320 bound_to 7965
  144.7961  139.6231  143.7092 LP  0  0  0  0  0  0  0  0  0  0  0  0  # atno 17321 bound_to 7965
  139.6373  144.7651  151.2411 LP  0  0  0  0  0  0  0  0  0  0  0  0  # atno 17342 bound_to 10162
  140.7471  143.6377  150.8364 LP  0  0  0  0  0  0  0  0  0  0  0  0  # atno 17343 bound_to 10162
  157.2712  130.6705  149.6020 LP  0  0  0  0  0  0  0  0  0  0  0  0  # atno 17370 bound_to 10713
  155.9673  130.4478  150.5596 LP  0  0  0  0  0  0  0  0  0  0  0  0  # atno 17371 bound_to 10713
  140.8239  133.8332  155.8921 LP  0  0  0  0  0  0  0  0  0  0  0  0  # atno 17394 bound_to 11000
  140.9392  134.1922  157.4809 LP  0  0  0  0  0  0  0  0  0  0  0  0  # atno 17395 bound_to 11000

$$$$
