AV-unprocessed.smi:1752|AV-procd|sdf|7058|dock8
  -GOLD-   22720 8273D 1   1.00000     0.00000
 Structure written by MMmdl.
 43 44  0  0  0  0  0  0  0  0  2 V2000
  154.0748  140.1044  161.0804 C   0  0  0  0  0  0  0  0  0  0  0  0
  153.3236  141.0342  160.1128 C   0  0  2  0  0  0  0  0  0  0  0  0
  152.6673  142.2449  160.8066 C   0  0  0  0  0  0  0  0  0  0  0  0
  152.5275  143.3916  159.9270 N   0  0  0  0  0  0  0  0  0  0  0  0
  152.8439  143.4861  158.5881 C   0  0  0  0  0  0  0  0  0  0  0  0
  152.5409  144.7558  158.1875 C   0  0  0  0  0  0  0  0  0  0  0  0
  152.0355  145.3705  159.3671 C   0  0  0  0  0  0  0  0  0  0  0  0
  152.0264  144.5508  160.4061 N   0  0  0  0  0  0  0  0  0  0  0  0
  152.2933  140.2709  159.4133 N   0  0  0  0  0  0  0  0  0  0  0  0
  152.4781  139.4639  158.3533 C   0  0  0  0  0  0  0  0  0  0  0  0
  153.5887  139.2510  157.8653 O   0  0  0  0  0  0  0  0  0  0  0  0
  151.3487  138.8560  157.9098 N   0  0  0  0  0  0  0  0  0  0  0  0
  150.0663  138.8582  158.6495 C   0  0  0  0  0  0  0  0  0  0  0  0
  148.8115  138.8318  157.7451 C   0  0  0  0  0  0  0  0  0  0  0  0
  148.7043  139.9958  156.7359 C   0  0  0  0  0  0  0  0  0  0  0  0
  149.9734  140.3512  156.0449 N   0  3  2  0  0  0  0  0  0  0  0  0
  149.7713  141.4236  155.0459 C   0  0  0  0  0  0  0  0  0  0  0  0
  150.7444  139.2055  155.4910 C   0  0  0  0  0  0  0  0  0  0  0  0
  151.3084  138.2485  156.5685 C   0  0  0  0  0  0  0  0  0  0  0  0
  154.8936  140.6225  161.5801 H   0  0  0  0  0  0  0  0  0  0  0  0
  154.5073  139.2552  160.5502 H   0  0  0  0  0  0  0  0  0  0  0  0
  153.4096  139.7130  161.8508 H   0  0  0  0  0  0  0  0  0  0  0  0
  154.0534  141.4186  159.3983 H   0  0  0  0  0  0  0  0  0  0  0  0
  151.6740  141.9762  161.1689 H   0  0  0  0  0  0  0  0  0  0  0  0
  153.2476  142.5404  161.6830 H   0  0  0  0  0  0  0  0  0  0  0  0
  153.2560  142.6522  158.0393 H   0  0  0  0  0  0  0  0  0  0  0  0
  152.6620  145.1812  157.2022 H   0  0  0  0  0  0  0  0  0  0  0  0
  151.6773  146.3810  159.4982 H   0  0  0  0  0  0  0  0  0  0  0  0
  151.3525  140.3637  159.7679 H   0  0  0  0  0  0  0  0  0  0  0  0
  150.0532  137.9979  159.3198 H   0  0  0  0  0  0  0  0  0  0  0  0
  149.9841  139.7450  159.2805 H   0  0  0  0  0  0  0  0  0  0  0  0
  148.7346  137.8809  157.2191 H   0  0  0  0  0  0  0  0  0  0  0  0
  147.9269  138.8521  158.3826 H   0  0  0  0  0  0  0  0  0  0  0  0
  147.9395  139.7562  155.9957 H   0  0  0  0  0  0  0  0  0  0  0  0
  148.3561  140.8851  157.2629 H   0  0  0  0  0  0  0  0  0  0  0  0
  149.1599  141.0714  154.2139 H   0  0  0  0  0  0  0  0  0  0  0  0
  150.7261  141.7686  154.6476 H   0  0  0  0  0  0  0  0  0  0  0  0
  149.2736  142.2830  155.4969 H   0  0  0  0  0  0  0  0  0  0  0  0
  150.1397  138.6572  154.7672 H   0  0  0  0  0  0  0  0  0  0  0  0
  151.5919  139.6108  154.9363 H   0  0  0  0  0  0  0  0  0  0  0  0
  152.2961  137.8997  156.2615 H   0  0  0  0  0  0  0  0  0  0  0  0
  150.7242  137.3294  156.6057 H   0  0  0  0  0  0  0  0  0  0  0  0
  150.5693  140.7503  156.7563 H   0  0  0  0  0  0  0  0  0  0  0  0
  1  2  1  0  0  0  0
  1 20  1  0  0  0  0
  1 21  1  0  0  0  0
  1 22  1  0  0  0  0
  2  3  1  0  0  0  0
  2  9  1  0  0  0  0
  2 23  1  0  0  0  0
  3  4  1  0  0  0  0
  3 24  1  0  0  0  0
  3 25  1  0  0  0  0
  4  8  1  0  0  0  0
  4  5  1  0  0  0  0
  5  6  2  0  0  0  0
  5 26  1  0  0  0  0
  6  7  1  0  0  0  0
  6 27  1  0  0  0  0
  7  8  2  0  0  0  0
  7 28  1  0  0  0  0
  9 10  1  0  0  0  0
  9 29  1  0  0  0  0
 10 11  2  0  0  0  0
 10 12  1  0  0  0  0
 12 19  1  0  0  0  0
 12 13  1  0  0  0  0
 13 14  1  0  0  0  0
 13 30  1  0  0  0  0
 13 31  1  0  0  0  0
 14 15  1  0  0  0  0
 14 32  1  0  0  0  0
 14 33  1  0  0  0  0
 15 16  1  0  0  0  0
 15 34  1  0  0  0  0
 15 35  1  0  0  0  0
 16 17  1  0  0  0  0
 16 18  1  0  0  0  0
 16 43  1  0  0  0  0
 17 36  1  0  0  0  0
 17 37  1  0  0  0  0
 17 38  1  0  0  0  0
 18 19  1  0  0  0  0
 18 39  1  0  0  0  0
 18 40  1  0  0  0  0
 19 41  1  0  0  0  0
 19 42  1  0  0  0  0
M  CHG  1  16   1
M  END
> <s_m_source_file>
AV-unprocessed.smi

> <i_m_source_file_index>
1752

> <i_lp_mmshare_version>
43012

> <i_f3d_flags>
0

> <s_epik_input>
bjFbY0hdW2NIXVtjSF1uMVtDSDJdW0NAQEhdKFtDSDNdKVtOSF1DKD1PKU4yW0NIMl1bQ0gyXVtDSDJdTihbQ0gzXSlbQ0gyXVtDSDJdMg==

> <s_epik_cmdline>
J2VwaWtfcHl0aG9uJywgJy1waCcsICc3LjAnLCAnLXRuJywgJzgnLCAnLW1hJywgJzIwMCcsICctbWV0YWxfYmluZGluZycsICctaW1hZScsICc8aW5maWxlLm1hZT4nLCAnLW9tYWUnLCAnPG91dGZpbGUubWFlPic=

> <r_lp_tautomer_probability>
1

> <r_epik_Ionization_Penalty>
0.00208423

> <r_epik_Ionization_Penalty_Charging>
0.00203643

> <r_epik_Ionization_Penalty_Neutral>
4.77939e-05

> <r_epik_State_Penalty>
0.00139278

> <r_epik_Charging_Adjusted_Penalty>
0.00342922

> <i_epik_Tot_Q>
1

> <i_epik_Tot_abs_Q>
1

> <r_epik_Metal_State_Penalty>
-0

> <b_epik_Metal_Only>
0

> <s_lp_Force_Field>
OPLS_2005

> <r_lp_Energy>
46.8375

> <b_lp_Chiralities_Consistent>
1

> <s_lp_Variant>
AV-unprocessed.smi:1752-1

> <Gold.Version>
5.8.1

> <Gold.Id.Protein>
6NUR|6NUR_protein|mol2

> <Gold.PLP.Fitness>
40.2622

> <Gold.PLP.PLP>
-38.8495

> <Gold.PLP.part.hbond>
-0.7145

> <Gold.PLP.part.metal>
0.0000

> <Gold.PLP.part.buried>
-4.9418

> <Gold.PLP.part.nonpolar>
-33.4257

> <Gold.PLP.part.repulsive>
0.2979

> <Gold.PLP.ligand.clash>
0.1613

> <Gold.PLP.ligand.torsion>
0.7371

> <Gold.PLP.Chemscore.Hbond>
0.9833

> <Gold.PLP.Chemscore.CHOScore>
0.0000

> <Gold.PLP.Chemscore.Metal>
0.0000

> <Gold.Chemscore.Hbonds>
donor molecule, donor type, donor heavy atom, donor atom, acceptor molecule, acceptor atom, score
      P1  H  7997  8010       L1    11  0.99

> <Gold.PLP.Chemscore.Internal.Correction>
0.0982

> <Gold.Rescore>
     Score         DG    S(hbond)    S(metal)    S(lipo)     H(rot)  DE(clash)    DE(int)     intcor
     15.26     -15.96       0.99        0.00      92.20       1.41       0.02       0.69       ----

> <Gold.Chemscore.Fitness>
15.2560

> <Gold.Chemscore.DG>
-15.9613

> <Gold.Chemscore.ZeroCoef>
-5.4800

> <Gold.Chemscore.Hbond>
0.9909

> <Gold.Chemscore.Metal>
0.0000

> <Gold.Chemscore.Lipo>
92.2032

> <Gold.Chemscore.Internal_Hbond>
0.0000

> <Gold.Chemscore.DEClash>
0.0163

> <Gold.Chemscore.DEInternal>
0.6890

> <Gold.Chemscore.Rot>
1.4125

> <Gold.Chemscore.Internal.Correction>
   9.000000E+99

> <Gold.Chemscore.Hbonds>
donor molecule, donor type, donor heavy atom, donor atom, acceptor molecule, acceptor atom, score
      P1  H  7997  8010       L1    11  0.93

> <Gold.Chemscore.Hbond.Weighted>
-3.3095

> <Gold.Chemscore.Metal.Weighted>
-0.0000

> <Gold.Chemscore.Lipo.Weighted>
-10.7878

> <Gold.Chemscore.Internal_Hbond.Weighted>
0.0000

> <Gold.Chemscore.DEClash.Weighted>
0.0163

> <Gold.Chemscore.DEInternal.Weighted>
0.6890

> <Gold.Chemscore.Rot.Weighted>
3.6160

> <Gold.Chemscore.Internal.Correction.Weighted>
   9.000000E+99

> <Gold.Protein.RotatedTorsions>
[ 6907 6896 6895 6894 ] final  -36.82 input  -60.11 | X-H torsion
[ 7974 7965 7964 7962 ] final  159.85 input  175.53 | X-H torsion
[ 8008 7997 7996 7995 ] final   54.33 input   59.86 | X-H torsion
[ 10167 10162 10161 10158 ] final  -28.77 input  -65.29 | X-H torsion
[ 10718 10713 10712 10709 ] final -142.33 input   66.30 | X-H torsion
[ 10763 10752 10751 10750 ] final  -58.46 input  -60.55 | X-H torsion
[ 11005 11000 10999 10996 ] final -169.80 input  -57.11 | X-H torsion

> <Gold.Protein.ActiveResidues>
 VAL166  LYS551  ARG553  GLY616  TRP617  ASP618  TYR619  PRO620  LYS621  CYS622 
 ASP623  PHE694  ASN695  SER759  ASP760  ASP761  ALA762  ILE779  LEU786  VAL792 
 PHE793  MET794  SER795  GLU796  ALA797  LYS798  CYS799  TRP800  GLU811  SER814 

> <Gold.Protein.RotatedAtoms>
  151.0224  134.9479  159.8066 H   0  0  0  0  0  0  0  0  0  0  0  0  # atno 6907 bound_to 6896
  152.5328  134.2886  159.9044 H   0  0  0  0  0  0  0  0  0  0  0  0  # atno 6908 bound_to 6896
  151.2894  133.4130  159.2666 H   0  0  0  0  0  0  0  0  0  0  0  0  # atno 6909 bound_to 6896
  144.7768  139.7674  143.6275 H   0  0  0  0  0  0  0  0  0  0  0  0  # atno 7974 bound_to 7965
  155.4830  140.3469  155.4343 H   0  0  0  0  0  0  0  0  0  0  0  0  # atno 8008 bound_to 7997
  156.1027  140.1439  156.9475 H   0  0  0  0  0  0  0  0  0  0  0  0  # atno 8009 bound_to 7997
  154.4704  140.0903  156.7107 H   0  0  0  0  0  0  0  0  0  0  0  0  # atno 8010 bound_to 7997
  140.7267  143.3982  151.1310 H   0  0  0  0  0  0  0  0  0  0  0  0  # atno 10167 bound_to 10162
  156.3446  130.7655  151.1798 H   0  0  0  0  0  0  0  0  0  0  0  0  # atno 10718 bound_to 10713
  154.2385  135.6348  153.5199 H   0  0  0  0  0  0  0  0  0  0  0  0  # atno 10763 bound_to 10752
  152.9935  135.5536  154.5936 H   0  0  0  0  0  0  0  0  0  0  0  0  # atno 10764 bound_to 10752
  154.5436  135.2896  155.1047 H   0  0  0  0  0  0  0  0  0  0  0  0  # atno 10765 bound_to 10752
  140.5267  134.5656  157.5063 H   0  0  0  0  0  0  0  0  0  0  0  0  # atno 11005 bound_to 11000
  146.1953  139.5215  142.9779 LP  0  0  0  0  0  0  0  0  0  0  0  0  # atno 17320 bound_to 7965
  145.6162  141.0331  143.1939 LP  0  0  0  0  0  0  0  0  0  0  0  0  # atno 17321 bound_to 7965
  139.7598  143.8652  152.3097 LP  0  0  0  0  0  0  0  0  0  0  0  0  # atno 17342 bound_to 10162
  139.8534  144.7153  150.9186 LP  0  0  0  0  0  0  0  0  0  0  0  0  # atno 17343 bound_to 10162
  157.7452  131.0445  150.4795 LP  0  0  0  0  0  0  0  0  0  0  0  0  # atno 17370 bound_to 10713
  156.4981  130.4111  149.6368 LP  0  0  0  0  0  0  0  0  0  0  0  0  # atno 17371 bound_to 10713
  139.9576  134.7508  156.0307 LP  0  0  0  0  0  0  0  0  0  0  0  0  # atno 17394 bound_to 11000
  141.1304  133.6588  156.3449 LP  0  0  0  0  0  0  0  0  0  0  0  0  # atno 17395 bound_to 11000

$$$$
