AV-unprocessed.smi:1586|AV-procd|sdf|6377|dock5
  -GOLD-   22720 7 03D 1   1.00000     0.00000
 Structure written by MMmdl.
 46 47  0  0  0  0  0  0  0  0  1 V2000
  151.8081  144.2492  159.0106 C   0  0  0  0  0  0  0  0  0  0  0  0
  152.3609  142.8504  159.3206 C   0  0  0  0  0  0  0  0  0  0  0  0
  152.2857  141.8998  158.2131 N   0  0  0  0  0  0  0  0  0  0  0  0
  152.8047  140.5804  158.5693 C   0  0  0  0  0  0  0  0  0  0  0  0
  152.7164  139.5966  157.3878 C   0  0  0  0  0  0  0  0  0  0  0  0
  151.3391  139.4159  156.9020 N   0  0  0  0  0  0  0  0  0  0  0  0
  151.2572  138.4836  155.7538 C   0  0  2  0  0  0  0  0  0  0  0  0
  151.7871  139.1068  154.4373 C   0  0  0  0  0  0  0  0  0  0  0  0
  149.8213  137.9360  155.5049 C   0  0  0  0  0  0  0  0  0  0  0  0
  149.7881  136.7713  154.6240 N   0  0  0  0  0  0  0  0  0  0  0  0
  150.1954  135.5393  154.9623 C   0  0  0  0  0  0  0  0  0  0  0  0
  150.6409  135.2553  156.0741 O   0  0  0  0  0  0  0  0  0  0  0  0
  150.0528  134.6816  153.9378 N   0  0  0  0  0  0  0  0  0  0  0  0
  150.3703  133.2994  153.8939 C   0  0  0  0  0  0  0  0  0  0  0  0
  149.7465  132.3149  153.0731 C   0  0  0  0  0  0  0  0  0  0  0  0
  150.4119  131.1700  153.4093 C   0  0  0  0  0  0  0  0  0  0  0  0
  150.2943  129.7570  152.9508 C   0  0  0  0  0  0  0  0  0  0  0  0
  151.3567  131.4302  154.3523 O   0  0  0  0  0  0  0  0  0  0  0  0
  151.3233  132.7960  154.6566 N   0  0  0  0  0  0  0  0  0  0  0  0
  150.8135  140.7515  156.5778 C   0  0  0  0  0  0  0  0  0  0  0  0
  150.9076  141.7274  157.7648 C   0  0  0  0  0  0  0  0  0  0  0  0
  151.7988  144.8646  159.9103 H   0  0  0  0  0  0  0  0  0  0  0  0
  150.7854  144.1935  158.6371 H   0  0  0  0  0  0  0  0  0  0  0  0
  152.4118  144.7715  158.2689 H   0  0  0  0  0  0  0  0  0  0  0  0
  153.3909  142.9340  159.6708 H   0  0  0  0  0  0  0  0  0  0  0  0
  151.7903  142.4539  160.1616 H   0  0  0  0  0  0  0  0  0  0  0  0
  153.8473  140.6567  158.8758 H   0  0  0  0  0  0  0  0  0  0  0  0
  152.2561  140.1790  159.4231 H   0  0  0  0  0  0  0  0  0  0  0  0
  153.3589  139.9384  156.5747 H   0  0  0  0  0  0  0  0  0  0  0  0
  153.1272  138.6532  157.7402 H   0  0  0  0  0  0  0  0  0  0  0  0
  151.8946  137.6268  155.9773 H   0  0  0  0  0  0  0  0  0  0  0  0
  151.6737  138.4387  153.5846 H   0  0  0  0  0  0  0  0  0  0  0  0
  152.8528  139.3260  154.4838 H   0  0  0  0  0  0  0  0  0  0  0  0
  151.2615  140.0322  154.1998 H   0  0  0  0  0  0  0  0  0  0  0  0
  149.3276  137.6401  156.4293 H   0  0  0  0  0  0  0  0  0  0  0  0
  149.2001  138.7146  155.0613 H   0  0  0  0  0  0  0  0  0  0  0  0
  149.4349  136.9185  153.6898 H   0  0  0  0  0  0  0  0  0  0  0  0
  149.6711  135.0624  153.0845 H   0  0  0  0  0  0  0  0  0  0  0  0
  148.9473  132.4129  152.3543 H   0  0  0  0  0  0  0  0  0  0  0  0
  149.6813  129.6891  152.0520 H   0  0  0  0  0  0  0  0  0  0  0  0
  149.8349  129.1379  153.7214 H   0  0  0  0  0  0  0  0  0  0  0  0
  151.2755  129.3410  152.7217 H   0  0  0  0  0  0  0  0  0  0  0  0
  151.3443  141.1647  155.7186 H   0  0  0  0  0  0  0  0  0  0  0  0
  149.7624  140.6922  156.3015 H   0  0  0  0  0  0  0  0  0  0  0  0
  150.2875  141.3660  158.5869 H   0  0  0  0  0  0  0  0  0  0  0  0
  150.4951  142.6916  157.4656 H   0  0  0  0  0  0  0  0  0  0  0  0
  1  2  1  0  0  0  0
  1 22  1  0  0  0  0
  1 23  1  0  0  0  0
  1 24  1  0  0  0  0
  2  3  1  0  0  0  0
  2 25  1  0  0  0  0
  2 26  1  0  0  0  0
  3 21  1  0  0  0  0
  3  4  1  0  0  0  0
  4  5  1  0  0  0  0
  4 27  1  0  0  0  0
  4 28  1  0  0  0  0
  5  6  1  0  0  0  0
  5 29  1  0  0  0  0
  5 30  1  0  0  0  0
  6  7  1  0  0  0  0
  6 20  1  0  0  0  0
  7  8  1  0  0  0  0
  7  9  1  0  0  0  0
  7 31  1  0  0  0  0
  8 32  1  0  0  0  0
  8 33  1  0  0  0  0
  8 34  1  0  0  0  0
  9 10  1  0  0  0  0
  9 35  1  0  0  0  0
  9 36  1  0  0  0  0
 10 11  1  0  0  0  0
 10 37  1  0  0  0  0
 11 12  2  0  0  0  0
 11 13  1  0  0  0  0
 13 14  1  0  0  0  0
 13 38  1  0  0  0  0
 14 19  2  0  0  0  0
 14 15  1  0  0  0  0
 15 16  2  0  0  0  0
 15 39  1  0  0  0  0
 16 17  1  0  0  0  0
 16 18  1  0  0  0  0
 17 40  1  0  0  0  0
 17 41  1  0  0  0  0
 17 42  1  0  0  0  0
 18 19  1  0  0  0  0
 20 21  1  0  0  0  0
 20 43  1  0  0  0  0
 20 44  1  0  0  0  0
 21 45  1  0  0  0  0
 21 46  1  0  0  0  0
M  END
> <s_m_source_file>
AV-unprocessed.smi

> <i_m_source_file_index>
1586

> <i_lp_mmshare_version>
43012

> <i_f3d_flags>
0

> <s_epik_input>
W0NIM11bQ0gyXU4xW0NIMl1bQ0gyXU4oW0NIMl1bQ0gyXTEpW0NASF0oW0NIM10pW0NIMl1bTkhdQyg9TylbTkhdYzJbY0hdYyhbQ0gzXSlvbjI=

> <s_epik_cmdline>
J2VwaWtfcHl0aG9uJywgJy1waCcsICc3LjAnLCAnLXRuJywgJzgnLCAnLW1hJywgJzIwMCcsICctbWV0YWxfYmluZGluZycsICctaW1hZScsICc8aW5maWxlLm1hZT4nLCAnLW9tYWUnLCAnPG91dGZpbGUubWFlPic=

> <r_epik_Ionization_Penalty>
2.42597

> <r_epik_Ionization_Penalty_Charging>
0

> <r_epik_Ionization_Penalty_Neutral>
2.42597

> <r_epik_State_Penalty>
1.76326

> <r_epik_Charging_Adjusted_Penalty>
1.76326

> <i_epik_Tot_Q>
0

> <i_epik_Tot_abs_Q>
0

> <r_epik_Metal_State_Penalty>
1.7742

> <b_epik_Metal_Only>
0

> <s_lp_Force_Field>
OPLS_2005

> <r_lp_Energy>
40.1671

> <b_lp_Chiralities_Consistent>
1

> <s_lp_Variant>
AV-unprocessed.smi:1586-5

> <Gold.Version>
5.8.1

> <Gold.Id.Protein>
6NUR|6NUR_protein|mol2

> <Gold.PLP.Fitness>
39.4810

> <Gold.PLP.PLP>
-35.1409

> <Gold.PLP.part.hbond>
-2.0000

> <Gold.PLP.part.metal>
0.0000

> <Gold.PLP.part.buried>
-3.8304

> <Gold.PLP.part.nonpolar>
-28.6996

> <Gold.PLP.part.repulsive>
0.0663

> <Gold.PLP.ligand.clash>
0.0000

> <Gold.PLP.ligand.torsion>
0.5371

> <Gold.PLP.Chemscore.Hbond>
1.7920

> <Gold.PLP.Chemscore.CHOScore>
0.0000

> <Gold.PLP.Chemscore.Metal>
0.0000

> <Gold.Chemscore.Hbonds>
donor molecule, donor type, donor heavy atom, donor atom, acceptor molecule, acceptor atom, score
      L1  H    10    37       P1  7948  1.00
      L1  H    13    38       P1  7948  0.05

> <Gold.PLP.Chemscore.Internal.Correction>
0.0382

> <Gold.Rescore>
     Score         DG    S(hbond)    S(metal)    S(lipo)     H(rot)  DE(clash)    DE(int)     intcor
     14.34     -16.06       1.69        0.00      79.71       1.72       0.02       1.69       ----

> <Gold.Chemscore.Fitness>
14.3435

> <Gold.Chemscore.DG>
-16.0579

> <Gold.Chemscore.ZeroCoef>
-5.4800

> <Gold.Chemscore.Hbond>
1.6916

> <Gold.Chemscore.Metal>
0.0000

> <Gold.Chemscore.Lipo>
79.7058

> <Gold.Chemscore.Internal_Hbond>
0.0000

> <Gold.Chemscore.DEClash>
0.0195

> <Gold.Chemscore.DEInternal>
1.6948

> <Gold.Chemscore.Rot>
1.7178

> <Gold.Chemscore.Internal.Correction>
   9.000000E+99

> <Gold.Chemscore.Hbonds>
donor molecule, donor type, donor heavy atom, donor atom, acceptor molecule, acceptor atom, score
      L1  H    10    37       P1  7948  0.86

> <Gold.Chemscore.Hbond.Weighted>
-5.6500

> <Gold.Chemscore.Metal.Weighted>
-0.0000

> <Gold.Chemscore.Lipo.Weighted>
-9.3256

> <Gold.Chemscore.Internal_Hbond.Weighted>
0.0000

> <Gold.Chemscore.DEClash.Weighted>
0.0195

> <Gold.Chemscore.DEInternal.Weighted>
1.6948

> <Gold.Chemscore.Rot.Weighted>
4.3976

> <Gold.Chemscore.Internal.Correction.Weighted>
   9.000000E+99

> <Gold.Protein.RotatedTorsions>
[ 6907 6896 6895 6894 ] final  -78.21 input  -60.11 | X-H torsion
[ 7974 7965 7964 7962 ] final   74.44 input  175.53 | X-H torsion
[ 8008 7997 7996 7995 ] final  -17.99 input   59.86 | X-H torsion
[ 10167 10162 10161 10158 ] final   85.28 input  -65.29 | X-H torsion
[ 10718 10713 10712 10709 ] final   99.43 input   66.30 | X-H torsion
[ 10763 10752 10751 10750 ] final -132.35 input  -60.55 | X-H torsion
[ 11005 11000 10999 10996 ] final -141.78 input  -57.11 | X-H torsion

> <Gold.Protein.ActiveResidues>
 VAL166  LYS551  ARG553  GLY616  TRP617  ASP618  TYR619  PRO620  LYS621  CYS622 
 ASP623  PHE694  ASN695  SER759  ASP760  ASP761  ALA762  ILE779  LEU786  VAL792 
 PHE793  MET794  SER795  GLU796  ALA797  LYS798  CYS799  TRP800  GLU811  SER814 

> <Gold.Protein.RotatedAtoms>
  150.6979  134.4307  159.5246 H   0  0  0  0  0  0  0  0  0  0  0  0  # atno 6907 bound_to 6896
  152.2034  134.8564  160.0514 H   0  0  0  0  0  0  0  0  0  0  0  0  # atno 6908 bound_to 6896
  151.9476  133.3621  159.4025 H   0  0  0  0  0  0  0  0  0  0  0  0  # atno 6909 bound_to 6896
  145.7282  139.2674  143.1556 H   0  0  0  0  0  0  0  0  0  0  0  0  # atno 7974 bound_to 7965
  154.4938  140.2128  155.9491 H   0  0  0  0  0  0  0  0  0  0  0  0  # atno 8008 bound_to 7997
  156.1342  140.3191  155.8363 H   0  0  0  0  0  0  0  0  0  0  0  0  # atno 8009 bound_to 7997
  155.4241  140.0499  157.3014 H   0  0  0  0  0  0  0  0  0  0  0  0  # atno 8010 bound_to 7997
  139.8994  144.6338  150.8653 H   0  0  0  0  0  0  0  0  0  0  0  0  # atno 10167 bound_to 10162
  157.6876  131.0669  150.4948 H   0  0  0  0  0  0  0  0  0  0  0  0  # atno 10718 bound_to 10713
  154.8744  135.3801  154.4395 H   0  0  0  0  0  0  0  0  0  0  0  0  # atno 10763 bound_to 10752
  153.5081  135.7030  153.5800 H   0  0  0  0  0  0  0  0  0  0  0  0  # atno 10764 bound_to 10752
  153.4102  135.3926  155.2012 H   0  0  0  0  0  0  0  0  0  0  0  0  # atno 10765 bound_to 10752
  140.8290  134.2540  157.4865 H   0  0  0  0  0  0  0  0  0  0  0  0  # atno 11005 bound_to 11000
  146.0562  140.8018  142.9757 LP  0  0  0  0  0  0  0  0  0  0  0  0  # atno 17320 bound_to 7965
  144.6899  140.3127  143.7245 LP  0  0  0  0  0  0  0  0  0  0  0  0  # atno 17321 bound_to 7965
  140.7710  143.3448  151.2133 LP  0  0  0  0  0  0  0  0  0  0  0  0  # atno 17342 bound_to 10162
  139.7039  143.9488  152.2918 LP  0  0  0  0  0  0  0  0  0  0  0  0  # atno 17343 bound_to 10162
  156.5272  130.4176  149.6220 LP  0  0  0  0  0  0  0  0  0  0  0  0  # atno 17370 bound_to 10713
  156.3101  130.7224  151.2115 LP  0  0  0  0  0  0  0  0  0  0  0  0  # atno 17371 bound_to 10713
  139.8705  134.9576  156.4274 LP  0  0  0  0  0  0  0  0  0  0  0  0  # atno 17394 bound_to 11000
  140.9018  133.7774  155.9689 LP  0  0  0  0  0  0  0  0  0  0  0  0  # atno 17395 bound_to 11000

$$$$
