#       Name:                AV-unprocessed.smi:1822
#       Creating user name   scv26
#       Creation time:       Fri Mar 27 09:05:56 2020


#       File generated by GOLD software.
#

@<TRIPOS>MOLECULE
AV-unprocessed.smi:1822
    54    55     1
SMALL
NO_CHARGES


@<TRIPOS>ATOM
      1 ****        -4.8477  -2.8003   2.3810 C.3            1 S1                 0.0000
      2 ****        -3.9895  -1.6784   2.7304 N.am           1 S1                 0.0000
      3 ****        -2.6487  -1.6912   2.6498 C.2            1 S1                 0.0000
      4 ****        -2.0333  -2.6834   2.2555 O.2            1 S1                 0.0000
      5 ****        -2.0180  -0.4378   3.0709 C.2            1 S1                 0.0000
      6 ****        -2.7739   0.7267   3.5072 C.2            1 S1                 0.0000
      7 ****        -2.1391   1.8533   3.8860 C.2            1 S1                 0.0000
      8 ****        -0.6772   1.9569   3.8755 C.2            1 S1                 0.0000
      9 ****        -0.0930   2.9840   4.2207 O.2            1 S1                 0.0000
     10 ****        -0.0052   0.8420   3.4568 N.am           1 S1                 0.0000
     11 ****         1.4666   0.8248   3.4044 C.3            1 S1                 0.0000
     12 ****         2.0125   1.4806   2.1296 C.2            1 S1                 0.0000
     13 ****         2.7533   2.4603   2.2290 O.2            1 S1                 0.0000
     14 ****         1.6342   0.9080   0.9677 N.am           1 S1                 0.0000
     15 ****         1.9718   1.2806  -0.2813 C.2            1 S1                 0.0000
     16 ****         2.7089   2.2239  -0.5765 O.2            1 S1                 0.0000
     17 ****         1.3991   0.4787  -1.1912 N.am           1 S1                 0.0000
     18 ****         1.5641   0.5874  -2.6377 C.3            1 S1                 0.0000
     19 ****         0.3350  -0.0175  -3.3423 C.3            1 S1                 0.0000
     20 ****         0.4910   0.0099  -4.8714 C.3            1 S1                 0.0000
     21 ****         1.7798  -0.7006  -5.3132 C.3            1 S1                 0.0000
     22 ****         3.0107  -0.0965  -4.6195 C.3            1 S1                 0.0000
     23 ****         2.8588  -0.1200  -3.0898 C.3            1 S1                 0.0000
     24 ****        -0.6746  -0.3339   3.0632 C.2            1 S1                 0.0000
     25 ****        -5.8900  -2.5425   2.5685 H              1 S1                 0.0000
     26 ****        -4.6017  -3.6794   2.9778 H              1 S1                 0.0000
     27 ****        -4.7439  -3.0545   1.3256 H              1 S1                 0.0000
     28 ****        -4.4415  -0.8374   3.0591 H              1 S1                 0.0000
     29 ****        -3.8535   0.7180   3.5371 H              1 S1                 0.0000
     30 ****        -2.7215   2.7050   4.2058 H              1 S1                 0.0000
     31 ****         1.8840   1.3257   4.2801 H              1 S1                 0.0000
     32 ****         1.8464  -0.1967   3.4566 H              1 S1                 0.0000
     33 ****         1.0234   0.1083   1.0458 H              1 S1                 0.0000
     34 ****         0.8065  -0.2681  -0.8596 H              1 S1                 0.0000
     35 ****         1.6244   1.6427  -2.9116 H              1 S1                 0.0000
     36 ****         0.1897  -1.0477  -3.0139 H              1 S1                 0.0000
     37 ****        -0.5655   0.5275  -3.0568 H              1 S1                 0.0000
     38 ****        -0.3725  -0.4612  -5.3416 H              1 S1                 0.0000
     39 ****         0.5063   1.0439  -5.2183 H              1 S1                 0.0000
     40 ****         1.7114  -1.7632  -5.0767 H              1 S1                 0.0000
     41 ****         1.8911  -0.6310  -6.3956 H              1 S1                 0.0000
     42 ****         3.9078  -0.6427  -4.9122 H              1 S1                 0.0000
     43 ****         3.1513   0.9314  -4.9558 H              1 S1                 0.0000
     44 ****         3.7273   0.3544  -2.6313 H              1 S1                 0.0000
     45 ****         2.8546  -1.1545  -2.7436 H              1 S1                 0.0000
     46 ****        -0.0196  -1.1370   2.7546 H              1 S1                 0.0000
     47 ****        -2.5325  -3.5067   1.9855 LP             1 S1                 0.0000
     48 ****        -1.0347  -2.6652   2.2055 LP             1 S1                 0.0000
     49 ****        -0.6176   3.7810   4.5202 LP             1 S1                 0.0000
     50 ****         0.9061   3.0214   4.2017 LP             1 S1                 0.0000
     51 ****         2.9912   2.8177   3.1322 LP             1 S1                 0.0000
     52 ****         3.1166   2.8980   1.4065 LP             1 S1                 0.0000
     53 ****         3.1126   2.7876   0.1442 LP             1 S1                 0.0000
     54 ****         2.9031   2.4253  -1.5365 LP             1 S1                 0.0000
@<TRIPOS>BOND
    1    1    2 1     
    2    1   25 1     
    3    1   26 1     
    4    1   27 1     
    5    2    3 am    
    6    2   28 1     
    7    3    4 2     
    8    3    5 1     
    9    5   24 2     
   10    5    6 1     
   11    6    7 2     
   12    6   29 1     
   13    7    8 1     
   14    7   30 1     
   15    8    9 2     
   16    8   10 am    
   17   10   11 1     
   18   10   24 1     
   19   11   12 1     
   20   11   31 1     
   21   11   32 1     
   22   12   13 2     
   23   12   14 1     
   24   14   15 1     
   25   14   33 1     
   26   15   16 2     
   27   15   17 1     
   28   17   18 1     
   29   17   34 1     
   30   18   23 1     
   31   18   19 1     
   32   18   35 1     
   33   19   20 1     
   34   19   36 1     
   35   19   37 1     
   36   20   21 1     
   37   20   38 1     
   38   20   39 1     
   39   21   22 1     
   40   21   40 1     
   41   21   41 1     
   42   22   23 1     
   43   22   42 1     
   44   22   43 1     
   45   23   44 1     
   46   23   45 1     
   47   24   46 1     
   48    4   47 1     
   49    4   48 1     
   50    9   49 1     
   51    9   50 1     
   52   13   51 1     
   53   13   52 1     
   54   16   53 1     
   55   16   54 1     
@<TRIPOS>SUBSTRUCTURE
      1 S1             1
@<TRIPOS>SET
LONE_PAIRS      STATIC     ATOMS    <user>   **** ""
8 47 48 49 50 51 52 53 54
DONOR_HYDROGENS      STATIC     ATOMS    <user>   **** ""
3 28 33 34
ATOM$BLUE        STATIC     ATOMS    COLORGROUP SYSTEM
8 47 48 49 50 51 52 53 54
ATOM$RED        STATIC     ATOMS    COLORGROUP SYSTEM
3 28 33 34
