AV-unprocessed.smi:72|AV-procd|sdf|687|dock3
  -GOLD-   2262017 03D 1   1.00000     0.00000
 Structure written by MMmdl.
 29 30  0  0  0  0  0  0  0  0  1 V2000
  152.1707  136.9987  159.8160 N   0  0  0  0  0  0  0  0  0  0  0  0
  151.7123  137.5745  158.7631 C   0  0  0  0  0  0  0  0  0  0  0  0
  150.3570  137.8242  158.4992 N   0  0  0  0  0  0  0  0  0  0  0  0
  150.0411  138.4230  157.3923 C   0  0  0  0  0  0  0  0  0  0  0  0
  151.0433  138.8465  156.4261 N   0  0  0  0  0  0  0  0  0  0  0  0
  150.6370  139.5503  155.1481 C   0  0  2  0  0  0  0  0  0  0  0  0
  149.7651  140.5870  155.4782 O   0  0  0  0  0  0  0  0  0  0  0  0
  148.7511  140.6815  154.4903 C   0  0  2  0  0  0  0  0  0  0  0  0
  147.5214  141.3778  155.0949 C   0  0  0  0  0  0  0  0  0  0  0  0
  147.9158  142.3947  155.9908 O   0  0  0  0  0  0  0  0  0  0  0  0
  148.5258  139.2269  154.0603 C   0  0  1  0  0  0  0  0  0  0  0  0
  148.0311  139.1687  152.7371 O   0  0  0  0  0  0  0  0  0  0  0  0
  149.9249  138.6251  154.1337 C   0  0  2  0  0  0  0  0  0  0  0  0
  149.8684  137.2619  154.5147 O   0  0  0  0  0  0  0  0  0  0  0  0
  152.4137  138.5844  156.6683 C   0  0  0  0  0  0  0  0  0  0  0  0
  153.2990  138.8908  155.8701 O   0  0  0  0  0  0  0  0  0  0  0  0
  152.6881  137.9623  157.8353 N   0  0  0  0  0  0  0  0  0  0  0  0
  151.5401  140.0003  154.7335 H   0  0  0  0  0  0  0  0  0  0  0  0
  149.1594  141.2683  153.6644 H   0  0  0  0  0  0  0  0  0  0  0  0
  147.8469  138.7247  154.7516 H   0  0  0  0  0  0  0  0  0  0  0  0
  150.4465  138.7180  153.1798 H   0  0  0  0  0  0  0  0  0  0  0  0
  153.1776  136.9365  159.7664 H   0  0  0  0  0  0  0  0  0  0  0  0
  149.0100  138.6429  157.1113 H   0  0  0  0  0  0  0  0  0  0  0  0
  146.8845  141.7972  154.3154 H   0  0  0  0  0  0  0  0  0  0  0  0
  146.9192  140.6564  155.6479 H   0  0  0  0  0  0  0  0  0  0  0  0
  148.1723  143.1542  155.4904 H   0  0  0  0  0  0  0  0  0  0  0  0
  148.7643  139.1767  152.1415 H   0  0  0  0  0  0  0  0  0  0  0  0
  149.6343  136.7485  153.7565 H   0  0  0  0  0  0  0  0  0  0  0  0
  153.6555  137.7613  158.0435 H   0  0  0  0  0  0  0  0  0  0  0  0
  1  2  2  0  0  0  0
  1 22  1  0  0  0  0
  2 17  1  0  0  0  0
  2  3  1  0  0  0  0
  3  4  2  0  0  0  0
  4  5  1  0  0  0  0
  4 23  1  0  0  0  0
  5  6  1  0  0  0  0
  5 15  1  0  0  0  0
  6 18  1  0  0  0  0
  6 13  1  0  0  0  0
  6  7  1  0  0  0  0
  7  8  1  0  0  0  0
  8 19  1  0  0  0  0
  8  9  1  0  0  0  0
  8 11  1  0  0  0  0
  9 10  1  0  0  0  0
  9 24  1  0  0  0  0
  9 25  1  0  0  0  0
 10 26  1  0  0  0  0
 11 20  1  0  0  0  0
 11 12  1  0  0  0  0
 11 13  1  0  0  0  0
 12 27  1  0  0  0  0
 13 21  1  0  0  0  0
 13 14  1  0  0  0  0
 14 28  1  0  0  0  0
 15 16  2  0  0  0  0
 15 17  1  0  0  0  0
 17 29  1  0  0  0  0
M  END
> <s_m_source_file>
AV-unprocessed.smi

> <i_m_source_file_index>
72

> <i_lp_mmshare_version>
43012

> <i_f3d_flags>
0

> <s_epik_input>
W05IMl1jMW5bY0hdbihjKD1PKW4xKVtDQEBIXTJPW0NASF0oW0NIMl1bT0hdKVtDQEBIXShbT0hdKVtDQEhdMltPSF0=

> <s_epik_cmdline>
J2VwaWtfcHl0aG9uJywgJy1waCcsICc3LjAnLCAnLXRuJywgJzgnLCAnLW1hJywgJzIwMCcsICctbWV0YWxfYmluZGluZycsICctaW1hZScsICc8aW5maWxlLm1hZT4nLCAnLW9tYWUnLCAnPG91dGZpbGUubWFlPic=

> <r_lp_tautomer_probability>
7.17554e-07

> <r_epik_Ionization_Penalty>
0.0066451

> <r_epik_Ionization_Penalty_Charging>
0.00663793

> <r_epik_Ionization_Penalty_Neutral>
7.17052e-06

> <r_epik_State_Penalty>
0.419231

> <r_epik_Charging_Adjusted_Penalty>
0.425868

> <i_epik_Tot_Q>
0

> <i_epik_Tot_abs_Q>
0

> <r_epik_Metal_State_Penalty>
1.44144

> <b_epik_Metal_Only>
0

> <s_epik_Chemistry_Notes>
This compound contains an acetal/aminal-like group ( X-CH(R)-Y where X, Y are N, S, or O) that may be acid/base labile, releasing an aldehyde.

> <s_lp_Force_Field>
OPLS_2005

> <r_lp_Energy>
41.3964

> <b_lp_Chiralities_Consistent>
1

> <s_lp_Variant>
AV-unprocessed.smi:72-25

> <Gold.Version>
5.8.1

> <Gold.Id.Protein>
6NUR|6NUR_protein|mol2

> <Gold.PLP.Fitness>
36.6076

> <Gold.PLP.PLP>
-22.5286

> <Gold.PLP.part.hbond>
-4.9673

> <Gold.PLP.part.metal>
0.0000

> <Gold.PLP.part.buried>
-4.2660

> <Gold.PLP.part.nonpolar>
-13.9443

> <Gold.PLP.part.repulsive>
0.1861

> <Gold.PLP.ligand.clash>
0.0000

> <Gold.PLP.ligand.torsion>
0.5112

> <Gold.PLP.Chemscore.Hbond>
4.9920

> <Gold.PLP.Chemscore.CHOScore>
0.0000

> <Gold.PLP.Chemscore.Metal>
0.0000

> <Gold.Chemscore.Hbonds>
donor molecule, donor type, donor heavy atom, donor atom, acceptor molecule, acceptor atom, score
      L1  H    10    26       P1  8028  0.86
      L1  H    12    27       P1  7957  0.93
      L1  H    14    28       P1  7948  0.96
      P1  H  6896  6907       L1     1  0.85
      P1  H  7997  8010       L1    16  1.00

> <Gold.PLP.Chemscore.Internal.Correction>
0.1254

> <Gold.Rescore>
     Score         DG    S(hbond)    S(metal)    S(lipo)     H(rot)  DE(clash)    DE(int)     intcor
     12.66     -13.14       4.59        0.00      23.34       4.06       0.00       0.48       ----

> <Gold.Chemscore.Fitness>
12.6650

> <Gold.Chemscore.DG>
-13.1427

> <Gold.Chemscore.ZeroCoef>
-5.4800

> <Gold.Chemscore.Hbond>
4.5885

> <Gold.Chemscore.Metal>
0.0000

> <Gold.Chemscore.Lipo>
23.3410

> <Gold.Chemscore.Internal_Hbond>
0.0000

> <Gold.Chemscore.DEClash>
0.0000

> <Gold.Chemscore.DEInternal>
0.4778

> <Gold.Chemscore.Rot>
4.0600

> <Gold.Chemscore.Internal.Correction>
   9.000000E+99

> <Gold.Chemscore.Hbonds>
donor molecule, donor type, donor heavy atom, donor atom, acceptor molecule, acceptor atom, score
      L1  H    10    26       P1  8028  0.77
      L1  H    12    27       P1  7957  0.84
      L1  H    14    28       P1  7948  0.68
      P1  H  6896  6907       L1     1  0.14
      P1  H  7997  8010       L1    16  0.94

> <Gold.Chemscore.Hbond.Weighted>
-15.3254

> <Gold.Chemscore.Metal.Weighted>
-0.0000

> <Gold.Chemscore.Lipo.Weighted>
-2.7309

> <Gold.Chemscore.Internal_Hbond.Weighted>
0.0000

> <Gold.Chemscore.DEClash.Weighted>
0.0000

> <Gold.Chemscore.DEInternal.Weighted>
0.4778

> <Gold.Chemscore.Rot.Weighted>
10.3936

> <Gold.Chemscore.Internal.Correction.Weighted>
   9.000000E+99

> <Gold.Protein.RotatedTorsions>
[ 6907 6896 6895 6894 ] final   14.88 input  -60.11 | X-H torsion
[ 7974 7965 7964 7962 ] final   84.31 input  175.53 | X-H torsion
[ 8008 7997 7996 7995 ] final   93.30 input   59.86 | X-H torsion
[ 10167 10162 10161 10158 ] final -164.63 input  -65.29 | X-H torsion
[ 10718 10713 10712 10709 ] final -137.16 input   66.30 | X-H torsion
[ 10763 10752 10751 10750 ] final -132.51 input  -60.55 | X-H torsion
[ 11005 11000 10999 10996 ] final -119.47 input  -57.11 | X-H torsion

> <Gold.Protein.ActiveResidues>
 VAL166  LYS551  ARG553  GLY616  TRP617  ASP618  TYR619  PRO620  LYS621  CYS622 
 ASP623  PHE694  ASN695  SER759  ASP760  ASP761  ALA762  ILE779  LEU786  VAL792 
 PHE793  MET794  SER795  GLU796  ALA797  LYS798  CYS799  TRP800  GLU811  SER814 

> <Gold.Protein.RotatedAtoms>
  151.8092  135.0686  160.0410 H   0  0  0  0  0  0  0  0  0  0  0  0  # atno 6907 bound_to 6896
  152.3033  133.5673  159.5641 H   0  0  0  0  0  0  0  0  0  0  0  0  # atno 6908 bound_to 6896
  150.7284  134.0176  159.3732 H   0  0  0  0  0  0  0  0  0  0  0  0  # atno 6909 bound_to 6896
  145.6005  139.2351  143.2248 H   0  0  0  0  0  0  0  0  0  0  0  0  # atno 7974 bound_to 7965
  156.0452  140.3314  155.7289 H   0  0  0  0  0  0  0  0  0  0  0  0  # atno 8008 bound_to 7997
  155.5684  140.0625  157.2830 H   0  0  0  0  0  0  0  0  0  0  0  0  # atno 8009 bound_to 7997
  154.4411  140.1865  156.0842 H   0  0  0  0  0  0  0  0  0  0  0  0  # atno 8010 bound_to 7997
  139.6238  144.0573  152.1956 H   0  0  0  0  0  0  0  0  0  0  0  0  # atno 10167 bound_to 10162
  156.2851  130.7343  151.1352 H   0  0  0  0  0  0  0  0  0  0  0  0  # atno 10718 bound_to 10713
  154.8742  135.3795  154.4422 H   0  0  0  0  0  0  0  0  0  0  0  0  # atno 10763 bound_to 10752
  153.5106  135.7029  153.5788 H   0  0  0  0  0  0  0  0  0  0  0  0  # atno 10764 bound_to 10752
  153.4079  135.3932  155.1997 H   0  0  0  0  0  0  0  0  0  0  0  0  # atno 10765 bound_to 10752
  141.0213  134.0120  157.3278 H   0  0  0  0  0  0  0  0  0  0  0  0  # atno 11005 bound_to 11000
  146.1580  140.6830  142.9291 LP  0  0  0  0  0  0  0  0  0  0  0  0  # atno 17320 bound_to 7965
  144.7312  140.4677  143.6936 LP  0  0  0  0  0  0  0  0  0  0  0  0  # atno 17321 bound_to 7965
  140.0221  144.6145  150.7558 LP  0  0  0  0  0  0  0  0  0  0  0  0  # atno 17342 bound_to 10162
  140.7398  143.2796  151.3638 LP  0  0  0  0  0  0  0  0  0  0  0  0  # atno 17343 bound_to 10162
  157.7326  131.0598  150.5620 LP  0  0  0  0  0  0  0  0  0  0  0  0  # atno 17370 bound_to 10713
  156.5730  130.4284  149.6011 LP  0  0  0  0  0  0  0  0  0  0  0  0  # atno 17371 bound_to 10713
  139.9148  135.0195  156.7837 LP  0  0  0  0  0  0  0  0  0  0  0  0  # atno 17394 bound_to 11000
  140.6568  133.9681  155.7783 LP  0  0  0  0  0  0  0  0  0  0  0  0  # atno 17395 bound_to 11000

$$$$
