AV-unprocessed.smi:2849|AV-procd|sdf|10959|dock9
  -GOLD-   2272015413D 1   1.00000     0.00000
 Structure written by MMmdl.
 55 58  0  0  0  0  0  0  0  0  2 V2000
  146.8023  131.0674  153.1600 C   0  0  0  0  0  0  0  0  0  0  0  0
  147.5403  132.2626  153.6335 N   0  3  2  0  0  0  0  0  0  0  0  0
  149.0176  132.1590  153.5471 C   0  0  2  0  0  0  0  0  0  0  0  0
  149.5719  131.1460  154.5805 C   0  0  0  0  0  0  0  0  0  0  0  0
  149.0915  131.3972  156.0223 C   0  0  0  0  0  0  0  0  0  0  0  0
  147.5986  131.7727  156.0897 C   0  0  0  0  0  0  0  0  0  0  0  0
  147.1412  132.7500  154.9763 C   0  0  1  0  0  0  0  0  0  0  0  0
  147.6360  134.2053  155.1456 C   0  0  0  0  0  0  0  0  0  0  0  0
  149.1434  134.4061  154.8597 C   0  0  2  0  0  0  0  0  0  0  0  0
  149.4041  135.8269  154.6362 N   0  0  0  0  0  0  0  0  0  0  0  0
  149.7885  136.7011  155.5781 C   0  0  0  0  0  0  0  0  0  0  0  0
  149.9763  136.3872  156.7527 O   0  0  0  0  0  0  0  0  0  0  0  0
  149.9289  137.9349  155.0628 N   0  0  0  0  0  0  0  0  0  0  0  0
  150.2774  139.1523  155.7117 C   0  0  0  0  0  0  0  0  0  0  0  0
  150.1167  140.4447  155.1579 C   0  0  0  0  0  0  0  0  0  0  0  0
  150.5068  141.5660  155.9155 C   0  0  0  0  0  0  0  0  0  0  0  0
  151.0411  141.3730  157.2112 C   0  0  0  0  0  0  0  0  0  0  0  0
  151.4554  142.4662  157.9970 N   0  0  0  0  0  0  0  0  0  0  0  0
  151.5788  143.8091  157.4524 C   0  0  0  0  0  0  0  0  0  0  0  0
  152.1166  144.6460  158.6119 C   0  0  0  0  0  0  0  0  0  0  0  0
  152.9817  143.6513  159.3871 C   0  0  0  0  0  0  0  0  0  0  0  0
  152.2763  142.3044  159.1884 C   0  0  0  0  0  0  0  0  0  0  0  0
  151.1892  140.1364  157.7417 N   0  0  0  0  0  0  0  0  0  0  0  0
  150.8145  139.0656  157.0119 C   0  0  0  0  0  0  0  0  0  0  0  0
  149.6257  133.5779  153.6410 C   0  0  0  0  0  0  0  0  0  0  0  0
  146.9913  130.1908  153.7788 H   0  0  0  0  0  0  0  0  0  0  0  0
  147.0880  130.8253  152.1360 H   0  0  0  0  0  0  0  0  0  0  0  0
  145.7289  131.2581  153.1652 H   0  0  0  0  0  0  0  0  0  0  0  0
  149.2678  131.7794  152.5552 H   0  0  0  0  0  0  0  0  0  0  0  0
  149.2678  130.1413  154.2863 H   0  0  0  0  0  0  0  0  0  0  0  0
  150.6619  131.1373  154.5509 H   0  0  0  0  0  0  0  0  0  0  0  0
  149.2688  130.5054  156.6240 H   0  0  0  0  0  0  0  0  0  0  0  0
  149.6979  132.1656  156.4943 H   0  0  0  0  0  0  0  0  0  0  0  0
  147.0110  130.8572  156.0158 H   0  0  0  0  0  0  0  0  0  0  0  0
  147.3663  132.1859  157.0718 H   0  0  0  0  0  0  0  0  0  0  0  0
  146.0511  132.7883  155.0064 H   0  0  0  0  0  0  0  0  0  0  0  0
  147.0646  134.8266  154.4535 H   0  0  0  0  0  0  0  0  0  0  0  0
  147.3921  134.5742  156.1429 H   0  0  0  0  0  0  0  0  0  0  0  0
  149.7028  134.1105  155.7442 H   0  0  0  0  0  0  0  0  0  0  0  0
  149.2713  136.1725  153.6970 H   0  0  0  0  0  0  0  0  0  0  0  0
  149.7158  138.0252  154.0800 H   0  0  0  0  0  0  0  0  0  0  0  0
  149.7028  140.6099  154.1764 H   0  0  0  0  0  0  0  0  0  0  0  0
  150.3962  142.5523  155.4903 H   0  0  0  0  0  0  0  0  0  0  0  0
  152.2858  143.8005  156.6218 H   0  0  0  0  0  0  0  0  0  0  0  0
  150.6227  144.1890  157.0906 H   0  0  0  0  0  0  0  0  0  0  0  0
  152.6680  145.5260  158.2796 H   0  0  0  0  0  0  0  0  0  0  0  0
  151.2901  144.9818  159.2398 H   0  0  0  0  0  0  0  0  0  0  0  0
  153.9764  143.6115  158.9410 H   0  0  0  0  0  0  0  0  0  0  0  0
  153.0975  143.9167  160.4383 H   0  0  0  0  0  0  0  0  0  0  0  0
  151.6273  142.0785  160.0351 H   0  0  0  0  0  0  0  0  0  0  0  0
  153.0007  141.4961  159.0839 H   0  0  0  0  0  0  0  0  0  0  0  0
  150.9540  138.1040  157.4842 H   0  0  0  0  0  0  0  0  0  0  0  0
  150.7148  133.5218  153.6326 H   0  0  0  0  0  0  0  0  0  0  0  0
  149.3521  134.1120  152.7292 H   0  0  0  0  0  0  0  0  0  0  0  0
  147.2801  132.9945  152.9881 H   0  0  0  0  0  0  0  0  0  0  0  0
  1  2  1  0  0  0  0
  1 26  1  0  0  0  0
  1 27  1  0  0  0  0
  1 28  1  0  0  0  0
  2  7  1  0  0  0  0
  2  3  1  0  0  0  0
  2 55  1  0  0  0  0
  3 25  1  0  0  0  0
  3  4  1  0  0  0  0
  3 29  1  0  0  0  0
  4  5  1  0  0  0  0
  4 30  1  0  0  0  0
  4 31  1  0  0  0  0
  5  6  1  0  0  0  0
  5 32  1  0  0  0  0
  5 33  1  0  0  0  0
  6  7  1  0  0  0  0
  6 34  1  0  0  0  0
  6 35  1  0  0  0  0
  7  8  1  0  0  0  0
  7 36  1  0  0  0  0
  8  9  1  0  0  0  0
  8 37  1  0  0  0  0
  8 38  1  0  0  0  0
  9 10  1  0  0  0  0
  9 25  1  0  0  0  0
  9 39  1  0  0  0  0
 10 11  1  0  0  0  0
 10 40  1  0  0  0  0
 11 12  2  0  0  0  0
 11 13  1  0  0  0  0
 13 14  1  0  0  0  0
 13 41  1  0  0  0  0
 14 24  1  0  0  0  0
 14 15  2  0  0  0  0
 15 16  1  0  0  0  0
 15 42  1  0  0  0  0
 16 17  2  0  0  0  0
 16 43  1  0  0  0  0
 17 18  1  0  0  0  0
 17 23  1  0  0  0  0
 18 22  1  0  0  0  0
 18 19  1  0  0  0  0
 19 20  1  0  0  0  0
 19 44  1  0  0  0  0
 19 45  1  0  0  0  0
 20 21  1  0  0  0  0
 20 46  1  0  0  0  0
 20 47  1  0  0  0  0
 21 22  1  0  0  0  0
 21 48  1  0  0  0  0
 21 49  1  0  0  0  0
 22 50  1  0  0  0  0
 22 51  1  0  0  0  0
 23 24  2  0  0  0  0
 24 52  1  0  0  0  0
 25 53  1  0  0  0  0
 25 54  1  0  0  0  0
M  CHG  1   2   1
M  END
> <s_m_source_file>
AV-unprocessed.smi

> <i_m_source_file_index>
2849

> <i_lp_mmshare_version>
43012

> <i_f3d_flags>
0

> <s_epik_input>
W0NIMl0xW0NIMl1bQ0gyXVtDQEhdKE4oW0NIM10pW0NIXTEyKVtDSDJdW0NASF0oW0NIMl0yKVtOSF1DKD1PKVtOSF1jM1tjSF1bY0hdYyhuW2NIXTMpTjRbQ0gyXVtDSDJdW0NIMl1bQ0gyXTQ=

> <s_epik_cmdline>
J2VwaWtfcHl0aG9uJywgJy1waCcsICc3LjAnLCAnLXRuJywgJzgnLCAnLW1hJywgJzIwMCcsICctbWV0YWxfYmluZGluZycsICctaW1hZScsICc8aW5maWxlLm1hZT4nLCAnLW9tYWUnLCAnPG91dGZpbGUubWFlPic=

> <r_lp_tautomer_probability>
1

> <r_epik_Ionization_Penalty>
0.07954

> <r_epik_Ionization_Penalty_Charging>
0.00089841

> <r_epik_Ionization_Penalty_Neutral>
0.0786416

> <r_epik_State_Penalty>
0.0689917

> <r_epik_Charging_Adjusted_Penalty>
0.0698901

> <i_epik_Tot_Q>
1

> <i_epik_Tot_abs_Q>
1

> <r_epik_Metal_State_Penalty>
0.060891

> <b_epik_Metal_Only>
0

> <s_lp_Force_Field>
OPLS_2005

> <r_lp_Energy>
61.678

> <b_lp_Chiralities_Consistent>
1

> <s_lp_Variant>
AV-unprocessed.smi:2849-3

> <Gold.Version>
5.8.1

> <Gold.Id.Protein>
6NUR|6NUR_protein|mol2

> <Gold.PLP.Fitness>
42.5874

> <Gold.PLP.PLP>
-40.3663

> <Gold.PLP.part.hbond>
-1.0000

> <Gold.PLP.part.metal>
0.0000

> <Gold.PLP.part.buried>
-4.7232

> <Gold.PLP.part.nonpolar>
-35.2276

> <Gold.PLP.part.repulsive>
0.0329

> <Gold.PLP.ligand.clash>
0.0000

> <Gold.PLP.ligand.torsion>
0.4642

> <Gold.PLP.Chemscore.Hbond>
1.0000

> <Gold.PLP.Chemscore.CHOScore>
0.0000

> <Gold.PLP.Chemscore.Metal>
0.0000

> <Gold.Chemscore.Hbonds>
donor molecule, donor type, donor heavy atom, donor atom, acceptor molecule, acceptor atom, score
      L1  H    10    40       P1  7948  1.00

> <Gold.PLP.Chemscore.Internal.Correction>
0.1494

> <Gold.Rescore>
     Score         DG    S(hbond)    S(metal)    S(lipo)     H(rot)  DE(clash)    DE(int)     intcor
     17.48     -19.31       0.96        0.00     112.65       1.00       0.07       1.76       ----

> <Gold.Chemscore.Fitness>
17.4763

> <Gold.Chemscore.DG>
-19.3057

> <Gold.Chemscore.ZeroCoef>
-5.4800

> <Gold.Chemscore.Hbond>
0.9597

> <Gold.Chemscore.Metal>
0.0000

> <Gold.Chemscore.Lipo>
112.6531

> <Gold.Chemscore.Internal_Hbond>
0.0000

> <Gold.Chemscore.DEClash>
0.0683

> <Gold.Chemscore.DEInternal>
1.7611

> <Gold.Chemscore.Rot>
1.0000

> <Gold.Chemscore.Internal.Correction>
   9.000000E+99

> <Gold.Chemscore.Hbonds>
donor molecule, donor type, donor heavy atom, donor atom, acceptor molecule, acceptor atom, score
      L1  H    10    40       P1  7948  0.85

> <Gold.Chemscore.Hbond.Weighted>
-3.2053

> <Gold.Chemscore.Metal.Weighted>
-0.0000

> <Gold.Chemscore.Lipo.Weighted>
-13.1804

> <Gold.Chemscore.Internal_Hbond.Weighted>
0.0000

> <Gold.Chemscore.DEClash.Weighted>
0.0683

> <Gold.Chemscore.DEInternal.Weighted>
1.7611

> <Gold.Chemscore.Rot.Weighted>
2.5600

> <Gold.Chemscore.Internal.Correction.Weighted>
   9.000000E+99

> <Gold.Protein.RotatedTorsions>
[ 6907 6896 6895 6894 ] final  145.35 input  -60.11 | X-H torsion
[ 7974 7965 7964 7962 ] final  127.28 input  175.53 | X-H torsion
[ 8008 7997 7996 7995 ] final -113.87 input   59.86 | X-H torsion
[ 10167 10162 10161 10158 ] final   74.73 input  -65.29 | X-H torsion
[ 10718 10713 10712 10709 ] final   41.08 input   66.30 | X-H torsion
[ 10763 10752 10751 10750 ] final -148.48 input  -60.55 | X-H torsion
[ 11005 11000 10999 10996 ] final  -93.04 input  -57.11 | X-H torsion

> <Gold.Protein.ActiveResidues>
 VAL166  LYS551  ARG553  GLY616  TRP617  ASP618  TYR619  PRO620  LYS621  CYS622 
 ASP623  PHE694  ASN695  SER759  ASP760  ASP761  ALA762  ILE779  LEU786  VAL792 
 PHE793  MET794  SER795  GLU796  ALA797  LYS798  CYS799  TRP800  GLU811  SER814 

> <Gold.Protein.RotatedAtoms>
  152.1820  133.4714  159.4962 H   0  0  0  0  0  0  0  0  0  0  0  0  # atno 6907 bound_to 6896
  150.6936  134.1821  159.4262 H   0  0  0  0  0  0  0  0  0  0  0  0  # atno 6908 bound_to 6896
  151.9733  135.0065  160.0604 H   0  0  0  0  0  0  0  0  0  0  0  0  # atno 6909 bound_to 6896
  145.0523  139.3873  143.5048 H   0  0  0  0  0  0  0  0  0  0  0  0  # atno 7974 bound_to 7965
  155.0275  140.0393  157.2461 H   0  0  0  0  0  0  0  0  0  0  0  0  # atno 8008 bound_to 7997
  154.7325  140.2733  155.6420 H   0  0  0  0  0  0  0  0  0  0  0  0  # atno 8009 bound_to 7997
  156.2845  140.2681  156.2029 H   0  0  0  0  0  0  0  0  0  0  0  0  # atno 8010 bound_to 7997
  140.0106  144.5617  150.7661 H   0  0  0  0  0  0  0  0  0  0  0  0  # atno 10167 bound_to 10162
  157.3895  130.7798  149.7258 H   0  0  0  0  0  0  0  0  0  0  0  0  # atno 10718 bound_to 10713
  154.8230  135.3333  154.6981 H   0  0  0  0  0  0  0  0  0  0  0  0  # atno 10763 bound_to 10752
  153.7611  135.6932  153.4930 H   0  0  0  0  0  0  0  0  0  0  0  0  # atno 10764 bound_to 10752
  153.2110  135.4482  155.0329 H   0  0  0  0  0  0  0  0  0  0  0  0  # atno 10765 bound_to 10752
  141.1507  133.7861  157.0104 H   0  0  0  0  0  0  0  0  0  0  0  0  # atno 11005 bound_to 11000
  146.3519  140.0179  142.8661 LP  0  0  0  0  0  0  0  0  0  0  0  0  # atno 17320 bound_to 7965
  145.1512  140.9624  143.4432 LP  0  0  0  0  0  0  0  0  0  0  0  0  # atno 17321 bound_to 7965
  140.7383  143.2776  151.3695 LP  0  0  0  0  0  0  0  0  0  0  0  0  # atno 17342 bound_to 10162
  139.6208  144.0912  152.2389 LP  0  0  0  0  0  0  0  0  0  0  0  0  # atno 17343 bound_to 10162
  155.9795  130.4040  150.3585 LP  0  0  0  0  0  0  0  0  0  0  0  0  # atno 17370 bound_to 10713
  157.1699  131.0366  151.2800 LP  0  0  0  0  0  0  0  0  0  0  0  0  # atno 17371 bound_to 10713
  140.0881  134.9609  157.1732 LP  0  0  0  0  0  0  0  0  0  0  0  0  # atno 17394 bound_to 11000
  140.3483  134.2626  155.7202 LP  0  0  0  0  0  0  0  0  0  0  0  0  # atno 17395 bound_to 11000

$$$$
