AV-unprocessed.smi:1749|AV-procd|sdf|7050|dock3
  -GOLD-   22720 8263D 1   1.00000     0.00000
 Structure written by MMmdl.
 31 32  0  0  0  0  0  0  0  0  2 V2000
  152.5315  142.5375  161.7655 C   0  0  0  0  0  0  0  0  0  0  0  0
  152.4960  143.4287  160.5158 C   0  0  2  0  0  0  0  0  0  0  0  0
  151.9381  144.8284  160.8364 C   0  0  0  0  0  0  0  0  0  0  0  0
  151.9066  145.7208  159.5858 C   0  0  0  0  0  0  0  0  0  0  0  0
  151.1060  145.0619  158.4524 C   0  0  0  0  0  0  0  0  0  0  0  0
  151.6556  143.6638  158.1169 C   0  0  2  0  0  0  0  0  0  0  0  0
  150.8318  143.0589  157.0742 N   0  0  0  0  0  0  0  0  0  0  0  0
  150.9623  141.8161  156.5696 C   0  0  0  0  0  0  0  0  0  0  0  0
  151.8372  141.0785  157.0212 O   0  0  0  0  0  0  0  0  0  0  0  0
  150.1108  141.4406  155.5788 N   0  5  0  0  0  0  0  0  0  0  0  0
  150.1429  140.2167  155.0197 C   0  0  0  0  0  0  0  0  0  0  0  0
  151.2741  139.6689  154.5471 N   0  0  0  0  0  0  0  0  0  0  0  0
  151.0860  138.3998  154.0168 N   0  0  0  0  0  0  0  0  0  0  0  0
  149.8092  138.0254  154.0936 C   0  0  0  0  0  0  0  0  0  0  0  0
  148.7214  139.1887  154.8207 S   0  0  0  0  0  0  0  0  0  0  0  0
  151.6890  142.7739  159.3774 C   0  0  0  0  0  0  0  0  0  0  0  0
  151.5306  142.3758  162.1666 H   0  0  0  0  0  0  0  0  0  0  0  0
  153.1375  142.9884  162.5519 H   0  0  0  0  0  0  0  0  0  0  0  0
  152.9610  141.5613  161.5385 H   0  0  0  0  0  0  0  0  0  0  0  0
  153.5239  143.5481  160.1705 H   0  0  0  0  0  0  0  0  0  0  0  0
  150.9303  144.7397  161.2445 H   0  0  0  0  0  0  0  0  0  0  0  0
  152.5433  145.3042  161.6089 H   0  0  0  0  0  0  0  0  0  0  0  0
  151.4724  146.6902  159.8317 H   0  0  0  0  0  0  0  0  0  0  0  0
  152.9255  145.9143  159.2485 H   0  0  0  0  0  0  0  0  0  0  0  0
  150.0580  144.9863  158.7468 H   0  0  0  0  0  0  0  0  0  0  0  0
  151.1328  145.6971  157.5661 H   0  0  0  0  0  0  0  0  0  0  0  0
  152.6729  143.7817  157.7386 H   0  0  0  0  0  0  0  0  0  0  0  0
  150.0978  143.6360  156.6908 H   0  0  0  0  0  0  0  0  0  0  0  0
  149.5058  137.0593  153.7192 H   0  0  0  0  0  0  0  0  0  0  0  0
  152.1226  141.8029  159.1344 H   0  0  0  0  0  0  0  0  0  0  0  0
  150.6702  142.5787  159.7155 H   0  0  0  0  0  0  0  0  0  0  0  0
  1  2  1  0  0  0  0
  1 17  1  0  0  0  0
  1 18  1  0  0  0  0
  1 19  1  0  0  0  0
  2 16  1  0  0  0  0
  2  3  1  0  0  0  0
  2 20  1  0  0  0  0
  3  4  1  0  0  0  0
  3 21  1  0  0  0  0
  3 22  1  0  0  0  0
  4  5  1  0  0  0  0
  4 23  1  0  0  0  0
  4 24  1  0  0  0  0
  5  6  1  0  0  0  0
  5 25  1  0  0  0  0
  5 26  1  0  0  0  0
  6  7  1  0  0  0  0
  6 16  1  0  0  0  0
  6 27  1  0  0  0  0
  7  8  1  0  0  0  0
  7 28  1  0  0  0  0
  8  9  2  0  0  0  0
  8 10  1  0  0  0  0
 10 11  1  0  0  0  0
 11 15  1  0  0  0  0
 11 12  2  0  0  0  0
 12 13  1  0  0  0  0
 13 14  2  0  0  0  0
 14 15  1  0  0  0  0
 14 29  1  0  0  0  0
 16 30  1  0  0  0  0
 16 31  1  0  0  0  0
M  CHG  1  10  -1
M  END
> <s_m_source_file>
AV-unprocessed.smi

> <i_m_source_file_index>
1749

> <i_lp_mmshare_version>
43012

> <i_f3d_flags>
0

> <s_epik_input>
W0NIM11bQ0BASF0xW0NIMl1bQ0gyXVtDSDJdW0NASF0oW0NIMl0xKVtOSF1DKD1PKVtOSF1jMm5uW2NIXXMy

> <s_epik_cmdline>
J2VwaWtfcHl0aG9uJywgJy1waCcsICc3LjAnLCAnLXRuJywgJzgnLCAnLW1hJywgJzIwMCcsICctbWV0YWxfYmluZGluZycsICctaW1hZScsICc8aW5maWxlLm1hZT4nLCAnLW9tYWUnLCAnPG91dGZpbGUubWFlPic=

> <r_lp_tautomer_probability>
1

> <r_epik_Ionization_Penalty>
4.55442

> <r_epik_Ionization_Penalty_Charging>
4.5081

> <r_epik_Ionization_Penalty_Neutral>
0.0463156

> <r_epik_State_Penalty>
4.50781

> <r_epik_Charging_Adjusted_Penalty>
9.01591

> <i_epik_Tot_Q>
-1

> <i_epik_Tot_abs_Q>
1

> <r_epik_Metal_State_Penalty>
0.823335

> <b_epik_Metal_Only>
1

> <s_lp_Force_Field>
OPLS_2005

> <r_lp_Energy>
8.86182

> <b_lp_Chiralities_Consistent>
1

> <s_lp_Variant>
AV-unprocessed.smi:1749-7

> <Gold.Version>
5.8.1

> <Gold.Id.Protein>
6NUR|6NUR_protein|mol2

> <Gold.PLP.Fitness>
42.0455

> <Gold.PLP.PLP>
-33.9776

> <Gold.PLP.part.hbond>
-2.0000

> <Gold.PLP.part.metal>
0.0000

> <Gold.PLP.part.buried>
-1.9347

> <Gold.PLP.part.nonpolar>
-30.1958

> <Gold.PLP.part.repulsive>
0.4208

> <Gold.PLP.ligand.clash>
0.0000

> <Gold.PLP.ligand.torsion>
0.4716

> <Gold.PLP.Chemscore.Hbond>
2.0000

> <Gold.PLP.Chemscore.CHOScore>
1.0000

> <Gold.PLP.Chemscore.Metal>
0.0000

> <Gold.Chemscore.Hbonds>
donor molecule, donor type, donor heavy atom, donor atom, acceptor molecule, acceptor atom, score
      L1  H     7    28       P1  8028  1.00
      P1  H  7989  7998       L1    12  0.85
      L1  C    14    29       P1  7948  1.00

> <Gold.PLP.Chemscore.Internal.Correction>
0.0111

> <Gold.Rescore>
     Score         DG    S(hbond)    S(metal)    S(lipo)     H(rot)  DE(clash)    DE(int)     intcor
     15.09     -18.62       1.44        0.00      92.99       1.00       0.56       2.96       ----

> <Gold.Chemscore.Fitness>
15.0930

> <Gold.Chemscore.DG>
-18.6195

> <Gold.Chemscore.ZeroCoef>
-5.4800

> <Gold.Chemscore.Hbond>
1.4432

> <Gold.Chemscore.Metal>
0.0000

> <Gold.Chemscore.Lipo>
92.9863

> <Gold.Chemscore.Internal_Hbond>
0.0000

> <Gold.Chemscore.DEClash>
0.5615

> <Gold.Chemscore.DEInternal>
2.9650

> <Gold.Chemscore.Rot>
1.0000

> <Gold.Chemscore.Internal.Correction>
   9.000000E+99

> <Gold.Chemscore.Hbonds>
donor molecule, donor type, donor heavy atom, donor atom, acceptor molecule, acceptor atom, score
      L1  H     7    28       P1  8028  1.00
      P1  H  7989  7998       L1    12  0.14

> <Gold.Chemscore.Hbond.Weighted>
-4.8201

> <Gold.Chemscore.Metal.Weighted>
-0.0000

> <Gold.Chemscore.Lipo.Weighted>
-10.8794

> <Gold.Chemscore.Internal_Hbond.Weighted>
0.0000

> <Gold.Chemscore.DEClash.Weighted>
0.5615

> <Gold.Chemscore.DEInternal.Weighted>
2.9650

> <Gold.Chemscore.Rot.Weighted>
2.5600

> <Gold.Chemscore.Internal.Correction.Weighted>
   9.000000E+99

> <Gold.Protein.RotatedTorsions>
[ 6907 6896 6895 6894 ] final   23.42 input  -60.11 | X-H torsion
[ 7974 7965 7964 7962 ] final   40.78 input  175.53 | X-H torsion
[ 8008 7997 7996 7995 ] final  120.83 input   59.86 | X-H torsion
[ 10167 10162 10161 10158 ] final   84.03 input  -65.29 | X-H torsion
[ 10718 10713 10712 10709 ] final  -94.15 input   66.30 | X-H torsion
[ 10763 10752 10751 10750 ] final  132.18 input  -60.55 | X-H torsion
[ 11005 11000 10999 10996 ] final -151.86 input  -57.11 | X-H torsion

> <Gold.Protein.ActiveResidues>
 VAL166  LYS551  ARG553  GLY616  TRP617  ASP618  TYR619  PRO620  LYS621  CYS622 
 ASP623  PHE694  ASN695  SER759  ASP760  ASP761  ALA762  ILE779  LEU786  VAL792 
 PHE793  MET794  SER795  GLU796  ALA797  LYS798  CYS799  TRP800  GLU811  SER814 

> <Gold.Protein.RotatedAtoms>
  151.9421  135.0208  160.0536 H   0  0  0  0  0  0  0  0  0  0  0  0  # atno 6907 bound_to 6896
  152.2027  133.4848  159.5075 H   0  0  0  0  0  0  0  0  0  0  0  0  # atno 6908 bound_to 6896
  150.6958  134.1487  159.4175 H   0  0  0  0  0  0  0  0  0  0  0  0  # atno 6909 bound_to 6896
  146.0877  139.5493  142.9496 H   0  0  0  0  0  0  0  0  0  0  0  0  # atno 7974 bound_to 7965
  156.2660  140.2822  156.1211 H   0  0  0  0  0  0  0  0  0  0  0  0  # atno 8008 bound_to 7997
  155.1154  140.0391  157.2753 H   0  0  0  0  0  0  0  0  0  0  0  0  # atno 8009 bound_to 7997
  154.6710  140.2588  155.7013 H   0  0  0  0  0  0  0  0  0  0  0  0  # atno 8010 bound_to 7997
  139.9123  144.6264  150.8525 H   0  0  0  0  0  0  0  0  0  0  0  0  # atno 10167 bound_to 10162
  156.0023  130.5056  150.5883 H   0  0  0  0  0  0  0  0  0  0  0  0  # atno 10718 bound_to 10713
  153.7864  135.3161  155.3373 H   0  0  0  0  0  0  0  0  0  0  0  0  # atno 10763 bound_to 10752
  154.8142  135.4647  154.0601 H   0  0  0  0  0  0  0  0  0  0  0  0  # atno 10764 bound_to 10752
  153.1905  135.6908  153.8444 H   0  0  0  0  0  0  0  0  0  0  0  0  # atno 10765 bound_to 10752
  140.7251  134.3684  157.5177 H   0  0  0  0  0  0  0  0  0  0  0  0  # atno 11005 bound_to 11000
  145.6098  141.0341  143.1973 LP  0  0  0  0  0  0  0  0  0  0  0  0  # atno 17320 bound_to 7965
  144.7338  139.7647  143.7337 LP  0  0  0  0  0  0  0  0  0  0  0  0  # atno 17321 bound_to 7965
  140.7682  143.3357  151.2314 LP  0  0  0  0  0  0  0  0  0  0  0  0  # atno 17342 bound_to 10162
  139.6932  143.9657  152.2870 LP  0  0  0  0  0  0  0  0  0  0  0  0  # atno 17343 bound_to 10162
  157.3752  131.0772  151.1524 LP  0  0  0  0  0  0  0  0  0  0  0  0  # atno 17370 bound_to 10713
  157.2264  130.6505  149.5832 LP  0  0  0  0  0  0  0  0  0  0  0  0  # atno 17371 bound_to 10713
  139.8839  134.8981  156.2737 LP  0  0  0  0  0  0  0  0  0  0  0  0  # atno 17394 bound_to 11000
  140.9970  133.7174  156.0901 LP  0  0  0  0  0  0  0  0  0  0  0  0  # atno 17395 bound_to 11000

$$$$
