AV-unprocessed.smi:3091|AV-procd|sdf|11780|dock4
  -GOLD-   2272017163D 1   1.00000     0.00000
 Structure written by MMmdl.
 28 29  0  0  0  0  0  0  0  0  1 V2000
  148.8146  142.3981  154.2382 N   0  0  0  0  0  0  0  0  0  0  0  0
  148.8536  141.0055  154.6351 C   0  0  0  0  0  0  0  0  0  0  0  0
  150.0925  140.6750  155.4402 C   0  0  0  0  0  0  0  0  0  0  0  0
  151.0414  139.7558  154.9507 C   0  0  0  0  0  0  0  0  0  0  0  0
  152.1717  139.4752  155.7423 C   0  0  0  0  0  0  0  0  0  0  0  0
  152.3906  140.0417  156.9479 N   0  0  0  0  0  0  0  0  0  0  0  0
  151.4738  140.9228  157.4210 C   0  0  0  0  0  0  0  0  0  0  0  0
  151.6800  141.5107  158.6534 O   0  0  0  0  0  0  0  0  0  0  0  0
  152.7866  142.3964  158.8372 C   0  0  2  0  0  0  0  0  0  0  0  0
  153.0968  142.5853  160.3165 C   0  0  0  0  0  0  0  0  0  0  0  0
  152.1740  143.7322  160.6999 C   0  0  0  0  0  0  0  0  0  0  0  0
  152.2570  144.5938  159.5775 O   0  0  0  0  0  0  0  0  0  0  0  0
  152.3467  143.8009  158.3972 C   0  0  0  0  0  0  0  0  0  0  0  0
  150.3116  141.2669  156.7007 C   0  0  0  0  0  0  0  0  0  0  0  0
  148.9215  142.9839  155.0540 H   0  0  0  0  0  0  0  0  0  0  0  0
  149.5944  142.6017  153.6295 H   0  0  0  0  0  0  0  0  0  0  0  0
  147.9613  140.7729  155.2172 H   0  0  0  0  0  0  0  0  0  0  0  0
  148.8228  140.3810  153.7418 H   0  0  0  0  0  0  0  0  0  0  0  0
  150.9072  139.2758  153.9925 H   0  0  0  0  0  0  0  0  0  0  0  0
  152.9197  138.7764  155.3983 H   0  0  0  0  0  0  0  0  0  0  0  0
  153.6584  142.0759  158.2646 H   0  0  0  0  0  0  0  0  0  0  0  0
  152.9378  141.6925  160.9213 H   0  0  0  0  0  0  0  0  0  0  0  0
  154.1353  142.8946  160.4398 H   0  0  0  0  0  0  0  0  0  0  0  0
  151.1473  143.3828  160.8194 H   0  0  0  0  0  0  0  0  0  0  0  0
  152.4793  144.2345  161.6178 H   0  0  0  0  0  0  0  0  0  0  0  0
  153.0699  144.2524  157.7179 H   0  0  0  0  0  0  0  0  0  0  0  0
  151.3823  143.7791  157.8881 H   0  0  0  0  0  0  0  0  0  0  0  0
  149.6029  141.9710  157.1113 H   0  0  0  0  0  0  0  0  0  0  0  0
  1  2  1  0  0  0  0
  1 15  1  0  0  0  0
  1 16  1  0  0  0  0
  2  3  1  0  0  0  0
  2 17  1  0  0  0  0
  2 18  1  0  0  0  0
  3 14  1  0  0  0  0
  3  4  2  0  0  0  0
  4  5  1  0  0  0  0
  4 19  1  0  0  0  0
  5  6  2  0  0  0  0
  5 20  1  0  0  0  0
  6  7  1  0  0  0  0
  7  8  1  0  0  0  0
  7 14  2  0  0  0  0
  8  9  1  0  0  0  0
  9 13  1  0  0  0  0
  9 10  1  0  0  0  0
  9 21  1  0  0  0  0
 10 11  1  0  0  0  0
 10 22  1  0  0  0  0
 10 23  1  0  0  0  0
 11 12  1  0  0  0  0
 11 24  1  0  0  0  0
 11 25  1  0  0  0  0
 12 13  1  0  0  0  0
 13 26  1  0  0  0  0
 13 27  1  0  0  0  0
 14 28  1  0  0  0  0
M  END
> <s_m_source_file>
AV-unprocessed.smi

> <i_m_source_file_index>
3091

> <i_lp_mmshare_version>
43012

> <i_f3d_flags>
0

> <s_epik_input>
W05IMl1bQ0gyXWMxW2NIXVtjSF1uYyhbY0hdMSlPW0NAQEhdMltDSDJdW0NIMl1PW0NIMl0y

> <s_epik_cmdline>
J2VwaWtfcHl0aG9uJywgJy1waCcsICc3LjAnLCAnLXRuJywgJzgnLCAnLW1hJywgJzIwMCcsICctbWV0YWxfYmluZGluZycsICctaW1hZScsICc8aW5maWxlLm1hZT4nLCAnLW9tYWUnLCAnPG91dGZpbGUubWFlPic=

> <r_lp_tautomer_probability>
1

> <r_epik_Ionization_Penalty>
1.24495

> <r_epik_Ionization_Penalty_Charging>
0

> <r_epik_Ionization_Penalty_Neutral>
1.24495

> <r_epik_State_Penalty>
1.3141

> <r_epik_Charging_Adjusted_Penalty>
1.3141

> <i_epik_Tot_Q>
0

> <i_epik_Tot_abs_Q>
0

> <r_epik_Metal_State_Penalty>
1.31398

> <b_epik_Metal_Only>
0

> <s_lp_Force_Field>
OPLS_2005

> <r_lp_Energy>
14.7712

> <b_lp_Chiralities_Consistent>
1

> <s_lp_Variant>
AV-unprocessed.smi:3091-3

> <Gold.Version>
5.8.1

> <Gold.Id.Protein>
6NUR|6NUR_protein|mol2

> <Gold.PLP.Fitness>
37.8918

> <Gold.PLP.PLP>
-33.3904

> <Gold.PLP.part.hbond>
-3.0000

> <Gold.PLP.part.metal>
0.0000

> <Gold.PLP.part.buried>
-1.3118

> <Gold.PLP.part.nonpolar>
-28.1141

> <Gold.PLP.part.repulsive>
0.0357

> <Gold.PLP.ligand.clash>
0.0000

> <Gold.PLP.ligand.torsion>
0.2636

> <Gold.PLP.Chemscore.Hbond>
1.6704

> <Gold.PLP.Chemscore.CHOScore>
0.0000

> <Gold.PLP.Chemscore.Metal>
0.0000

> <Gold.Chemscore.Hbonds>
donor molecule, donor type, donor heavy atom, donor atom, acceptor molecule, acceptor atom, score
      L1  H     1    15       P1  8028  0.86
      P1  H  7997  8010       L1     6  0.70

> <Gold.PLP.Chemscore.Internal.Correction>
0.0174

> <Gold.Rescore>
     Score         DG    S(hbond)    S(metal)    S(lipo)     H(rot)  DE(clash)    DE(int)     intcor
     14.66     -15.49       1.26        0.00      83.28       1.54       0.27       0.56       ----

> <Gold.Chemscore.Fitness>
14.6649

> <Gold.Chemscore.DG>
-15.4913

> <Gold.Chemscore.ZeroCoef>
-5.4800

> <Gold.Chemscore.Hbond>
1.2622

> <Gold.Chemscore.Metal>
0.0000

> <Gold.Chemscore.Lipo>
83.2831

> <Gold.Chemscore.Internal_Hbond>
0.0000

> <Gold.Chemscore.DEClash>
0.2704

> <Gold.Chemscore.DEInternal>
0.5560

> <Gold.Chemscore.Rot>
1.5424

> <Gold.Chemscore.Internal.Correction>
   9.000000E+99

> <Gold.Chemscore.Hbonds>
donor molecule, donor type, donor heavy atom, donor atom, acceptor molecule, acceptor atom, score
      L1  H     1    15       P1  8028  0.85
      P1  H  7997  8010       L1     6  0.07

> <Gold.Chemscore.Hbond.Weighted>
-4.2159

> <Gold.Chemscore.Metal.Weighted>
-0.0000

> <Gold.Chemscore.Lipo.Weighted>
-9.7441

> <Gold.Chemscore.Internal_Hbond.Weighted>
0.0000

> <Gold.Chemscore.DEClash.Weighted>
0.2704

> <Gold.Chemscore.DEInternal.Weighted>
0.5560

> <Gold.Chemscore.Rot.Weighted>
3.9487

> <Gold.Chemscore.Internal.Correction.Weighted>
   9.000000E+99

> <Gold.Protein.RotatedTorsions>
[ 6907 6896 6895 6894 ] final   77.11 input  -60.11 | X-H torsion
[ 7974 7965 7964 7962 ] final   94.44 input  175.53 | X-H torsion
[ 8008 7997 7996 7995 ] final   54.80 input   59.86 | X-H torsion
[ 10167 10162 10161 10158 ] final -100.85 input  -65.29 | X-H torsion
[ 10718 10713 10712 10709 ] final   21.67 input   66.30 | X-H torsion
[ 10763 10752 10751 10750 ] final  -63.67 input  -60.55 | X-H torsion
[ 11005 11000 10999 10996 ] final  -16.29 input  -57.11 | X-H torsion

> <Gold.Protein.ActiveResidues>
 VAL166  LYS551  ARG553  GLY616  TRP617  ASP618  TYR619  PRO620  LYS621  CYS622 
 ASP623  PHE694  ASN695  SER759  ASP760  ASP761  ALA762  ILE779  LEU786  VAL792 
 PHE793  MET794  SER795  GLU796  ALA797  LYS798  CYS799  TRP800  GLU811  SER814 

> <Gold.Protein.RotatedAtoms>
  152.5103  134.3867  159.9369 H   0  0  0  0  0  0  0  0  0  0  0  0  # atno 6907 bound_to 6896
  151.3826  133.3810  159.2719 H   0  0  0  0  0  0  0  0  0  0  0  0  # atno 6908 bound_to 6896
  150.9493  134.8915  159.7720 H   0  0  0  0  0  0  0  0  0  0  0  0  # atno 6909 bound_to 6896
  145.4655  139.2284  143.2964 H   0  0  0  0  0  0  0  0  0  0  0  0  # atno 7974 bound_to 7965
  155.4906  140.3471  155.4354 H   0  0  0  0  0  0  0  0  0  0  0  0  # atno 8008 bound_to 7997
  156.0979  140.1427  156.9535 H   0  0  0  0  0  0  0  0  0  0  0  0  # atno 8009 bound_to 7997
  154.4675  140.0912  156.7036 H   0  0  0  0  0  0  0  0  0  0  0  0  # atno 8010 bound_to 7997
  140.2475  143.3495  152.0745 H   0  0  0  0  0  0  0  0  0  0  0  0  # atno 10167 bound_to 10162
  157.1416  130.6635  149.5983 H   0  0  0  0  0  0  0  0  0  0  0  0  # atno 10718 bound_to 10713
  154.3185  135.6201  153.5497 H   0  0  0  0  0  0  0  0  0  0  0  0  # atno 10763 bound_to 10752
  152.9822  135.5718  154.5097 H   0  0  0  0  0  0  0  0  0  0  0  0  # atno 10764 bound_to 10752
  154.4760  135.2861  155.1583 H   0  0  0  0  0  0  0  0  0  0  0  0  # atno 10765 bound_to 10752
  140.8052  133.8183  155.9509 H   0  0  0  0  0  0  0  0  0  0  0  0  # atno 11005 bound_to 11000
  146.2426  140.5428  142.8927 LP  0  0  0  0  0  0  0  0  0  0  0  0  # atno 17320 bound_to 7965
  144.7976  140.6153  143.6499 LP  0  0  0  0  0  0  0  0  0  0  0  0  # atno 17321 bound_to 7965
  139.5057  144.6799  151.6034 LP  0  0  0  0  0  0  0  0  0  0  0  0  # atno 17342 bound_to 10162
  140.6066  143.9513  150.6423 LP  0  0  0  0  0  0  0  0  0  0  0  0  # atno 17343 bound_to 10162
  155.9787  130.4775  150.6674 LP  0  0  0  0  0  0  0  0  0  0  0  0  # atno 17370 bound_to 10713
  157.4302  131.0848  151.1046 LP  0  0  0  0  0  0  0  0  0  0  0  0  # atno 17371 bound_to 10713
  140.9254  134.2089  157.4899 LP  0  0  0  0  0  0  0  0  0  0  0  0  # atno 17394 bound_to 11000
  139.8718  134.9810  156.5098 LP  0  0  0  0  0  0  0  0  0  0  0  0  # atno 17395 bound_to 11000

$$$$
