AV-unprocessed.smi:671|AV-procd|sdf|3287|dock7
  -GOLD-   22720 0243D 1   1.00000     0.00000
 Structure written by MMmdl.
 50 51  0  0  0  0  0  0  0  0  2 V2000
  152.7524  138.7345  155.3863 C   0  0  0  0  0  0  0  0  0  0  0  0
  151.3723  138.1681  155.3621 C   0  0  0  0  0  0  0  0  0  0  0  0
  151.0645  136.8750  155.6484 N   0  3  0  0  0  0  0  0  0  0  0  0
  149.7424  136.6796  155.5414 N   0  0  0  0  0  0  0  0  0  0  0  0
  149.1976  135.3484  155.8094 C   0  0  0  0  0  0  0  0  0  0  0  0
  149.1219  137.8367  155.1740 C   0  0  0  0  0  0  0  0  0  0  0  0
  147.6481  137.9705  154.9660 C   0  0  0  0  0  0  0  0  0  0  0  0
  150.1509  138.7822  155.0635 C   0  0  0  0  0  0  0  0  0  0  0  0
  149.9977  140.2284  154.6851 C   0  0  0  0  0  0  0  0  0  0  0  0
  148.9710  140.9769  155.5632 C   0  0  2  0  0  0  0  0  0  0  0  0
  147.7059  141.3720  154.7860 C   0  0  0  0  0  0  0  0  0  0  0  0
  149.5773  142.1861  156.1254 N   0  0  0  0  0  0  0  0  0  0  0  0
  150.5460  142.2754  157.0556 C   0  0  0  0  0  0  0  0  0  0  0  0
  151.0542  141.2763  157.5599 O   0  0  0  0  0  0  0  0  0  0  0  0
  150.9012  143.5314  157.3755 N   0  0  0  0  0  0  0  0  0  0  0  0
  151.9064  143.9053  158.3657 C   0  0  1  0  0  0  0  0  0  0  0  0
  151.8703  145.4249  158.6199 C   0  0  0  0  0  0  0  0  0  0  0  0
  151.3763  145.6092  160.0554 C   0  0  0  0  0  0  0  0  0  0  0  0
  151.8216  144.3384  160.7706 C   0  0  0  0  0  0  0  0  0  0  0  0
  151.6266  143.2331  159.7286 C   0  0  2  0  0  0  0  0  0  0  0  0
  152.4828  141.9870  159.9942 C   0  0  0  0  0  0  0  0  0  0  0  0
  152.8161  139.5389  156.1193 H   0  0  0  0  0  0  0  0  0  0  0  0
  153.0112  139.1371  154.4067 H   0  0  0  0  0  0  0  0  0  0  0  0
  153.4808  137.9670  155.6499 H   0  0  0  0  0  0  0  0  0  0  0  0
  148.2377  135.4474  156.3169 H   0  0  0  0  0  0  0  0  0  0  0  0
  149.8825  134.7845  156.4442 H   0  0  0  0  0  0  0  0  0  0  0  0
  149.0581  134.8245  154.8635 H   0  0  0  0  0  0  0  0  0  0  0  0
  147.4030  138.9163  154.4846 H   0  0  0  0  0  0  0  0  0  0  0  0
  147.1306  137.9270  155.9244 H   0  0  0  0  0  0  0  0  0  0  0  0
  147.2810  137.1604  154.3356 H   0  0  0  0  0  0  0  0  0  0  0  0
  150.9707  140.7137  154.7675 H   0  0  0  0  0  0  0  0  0  0  0  0
  149.7261  140.3283  153.6342 H   0  0  0  0  0  0  0  0  0  0  0  0
  148.6565  140.3275  156.3820 H   0  0  0  0  0  0  0  0  0  0  0  0
  147.1770  140.4948  154.4140 H   0  0  0  0  0  0  0  0  0  0  0  0
  147.9450  142.0054  153.9310 H   0  0  0  0  0  0  0  0  0  0  0  0
  147.0112  141.9214  155.4224 H   0  0  0  0  0  0  0  0  0  0  0  0
  149.2408  143.0600  155.7472 H   0  0  0  0  0  0  0  0  0  0  0  0
  150.4310  144.2884  156.9017 H   0  0  0  0  0  0  0  0  0  0  0  0
  152.9041  143.6449  158.0062 H   0  0  0  0  0  0  0  0  0  0  0  0
  152.8811  145.8257  158.5329 H   0  0  0  0  0  0  0  0  0  0  0  0
  151.2505  145.9696  157.9062 H   0  0  0  0  0  0  0  0  0  0  0  0
  151.7688  146.5138  160.5207 H   0  0  0  0  0  0  0  0  0  0  0  0
  150.2881  145.6745  160.0670 H   0  0  0  0  0  0  0  0  0  0  0  0
  152.8760  144.4231  161.0379 H   0  0  0  0  0  0  0  0  0  0  0  0
  151.2597  144.1547  161.6868 H   0  0  0  0  0  0  0  0  0  0  0  0
  150.5756  142.9395  159.7684 H   0  0  0  0  0  0  0  0  0  0  0  0
  153.5469  142.2250  159.9764 H   0  0  0  0  0  0  0  0  0  0  0  0
  152.3006  141.2198  159.2414 H   0  0  0  0  0  0  0  0  0  0  0  0
  152.2539  141.5557  160.9687 H   0  0  0  0  0  0  0  0  0  0  0  0
  151.6858  136.1200  155.9105 H   0  0  0  0  0  0  0  0  0  0  0  0
  1  2  1  0  0  0  0
  1 22  1  0  0  0  0
  1 23  1  0  0  0  0
  1 24  1  0  0  0  0
  2  8  1  0  0  0  0
  2  3  2  0  0  0  0
  3  4  1  0  0  0  0
  3 50  1  0  0  0  0
  4  5  1  0  0  0  0
  4  6  1  0  0  0  0
  5 25  1  0  0  0  0
  5 26  1  0  0  0  0
  5 27  1  0  0  0  0
  6  7  1  0  0  0  0
  6  8  2  0  0  0  0
  7 28  1  0  0  0  0
  7 29  1  0  0  0  0
  7 30  1  0  0  0  0
  8  9  1  0  0  0  0
  9 10  1  0  0  0  0
  9 31  1  0  0  0  0
  9 32  1  0  0  0  0
 10 11  1  0  0  0  0
 10 12  1  0  0  0  0
 10 33  1  0  0  0  0
 11 34  1  0  0  0  0
 11 35  1  0  0  0  0
 11 36  1  0  0  0  0
 12 13  1  0  0  0  0
 12 37  1  0  0  0  0
 13 14  2  0  0  0  0
 13 15  1  0  0  0  0
 15 16  1  0  0  0  0
 15 38  1  0  0  0  0
 16 20  1  0  0  0  0
 16 17  1  0  0  0  0
 16 39  1  0  0  0  0
 17 18  1  0  0  0  0
 17 40  1  0  0  0  0
 17 41  1  0  0  0  0
 18 19  1  0  0  0  0
 18 42  1  0  0  0  0
 18 43  1  0  0  0  0
 19 20  1  0  0  0  0
 19 44  1  0  0  0  0
 19 45  1  0  0  0  0
 20 21  1  0  0  0  0
 20 46  1  0  0  0  0
 21 47  1  0  0  0  0
 21 48  1  0  0  0  0
 21 49  1  0  0  0  0
M  CHG  1   3   1
M  END
> <s_m_source_file>
AV-unprocessed.smi

> <i_m_source_file_index>
671

> <i_lp_mmshare_version>
43012

> <i_f3d_flags>
0

> <s_epik_input>
W0NIM11jMW5uKFtDSDNdKWMoW0NIM10pYzFbQ0gyXVtDQEhdKFtDSDNdKVtOSF1DKD1PKVtOSF1bQ0BASF0yW0NIMl1bQ0gyXVtDSDJdW0NASF0yW0NIM10=

> <s_epik_cmdline>
J2VwaWtfcHl0aG9uJywgJy1waCcsICc3LjAnLCAnLXRuJywgJzgnLCAnLW1hJywgJzIwMCcsICctbWV0YWxfYmluZGluZycsICctaW1hZScsICc8aW5maWxlLm1hZT4nLCAnLW9tYWUnLCAnPG91dGZpbGUubWFlPic=

> <r_lp_tautomer_probability>
1

> <r_epik_Ionization_Penalty>
2.28705

> <r_epik_Ionization_Penalty_Charging>
2.28698

> <r_epik_Ionization_Penalty_Neutral>
6.23157e-05

> <r_epik_State_Penalty>
2.43671

> <r_epik_Charging_Adjusted_Penalty>
4.72369

> <i_epik_Tot_Q>
1

> <i_epik_Tot_abs_Q>
1

> <r_epik_Metal_State_Penalty>
2.44911

> <b_epik_Metal_Only>
0

> <s_lp_Force_Field>
OPLS_2005

> <r_lp_Energy>
34.681

> <b_lp_Chiralities_Consistent>
1

> <s_lp_Variant>
AV-unprocessed.smi:671-15

> <Gold.Version>
5.8.1

> <Gold.Id.Protein>
6NUR|6NUR_protein|mol2

> <Gold.PLP.Fitness>
50.9859

> <Gold.PLP.PLP>
-47.1696

> <Gold.PLP.part.hbond>
-2.0000

> <Gold.PLP.part.metal>
0.0000

> <Gold.PLP.part.buried>
-5.1832

> <Gold.PLP.part.nonpolar>
-41.6023

> <Gold.PLP.part.repulsive>
0.2231

> <Gold.PLP.ligand.clash>
0.0000

> <Gold.PLP.ligand.torsion>
0.9324

> <Gold.PLP.Chemscore.Hbond>
1.8897

> <Gold.PLP.Chemscore.CHOScore>
0.0000

> <Gold.PLP.Chemscore.Metal>
0.0000

> <Gold.Chemscore.Hbonds>
donor molecule, donor type, donor heavy atom, donor atom, acceptor molecule, acceptor atom, score
      L1  H    12    37       P1  8028  1.00
      L1  H    15    38       P1  8028  0.90

> <Gold.PLP.Chemscore.Internal.Correction>
0.0119

> <Gold.Rescore>
     Score         DG    S(hbond)    S(metal)    S(lipo)     H(rot)  DE(clash)    DE(int)     intcor
     18.76     -21.73       1.68        0.00     123.88       1.51       1.31       1.67       ----

> <Gold.Chemscore.Fitness>
18.7554

> <Gold.Chemscore.DG>
-21.7273

> <Gold.Chemscore.ZeroCoef>
-5.4800

> <Gold.Chemscore.Hbond>
1.6792

> <Gold.Chemscore.Metal>
0.0000

> <Gold.Chemscore.Lipo>
123.8759

> <Gold.Chemscore.Internal_Hbond>
0.0000

> <Gold.Chemscore.DEClash>
1.3065

> <Gold.Chemscore.DEInternal>
1.6655

> <Gold.Chemscore.Rot>
1.5057

> <Gold.Chemscore.Internal.Correction>
   9.000000E+99

> <Gold.Chemscore.Hbonds>
donor molecule, donor type, donor heavy atom, donor atom, acceptor molecule, acceptor atom, score
      L1  H    12    37       P1  8028  1.00
      L1  H    15    38       P1  8028  0.81

> <Gold.Chemscore.Hbond.Weighted>
-5.6085

> <Gold.Chemscore.Metal.Weighted>
-0.0000

> <Gold.Chemscore.Lipo.Weighted>
-14.4935

> <Gold.Chemscore.Internal_Hbond.Weighted>
0.0000

> <Gold.Chemscore.DEClash.Weighted>
1.3065

> <Gold.Chemscore.DEInternal.Weighted>
1.6655

> <Gold.Chemscore.Rot.Weighted>
3.8547

> <Gold.Chemscore.Internal.Correction.Weighted>
   9.000000E+99

> <Gold.Protein.RotatedTorsions>
[ 6907 6896 6895 6894 ] final   35.73 input  -60.11 | X-H torsion
[ 7974 7965 7964 7962 ] final  108.31 input  175.53 | X-H torsion
[ 8008 7997 7996 7995 ] final  -43.81 input   59.86 | X-H torsion
[ 10167 10162 10161 10158 ] final  119.78 input  -65.29 | X-H torsion
[ 10718 10713 10712 10709 ] final   -6.89 input   66.30 | X-H torsion
[ 10763 10752 10751 10750 ] final  -77.87 input  -60.55 | X-H torsion
[ 11005 11000 10999 10996 ] final   -5.63 input  -57.11 | X-H torsion

> <Gold.Protein.ActiveResidues>
 VAL166  LYS551  ARG553  GLY616  TRP617  ASP618  TYR619  PRO620  LYS621  CYS622 
 ASP623  PHE694  ASN695  SER759  ASP760  ASP761  ALA762  ILE779  LEU786  VAL792 
 PHE793  MET794  SER795  GLU796  ALA797  LYS798  CYS799  TRP800  GLU811  SER814 

> <Gold.Protein.RotatedAtoms>
  152.1201  134.9212  160.0563 H   0  0  0  0  0  0  0  0  0  0  0  0  # atno 6907 bound_to 6896
  152.0356  133.3951  159.4323 H   0  0  0  0  0  0  0  0  0  0  0  0  # atno 6908 bound_to 6896
  150.6848  134.3393  159.4904 H   0  0  0  0  0  0  0  0  0  0  0  0  # atno 6909 bound_to 6896
  145.2823  139.2628  143.3909 H   0  0  0  0  0  0  0  0  0  0  0  0  # atno 7974 bound_to 7965
  154.3997  140.1438  156.3581 H   0  0  0  0  0  0  0  0  0  0  0  0  # atno 8008 bound_to 7997
  155.8207  140.3469  155.5491 H   0  0  0  0  0  0  0  0  0  0  0  0  # atno 8009 bound_to 7997
  155.8291  140.0909  157.1794 H   0  0  0  0  0  0  0  0  0  0  0  0  # atno 8010 bound_to 7997
  139.6024  144.7060  151.3032 H   0  0  0  0  0  0  0  0  0  0  0  0  # atno 10167 bound_to 10162
  156.7252  130.5163  149.5858 H   0  0  0  0  0  0  0  0  0  0  0  0  # atno 10718 bound_to 10713
  154.5186  135.5749  153.6662 H   0  0  0  0  0  0  0  0  0  0  0  0  # atno 10763 bound_to 10752
  152.9912  135.6176  154.2785 H   0  0  0  0  0  0  0  0  0  0  0  0  # atno 10764 bound_to 10752
  154.2704  135.2853  155.2720 H   0  0  0  0  0  0  0  0  0  0  0  0  # atno 10765 bound_to 10752
  140.6933  133.9052  155.8633 H   0  0  0  0  0  0  0  0  0  0  0  0  # atno 11005 bound_to 11000
  146.3212  140.3293  142.8639 LP  0  0  0  0  0  0  0  0  0  0  0  0  # atno 17320 bound_to 7965
  144.9243  140.7903  143.5729 LP  0  0  0  0  0  0  0  0  0  0  0  0  # atno 17321 bound_to 7965
  140.7259  143.7004  150.7850 LP  0  0  0  0  0  0  0  0  0  0  0  0  # atno 17342 bound_to 10162
  140.0583  143.5180  152.2640 LP  0  0  0  0  0  0  0  0  0  0  0  0  # atno 17343 bound_to 10162
  156.1567  130.6346  151.0666 LP  0  0  0  0  0  0  0  0  0  0  0  0  # atno 17370 bound_to 10713
  157.6881  131.0818  150.7184 LP  0  0  0  0  0  0  0  0  0  0  0  0  # atno 17371 bound_to 10713
  141.0224  134.0871  157.4106 LP  0  0  0  0  0  0  0  0  0  0  0  0  # atno 17394 bound_to 11000
  139.8917  135.0120  156.6807 LP  0  0  0  0  0  0  0  0  0  0  0  0  # atno 17395 bound_to 11000

$$$$
