#       Name:                AV-unprocessed.smi:384
#       Creating user name   scv26
#       Creation time:       Thu Mar 26 22:40:59 2020


#       File generated by GOLD software.
#

@<TRIPOS>MOLECULE
AV-unprocessed.smi:384
    40    41     1
SMALL
NO_CHARGES


@<TRIPOS>ATOM
      1 ****        -2.9735  -1.4205   2.1606 C.3            1 S1                 0.0000
      2 ****        -2.3685  -0.7602   0.9175 C.3            1 S1                 0.0000
      3 ****        -0.8327  -0.6994   0.9881 C.3            1 S1                 0.0000
      4 ****        -0.3112   0.0268  -0.1609 N.3            1 S1                 0.0000
      5 ****         1.0866   0.0006  -0.2410 C.ar           1 S1                 0.0000
      6 ****         1.9344   0.5739   0.7344 C.ar           1 S1                 0.0000
      7 ****         3.3323   0.4929   0.5689 C.ar           1 S1                 0.0000
      8 ****         3.8663  -0.1586  -0.5674 C.ar           1 S1                 0.0000
      9 ****         5.3510  -0.2643  -0.7705 C.2            1 S1                 0.0000
     10 ****         5.7771  -0.8517  -1.7893 O.co2          1 S1                 0.0000
     11 ****         6.1123   0.2378   0.0859 O.co2          1 S1                -1.0000
     12 ****         2.9670  -0.7097  -1.5084 C.ar           1 S1                 0.0000
     13 ****         1.6335  -0.6113  -1.3136 N.pl3          1 S1                 1.0000
     14 ****        -0.8645   1.3704  -0.2673 C.3            1 S1                 0.0000
     15 ****        -2.4054   1.3259  -0.2890 C.3            1 S1                 0.0000
     16 ****        -2.9891   0.8342  -1.6255 C.3            1 S1                 0.0000
     17 ****        -2.8892   0.5661   0.8220 O.3            1 S1                 0.0000
     18 ****        -2.6116  -2.4422   2.2783 H              1 S1                 0.0000
     19 ****        -4.0608  -1.4600   2.0897 H              1 S1                 0.0000
     20 ****        -2.7191  -0.8683   3.0658 H              1 S1                 0.0000
     21 ****        -2.6727  -1.3394   0.0454 H              1 S1                 0.0000
     22 ****        -0.5213  -0.2047   1.9092 H              1 S1                 0.0000
     23 ****        -0.4173  -1.7080   1.0064 H              1 S1                 0.0000
     24 ****         1.5251   1.0703   1.6020 H              1 S1                 0.0000
     25 ****         3.9812   0.9292   1.3142 H              1 S1                 0.0000
     26 ****         3.2700  -1.2263  -2.4080 H              1 S1                 0.0000
     27 ****        -0.5322   1.9639   0.5856 H              1 S1                 0.0000
     28 ****        -0.4859   1.8630  -1.1640 H              1 S1                 0.0000
     29 ****        -2.7685   2.3436  -0.1429 H              1 S1                 0.0000
     30 ****        -2.7062   1.5018  -2.4396 H              1 S1                 0.0000
     31 ****        -4.0783   0.8073  -1.5861 H              1 S1                 0.0000
     32 ****        -2.6393  -0.1633  -1.8897 H              1 S1                 0.0000
     33 ****         1.0114  -1.0212  -2.0104 H              1 S1                 0.0000
     34 ****        -0.6301  -0.4691  -0.9686 LP             1 S1                 0.0000
     35 ****         6.7616  -0.9340  -1.9440 LP             1 S1                 0.0000
     36 ****         5.1332  -1.2390  -2.4492 LP             1 S1                 0.0000
     37 ****         7.1037   0.1780  -0.0300 LP             1 S1                 0.0000
     38 ****         5.7293   0.6990   0.8863 LP             1 S1                 0.0000
     39 ****        -2.6489   1.0551   1.6606 LP             1 S1                 0.0000
     40 ****        -3.8844   0.5042   0.7458 LP             1 S1                 0.0000
@<TRIPOS>BOND
    1    1    2 1     
    2    1   18 1     
    3    1   19 1     
    4    1   20 1     
    5    2   17 1     
    6    2    3 1     
    7    2   21 1     
    8    3    4 1     
    9    3   22 1     
   10    3   23 1     
   11    4    5 1     
   12    4   14 1     
   13    5   13 ar    
   14    5    6 ar    
   15    6    7 ar    
   16    6   24 1     
   17    7    8 ar    
   18    7   25 1     
   19    8    9 1     
   20    8   12 ar    
   21    9   10 ar    
   22    9   11 ar    
   23   12   13 ar    
   24   12   26 1     
   25   13   33 1     
   26   14   15 1     
   27   14   27 1     
   28   14   28 1     
   29   15   16 1     
   30   15   17 1     
   31   15   29 1     
   32   16   30 1     
   33   16   31 1     
   34   16   32 1     
   35    4   34 1     
   36   10   35 1     
   37   10   36 1     
   38   11   37 1     
   39   11   38 1     
   40   17   39 1     
   41   17   40 1     
@<TRIPOS>SUBSTRUCTURE
      1 S1             1
@<TRIPOS>SET
LONE_PAIRS      STATIC     ATOMS    <user>   **** ""
7 34 35 36 37 38 39 40
DONOR_HYDROGENS      STATIC     ATOMS    <user>   **** ""
1 33
ATOM$BLUE        STATIC     ATOMS    COLORGROUP SYSTEM
7 34 35 36 37 38 39 40
ATOM$RED        STATIC     ATOMS    COLORGROUP SYSTEM
1 33
