AV-unprocessed.smi:3196|AV-procd|sdf|12224|dock3
  -GOLD-   2272018 53D 1   1.00000     0.00000
 Structure written by MMmdl.
 33 34  0  0  0  0  0  0  0  0  1 V2000
  152.9522  142.7860  162.2557 C   0  0  0  0  0  0  0  0  0  0  0  0
  152.5075  142.9397  160.7971 C   0  0  0  0  0  0  0  0  0  0  0  0
  152.0681  144.3718  160.4638 C   0  0  0  0  0  0  0  0  0  0  0  0
  151.5310  144.4977  159.0524 C   0  0  1  0  0  0  0  0  0  0  0  0
  152.4700  144.7078  157.8950 C   0  0  0  0  0  0  0  0  0  0  0  0
  151.7359  143.3905  158.0412 C   0  0  2  0  0  0  0  0  0  0  0  0
  150.6908  143.1306  157.0973 N   0  0  0  0  0  0  0  0  0  0  0  0
  150.4525  141.9902  156.4251 C   0  0  0  0  0  0  0  0  0  0  0  0
  151.1926  141.0171  156.5507 O   0  0  0  0  0  0  0  0  0  0  0  0
  149.3878  142.0493  155.6003 N   0  0  0  0  0  0  0  0  0  0  0  0
  148.8566  141.0581  154.7293 C   0  0  0  0  0  0  0  0  0  0  0  0
  149.3851  139.7527  154.5768 C   0  0  0  0  0  0  0  0  0  0  0  0
  148.7502  138.8677  153.6822 C   0  0  0  0  0  0  0  0  0  0  0  0
  147.6559  139.1936  152.9622 N   0  0  0  0  0  0  0  0  0  0  0  0
  147.1487  140.4346  153.1176 C   0  0  0  0  0  0  0  0  0  0  0  0
  147.7063  141.3957  153.9846 C   0  0  0  0  0  0  0  0  0  0  0  0
  147.1436  142.6235  154.0955 F   0  0  0  0  0  0  0  0  0  0  0  0
  153.2516  141.7587  162.4643 H   0  0  0  0  0  0  0  0  0  0  0  0
  152.1457  143.0437  162.9424 H   0  0  0  0  0  0  0  0  0  0  0  0
  153.8019  143.4319  162.4780 H   0  0  0  0  0  0  0  0  0  0  0  0
  153.3260  142.6456  160.1391 H   0  0  0  0  0  0  0  0  0  0  0  0
  151.6869  142.2499  160.5969 H   0  0  0  0  0  0  0  0  0  0  0  0
  151.3048  144.7007  161.1701 H   0  0  0  0  0  0  0  0  0  0  0  0
  152.9108  145.0552  160.5726 H   0  0  0  0  0  0  0  0  0  0  0  0
  150.5801  145.0249  158.9954 H   0  0  0  0  0  0  0  0  0  0  0  0
  152.1490  145.3890  157.1091 H   0  0  0  0  0  0  0  0  0  0  0  0
  153.5382  144.7111  158.1029 H   0  0  0  0  0  0  0  0  0  0  0  0
  152.3627  142.5524  158.3428 H   0  0  0  0  0  0  0  0  0  0  0  0
  150.1010  143.9179  156.8694 H   0  0  0  0  0  0  0  0  0  0  0  0
  148.9178  142.9421  155.5623 H   0  0  0  0  0  0  0  0  0  0  0  0
  150.2469  139.4064  155.1242 H   0  0  0  0  0  0  0  0  0  0  0  0
  149.1311  137.8665  153.5449 H   0  0  0  0  0  0  0  0  0  0  0  0
  146.2706  140.6690  152.5341 H   0  0  0  0  0  0  0  0  0  0  0  0
  1  2  1  0  0  0  0
  1 18  1  0  0  0  0
  1 19  1  0  0  0  0
  1 20  1  0  0  0  0
  2  3  1  0  0  0  0
  2 21  1  0  0  0  0
  2 22  1  0  0  0  0
  3  4  1  0  0  0  0
  3 23  1  0  0  0  0
  3 24  1  0  0  0  0
  4  6  1  0  0  0  0
  4  5  1  0  0  0  0
  4 25  1  0  0  0  0
  5  6  1  0  0  0  0
  5 26  1  0  0  0  0
  5 27  1  0  0  0  0
  6  7  1  0  0  0  0
  6 28  1  0  0  0  0
  7  8  1  0  0  0  0
  7 29  1  0  0  0  0
  8  9  2  0  0  0  0
  8 10  1  0  0  0  0
 10 11  1  0  0  0  0
 10 30  1  0  0  0  0
 11 16  1  0  0  0  0
 11 12  2  0  0  0  0
 12 13  1  0  0  0  0
 12 31  1  0  0  0  0
 13 14  2  0  0  0  0
 13 32  1  0  0  0  0
 14 15  1  0  0  0  0
 15 16  2  0  0  0  0
 15 33  1  0  0  0  0
 16 17  1  0  0  0  0
M  END
> <s_m_source_file>
AV-unprocessed.smi

> <i_m_source_file_index>
3196

> <i_lp_mmshare_version>
43012

> <i_f3d_flags>
0

> <s_epik_input>
W0NIM11bQ0gyXVtDSDJdW0NAQEhdMVtDSDJdW0NASF0xW05IXUMoPU8pW05IXWMyW2NIXVtjSF1uW2NIXWMyRg==

> <s_epik_cmdline>
J2VwaWtfcHl0aG9uJywgJy1waCcsICc3LjAnLCAnLXRuJywgJzgnLCAnLW1hJywgJzIwMCcsICctbWV0YWxfYmluZGluZycsICctaW1hZScsICc8aW5maWxlLm1hZT4nLCAnLW9tYWUnLCAnPG91dGZpbGUubWFlPic=

> <r_epik_Ionization_Penalty>
0.00341997

> <r_epik_Ionization_Penalty_Charging>
0

> <r_epik_Ionization_Penalty_Neutral>
0.00341997

> <r_epik_State_Penalty>
0.00239198

> <r_epik_Charging_Adjusted_Penalty>
0.00239198

> <i_epik_Tot_Q>
0

> <i_epik_Tot_abs_Q>
0

> <r_epik_Metal_State_Penalty>
-0

> <b_epik_Metal_Only>
0

> <s_lp_Force_Field>
OPLS_2005

> <r_lp_Energy>
34.2637

> <b_lp_Chiralities_Consistent>
1

> <s_lp_Variant>
AV-unprocessed.smi:3196-4

> <Gold.Version>
5.8.1

> <Gold.Id.Protein>
6NUR|6NUR_protein|mol2

> <Gold.PLP.Fitness>
54.6620

> <Gold.PLP.PLP>
-43.5618

> <Gold.PLP.part.hbond>
-2.0000

> <Gold.PLP.part.metal>
0.0000

> <Gold.PLP.part.buried>
-3.7908

> <Gold.PLP.part.nonpolar>
-38.6636

> <Gold.PLP.part.repulsive>
1.7312

> <Gold.PLP.ligand.clash>
0.0000

> <Gold.PLP.ligand.torsion>
0.7321

> <Gold.PLP.Chemscore.Hbond>
2.0000

> <Gold.PLP.Chemscore.CHOScore>
1.9987

> <Gold.PLP.Chemscore.Metal>
0.0000

> <Gold.Chemscore.Hbonds>
donor molecule, donor type, donor heavy atom, donor atom, acceptor molecule, acceptor atom, score
      L1  H     7    29       P1  8028  0.99
      L1  H    10    30       P1  8028  1.00
      L1  C    13    32       P1  7948  1.00
      L1  C    15    33       P1 10175  0.87

> <Gold.PLP.Chemscore.Internal.Correction>
0.5682

> <Gold.Rescore>
     Score         DG    S(hbond)    S(metal)    S(lipo)     H(rot)  DE(clash)    DE(int)     intcor
     19.01     -21.00       1.93        0.00     107.79       1.39       0.10       1.88       ----

> <Gold.Chemscore.Fitness>
19.0129

> <Gold.Chemscore.DG>
-20.9969

> <Gold.Chemscore.ZeroCoef>
-5.4800

> <Gold.Chemscore.Hbond>
1.9317

> <Gold.Chemscore.Metal>
0.0000

> <Gold.Chemscore.Lipo>
107.7869

> <Gold.Chemscore.Internal_Hbond>
0.0000

> <Gold.Chemscore.DEClash>
0.1005

> <Gold.Chemscore.DEInternal>
1.8835

> <Gold.Chemscore.Rot>
1.3852

> <Gold.Chemscore.Internal.Correction>
   9.000000E+99

> <Gold.Chemscore.Hbonds>
donor molecule, donor type, donor heavy atom, donor atom, acceptor molecule, acceptor atom, score
      L1  H     7    29       P1  8028  0.92
      L1  H    10    30       P1  8028  0.98

> <Gold.Chemscore.Hbond.Weighted>
-6.4519

> <Gold.Chemscore.Metal.Weighted>
-0.0000

> <Gold.Chemscore.Lipo.Weighted>
-12.6111

> <Gold.Chemscore.Internal_Hbond.Weighted>
0.0000

> <Gold.Chemscore.DEClash.Weighted>
0.1005

> <Gold.Chemscore.DEInternal.Weighted>
1.8835

> <Gold.Chemscore.Rot.Weighted>
3.5460

> <Gold.Chemscore.Internal.Correction.Weighted>
   9.000000E+99

> <Gold.Protein.RotatedTorsions>
[ 6907 6896 6895 6894 ] final   39.58 input  -60.11 | X-H torsion
[ 7974 7965 7964 7962 ] final -103.73 input  175.53 | X-H torsion
[ 8008 7997 7996 7995 ] final -158.78 input   59.86 | X-H torsion
[ 10167 10162 10161 10158 ] final  -50.15 input  -65.29 | X-H torsion
[ 10718 10713 10712 10709 ] final -112.14 input   66.30 | X-H torsion
[ 10763 10752 10751 10750 ] final   20.56 input  -60.55 | X-H torsion
[ 11005 11000 10999 10996 ] final   53.51 input  -57.11 | X-H torsion

> <Gold.Protein.ActiveResidues>
 VAL166  LYS551  ARG553  GLY616  TRP617  ASP618  TYR619  PRO620  LYS621  CYS622 
 ASP623  PHE694  ASN695  SER759  ASP760  ASP761  ALA762  ILE779  LEU786  VAL792 
 PHE793  MET794  SER795  GLU796  ALA797  LYS798  CYS799  TRP800  GLU811  SER814 

> <Gold.Protein.RotatedAtoms>
  152.1714  134.8831  160.0533 H   0  0  0  0  0  0  0  0  0  0  0  0  # atno 6907 bound_to 6896
  151.9790  133.3746  159.4108 H   0  0  0  0  0  0  0  0  0  0  0  0  # atno 6908 bound_to 6896
  150.6902  134.3982  159.5151 H   0  0  0  0  0  0  0  0  0  0  0  0  # atno 6909 bound_to 6896
  145.2522  140.9242  143.3089 H   0  0  0  0  0  0  0  0  0  0  0  0  # atno 7974 bound_to 7965
  155.7527  140.0828  157.2193 H   0  0  0  0  0  0  0  0  0  0  0  0  # atno 8008 bound_to 7997
  154.4010  140.1557  156.2798 H   0  0  0  0  0  0  0  0  0  0  0  0  # atno 8009 bound_to 7997
  155.8915  140.3415  155.5962 H   0  0  0  0  0  0  0  0  0  0  0  0  # atno 8010 bound_to 7997
  140.6651  143.2669  151.4317 H   0  0  0  0  0  0  0  0  0  0  0  0  # atno 10167 bound_to 10162
  156.0688  130.5904  150.8469 H   0  0  0  0  0  0  0  0  0  0  0  0  # atno 10718 bound_to 10713
  153.1067  135.6686  153.9573 H   0  0  0  0  0  0  0  0  0  0  0  0  # atno 10763 bound_to 10752
  153.9128  135.3023  155.3450 H   0  0  0  0  0  0  0  0  0  0  0  0  # atno 10764 bound_to 10752
  154.7488  135.5044  153.9328 H   0  0  0  0  0  0  0  0  0  0  0  0  # atno 10765 bound_to 10752
  140.0761  134.5403  155.8995 H   0  0  0  0  0  0  0  0  0  0  0  0  # atno 11005 bound_to 11000
  144.9493  139.4101  143.6410 LP  0  0  0  0  0  0  0  0  0  0  0  0  # atno 17320 bound_to 7965
  146.3299  139.8492  142.8876 LP  0  0  0  0  0  0  0  0  0  0  0  0  # atno 17321 bound_to 7965
  139.5898  144.1525  152.2074 LP  0  0  0  0  0  0  0  0  0  0  0  0  # atno 17342 bound_to 10162
  140.0875  144.5648  150.7078 LP  0  0  0  0  0  0  0  0  0  0  0  0  # atno 17343 bound_to 10162
  157.5747  131.0946  150.9364 LP  0  0  0  0  0  0  0  0  0  0  0  0  # atno 17370 bound_to 10713
  156.9573  130.5442  149.5284 LP  0  0  0  0  0  0  0  0  0  0  0  0  # atno 17371 bound_to 10713
  141.2030  133.6629  156.6037 LP  0  0  0  0  0  0  0  0  0  0  0  0  # atno 17394 bound_to 11000
  140.3556  134.7732  157.4497 LP  0  0  0  0  0  0  0  0  0  0  0  0  # atno 17395 bound_to 11000

$$$$
