#       Name:                AV-unprocessed.smi:247
#       Creating user name   scv26
#       Creation time:       Thu Mar 26 20:56:16 2020


#       File generated by GOLD software.
#

@<TRIPOS>MOLECULE
AV-unprocessed.smi:247
    73    77     1
SMALL
NO_CHARGES


@<TRIPOS>ATOM
      1 ****        -4.5901   2.3659   0.1029 O.3            1 S1                 0.0000
      2 ****        -3.9403   1.1206  -0.0621 C.3            1 S1                 0.0000
      3 ****        -4.4007   0.0427   0.9586 C.3            1 S1                 0.0000
      4 ****        -3.6971  -1.3066   0.6074 C.3            1 S1                 0.0000
      5 ****        -2.2421  -1.2826   0.6686 N.pl3          1 S1                 0.0000
      6 ****        -1.4595  -1.5403   1.7719 C.2            1 S1                 0.0000
      7 ****        -0.1724  -1.4689   1.5719 N.2            1 S1                 0.0000
      8 ****        -0.0537  -1.1611   0.2217 C.ar           1 S1                 0.0000
      9 ****         1.0496  -0.9457  -0.6529 C.ar           1 S1                 0.0000
     10 ****         2.3417  -1.0361  -0.2411 N.3            1 S1                 0.0000
     11 ****         2.7039  -2.2350   0.5086 C.3            1 S1                 0.0000
     12 ****         4.1228  -2.6075   0.0697 C.3            1 S1                 0.0000
     13 ****         4.6895  -1.2979  -0.4672 C.3            1 S1                 0.0000
     14 ****         3.4576  -0.6388  -1.1014 C.3            1 S1                 0.0000
     15 ****         3.5580   0.8961  -1.3353 C.3            1 S1                 0.0000
     16 ****         3.6625   1.7128  -0.0250 C.3            1 S1                 0.0000
     17 ****         3.6862   3.1077  -0.3086 O.3            1 S1                 0.0000
     18 ****         4.8199   3.4986  -1.0742 C.3            1 S1                 0.0000
     19 ****         4.7778   2.8073  -2.4443 C.3            1 S1                 0.0000
     20 ****         4.7216   1.2828  -2.2736 C.3            1 S1                 0.0000
     21 ****         4.5583   0.6912  -3.5475 O.3            1 S1                 0.0000
     22 ****         0.7662  -0.6472  -1.9488 N.ar           1 S1                 0.0000
     23 ****        -0.5007  -0.5702  -2.3654 C.ar           1 S1                 0.0000
     24 ****        -1.6215  -0.7516  -1.6650 N.ar           1 S1                 0.0000
     25 ****        -1.3476  -1.0431  -0.3612 C.ar           1 S1                 0.0000
     26 ****        -4.0745   0.5110   2.4006 C.3            1 S1                 0.0000
     27 ****        -4.7093  -0.3981   3.4682 C.3            1 S1                 0.0000
     28 ****        -6.1181  -0.4535   3.2799 O.3            1 S1                 0.0000
     29 ****        -6.4921  -1.0125   2.0263 C.3            1 S1                 0.0000
     30 ****        -5.9368  -0.1537   0.8736 C.3            1 S1                 0.0000
     31 ****        -4.2698   2.9620  -0.5567 H              1 S1                 0.0000
     32 ****        -4.1229   0.7788  -1.0816 H              1 S1                 0.0000
     33 ****        -2.8692   1.3027   0.0236 H              1 S1                 0.0000
     34 ****        -4.0296  -2.1104   1.2620 H              1 S1                 0.0000
     35 ****        -3.9833  -1.6201  -0.3976 H              1 S1                 0.0000
     36 ****        -1.8757  -1.7801   2.7393 H              1 S1                 0.0000
     37 ****         2.6868  -1.9963   1.5725 H              1 S1                 0.0000
     38 ****         2.0128  -3.0618   0.3375 H              1 S1                 0.0000
     39 ****         4.7192  -3.0320   0.8777 H              1 S1                 0.0000
     40 ****         4.0763  -3.3420  -0.7354 H              1 S1                 0.0000
     41 ****         5.0772  -0.7089   0.3630 H              1 S1                 0.0000
     42 ****         5.5006  -1.4528  -1.1791 H              1 S1                 0.0000
     43 ****         3.3036  -1.1235  -2.0668 H              1 S1                 0.0000
     44 ****         2.6387   1.2192  -1.8242 H              1 S1                 0.0000
     45 ****         2.8033   1.5159   0.6163 H              1 S1                 0.0000
     46 ****         4.5514   1.4490   0.5480 H              1 S1                 0.0000
     47 ****         4.8044   4.5814  -1.1997 H              1 S1                 0.0000
     48 ****         5.7389   3.2523  -0.5401 H              1 S1                 0.0000
     49 ****         3.9009   3.1546  -2.9928 H              1 S1                 0.0000
     50 ****         5.6497   3.0919  -3.0344 H              1 S1                 0.0000
     51 ****         5.6679   0.9379  -1.8550 H              1 S1                 0.0000
     52 ****         3.7399   0.9885  -3.9148 H              1 S1                 0.0000
     53 ****        -0.6351  -0.3301  -3.4097 H              1 S1                 0.0000
     54 ****        -2.9994   0.5879   2.5579 H              1 S1                 0.0000
     55 ****        -4.4618   1.5181   2.5583 H              1 S1                 0.0000
     56 ****        -4.2855  -1.4023   3.4468 H              1 S1                 0.0000
     57 ****        -4.5082   0.0027   4.4617 H              1 S1                 0.0000
     58 ****        -6.1556  -2.0472   1.9604 H              1 S1                 0.0000
     59 ****        -7.5805  -1.0405   1.9724 H              1 S1                 0.0000
     60 ****        -6.4431   0.8107   0.9178 H              1 S1                 0.0000
     61 ****        -6.2128  -0.5924  -0.0859 H              1 S1                 0.0000
     62 ****        -4.3921   2.7315   1.0124 LP             1 S1                 0.0000
     63 ****        -5.5776   2.2472  -0.0009 LP             1 S1                 0.0000
     64 ****         0.5612  -1.6046   2.2378 LP             1 S1                 0.0000
     65 ****         2.2448  -0.2512   0.3710 LP             1 S1                 0.0000
     66 ****         3.6974   3.6089   0.5567 LP             1 S1                 0.0000
     67 ****         2.8596   3.3434  -0.8196 LP             1 S1                 0.0000
     68 ****         4.5453  -0.3046  -3.4574 LP             1 S1                 0.0000
     69 ****         5.3137   0.9621  -4.1442 LP             1 S1                 0.0000
     70 ****         1.5118  -0.4841  -2.5949 LP             1 S1                 0.0000
     71 ****        -2.5432  -0.6827  -2.0466 LP             1 S1                 0.0000
     72 ****        -6.4834   0.4757   3.3357 LP             1 S1                 0.0000
     73 ****        -6.5148  -1.0119   4.0085 LP             1 S1                 0.0000
@<TRIPOS>BOND
    1    1    2 1     
    2    1   31 1     
    3    2    3 1     
    4    2   32 1     
    5    2   33 1     
    6    3   30 1     
    7    3    4 1     
    8    3   26 1     
    9    4    5 1     
   10    4   34 1     
   11    4   35 1     
   12    5   25 1     
   13    5    6 1     
   14    6    7 2     
   15    6   36 1     
   16    7    8 1     
   17    8   25 ar    
   18    8    9 ar    
   19    9   10 1     
   20    9   22 ar    
   21   10   14 1     
   22   10   11 1     
   23   11   12 1     
   24   11   37 1     
   25   11   38 1     
   26   12   13 1     
   27   12   39 1     
   28   12   40 1     
   29   13   14 1     
   30   13   41 1     
   31   13   42 1     
   32   14   15 1     
   33   14   43 1     
   34   15   20 1     
   35   15   16 1     
   36   15   44 1     
   37   16   17 1     
   38   16   45 1     
   39   16   46 1     
   40   17   18 1     
   41   18   19 1     
   42   18   47 1     
   43   18   48 1     
   44   19   20 1     
   45   19   49 1     
   46   19   50 1     
   47   20   21 1     
   48   20   51 1     
   49   21   52 1     
   50   22   23 ar    
   51   23   24 ar    
   52   23   53 1     
   53   24   25 ar    
   54   26   27 1     
   55   26   54 1     
   56   26   55 1     
   57   27   28 1     
   58   27   56 1     
   59   27   57 1     
   60   28   29 1     
   61   29   30 1     
   62   29   58 1     
   63   29   59 1     
   64   30   60 1     
   65   30   61 1     
   66    1   62 1     
   67    1   63 1     
   68    7   64 1     
   69   10   65 1     
   70   17   66 1     
   71   17   67 1     
   72   21   68 1     
   73   21   69 1     
   74   22   70 1     
   75   24   71 1     
   76   28   72 1     
   77   28   73 1     
@<TRIPOS>SUBSTRUCTURE
      1 S1             1
@<TRIPOS>SET
LONE_PAIRS      STATIC     ATOMS    <user>   **** ""
12 62 63 64 65 66 67 68 69 70 71 72 73
DONOR_HYDROGENS      STATIC     ATOMS    <user>   **** ""
2 31 52
ATOM$BLUE        STATIC     ATOMS    COLORGROUP SYSTEM
12 62 63 64 65 66 67 68 69 70 71 72 73
ATOM$RED        STATIC     ATOMS    COLORGROUP SYSTEM
2 31 52
