AV-unprocessed.smi:260|AV-procd|sdf|1982|dock8
  -GOLD-   2262021153D 1   1.00000     0.00000
 Structure written by MMmdl.
 53 56  0  0  0  0  0  0  0  0  1 V2000
  145.6842  135.4127  155.0705 C   0  0  0  0  0  0  0  0  0  0  0  0
  147.0495  134.9300  155.2077 N   0  0  0  0  0  0  0  0  0  0  0  0
  147.5276  133.8245  154.6143 C   0  0  0  0  0  0  0  0  0  0  0  0
  146.8222  133.1113  153.8992 O   0  0  0  0  0  0  0  0  0  0  0  0
  149.0134  133.4413  154.8443 C   0  0  2  0  0  0  0  0  0  0  0  0
  149.3337  132.1674  154.0381 C   0  0  0  0  0  0  0  0  0  0  0  0
  149.4096  133.2982  156.3324 C   0  0  0  0  0  0  0  0  0  0  0  0
  149.6963  134.7296  156.8055 C   0  0  0  0  0  0  0  0  0  0  0  0
  149.9895  135.4841  155.5959 N   0  0  0  0  0  0  0  0  0  0  0  0
  150.7652  136.5981  155.6192 C   0  0  0  0  0  0  0  0  0  0  0  0
  151.4132  136.9652  154.4818 N   0  0  0  0  0  0  0  0  0  0  0  0
  152.1820  138.0574  154.4602 C   0  0  0  0  0  0  0  0  0  0  0  0
  152.4350  138.9187  155.4465 N   0  0  0  0  0  0  0  0  0  0  0  0
  151.7803  138.5651  156.5887 C   0  0  0  0  0  0  0  0  0  0  0  0
  150.9334  137.4327  156.7636 C   0  0  0  0  0  0  0  0  0  0  0  0
  150.4407  137.4168  158.0648 N   0  0  0  0  0  0  0  0  0  0  0  0
  150.9682  138.4708  158.6243 C   0  0  0  0  0  0  0  0  0  0  0  0
  151.7841  139.2184  157.8075 N   0  0  0  0  0  0  0  0  0  0  0  0
  152.4896  140.4376  158.1596 C   0  0  0  0  0  0  0  0  0  0  0  0
  153.1441  140.3528  159.5523 C   0  0  1  0  0  0  0  0  0  0  0  0
  154.3782  139.6638  159.4823 O   0  0  0  0  0  0  0  0  0  0  0  0
  153.3331  141.7346  160.2095 C   0  0  1  0  0  0  0  0  0  0  0  0
  152.1369  142.6880  160.1487 C   0  0  0  0  0  0  0  0  0  0  0  0
  152.4358  143.6084  161.3109 C   0  0  0  0  0  0  0  0  0  0  0  0
  153.0158  142.6375  162.3370 C   0  0  0  0  0  0  0  0  0  0  0  0
  153.6844  141.6263  161.5871 O   0  0  0  0  0  0  0  0  0  0  0  0
  149.9223  134.6136  154.4288 C   0  0  0  0  0  0  0  0  0  0  0  0
  145.5556  136.3315  155.6428 H   0  0  0  0  0  0  0  0  0  0  0  0
  144.9720  134.6754  155.4434 H   0  0  0  0  0  0  0  0  0  0  0  0
  145.4513  135.6257  154.0262 H   0  0  0  0  0  0  0  0  0  0  0  0
  147.6768  135.4749  155.7812 H   0  0  0  0  0  0  0  0  0  0  0  0
  150.3818  131.8850  154.1416 H   0  0  0  0  0  0  0  0  0  0  0  0
  149.1419  132.3043  152.9729 H   0  0  0  0  0  0  0  0  0  0  0  0
  148.7336  131.3225  154.3783 H   0  0  0  0  0  0  0  0  0  0  0  0
  148.6748  132.7865  156.9544 H   0  0  0  0  0  0  0  0  0  0  0  0
  150.3298  132.7168  156.4078 H   0  0  0  0  0  0  0  0  0  0  0  0
  148.8193  135.1612  157.2888 H   0  0  0  0  0  0  0  0  0  0  0  0
  150.5251  134.7489  157.5143 H   0  0  0  0  0  0  0  0  0  0  0  0
  152.6615  138.2724  153.5167 H   0  0  0  0  0  0  0  0  0  0  0  0
  150.7698  138.7375  159.6522 H   0  0  0  0  0  0  0  0  0  0  0  0
  153.2391  140.6387  157.3932 H   0  0  0  0  0  0  0  0  0  0  0  0
  151.7791  141.2643  158.1262 H   0  0  0  0  0  0  0  0  0  0  0  0
  152.4971  139.7620  160.2021 H   0  0  0  0  0  0  0  0  0  0  0  0
  154.9630  140.0361  160.1247 H   0  0  0  0  0  0  0  0  0  0  0  0
  154.1764  142.2310  159.7259 H   0  0  0  0  0  0  0  0  0  0  0  0
  152.0587  143.2120  159.1958 H   0  0  0  0  0  0  0  0  0  0  0  0
  151.1960  142.1673  160.3297 H   0  0  0  0  0  0  0  0  0  0  0  0
  153.1872  144.3448  161.0225 H   0  0  0  0  0  0  0  0  0  0  0  0
  151.5565  144.1399  161.6759 H   0  0  0  0  0  0  0  0  0  0  0  0
  153.6917  143.1270  163.0386 H   0  0  0  0  0  0  0  0  0  0  0  0
  152.2146  142.1688  162.9100 H   0  0  0  0  0  0  0  0  0  0  0  0
  150.9249  134.2601  154.1830 H   0  0  0  0  0  0  0  0  0  0  0  0
  149.5391  135.1530  153.5611 H   0  0  0  0  0  0  0  0  0  0  0  0
  1  2  1  0  0  0  0
  1 28  1  0  0  0  0
  1 29  1  0  0  0  0
  1 30  1  0  0  0  0
  2  3  1  0  0  0  0
  2 31  1  0  0  0  0
  3  4  2  0  0  0  0
  3  5  1  0  0  0  0
  5 27  1  0  0  0  0
  5  6  1  0  0  0  0
  5  7  1  0  0  0  0
  6 32  1  0  0  0  0
  6 33  1  0  0  0  0
  6 34  1  0  0  0  0
  7  8  1  0  0  0  0
  7 35  1  0  0  0  0
  7 36  1  0  0  0  0
  8  9  1  0  0  0  0
  8 37  1  0  0  0  0
  8 38  1  0  0  0  0
  9 10  1  0  0  0  0
  9 27  1  0  0  0  0
 10 15  1  0  0  0  0
 10 11  2  0  0  0  0
 11 12  1  0  0  0  0
 12 13  2  0  0  0  0
 12 39  1  0  0  0  0
 13 14  1  0  0  0  0
 14 18  1  0  0  0  0
 14 15  2  0  0  0  0
 15 16  1  0  0  0  0
 16 17  2  0  0  0  0
 17 18  1  0  0  0  0
 17 40  1  0  0  0  0
 18 19  1  0  0  0  0
 19 20  1  0  0  0  0
 19 41  1  0  0  0  0
 19 42  1  0  0  0  0
 20 21  1  0  0  0  0
 20 22  1  0  0  0  0
 20 43  1  0  0  0  0
 21 44  1  0  0  0  0
 22 26  1  0  0  0  0
 22 23  1  0  0  0  0
 22 45  1  0  0  0  0
 23 24  1  0  0  0  0
 23 46  1  0  0  0  0
 23 47  1  0  0  0  0
 24 25  1  0  0  0  0
 24 48  1  0  0  0  0
 24 49  1  0  0  0  0
 25 26  1  0  0  0  0
 25 50  1  0  0  0  0
 25 51  1  0  0  0  0
 27 52  1  0  0  0  0
 27 53  1  0  0  0  0
M  END
> <s_m_source_file>
AV-unprocessed.smi

> <i_m_source_file_index>
260

> <i_lp_mmshare_version>
43012

> <i_f3d_flags>
0

> <s_epik_input>
W0NIM11bTkhdQyg9TylbQ0BAXTEoW0NIM10pW0NIMl1bQ0gyXU4oW0NIMl0xKWMobltjSF1uMiljKGMyMyluW2NIXW4zW0NIMl1bQ0BIXShbT0hdKVtDQEBIXTRbQ0gyXVtDSDJdW0NIMl1PNA==

> <s_epik_cmdline>
J2VwaWtfcHl0aG9uJywgJy1waCcsICc3LjAnLCAnLXRuJywgJzgnLCAnLW1hJywgJzIwMCcsICctbWV0YWxfYmluZGluZycsICctaW1hZScsICc8aW5maWxlLm1hZT4nLCAnLW9tYWUnLCAnPG91dGZpbGUubWFlPic=

> <r_lp_tautomer_probability>
1

> <r_epik_Ionization_Penalty>
0.00115068

> <r_epik_Ionization_Penalty_Charging>
0

> <r_epik_Ionization_Penalty_Neutral>
0.00115068

> <r_epik_State_Penalty>
0.000668876

> <r_epik_Charging_Adjusted_Penalty>
0.000668876

> <i_epik_Tot_Q>
0

> <i_epik_Tot_abs_Q>
0

> <r_epik_Metal_State_Penalty>
-0

> <b_epik_Metal_Only>
0

> <s_lp_Force_Field>
OPLS_2005

> <r_lp_Energy>
50.4325

> <b_lp_Chiralities_Consistent>
1

> <s_lp_Variant>
AV-unprocessed.smi:260-8

> <Gold.Version>
5.8.1

> <Gold.Id.Protein>
6NUR|6NUR_protein|mol2

> <Gold.PLP.Fitness>
46.8510

> <Gold.PLP.PLP>
-42.2543

> <Gold.PLP.part.hbond>
-2.2145

> <Gold.PLP.part.metal>
0.0000

> <Gold.PLP.part.buried>
-7.5734

> <Gold.PLP.part.nonpolar>
-32.1105

> <Gold.PLP.part.repulsive>
0.2306

> <Gold.PLP.ligand.clash>
0.0000

> <Gold.PLP.ligand.torsion>
0.7827

> <Gold.PLP.Chemscore.Hbond>
1.9500

> <Gold.PLP.Chemscore.CHOScore>
0.0000

> <Gold.PLP.Chemscore.Metal>
0.0000

> <Gold.Chemscore.Hbonds>
donor molecule, donor type, donor heavy atom, donor atom, acceptor molecule, acceptor atom, score
      P1  H  7997  8010       L1    21  0.36
      P1  H 10752 10764       L1    11  0.75

> <Gold.PLP.Chemscore.Internal.Correction>
0.3121

> <Gold.Rescore>
     Score         DG    S(hbond)    S(metal)    S(lipo)     H(rot)  DE(clash)    DE(int)     intcor
      9.57     -12.30       0.89        0.00      88.05       2.53       0.05       2.68       ----

> <Gold.Chemscore.Fitness>
9.5733

> <Gold.Chemscore.DG>
-12.3009

> <Gold.Chemscore.ZeroCoef>
-5.4800

> <Gold.Chemscore.Hbond>
0.8937

> <Gold.Chemscore.Metal>
0.0000

> <Gold.Chemscore.Lipo>
88.0534

> <Gold.Chemscore.Internal_Hbond>
0.0000

> <Gold.Chemscore.DEClash>
0.0508

> <Gold.Chemscore.DEInternal>
2.6768

> <Gold.Chemscore.Rot>
2.5259

> <Gold.Chemscore.Internal.Correction>
   9.000000E+99

> <Gold.Chemscore.Hbonds>
donor molecule, donor type, donor heavy atom, donor atom, acceptor molecule, acceptor atom, score
      P1  H  7997  8010       L1    21  0.12
      P1  H 10752 10764       L1    11  0.05

> <Gold.Chemscore.Hbond.Weighted>
-2.9850

> <Gold.Chemscore.Metal.Weighted>
-0.0000

> <Gold.Chemscore.Lipo.Weighted>
-10.3023

> <Gold.Chemscore.Internal_Hbond.Weighted>
0.0000

> <Gold.Chemscore.DEClash.Weighted>
0.0508

> <Gold.Chemscore.DEInternal.Weighted>
2.6768

> <Gold.Chemscore.Rot.Weighted>
6.4663

> <Gold.Chemscore.Internal.Correction.Weighted>
   9.000000E+99

> <Gold.Protein.RotatedTorsions>
[ 6907 6896 6895 6894 ] final  153.45 input  -60.11 | X-H torsion
[ 7974 7965 7964 7962 ] final  -90.52 input  175.53 | X-H torsion
[ 8008 7997 7996 7995 ] final    2.39 input   59.86 | X-H torsion
[ 10167 10162 10161 10158 ] final  -24.78 input  -65.29 | X-H torsion
[ 10718 10713 10712 10709 ] final    3.83 input   66.30 | X-H torsion
[ 10763 10752 10751 10750 ] final  -80.15 input  -60.55 | X-H torsion
[ 11005 11000 10999 10996 ] final -138.72 input  -57.11 | X-H torsion

> <Gold.Protein.ActiveResidues>
 VAL166  LYS551  ARG553  GLY616  TRP617  ASP618  TYR619  PRO620  LYS621  CYS622 
 ASP623  PHE694  ASN695  SER759  ASP760  ASP761  ALA762  ILE779  LEU786  VAL792 
 PHE793  MET794  SER795  GLU796  ALA797  LYS798  CYS799  TRP800  GLU811  SER814 

> <Gold.Protein.RotatedAtoms>
  152.0724  133.4113  159.4464 H   0  0  0  0  0  0  0  0  0  0  0  0  # atno 6907 bound_to 6896
  150.6863  134.3076  159.4742 H   0  0  0  0  0  0  0  0  0  0  0  0  # atno 6908 bound_to 6896
  152.0909  134.9407  160.0622 H   0  0  0  0  0  0  0  0  0  0  0  0  # atno 6909 bound_to 6896
  145.4254  140.9553  143.2158 H   0  0  0  0  0  0  0  0  0  0  0  0  # atno 7974 bound_to 7965
  154.6910  140.2653  155.6812 H   0  0  0  0  0  0  0  0  0  0  0  0  # atno 8008 bound_to 7997
  156.2732  140.2791  156.1411 H   0  0  0  0  0  0  0  0  0  0  0  0  # atno 8009 bound_to 7997
  155.0896  140.0373  157.2655 H   0  0  0  0  0  0  0  0  0  0  0  0  # atno 8010 bound_to 7997
  140.7288  143.4323  151.0783 H   0  0  0  0  0  0  0  0  0  0  0  0  # atno 10167 bound_to 10162
  156.8836  130.5662  149.5652 H   0  0  0  0  0  0  0  0  0  0  0  0  # atno 10718 bound_to 10713
  154.5476  135.5671  153.6894 H   0  0  0  0  0  0  0  0  0  0  0  0  # atno 10763 bound_to 10752
  152.9980  135.6243  154.2417 H   0  0  0  0  0  0  0  0  0  0  0  0  # atno 10764 bound_to 10752
  154.2351  135.2864  155.2855 H   0  0  0  0  0  0  0  0  0  0  0  0  # atno 10765 bound_to 10752
  140.8589  134.2193  157.4718 H   0  0  0  0  0  0  0  0  0  0  0  0  # atno 11005 bound_to 11000
  144.8218  139.5779  143.6983 LP  0  0  0  0  0  0  0  0  0  0  0  0  # atno 17320 bound_to 7965
  146.2635  139.6465  142.9345 LP  0  0  0  0  0  0  0  0  0  0  0  0  # atno 17321 bound_to 7965
  139.7981  143.8122  152.3160 LP  0  0  0  0  0  0  0  0  0  0  0  0  # atno 17342 bound_to 10162
  139.8129  144.7328  150.9673 LP  0  0  0  0  0  0  0  0  0  0  0  0  # atno 17343 bound_to 10162
  156.0665  130.5707  150.9298 LP  0  0  0  0  0  0  0  0  0  0  0  0  # atno 17370 bound_to 10713
  157.6126  131.0935  150.8768 LP  0  0  0  0  0  0  0  0  0  0  0  0  # atno 17371 bound_to 10713
  139.8706  134.9720  156.4756 LP  0  0  0  0  0  0  0  0  0  0  0  0  # atno 17394 bound_to 11000
  140.8705  133.7992  155.9360 LP  0  0  0  0  0  0  0  0  0  0  0  0  # atno 17395 bound_to 11000

$$$$
