#       Name:                AV-unprocessed.smi:2145
#       Creating user name   scv26
#       Creation time:       Fri Mar 27 11:50:44 2020


#       File generated by GOLD software.
#

@<TRIPOS>MOLECULE
AV-unprocessed.smi:2145
    51    53     1
SMALL
NO_CHARGES


@<TRIPOS>ATOM
      1 ****        -6.0571   1.8914   0.8296 C.3            1 S1                 0.0000
      2 ****        -5.0495   3.0294   0.6745 C.2            1 S1                 0.0000
      3 ****        -5.4708   4.1761   0.5270 O.2            1 S1                 0.0000
      4 ****        -3.5998   2.6843   0.7089 C.ar           1 S1                 0.0000
      5 ****        -2.6378   3.7085   0.5627 C.ar           1 S1                 0.0000
      6 ****        -1.2624   3.4088   0.5901 C.ar           1 S1                 0.0000
      7 ****        -0.8145   2.0847   0.7641 C.ar           1 S1                 0.0000
      8 ****         0.5485   1.8800   0.7774 O.3            1 S1                 0.0000
      9 ****         1.0252   0.5524   0.9521 C.3            1 S1                 0.0000
     10 ****         2.5637   0.5659   0.9133 C.3            1 S1                 0.0000
     11 ****         3.0305   1.0621   2.1506 O.3            1 S1                 0.0000
     12 ****         3.2008  -0.8267   0.7183 C.3            1 S1                 0.0000
     13 ****         2.8022  -1.4781  -0.5226 N.pl3          1 S1                 0.0000
     14 ****         3.3270  -1.3070  -1.7610 C.2            1 S1                 0.0000
     15 ****         4.4603  -0.3650  -2.0170 C.3            1 S1                 0.0000
     16 ****         2.7736  -2.0322  -2.7331 N.2            1 S1                 0.0000
     17 ****         1.8007  -2.7469  -2.0617 C.ar           1 S1                 0.0000
     18 ****         0.8670  -3.6961  -2.5359 C.ar           1 S1                 0.0000
     19 ****        -0.0450  -4.3051  -1.6490 C.ar           1 S1                 0.0000
     20 ****        -0.0367  -3.9746  -0.2783 C.ar           1 S1                 0.0000
     21 ****         0.8860  -3.0321   0.2151 C.ar           1 S1                 0.0000
     22 ****         1.7942  -2.4268  -0.6744 C.ar           1 S1                 0.0000
     23 ****        -1.7776   1.0560   0.9114 C.ar           1 S1                 0.0000
     24 ****        -3.1537   1.3537   0.8837 C.ar           1 S1                 0.0000
     25 ****        -5.9473   1.1712   0.0188 H              1 S1                 0.0000
     26 ****        -7.0758   2.2786   0.8049 H              1 S1                 0.0000
     27 ****        -5.9116   1.3775   1.7800 H              1 S1                 0.0000
     28 ****        -2.9436   4.7360   0.4265 H              1 S1                 0.0000
     29 ****        -0.5431   4.2063   0.4752 H              1 S1                 0.0000
     30 ****         0.6659   0.1136   1.8848 H              1 S1                 0.0000
     31 ****         0.6376  -0.0466   0.1286 H              1 S1                 0.0000
     32 ****         2.9022   1.2330   0.1205 H              1 S1                 0.0000
     33 ****         2.6619   1.9221   2.2854 H              1 S1                 0.0000
     34 ****         4.2885  -0.7519   0.7385 H              1 S1                 0.0000
     35 ****         2.9314  -1.4798   1.5493 H              1 S1                 0.0000
     36 ****         4.7486  -0.3927  -3.0684 H              1 S1                 0.0000
     37 ****         5.3277  -0.6436  -1.4183 H              1 S1                 0.0000
     38 ****         4.1701   0.6557  -1.7701 H              1 S1                 0.0000
     39 ****         0.8528  -3.9560  -3.5839 H              1 S1                 0.0000
     40 ****        -0.7543  -5.0290  -2.0226 H              1 S1                 0.0000
     41 ****        -0.7389  -4.4453   0.3943 H              1 S1                 0.0000
     42 ****         0.8924  -2.7754   1.2640 H              1 S1                 0.0000
     43 ****        -1.4872   0.0251   1.0463 H              1 S1                 0.0000
     44 ****        -3.8524   0.5386   0.9993 H              1 S1                 0.0000
     45 ****        -6.4557   4.3486   0.5105 LP             1 S1                 0.0000
     46 ****        -4.8284   4.9355   0.4237 LP             1 S1                 0.0000
     47 ****         0.9241   2.4307   1.5229 LP             1 S1                 0.0000
     48 ****         0.9070   2.2116  -0.0952 LP             1 S1                 0.0000
     49 ****         4.0287   1.1211   2.1360 LP             1 S1                 0.0000
     50 ****         2.7435   0.4520   2.8891 LP             1 S1                 0.0000
     51 ****         3.0051  -2.0535  -3.7057 LP             1 S1                 0.0000
@<TRIPOS>BOND
    1    1    2 1     
    2    1   25 1     
    3    1   26 1     
    4    1   27 1     
    5    2    3 2     
    6    2    4 1     
    7    4   24 ar    
    8    4    5 ar    
    9    5    6 ar    
   10    5   28 1     
   11    6    7 ar    
   12    6   29 1     
   13    7    8 1     
   14    7   23 ar    
   15    8    9 1     
   16    9   10 1     
   17    9   30 1     
   18    9   31 1     
   19   10   11 1     
   20   10   12 1     
   21   10   32 1     
   22   11   33 1     
   23   12   13 1     
   24   12   34 1     
   25   12   35 1     
   26   13   22 1     
   27   13   14 1     
   28   14   15 1     
   29   14   16 2     
   30   15   36 1     
   31   15   37 1     
   32   15   38 1     
   33   16   17 1     
   34   17   22 ar    
   35   17   18 ar    
   36   18   19 ar    
   37   18   39 1     
   38   19   20 ar    
   39   19   40 1     
   40   20   21 ar    
   41   20   41 1     
   42   21   22 ar    
   43   21   42 1     
   44   23   24 ar    
   45   23   43 1     
   46   24   44 1     
   47    3   45 1     
   48    3   46 1     
   49    8   47 1     
   50    8   48 1     
   51   11   49 1     
   52   11   50 1     
   53   16   51 1     
@<TRIPOS>SUBSTRUCTURE
      1 S1             1
@<TRIPOS>SET
LONE_PAIRS      STATIC     ATOMS    <user>   **** ""
7 45 46 47 48 49 50 51
DONOR_HYDROGENS      STATIC     ATOMS    <user>   **** ""
1 33
ATOM$BLUE        STATIC     ATOMS    COLORGROUP SYSTEM
7 45 46 47 48 49 50 51
ATOM$RED        STATIC     ATOMS    COLORGROUP SYSTEM
1 33
