AV-unprocessed.smi:2224|AV-procd|sdf|8994|dock4
  -GOLD-   2272012203D 1   1.00000     0.00000
 Structure written by MMmdl.
 44 46  0  0  0  0  0  0  0  0  1 V2000
  145.0926  132.3033  150.1279 C   0  0  0  0  0  0  0  0  0  0  0  0
  144.7603  133.3931  151.1252 C   0  0  0  0  0  0  0  0  0  0  0  0
  143.4724  133.4939  151.6857 C   0  0  0  0  0  0  0  0  0  0  0  0
  143.2294  134.5277  152.6113 C   0  0  0  0  0  0  0  0  0  0  0  0
  141.8673  134.6963  153.2505 C   0  0  0  0  0  0  0  0  0  0  0  0
  144.1715  135.4210  152.9827 N   0  0  0  0  0  0  0  0  0  0  0  0
  145.4150  135.3335  152.4492 C   0  0  0  0  0  0  0  0  0  0  0  0
  146.4730  136.2252  152.7676 N   0  0  0  0  0  0  0  0  0  0  0  0
  146.4543  137.2669  153.6176 C   0  0  0  0  0  0  0  0  0  0  0  0
  145.4969  137.6020  154.3156 O   0  0  0  0  0  0  0  0  0  0  0  0
  147.6298  137.9104  153.6202 N   0  0  0  0  0  0  0  0  0  0  0  0
  147.9389  139.0687  154.4533 C   0  0  1  0  0  0  0  0  0  0  0  0
  149.3078  139.6807  154.1163 C   0  0  2  0  0  0  0  0  0  0  0  0
  150.4165  139.6472  155.1333 C   0  0  0  0  0  0  0  0  0  0  0  0
  150.3062  141.0196  155.8035 C   0  0  0  0  0  0  0  0  0  0  0  0
  148.9650  141.4338  155.5549 O   0  0  0  0  0  0  0  0  0  0  0  0
  148.6331  141.0392  154.2258 C   0  0  2  0  0  0  0  0  0  0  0  0
  147.2485  140.3886  154.0212 C   0  0  0  0  0  0  0  0  0  0  0  0
  146.7189  140.4763  152.5826 C   0  0  0  0  0  0  0  0  0  0  0  0
  146.1306  140.8964  154.9338 C   0  0  0  0  0  0  0  0  0  0  0  0
  145.7414  134.3283  151.5115 C   0  0  0  0  0  0  0  0  0  0  0  0
  144.2470  131.6314  149.9775 H   0  0  0  0  0  0  0  0  0  0  0  0
  145.9377  131.7125  150.4821 H   0  0  0  0  0  0  0  0  0  0  0  0
  145.3581  132.7407  149.1652 H   0  0  0  0  0  0  0  0  0  0  0  0
  142.6919  132.7983  151.4137 H   0  0  0  0  0  0  0  0  0  0  0  0
  141.1956  133.8844  152.9701 H   0  0  0  0  0  0  0  0  0  0  0  0
  141.4155  135.6371  152.9353 H   0  0  0  0  0  0  0  0  0  0  0  0
  141.9551  134.7041  154.3373 H   0  0  0  0  0  0  0  0  0  0  0  0
  147.3445  136.0521  152.2895 H   0  0  0  0  0  0  0  0  0  0  0  0
  148.3642  137.5719  153.0163 H   0  0  0  0  0  0  0  0  0  0  0  0
  147.8325  138.8789  155.5239 H   0  0  0  0  0  0  0  0  0  0  0  0
  149.6220  139.4730  153.0918 H   0  0  0  0  0  0  0  0  0  0  0  0
  150.2569  138.8477  155.8573 H   0  0  0  0  0  0  0  0  0  0  0  0
  151.3973  139.4994  154.6809 H   0  0  0  0  0  0  0  0  0  0  0  0
  150.5250  140.9869  156.8710 H   0  0  0  0  0  0  0  0  0  0  0  0
  150.9894  141.7303  155.3359 H   0  0  0  0  0  0  0  0  0  0  0  0
  148.9473  141.7556  153.4653 H   0  0  0  0  0  0  0  0  0  0  0  0
  146.4790  141.5043  152.3097 H   0  0  0  0  0  0  0  0  0  0  0  0
  145.8126  139.8845  152.4492 H   0  0  0  0  0  0  0  0  0  0  0  0
  147.4502  140.1168  151.8583 H   0  0  0  0  0  0  0  0  0  0  0  0
  145.8788  141.9352  154.7183 H   0  0  0  0  0  0  0  0  0  0  0  0
  146.4148  140.8451  155.9851 H   0  0  0  0  0  0  0  0  0  0  0  0
  145.2214  140.3052  154.8206 H   0  0  0  0  0  0  0  0  0  0  0  0
  146.7358  134.2699  151.0927 H   0  0  0  0  0  0  0  0  0  0  0  0
  1  2  1  0  0  0  0
  1 22  1  0  0  0  0
  1 23  1  0  0  0  0
  1 24  1  0  0  0  0
  2 21  1  0  0  0  0
  2  3  2  0  0  0  0
  3  4  1  0  0  0  0
  3 25  1  0  0  0  0
  4  5  1  0  0  0  0
  4  6  2  0  0  0  0
  5 26  1  0  0  0  0
  5 27  1  0  0  0  0
  5 28  1  0  0  0  0
  6  7  1  0  0  0  0
  7  8  1  0  0  0  0
  7 21  2  0  0  0  0
  8  9  1  0  0  0  0
  8 29  1  0  0  0  0
  9 10  2  0  0  0  0
  9 11  1  0  0  0  0
 11 12  1  0  0  0  0
 11 30  1  0  0  0  0
 12 18  1  0  0  0  0
 12 13  1  0  0  0  0
 12 31  1  0  0  0  0
 13 17  1  0  0  0  0
 13 14  1  0  0  0  0
 13 32  1  0  0  0  0
 14 15  1  0  0  0  0
 14 33  1  0  0  0  0
 14 34  1  0  0  0  0
 15 16  1  0  0  0  0
 15 35  1  0  0  0  0
 15 36  1  0  0  0  0
 16 17  1  0  0  0  0
 17 18  1  0  0  0  0
 17 37  1  0  0  0  0
 18 19  1  0  0  0  0
 18 20  1  0  0  0  0
 19 38  1  0  0  0  0
 19 39  1  0  0  0  0
 19 40  1  0  0  0  0
 20 41  1  0  0  0  0
 20 42  1  0  0  0  0
 20 43  1  0  0  0  0
 21 44  1  0  0  0  0
M  END
> <s_m_source_file>
AV-unprocessed.smi

> <i_m_source_file_index>
2224

> <i_lp_mmshare_version>
43012

> <i_f3d_flags>
0

> <s_epik_input>
W0NIM11jMVtjSF1jKFtDSDNdKW5jKFtjSF0xKVtOSF1DKD1PKVtOSF1bQ0BIXTJDKFtDSDNdKShbQ0gzXSlbQ0BIXShbQ0BASF0yMylPW0NIMl1bQ0gyXTM=

> <s_epik_cmdline>
J2VwaWtfcHl0aG9uJywgJy1waCcsICc3LjAnLCAnLXRuJywgJzgnLCAnLW1hJywgJzIwMCcsICctbWV0YWxfYmluZGluZycsICctaW1hZScsICc8aW5maWxlLm1hZT4nLCAnLW9tYWUnLCAnPG91dGZpbGUubWFlPic=

> <r_lp_tautomer_probability>
1

> <r_epik_Ionization_Penalty>
0.000276544

> <r_epik_Ionization_Penalty_Charging>
0

> <r_epik_Ionization_Penalty_Neutral>
0.000276544

> <r_epik_State_Penalty>
-0

> <r_epik_Charging_Adjusted_Penalty>
0

> <i_epik_Tot_Q>
0

> <i_epik_Tot_abs_Q>
0

> <r_epik_Metal_State_Penalty>
-0

> <b_epik_Metal_Only>
0

> <s_lp_Force_Field>
OPLS_2005

> <r_lp_Energy>
38.5894

> <b_lp_Chiralities_Consistent>
1

> <s_lp_Variant>
AV-unprocessed.smi:2224-4

> <Gold.Version>
5.8.1

> <Gold.Id.Protein>
6NUR|6NUR_protein|mol2

> <Gold.PLP.Fitness>
39.5985

> <Gold.PLP.PLP>
-33.7294

> <Gold.PLP.part.hbond>
-2.0000

> <Gold.PLP.part.metal>
0.0000

> <Gold.PLP.part.buried>
-0.7117

> <Gold.PLP.part.nonpolar>
-30.7407

> <Gold.PLP.part.repulsive>
0.3201

> <Gold.PLP.ligand.clash>
0.0000

> <Gold.PLP.ligand.torsion>
0.0929

> <Gold.PLP.Chemscore.Hbond>
1.9600

> <Gold.PLP.Chemscore.CHOScore>
0.0000

> <Gold.PLP.Chemscore.Metal>
0.0000

> <Gold.Chemscore.Hbonds>
donor molecule, donor type, donor heavy atom, donor atom, acceptor molecule, acceptor atom, score
      L1  H     8    29       P1  7948  1.00
      L1  H    11    30       P1  7948  0.96

> <Gold.PLP.Chemscore.Internal.Correction>
0.1749

> <Gold.Rescore>
     Score         DG    S(hbond)    S(metal)    S(lipo)     H(rot)  DE(clash)    DE(int)     intcor
     18.14     -19.90       1.94        0.00      89.81       1.00       0.39       1.37       ----

> <Gold.Chemscore.Fitness>
18.1389

> <Gold.Chemscore.DG>
-19.8996

> <Gold.Chemscore.ZeroCoef>
-5.4800

> <Gold.Chemscore.Hbond>
1.9376

> <Gold.Chemscore.Metal>
0.0000

> <Gold.Chemscore.Lipo>
89.8131

> <Gold.Chemscore.Internal_Hbond>
0.0000

> <Gold.Chemscore.DEClash>
0.3890

> <Gold.Chemscore.DEInternal>
1.3716

> <Gold.Chemscore.Rot>
1.0000

> <Gold.Chemscore.Internal.Correction>
   9.000000E+99

> <Gold.Chemscore.Hbonds>
donor molecule, donor type, donor heavy atom, donor atom, acceptor molecule, acceptor atom, score
      L1  H     8    29       P1  7948  0.99
      L1  H    11    30       P1  7948  0.92

> <Gold.Chemscore.Hbond.Weighted>
-6.4714

> <Gold.Chemscore.Metal.Weighted>
-0.0000

> <Gold.Chemscore.Lipo.Weighted>
-10.5081

> <Gold.Chemscore.Internal_Hbond.Weighted>
0.0000

> <Gold.Chemscore.DEClash.Weighted>
0.3890

> <Gold.Chemscore.DEInternal.Weighted>
1.3716

> <Gold.Chemscore.Rot.Weighted>
2.5600

> <Gold.Chemscore.Internal.Correction.Weighted>
   9.000000E+99

> <Gold.Protein.RotatedTorsions>
[ 6907 6896 6895 6894 ] final  103.01 input  -60.11 | X-H torsion
[ 7974 7965 7964 7962 ] final   59.35 input  175.53 | X-H torsion
[ 8008 7997 7996 7995 ] final   85.27 input   59.86 | X-H torsion
[ 10167 10162 10161 10158 ] final  -60.86 input  -65.29 | X-H torsion
[ 10718 10713 10712 10709 ] final  150.58 input   66.30 | X-H torsion
[ 10763 10752 10751 10750 ] final -159.95 input  -60.55 | X-H torsion
[ 11005 11000 10999 10996 ] final -112.91 input  -57.11 | X-H torsion

> <Gold.Protein.ActiveResidues>
 VAL166  LYS551  ARG553  GLY616  TRP617  ASP618  TYR619  PRO620  LYS621  CYS622 
 ASP623  PHE694  ASN695  SER759  ASP760  ASP761  ALA762  ILE779  LEU786  VAL792 
 PHE793  MET794  SER795  GLU796  ALA797  LYS798  CYS799  TRP800  GLU811  SER814 

> <Gold.Protein.RotatedAtoms>
  152.5307  133.9889  159.7841 H   0  0  0  0  0  0  0  0  0  0  0  0  # atno 6907 bound_to 6896
  151.0129  133.5941  159.2687 H   0  0  0  0  0  0  0  0  0  0  0  0  # atno 6908 bound_to 6896
  151.3009  135.0775  159.9291 H   0  0  0  0  0  0  0  0  0  0  0  0  # atno 6909 bound_to 6896
  145.9081  139.3633  143.0552 H   0  0  0  0  0  0  0  0  0  0  0  0  # atno 7974 bound_to 7965
  155.9478  140.3403  155.6382 H   0  0  0  0  0  0  0  0  0  0  0  0  # atno 8008 bound_to 7997
  155.6958  140.0754  157.2448 H   0  0  0  0  0  0  0  0  0  0  0  0  # atno 8009 bound_to 7997
  154.4115  140.1649  156.2124 H   0  0  0  0  0  0  0  0  0  0  0  0  # atno 8010 bound_to 7997
  140.6044  143.2369  151.5856 H   0  0  0  0  0  0  0  0  0  0  0  0  # atno 10167 bound_to 10162
  157.2816  131.0836  151.1527 H   0  0  0  0  0  0  0  0  0  0  0  0  # atno 10718 bound_to 10713
  154.7431  135.3073  154.8692 H   0  0  0  0  0  0  0  0  0  0  0  0  # atno 10763 bound_to 10752
  153.9501  135.6765  153.4748 H   0  0  0  0  0  0  0  0  0  0  0  0  # atno 10764 bound_to 10752
  153.1029  135.4903  154.8825 H   0  0  0  0  0  0  0  0  0  0  0  0  # atno 10765 bound_to 10752
  141.0646  133.9479  157.2602 H   0  0  0  0  0  0  0  0  0  0  0  0  # atno 11005 bound_to 11000
  145.8706  140.9422  143.0652 LP  0  0  0  0  0  0  0  0  0  0  0  0  # atno 17320 bound_to 7965
  144.6741  140.0650  143.7475 LP  0  0  0  0  0  0  0  0  0  0  0  0  # atno 17321 bound_to 7965
  139.5314  144.2906  152.1155 LP  0  0  0  0  0  0  0  0  0  0  0  0  # atno 17342 bound_to 10162
  140.2092  144.4579  150.6394 LP  0  0  0  0  0  0  0  0  0  0  0  0  # atno 17343 bound_to 10162
  157.2959  130.6819  149.6138 LP  0  0  0  0  0  0  0  0  0  0  0  0  # atno 17370 bound_to 10713
  155.9664  130.4406  150.5308 LP  0  0  0  0  0  0  0  0  0  0  0  0  # atno 17371 bound_to 10713
  139.9464  135.0183  156.8866 LP  0  0  0  0  0  0  0  0  0  0  0  0  # atno 17394 bound_to 11000
  140.5799  134.0362  155.7460 LP  0  0  0  0  0  0  0  0  0  0  0  0  # atno 17395 bound_to 11000

$$$$
