AV-unprocessed.smi:1570|AV-procd|sdf|6314|dock9
  -GOLD-   22720 6523D 1   1.00000     0.00000
 Structure written by MMmdl.
 51 53  0  0  0  0  0  0  0  0  1 V2000
  155.0639  139.9968  160.4570 C   0  0  0  0  0  0  0  0  0  0  0  0
  153.8294  140.8221  160.8407 C   0  0  0  0  0  0  0  0  0  0  0  0
  152.9141  140.9616  159.7109 N   0  0  0  0  0  0  0  0  0  0  0  0
  152.2820  139.9592  159.0561 C   0  0  0  0  0  0  0  0  0  0  0  0
  152.3708  138.7583  159.3121 O   0  0  0  0  0  0  0  0  0  0  0  0
  151.5446  140.5058  158.0608 N   0  0  0  0  0  0  0  0  0  0  0  0
  150.7076  139.7854  157.1026 C   0  0  0  0  0  0  0  0  0  0  0  0
  151.5531  139.0320  156.0566 C   0  0  2  0  0  0  0  0  0  0  0  0
  152.3948  139.9692  155.4150 O   0  0  0  0  0  0  0  0  0  0  0  0
  150.6633  138.3989  154.9675 C   0  0  0  0  0  0  0  0  0  0  0  0
  149.3954  139.0849  154.7108 N   0  0  0  0  0  0  0  0  0  0  0  0
  148.6564  138.4247  153.6421 C   0  0  0  0  0  0  0  0  0  0  0  0
  147.2954  139.0945  153.3817 C   0  0  2  0  0  0  0  0  0  0  0  0
  146.5547  138.4545  152.2027 C   0  0  0  0  0  0  0  0  0  0  0  0
  147.4974  140.4741  153.0814 O   0  0  0  0  0  0  0  0  0  0  0  0
  148.2430  141.2065  154.0551 C   0  0  1  0  0  0  0  0  0  0  0  0
  147.4074  141.4969  155.3135 C   0  0  0  0  0  0  0  0  0  0  0  0
  149.5755  140.4929  154.3596 C   0  0  0  0  0  0  0  0  0  0  0  0
  151.7261  141.8965  158.0660 C   0  0  0  0  0  0  0  0  0  0  0  0
  151.2049  142.9017  157.2327 C   0  0  0  0  0  0  0  0  0  0  0  0
  151.5976  144.2336  157.5024 C   0  0  0  0  0  0  0  0  0  0  0  0
  152.4828  144.5282  158.5717 C   0  0  0  0  0  0  0  0  0  0  0  0
  152.9951  143.4970  159.3934 C   0  0  0  0  0  0  0  0  0  0  0  0
  152.5876  142.1829  159.1045 C   0  0  0  0  0  0  0  0  0  0  0  0
  155.7430  139.8984  161.3041 H   0  0  0  0  0  0  0  0  0  0  0  0
  155.6150  140.4667  159.6419 H   0  0  0  0  0  0  0  0  0  0  0  0
  154.7834  138.9928  160.1378 H   0  0  0  0  0  0  0  0  0  0  0  0
  153.3147  140.3503  161.6789 H   0  0  0  0  0  0  0  0  0  0  0  0
  154.1329  141.8091  161.1902 H   0  0  0  0  0  0  0  0  0  0  0  0
  150.1055  139.0713  157.6670 H   0  0  0  0  0  0  0  0  0  0  0  0
  149.9912  140.4550  156.6251 H   0  0  0  0  0  0  0  0  0  0  0  0
  152.1592  138.2739  156.5509 H   0  0  0  0  0  0  0  0  0  0  0  0
  152.1581  140.8336  155.7158 H   0  0  0  0  0  0  0  0  0  0  0  0
  151.2259  138.3385  154.0346 H   0  0  0  0  0  0  0  0  0  0  0  0
  150.4631  137.3658  155.2561 H   0  0  0  0  0  0  0  0  0  0  0  0
  149.2483  138.4314  152.7254 H   0  0  0  0  0  0  0  0  0  0  0  0
  148.4940  137.3775  153.8999 H   0  0  0  0  0  0  0  0  0  0  0  0
  146.6695  139.0042  154.2698 H   0  0  0  0  0  0  0  0  0  0  0  0
  146.3691  137.3957  152.3839 H   0  0  0  0  0  0  0  0  0  0  0  0
  147.1313  138.5411  151.2815 H   0  0  0  0  0  0  0  0  0  0  0  0
  145.5910  138.9375  152.0394 H   0  0  0  0  0  0  0  0  0  0  0  0
  148.4764  142.1695  153.5999 H   0  0  0  0  0  0  0  0  0  0  0  0
  147.9502  142.1506  155.9964 H   0  0  0  0  0  0  0  0  0  0  0  0
  147.1613  140.5876  155.8614 H   0  0  0  0  0  0  0  0  0  0  0  0
  146.4729  141.9943  155.0532 H   0  0  0  0  0  0  0  0  0  0  0  0
  150.0830  141.0299  155.1595 H   0  0  0  0  0  0  0  0  0  0  0  0
  150.2214  140.5664  153.4831 H   0  0  0  0  0  0  0  0  0  0  0  0
  150.5362  142.6720  156.4166 H   0  0  0  0  0  0  0  0  0  0  0  0
  151.2202  145.0356  156.8852 H   0  0  0  0  0  0  0  0  0  0  0  0
  152.7710  145.5521  158.7589 H   0  0  0  0  0  0  0  0  0  0  0  0
  153.6729  143.7147  160.2054 H   0  0  0  0  0  0  0  0  0  0  0  0
  1  2  1  0  0  0  0
  1 25  1  0  0  0  0
  1 26  1  0  0  0  0
  1 27  1  0  0  0  0
  2  3  1  0  0  0  0
  2 28  1  0  0  0  0
  2 29  1  0  0  0  0
  3 24  1  0  0  0  0
  3  4  1  0  0  0  0
  4  5  2  0  0  0  0
  4  6  1  0  0  0  0
  6  7  1  0  0  0  0
  6 19  1  0  0  0  0
  7  8  1  0  0  0  0
  7 30  1  0  0  0  0
  7 31  1  0  0  0  0
  8  9  1  0  0  0  0
  8 10  1  0  0  0  0
  8 32  1  0  0  0  0
  9 33  1  0  0  0  0
 10 11  1  0  0  0  0
 10 34  1  0  0  0  0
 10 35  1  0  0  0  0
 11 18  1  0  0  0  0
 11 12  1  0  0  0  0
 12 13  1  0  0  0  0
 12 36  1  0  0  0  0
 12 37  1  0  0  0  0
 13 14  1  0  0  0  0
 13 15  1  0  0  0  0
 13 38  1  0  0  0  0
 14 39  1  0  0  0  0
 14 40  1  0  0  0  0
 14 41  1  0  0  0  0
 15 16  1  0  0  0  0
 16 17  1  0  0  0  0
 16 18  1  0  0  0  0
 16 42  1  0  0  0  0
 17 43  1  0  0  0  0
 17 44  1  0  0  0  0
 17 45  1  0  0  0  0
 18 46  1  0  0  0  0
 18 47  1  0  0  0  0
 19 24  2  0  0  0  0
 19 20  1  0  0  0  0
 20 21  2  0  0  0  0
 20 48  1  0  0  0  0
 21 22  1  0  0  0  0
 21 49  1  0  0  0  0
 22 23  2  0  0  0  0
 22 50  1  0  0  0  0
 23 24  1  0  0  0  0
 23 51  1  0  0  0  0
M  END
> <s_m_source_file>
AV-unprocessed.smi

> <i_m_source_file_index>
1570

> <i_lp_mmshare_version>
43012

> <i_f3d_flags>
0

> <s_epik_input>
W2NIXTFbY0hdW2NIXVtjSF1jKGMxMiluKFtDSDJdW0NIM10pYyg9TyluMltDSDJdW0NASF0oW09IXSlbQ0gyXU4zW0NIMl1bQ0BASF0oW0NIM10pT1tDQEBIXShbQ0gzXSlbQ0gyXTM=

> <s_epik_cmdline>
J2VwaWtfcHl0aG9uJywgJy1waCcsICc3LjAnLCAnLXRuJywgJzgnLCAnLW1hJywgJzIwMCcsICctbWV0YWxfYmluZGluZycsICctaW1hZScsICc8aW5maWxlLm1hZT4nLCAnLW9tYWUnLCAnPG91dGZpbGUubWFlPic=

> <r_epik_Ionization_Penalty>
0.214359

> <r_epik_Ionization_Penalty_Charging>
2.30976e-09

> <r_epik_Ionization_Penalty_Neutral>
0.214359

> <r_epik_State_Penalty>
0.204533

> <r_epik_Charging_Adjusted_Penalty>
0.204533

> <i_epik_Tot_Q>
0

> <i_epik_Tot_abs_Q>
0

> <r_epik_Metal_State_Penalty>
0.204533

> <b_epik_Metal_Only>
0

> <s_lp_Force_Field>
OPLS_2005

> <r_lp_Energy>
63.7902

> <b_lp_Chiralities_Consistent>
1

> <s_lp_Variant>
AV-unprocessed.smi:1570-3

> <Gold.Version>
5.8.1

> <Gold.Id.Protein>
6NUR|6NUR_protein|mol2

> <Gold.PLP.Fitness>
53.5787

> <Gold.PLP.PLP>
-51.2836

> <Gold.PLP.part.hbond>
-2.0000

> <Gold.PLP.part.metal>
0.0000

> <Gold.PLP.part.buried>
-1.4894

> <Gold.PLP.part.nonpolar>
-49.0506

> <Gold.PLP.part.repulsive>
0.6241

> <Gold.PLP.ligand.clash>
0.0000

> <Gold.PLP.ligand.torsion>
0.5785

> <Gold.PLP.Chemscore.Hbond>
1.1223

> <Gold.PLP.Chemscore.CHOScore>
0.0000

> <Gold.PLP.Chemscore.Metal>
0.0000

> <Gold.Chemscore.Hbonds>
donor molecule, donor type, donor heavy atom, donor atom, acceptor molecule, acceptor atom, score
      P1  H  7997  8009       L1     9  0.55

> <Gold.PLP.Chemscore.Internal.Correction>
0.0852

> <Gold.Rescore>
     Score         DG    S(hbond)    S(metal)    S(lipo)     H(rot)  DE(clash)    DE(int)     intcor
     16.50     -18.11       0.42        0.00     140.98       2.06       1.00       0.61       ----

> <Gold.Chemscore.Fitness>
16.5014

> <Gold.Chemscore.DG>
-18.1071

> <Gold.Chemscore.ZeroCoef>
-5.4800

> <Gold.Chemscore.Hbond>
0.4188

> <Gold.Chemscore.Metal>
0.0000

> <Gold.Chemscore.Lipo>
140.9849

> <Gold.Chemscore.Internal_Hbond>
0.0000

> <Gold.Chemscore.DEClash>
0.9970

> <Gold.Chemscore.DEInternal>
0.6087

> <Gold.Chemscore.Rot>
2.0574

> <Gold.Chemscore.Internal.Correction>
   9.000000E+99

> <Gold.Chemscore.Hbonds>
donor molecule, donor type, donor heavy atom, donor atom, acceptor molecule, acceptor atom, score
      P1  H  7997  8009       L1     9  0.05

> <Gold.Chemscore.Hbond.Weighted>
-1.3987

> <Gold.Chemscore.Metal.Weighted>
-0.0000

> <Gold.Chemscore.Lipo.Weighted>
-16.4952

> <Gold.Chemscore.Internal_Hbond.Weighted>
0.0000

> <Gold.Chemscore.DEClash.Weighted>
0.9970

> <Gold.Chemscore.DEInternal.Weighted>
0.6087

> <Gold.Chemscore.Rot.Weighted>
5.2669

> <Gold.Chemscore.Internal.Correction.Weighted>
   9.000000E+99

> <Gold.Protein.RotatedTorsions>
[ 6907 6896 6895 6894 ] final -132.92 input  -60.11 | X-H torsion
[ 7974 7965 7964 7962 ] final    3.90 input  175.53 | X-H torsion
[ 8008 7997 7996 7995 ] final -145.55 input   59.86 | X-H torsion
[ 10167 10162 10161 10158 ] final -123.06 input  -65.29 | X-H torsion
[ 10718 10713 10712 10709 ] final  140.81 input   66.30 | X-H torsion
[ 10763 10752 10751 10750 ] final -112.90 input  -60.55 | X-H torsion
[ 11005 11000 10999 10996 ] final  166.09 input  -57.11 | X-H torsion

> <Gold.Protein.ActiveResidues>
 VAL166  LYS551  ARG553  GLY616  TRP617  ASP618  TYR619  PRO620  LYS621  CYS622 
 ASP623  PHE694  ASN695  SER759  ASP760  ASP761  ALA762  ILE779  LEU786  VAL792 
 PHE793  MET794  SER795  GLU796  ALA797  LYS798  CYS799  TRP800  GLU811  SER814 

> <Gold.Protein.RotatedAtoms>
  150.9680  133.6374  159.2742 H   0  0  0  0  0  0  0  0  0  0  0  0  # atno 6907 bound_to 6896
  151.3672  135.0914  159.9463 H   0  0  0  0  0  0  0  0  0  0  0  0  # atno 6908 bound_to 6896
  152.5172  133.9242  159.7604 H   0  0  0  0  0  0  0  0  0  0  0  0  # atno 6909 bound_to 6896
  146.2445  140.0616  142.8368 H   0  0  0  0  0  0  0  0  0  0  0  0  # atno 7974 bound_to 7965
  155.5449  140.0611  157.2862 H   0  0  0  0  0  0  0  0  0  0  0  0  # atno 8008 bound_to 7997
  154.4439  140.1912  156.0673 H   0  0  0  0  0  0  0  0  0  0  0  0  # atno 8009 bound_to 7997
  156.0558  140.3278  155.7407 H   0  0  0  0  0  0  0  0  0  0  0  0  # atno 8010 bound_to 7997
  140.0076  143.5476  152.2277 H   0  0  0  0  0  0  0  0  0  0  0  0  # atno 10167 bound_to 10162
  157.3991  131.1014  151.0570 H   0  0  0  0  0  0  0  0  0  0  0  0  # atno 10718 bound_to 10713
  154.8371  135.4474  154.1265 H   0  0  0  0  0  0  0  0  0  0  0  0  # atno 10763 bound_to 10752
  153.2487  135.6924  153.7709 H   0  0  0  0  0  0  0  0  0  0  0  0  # atno 10764 bound_to 10752
  153.7029  135.3369  155.3205 H   0  0  0  0  0  0  0  0  0  0  0  0  # atno 10765 bound_to 10752
  140.2628  134.7889  157.3605 H   0  0  0  0  0  0  0  0  0  0  0  0  # atno 11005 bound_to 11000
  145.0895  140.9275  143.4777 LP  0  0  0  0  0  0  0  0  0  0  0  0  # atno 17320 bound_to 7965
  145.0785  139.2977  143.5795 LP  0  0  0  0  0  0  0  0  0  0  0  0  # atno 17321 bound_to 7965
  139.6228  144.7632  151.2704 LP  0  0  0  0  0  0  0  0  0  0  0  0  # atno 17342 bound_to 10162
  140.7394  143.6618  150.8157 LP  0  0  0  0  0  0  0  0  0  0  0  0  # atno 17343 bound_to 10162
  157.1575  130.6211  149.5601 LP  0  0  0  0  0  0  0  0  0  0  0  0  # atno 17370 bound_to 10713
  155.9818  130.4828  150.6849 LP  0  0  0  0  0  0  0  0  0  0  0  0  # atno 17371 bound_to 10713
  140.1448  134.4925  155.8004 LP  0  0  0  0  0  0  0  0  0  0  0  0  # atno 17394 bound_to 11000
  141.2188  133.6839  156.7274 LP  0  0  0  0  0  0  0  0  0  0  0  0  # atno 17395 bound_to 11000

$$$$
