#       Name:                AV-unprocessed.smi:3354
#       Creating user name   scv26
#       Creation time:       Fri Mar 27 19:39:49 2020


#       File generated by GOLD software.
#

@<TRIPOS>MOLECULE
AV-unprocessed.smi:3354
    43    45     1
SMALL
NO_CHARGES


@<TRIPOS>ATOM
      1 ****        -5.9733   0.6978  -2.1324 C.3            1 S1                 0.0000
      2 ****        -4.8309  -0.2358  -1.7966 C.3            1 S1                 0.0000
      3 ****        -4.8131  -0.9580  -0.4689 C.3            1 S1                 0.0000
      4 ****        -3.8060   0.1345  -0.7397 C.3            1 S1                 0.0000
      5 ****        -2.4313  -0.2409  -0.8781 N.am           1 S1                 0.0000
      6 ****        -1.6289  -0.4183   0.3204 C.3            1 S1                 0.0000
      7 ****        -0.2195  -0.7816  -0.1776 C.3            1 S1                 0.0000
      8 ****         0.8011  -0.0488   0.5666 N.am           1 S1                 0.0000
      9 ****         2.1070  -0.3495   0.5733 C.2            1 S1                 0.0000
     10 ****         2.5896  -1.2841  -0.0660 O.2            1 S1                 0.0000
     11 ****         2.7990   0.5086   1.3424 N.am           1 S1                 0.0000
     12 ****         4.1910   0.5180   1.6288 C.ar           1 S1                 0.0000
     13 ****         5.0404  -0.6075   1.4975 C.ar           1 S1                 0.0000
     14 ****         6.4013  -0.4748   1.8338 C.ar           1 S1                 0.0000
     15 ****         6.8623   0.7740   2.2935 C.ar           1 S1                 0.0000
     16 ****         6.0620   1.8515   2.4353 N.ar           1 S1                 0.0000
     17 ****         4.7581   1.7163   2.1123 C.ar           1 S1                 0.0000
     18 ****        -0.2174  -0.4386  -1.6759 C.3            1 S1                 0.0000
     19 ****        -1.6746  -0.1345  -1.9791 C.2            1 S1                 0.0000
     20 ****        -2.0599   0.1852  -3.1027 O.2            1 S1                 0.0000
     21 ****        -6.2890   1.2581  -1.2518 H              1 S1                 0.0000
     22 ****        -6.8244   0.1282  -2.5058 H              1 S1                 0.0000
     23 ****        -5.6627   1.4049  -2.9014 H              1 S1                 0.0000
     24 ****        -4.4867  -0.8223  -2.6462 H              1 S1                 0.0000
     25 ****        -5.6087  -0.7391   0.2405 H              1 S1                 0.0000
     26 ****        -4.4594  -1.9874  -0.4665 H              1 S1                 0.0000
     27 ****        -3.9771   1.0765  -0.2218 H              1 S1                 0.0000
     28 ****        -1.6337   0.5131   0.8896 H              1 S1                 0.0000
     29 ****        -2.0431  -1.2024   0.9557 H              1 S1                 0.0000
     30 ****        -0.0669  -1.8556  -0.0535 H              1 S1                 0.0000
     31 ****         0.4897   0.7403   1.1140 H              1 S1                 0.0000
     32 ****         2.2728   1.2756   1.7350 H              1 S1                 0.0000
     33 ****         4.6783  -1.5671   1.1634 H              1 S1                 0.0000
     34 ****         7.0758  -1.3136   1.7459 H              1 S1                 0.0000
     35 ****         7.9001   0.9085   2.5605 H              1 S1                 0.0000
     36 ****         4.1478   2.5981   2.2418 H              1 S1                 0.0000
     37 ****         0.3868   0.4411  -1.9018 H              1 S1                 0.0000
     38 ****         0.1424  -1.2703  -2.2827 H              1 S1                 0.0000
     39 ****         1.9988  -1.8640  -0.6270 LP             1 S1                 0.0000
     40 ****         3.5725  -1.4635  -0.0245 LP             1 S1                 0.0000
     41 ****         6.4233   2.7222   2.7689 LP             1 S1                 0.0000
     42 ****        -3.0248   0.3959  -3.2593 LP             1 S1                 0.0000
     43 ****        -1.4082   0.2344  -3.8596 LP             1 S1                 0.0000
@<TRIPOS>BOND
    1    1    2 1     
    2    1   21 1     
    3    1   22 1     
    4    1   23 1     
    5    2    4 1     
    6    2    3 1     
    7    2   24 1     
    8    3    4 1     
    9    3   25 1     
   10    3   26 1     
   11    4    5 1     
   12    4   27 1     
   13    5   19 am    
   14    5    6 1     
   15    6    7 1     
   16    6   28 1     
   17    6   29 1     
   18    7    8 1     
   19    7   18 1     
   20    7   30 1     
   21    8    9 am    
   22    8   31 1     
   23    9   10 2     
   24    9   11 am    
   25   11   12 1     
   26   11   32 1     
   27   12   17 ar    
   28   12   13 ar    
   29   13   14 ar    
   30   13   33 1     
   31   14   15 ar    
   32   14   34 1     
   33   15   16 ar    
   34   15   35 1     
   35   16   17 ar    
   36   17   36 1     
   37   18   19 1     
   38   18   37 1     
   39   18   38 1     
   40   19   20 2     
   41   10   39 1     
   42   10   40 1     
   43   16   41 1     
   44   20   42 1     
   45   20   43 1     
@<TRIPOS>SUBSTRUCTURE
      1 S1             1
@<TRIPOS>SET
LONE_PAIRS      STATIC     ATOMS    <user>   **** ""
5 39 40 41 42 43
DONOR_HYDROGENS      STATIC     ATOMS    <user>   **** ""
2 31 32
ATOM$BLUE        STATIC     ATOMS    COLORGROUP SYSTEM
5 39 40 41 42 43
ATOM$RED        STATIC     ATOMS    COLORGROUP SYSTEM
2 31 32
