AV-unprocessed.smi:3031|AV-procd|sdf|11555|dock4
  -GOLD-   2272016523D 1   1.00000     0.00000
 Structure written by MMmdl.
 46 47  0  0  0  0  0  0  0  0  1 V2000
  151.7609  145.4571  159.5841 C   0  0  0  0  0  0  0  0  0  0  0  0
  152.3161  144.1483  160.0668 C   0  0  0  0  0  0  0  0  0  0  0  0
  152.2817  143.6205  161.3887 C   0  0  0  0  0  0  0  0  0  0  0  0
  152.8619  142.4358  161.4844 N   0  0  0  0  0  0  0  0  0  0  0  0
  153.2791  142.1600  160.2299 N   0  0  0  0  0  0  0  0  0  0  0  0
  153.9701  140.9097  159.9549 C   0  0  0  0  0  0  0  0  0  0  0  0
  154.0548  139.9599  161.1772 C   0  0  2  0  0  0  0  0  0  0  0  0
  155.2760  140.2562  162.0621 C   0  0  0  0  0  0  0  0  0  0  0  0
  154.0626  138.5425  160.7993 N   0  0  0  0  0  0  0  0  0  0  0  0
  152.9636  138.1089  159.9366 C   0  0  0  0  0  0  0  0  0  0  0  0
  153.4628  137.1446  158.8489 C   0  0  1  0  0  0  0  0  0  0  0  0
  153.7618  135.9171  159.4811 O   0  0  0  0  0  0  0  0  0  0  0  0
  152.3860  136.8784  157.7732 C   0  0  0  0  0  0  0  0  0  0  0  0
  152.3586  137.8256  156.6577 N   0  0  0  0  0  0  0  0  0  0  0  0
  151.8639  139.1442  157.0509 C   0  0  0  0  0  0  0  0  0  0  0  0
  151.8102  140.1170  155.8598 C   0  0  0  0  0  0  0  0  0  0  0  0
  151.0095  139.5620  154.8214 O   0  0  0  0  0  0  0  0  0  0  0  0
  151.4869  138.2959  154.3787 C   0  0  0  0  0  0  0  0  0  0  0  0
  151.5319  137.3198  155.5668 C   0  0  0  0  0  0  0  0  0  0  0  0
  152.9697  143.1813  159.3563 C   0  0  0  0  0  0  0  0  0  0  0  0
  150.6709  145.4592  159.5970 H   0  0  0  0  0  0  0  0  0  0  0  0
  152.0707  145.6786  158.5626 H   0  0  0  0  0  0  0  0  0  0  0  0
  152.0919  146.2884  160.2069 H   0  0  0  0  0  0  0  0  0  0  0  0
  151.8554  144.0621  162.2774 H   0  0  0  0  0  0  0  0  0  0  0  0
  153.4393  140.4079  159.1451 H   0  0  0  0  0  0  0  0  0  0  0  0
  154.9591  141.1329  159.5544 H   0  0  0  0  0  0  0  0  0  0  0  0
  153.1722  140.1455  161.7906 H   0  0  0  0  0  0  0  0  0  0  0  0
  155.2982  141.3043  162.3617 H   0  0  0  0  0  0  0  0  0  0  0  0
  156.2122  140.0354  161.5484 H   0  0  0  0  0  0  0  0  0  0  0  0
  155.2525  139.6570  162.9729 H   0  0  0  0  0  0  0  0  0  0  0  0
  154.0860  137.9660  161.6343 H   0  0  0  0  0  0  0  0  0  0  0  0
  152.2071  137.6111  160.5447 H   0  0  0  0  0  0  0  0  0  0  0  0
  152.4748  138.9598  159.4629 H   0  0  0  0  0  0  0  0  0  0  0  0
  154.3817  137.5408  158.4183 H   0  0  0  0  0  0  0  0  0  0  0  0
  154.7011  135.8213  159.5183 H   0  0  0  0  0  0  0  0  0  0  0  0
  152.5368  135.8685  157.3877 H   0  0  0  0  0  0  0  0  0  0  0  0
  151.4010  136.8634  158.2426 H   0  0  0  0  0  0  0  0  0  0  0  0
  150.8667  139.0510  157.4838 H   0  0  0  0  0  0  0  0  0  0  0  0
  152.4994  139.5776  157.8217 H   0  0  0  0  0  0  0  0  0  0  0  0
  151.3817  141.0708  156.1686 H   0  0  0  0  0  0  0  0  0  0  0  0
  152.8137  140.3234  155.4841 H   0  0  0  0  0  0  0  0  0  0  0  0
  150.8246  137.9171  153.6004 H   0  0  0  0  0  0  0  0  0  0  0  0
  152.4764  138.4072  153.9323 H   0  0  0  0  0  0  0  0  0  0  0  0
  151.9174  136.3583  155.2254 H   0  0  0  0  0  0  0  0  0  0  0  0
  150.5165  137.1391  155.9237 H   0  0  0  0  0  0  0  0  0  0  0  0
  153.2325  143.1326  158.3097 H   0  0  0  0  0  0  0  0  0  0  0  0
  1  2  1  0  0  0  0
  1 21  1  0  0  0  0
  1 22  1  0  0  0  0
  1 23  1  0  0  0  0
  2 20  2  0  0  0  0
  2  3  1  0  0  0  0
  3  4  2  0  0  0  0
  3 24  1  0  0  0  0
  4  5  1  0  0  0  0
  5  6  1  0  0  0  0
  5 20  1  0  0  0  0
  6  7  1  0  0  0  0
  6 25  1  0  0  0  0
  6 26  1  0  0  0  0
  7  8  1  0  0  0  0
  7  9  1  0  0  0  0
  7 27  1  0  0  0  0
  8 28  1  0  0  0  0
  8 29  1  0  0  0  0
  8 30  1  0  0  0  0
  9 10  1  0  0  0  0
  9 31  1  0  0  0  0
 10 11  1  0  0  0  0
 10 32  1  0  0  0  0
 10 33  1  0  0  0  0
 11 12  1  0  0  0  0
 11 13  1  0  0  0  0
 11 34  1  0  0  0  0
 12 35  1  0  0  0  0
 13 14  1  0  0  0  0
 13 36  1  0  0  0  0
 13 37  1  0  0  0  0
 14 19  1  0  0  0  0
 14 15  1  0  0  0  0
 15 16  1  0  0  0  0
 15 38  1  0  0  0  0
 15 39  1  0  0  0  0
 16 17  1  0  0  0  0
 16 40  1  0  0  0  0
 16 41  1  0  0  0  0
 17 18  1  0  0  0  0
 18 19  1  0  0  0  0
 18 42  1  0  0  0  0
 18 43  1  0  0  0  0
 19 44  1  0  0  0  0
 19 45  1  0  0  0  0
 20 46  1  0  0  0  0
M  END
> <s_m_source_file>
AV-unprocessed.smi

> <i_m_source_file_index>
3031

> <i_lp_mmshare_version>
43012

> <i_f3d_flags>
0

> <s_epik_input>
W0NIM11jMVtjSF1ubihbY0hdMSlbQ0gyXVtDQEhdKFtDSDNdKVtOSF1bQ0gyXVtDQEhdKFtPSF0pW0NIMl1OMltDSDJdW0NIMl1PW0NIMl1bQ0gyXTI=

> <s_epik_cmdline>
J2VwaWtfcHl0aG9uJywgJy1waCcsICc3LjAnLCAnLXRuJywgJzgnLCAnLW1hJywgJzIwMCcsICctbWV0YWxfYmluZGluZycsICctaW1hZScsICc8aW5maWxlLm1hZT4nLCAnLW9tYWUnLCAnPG91dGZpbGUubWFlPic=

> <r_lp_tautomer_probability>
1

> <r_epik_Ionization_Penalty>
2.8101

> <r_epik_Ionization_Penalty_Charging>
0

> <r_epik_Ionization_Penalty_Neutral>
2.8101

> <r_epik_State_Penalty>
2.12351

> <r_epik_Charging_Adjusted_Penalty>
2.12351

> <i_epik_Tot_Q>
0

> <i_epik_Tot_abs_Q>
0

> <r_epik_Metal_State_Penalty>
2.12345

> <b_epik_Metal_Only>
0

> <s_lp_Force_Field>
OPLS_2005

> <r_lp_Energy>
32.0321

> <b_lp_Chiralities_Consistent>
1

> <s_lp_Variant>
AV-unprocessed.smi:3031-15

> <Gold.Version>
5.8.1

> <Gold.Id.Protein>
6NUR|6NUR_protein|mol2

> <Gold.PLP.Fitness>
47.3240

> <Gold.PLP.PLP>
-43.3785

> <Gold.PLP.part.hbond>
-2.0000

> <Gold.PLP.part.metal>
0.0000

> <Gold.PLP.part.buried>
-6.5099

> <Gold.PLP.part.nonpolar>
-35.0681

> <Gold.PLP.part.repulsive>
0.1053

> <Gold.PLP.ligand.clash>
0.0000

> <Gold.PLP.ligand.torsion>
1.1099

> <Gold.PLP.Chemscore.Hbond>
2.0000

> <Gold.PLP.Chemscore.CHOScore>
0.0000

> <Gold.PLP.Chemscore.Metal>
0.0000

> <Gold.Chemscore.Hbonds>
donor molecule, donor type, donor heavy atom, donor atom, acceptor molecule, acceptor atom, score
      P1  H  6896  6908       L1    12  1.00
      P1  H  7989  7998       L1    17  0.65

> <Gold.PLP.Chemscore.Internal.Correction>
0.1653

> <Gold.Rescore>
     Score         DG    S(hbond)    S(metal)    S(lipo)     H(rot)  DE(clash)    DE(int)     intcor
     16.61     -18.34       1.70        0.00     116.85       2.53       0.47       1.26       ----

> <Gold.Chemscore.Fitness>
16.6113

> <Gold.Chemscore.DG>
-18.3446

> <Gold.Chemscore.ZeroCoef>
-5.4800

> <Gold.Chemscore.Hbond>
1.7001

> <Gold.Chemscore.Metal>
0.0000

> <Gold.Chemscore.Lipo>
116.8487

> <Gold.Chemscore.Internal_Hbond>
0.0000

> <Gold.Chemscore.DEClash>
0.4739

> <Gold.Chemscore.DEInternal>
1.2594

> <Gold.Chemscore.Rot>
2.5333

> <Gold.Chemscore.Internal.Correction>
   9.000000E+99

> <Gold.Chemscore.Hbonds>
donor molecule, donor type, donor heavy atom, donor atom, acceptor molecule, acceptor atom, score
      P1  H  6896  6908       L1    12  0.98
      P1  H  7989  7998       L1    17  0.03

> <Gold.Chemscore.Hbond.Weighted>
-5.6785

> <Gold.Chemscore.Metal.Weighted>
-0.0000

> <Gold.Chemscore.Lipo.Weighted>
-13.6713

> <Gold.Chemscore.Internal_Hbond.Weighted>
0.0000

> <Gold.Chemscore.DEClash.Weighted>
0.4739

> <Gold.Chemscore.DEInternal.Weighted>
1.2594

> <Gold.Chemscore.Rot.Weighted>
6.4852

> <Gold.Chemscore.Internal.Correction.Weighted>
   9.000000E+99

> <Gold.Protein.RotatedTorsions>
[ 6907 6896 6895 6894 ] final  -54.39 input  -60.11 | X-H torsion
[ 7974 7965 7964 7962 ] final  -80.11 input  175.53 | X-H torsion
[ 8008 7997 7996 7995 ] final   27.09 input   59.86 | X-H torsion
[ 10167 10162 10161 10158 ] final  -12.58 input  -65.29 | X-H torsion
[ 10718 10713 10712 10709 ] final -108.67 input   66.30 | X-H torsion
[ 10763 10752 10751 10750 ] final  -25.85 input  -60.55 | X-H torsion
[ 11005 11000 10999 10996 ] final   96.86 input  -57.11 | X-H torsion

> <Gold.Protein.ActiveResidues>
 VAL166  LYS551  ARG553  GLY616  TRP617  ASP618  TYR619  PRO620  LYS621  CYS622 
 ASP623  PHE694  ASN695  SER759  ASP760  ASP761  ALA762  ILE779  LEU786  VAL792 
 PHE793  MET794  SER795  GLU796  ALA797  LYS798  CYS799  TRP800  GLU811  SER814 

> <Gold.Protein.RotatedAtoms>
  150.8342  134.7608  159.6878 H   0  0  0  0  0  0  0  0  0  0  0  0  # atno 6907 bound_to 6896
  152.4442  134.5526  159.9881 H   0  0  0  0  0  0  0  0  0  0  0  0  # atno 6908 bound_to 6896
  151.5680  133.3356  159.3020 H   0  0  0  0  0  0  0  0  0  0  0  0  # atno 6909 bound_to 6896
  145.5643  140.9477  143.1430 H   0  0  0  0  0  0  0  0  0  0  0  0  # atno 7974 bound_to 7965
  155.0374  140.3165  155.4736 H   0  0  0  0  0  0  0  0  0  0  0  0  # atno 8008 bound_to 7997
  156.2862  140.2169  156.5440 H   0  0  0  0  0  0  0  0  0  0  0  0  # atno 8009 bound_to 7997
  154.7318  140.0481  157.0721 H   0  0  0  0  0  0  0  0  0  0  0  0  # atno 8010 bound_to 7997
  140.7164  143.5518  150.9293 H   0  0  0  0  0  0  0  0  0  0  0  0  # atno 10167 bound_to 10162
  156.0497  130.5725  150.7994 H   0  0  0  0  0  0  0  0  0  0  0  0  # atno 10718 bound_to 10713
  153.7064  135.6953  153.5049 H   0  0  0  0  0  0  0  0  0  0  0  0  # atno 10763 bound_to 10752
  153.2304  135.4339  155.0588 H   0  0  0  0  0  0  0  0  0  0  0  0  # atno 10764 bound_to 10752
  154.8328  135.3483  154.6602 H   0  0  0  0  0  0  0  0  0  0  0  0  # atno 10765 bound_to 10752
  139.8779  134.8972  156.4221 H   0  0  0  0  0  0  0  0  0  0  0  0  # atno 11005 bound_to 11000
  144.7468  139.7299  143.7289 LP  0  0  0  0  0  0  0  0  0  0  0  0  # atno 17320 bound_to 7965
  146.1829  139.5031  142.9855 LP  0  0  0  0  0  0  0  0  0  0  0  0  # atno 17321 bound_to 7965
  139.9242  143.6570  152.3090 LP  0  0  0  0  0  0  0  0  0  0  0  0  # atno 17342 bound_to 10162
  139.6997  144.7636  151.1294 LP  0  0  0  0  0  0  0  0  0  0  0  0  # atno 17343 bound_to 10162
  157.5411  131.0941  150.9825 LP  0  0  0  0  0  0  0  0  0  0  0  0  # atno 17370 bound_to 10713
  157.0108  130.5636  149.5320 LP  0  0  0  0  0  0  0  0  0  0  0  0  # atno 17371 bound_to 10713
  140.9126  133.7701  155.9810 LP  0  0  0  0  0  0  0  0  0  0  0  0  # atno 17394 bound_to 11000
  140.8529  134.2933  157.5268 LP  0  0  0  0  0  0  0  0  0  0  0  0  # atno 17395 bound_to 11000

$$$$
