AV-unprocessed.smi:668|AV-procd|sdf|3262|dock2
  -GOLD-   22720 0213D 1   1.00000     0.00000
 Structure written by MMmdl.
 38 39  0  0  0  0  0  0  0  0  1 V2000
  149.9754  141.7271  158.0369 C   0  0  0  0  0  0  0  0  0  0  0  0
  150.3211  141.5935  156.6625 O   0  0  0  0  0  0  0  0  0  0  0  0
  149.6273  140.6776  155.8986 C   0  0  0  0  0  0  0  0  0  0  0  0
  148.4164  140.1606  156.4003 C   0  0  0  0  0  0  0  0  0  0  0  0
  147.7030  139.2235  155.6284 C   0  0  0  0  0  0  0  0  0  0  0  0
  148.2299  138.8258  154.3761 C   0  0  0  0  0  0  0  0  0  0  0  0
  147.6025  137.9025  153.4960 N   0  0  0  0  0  0  0  0  0  0  0  0
  146.2982  137.5961  153.3890 C   0  0  0  0  0  0  0  0  0  0  0  0
  145.3951  138.0709  154.0770 O   0  0  0  0  0  0  0  0  0  0  0  0
  146.0953  136.6748  152.4366 N   0  0  0  0  0  0  0  0  0  0  0  0
  144.7970  136.1143  152.0646 C   0  0  1  0  0  0  0  0  0  0  0  0
  144.8755  135.4337  150.6875 C   0  0  0  0  0  0  0  0  0  0  0  0
  144.8599  133.9326  150.9653 C   0  0  0  0  0  0  0  0  0  0  0  0
  143.9870  133.7938  152.2086 C   0  0  0  0  0  0  0  0  0  0  0  0
  144.3268  135.0248  153.0671 C   0  0  2  0  0  0  0  0  0  0  0  0
  143.1474  135.4849  153.9383 C   0  0  0  0  0  0  0  0  0  0  0  0
  142.5969  134.5748  154.7456 N   0  0  0  0  0  0  0  0  0  0  0  0
  142.7395  136.6439  153.8869 O   0  0  0  0  0  0  0  0  0  0  0  0
  149.4417  139.4142  153.9587 C   0  0  0  0  0  0  0  0  0  0  0  0
  150.1309  140.3117  154.6939 N   0  0  0  0  0  0  0  0  0  0  0  0
  150.6084  142.4864  158.4955 H   0  0  0  0  0  0  0  0  0  0  0  0
  150.1315  140.7942  158.5809 H   0  0  0  0  0  0  0  0  0  0  0  0
  148.9384  142.0440  158.1582 H   0  0  0  0  0  0  0  0  0  0  0  0
  148.0385  140.4801  157.3603 H   0  0  0  0  0  0  0  0  0  0  0  0
  146.7671  138.8440  156.0071 H   0  0  0  0  0  0  0  0  0  0  0  0
  148.2307  137.3725  152.9097 H   0  0  0  0  0  0  0  0  0  0  0  0
  146.8971  136.3367  151.9250 H   0  0  0  0  0  0  0  0  0  0  0  0
  144.0815  136.9369  151.9944 H   0  0  0  0  0  0  0  0  0  0  0  0
  143.9898  135.6971  150.1075 H   0  0  0  0  0  0  0  0  0  0  0  0
  145.7438  135.7372  150.1008 H   0  0  0  0  0  0  0  0  0  0  0  0
  144.4850  133.3527  150.1213 H   0  0  0  0  0  0  0  0  0  0  0  0
  145.8713  133.5883  151.1854 H   0  0  0  0  0  0  0  0  0  0  0  0
  142.9369  133.7909  151.9119 H   0  0  0  0  0  0  0  0  0  0  0  0
  144.1801  132.8588  152.7355 H   0  0  0  0  0  0  0  0  0  0  0  0
  145.1610  134.7488  153.7156 H   0  0  0  0  0  0  0  0  0  0  0  0
  141.8105  134.8250  155.3271 H   0  0  0  0  0  0  0  0  0  0  0  0
  142.9620  133.6337  154.7605 H   0  0  0  0  0  0  0  0  0  0  0  0
  149.8769  139.1542  153.0048 H   0  0  0  0  0  0  0  0  0  0  0  0
  1  2  1  0  0  0  0
  1 21  1  0  0  0  0
  1 22  1  0  0  0  0
  1 23  1  0  0  0  0
  2  3  1  0  0  0  0
  3 20  1  0  0  0  0
  3  4  2  0  0  0  0
  4  5  1  0  0  0  0
  4 24  1  0  0  0  0
  5  6  2  0  0  0  0
  5 25  1  0  0  0  0
  6  7  1  0  0  0  0
  6 19  1  0  0  0  0
  7  8  1  0  0  0  0
  7 26  1  0  0  0  0
  8  9  2  0  0  0  0
  8 10  1  0  0  0  0
 10 11  1  0  0  0  0
 10 27  1  0  0  0  0
 11 15  1  0  0  0  0
 11 12  1  0  0  0  0
 11 28  1  0  0  0  0
 12 13  1  0  0  0  0
 12 29  1  0  0  0  0
 12 30  1  0  0  0  0
 13 14  1  0  0  0  0
 13 31  1  0  0  0  0
 13 32  1  0  0  0  0
 14 15  1  0  0  0  0
 14 33  1  0  0  0  0
 14 34  1  0  0  0  0
 15 16  1  0  0  0  0
 15 35  1  0  0  0  0
 16 17  1  0  0  0  0
 16 18  2  0  0  0  0
 17 36  1  0  0  0  0
 17 37  1  0  0  0  0
 19 20  2  0  0  0  0
 19 38  1  0  0  0  0
M  END
> <s_m_source_file>
AV-unprocessed.smi

> <i_m_source_file_index>
668

> <i_lp_mmshare_version>
43012

> <i_f3d_flags>
0

> <s_epik_input>
W0NIM11PYzFbY0hdW2NIXWMoW2NIXW4xKVtOSF1DKD1PKVtOSF1bQ0BASF0yW0NIMl1bQ0gyXVtDSDJdW0NASF0yQyg9TylbTkgyXQ==

> <s_epik_cmdline>
J2VwaWtfcHl0aG9uJywgJy1waCcsICc3LjAnLCAnLXRuJywgJzgnLCAnLW1hJywgJzIwMCcsICctbWV0YWxfYmluZGluZycsICctaW1hZScsICc8aW5maWxlLm1hZT4nLCAnLW9tYWUnLCAnPG91dGZpbGUubWFlPic=

> <r_lp_tautomer_probability>
1

> <r_epik_Ionization_Penalty>
9.0916e-05

> <r_epik_Ionization_Penalty_Charging>
0

> <r_epik_Ionization_Penalty_Neutral>
9.0916e-05

> <r_epik_State_Penalty>
-0

> <r_epik_Charging_Adjusted_Penalty>
0

> <i_epik_Tot_Q>
0

> <i_epik_Tot_abs_Q>
0

> <r_epik_Metal_State_Penalty>
-0

> <b_epik_Metal_Only>
0

> <s_lp_Force_Field>
OPLS_2005

> <r_lp_Energy>
17.404

> <b_lp_Chiralities_Consistent>
1

> <s_lp_Variant>
AV-unprocessed.smi:668-4

> <Gold.Version>
5.8.1

> <Gold.Id.Protein>
6NUR|6NUR_protein|mol2

> <Gold.PLP.Fitness>
39.2719

> <Gold.PLP.PLP>
-23.5979

> <Gold.PLP.part.hbond>
-5.0000

> <Gold.PLP.part.metal>
0.0000

> <Gold.PLP.part.buried>
-4.5841

> <Gold.PLP.part.nonpolar>
-16.0714

> <Gold.PLP.part.repulsive>
0.4407

> <Gold.PLP.ligand.clash>
0.0000

> <Gold.PLP.ligand.torsion>
0.6543

> <Gold.PLP.Chemscore.Hbond>
4.6574

> <Gold.PLP.Chemscore.CHOScore>
0.9953

> <Gold.PLP.Chemscore.Metal>
0.0000

> <Gold.Chemscore.Hbonds>
donor molecule, donor type, donor heavy atom, donor atom, acceptor molecule, acceptor atom, score
      L1  H     7    26       P1  7948  1.00
      L1  H    10    27       P1  7948  0.94
      L1  H    17    36       P1 11000  0.77
      L1  H    17    37       P1 10957  0.98
      P1  H  7989  7998       L1    20  1.00
      L1  C    19    38       P1  7957  1.00

> <Gold.PLP.Chemscore.Internal.Correction>
0.0245

> <Gold.Rescore>
     Score         DG    S(hbond)    S(metal)    S(lipo)     H(rot)  DE(clash)    DE(int)     intcor
     16.33     -19.41       4.07        0.00      43.61       1.86       0.58       2.50       ----

> <Gold.Chemscore.Fitness>
16.3278

> <Gold.Chemscore.DG>
-19.4071

> <Gold.Chemscore.ZeroCoef>
-5.4800

> <Gold.Chemscore.Hbond>
4.0713

> <Gold.Chemscore.Metal>
0.0000

> <Gold.Chemscore.Lipo>
43.6150

> <Gold.Chemscore.Internal_Hbond>
0.0000

> <Gold.Chemscore.DEClash>
0.5769

> <Gold.Chemscore.DEInternal>
2.5023

> <Gold.Chemscore.Rot>
1.8648

> <Gold.Chemscore.Internal.Correction>
   9.000000E+99

> <Gold.Chemscore.Hbonds>
donor molecule, donor type, donor heavy atom, donor atom, acceptor molecule, acceptor atom, score
      L1  H     7    26       P1  7948  1.00
      L1  H    10    27       P1  7948  0.84
      L1  H    17    36       P1 11000  0.33
      L1  H    17    37       P1 10957  0.93
      P1  H  7989  7998       L1    20  0.41

> <Gold.Chemscore.Hbond.Weighted>
-13.5981

> <Gold.Chemscore.Metal.Weighted>
-0.0000

> <Gold.Chemscore.Lipo.Weighted>
-5.1030

> <Gold.Chemscore.Internal_Hbond.Weighted>
0.0000

> <Gold.Chemscore.DEClash.Weighted>
0.5769

> <Gold.Chemscore.DEInternal.Weighted>
2.5023

> <Gold.Chemscore.Rot.Weighted>
4.7739

> <Gold.Chemscore.Internal.Correction.Weighted>
   9.000000E+99

> <Gold.Protein.RotatedTorsions>
[ 6907 6896 6895 6894 ] final   33.89 input  -60.11 | X-H torsion
[ 7974 7965 7964 7962 ] final -139.18 input  175.53 | X-H torsion
[ 8008 7997 7996 7995 ] final  -17.39 input   59.86 | X-H torsion
[ 10167 10162 10161 10158 ] final   96.68 input  -65.29 | X-H torsion
[ 10718 10713 10712 10709 ] final  117.82 input   66.30 | X-H torsion
[ 10763 10752 10751 10750 ] final -115.25 input  -60.55 | X-H torsion
[ 11005 11000 10999 10996 ] final  173.38 input  -57.11 | X-H torsion

> <Gold.Protein.ActiveResidues>
 VAL166  LYS551  ARG553  GLY616  TRP617  ASP618  TYR619  PRO620  LYS621  CYS622 
 ASP623  PHE694  ASN695  SER759  ASP760  ASP761  ALA762  ILE779  LEU786  VAL792 
 PHE793  MET794  SER795  GLU796  ALA797  LYS798  CYS799  TRP800  GLU811  SER814 

> <Gold.Protein.RotatedAtoms>
  152.0948  134.9382  160.0570 H   0  0  0  0  0  0  0  0  0  0  0  0  # atno 6907 bound_to 6896
  152.0620  133.4061  159.4430 H   0  0  0  0  0  0  0  0  0  0  0  0  # atno 6908 bound_to 6896
  150.6837  134.3109  159.4789 H   0  0  0  0  0  0  0  0  0  0  0  0  # atno 6909 bound_to 6896
  144.8698  140.6349  143.5274 H   0  0  0  0  0  0  0  0  0  0  0  0  # atno 7974 bound_to 7965
  154.4982  140.2144  155.9403 H   0  0  0  0  0  0  0  0  0  0  0  0  # atno 8008 bound_to 7997
  156.1398  140.3182  155.8445 H   0  0  0  0  0  0  0  0  0  0  0  0  # atno 8009 bound_to 7997
  155.4141  140.0492  157.3020 H   0  0  0  0  0  0  0  0  0  0  0  0  # atno 8010 bound_to 7997
  139.7872  144.6866  150.9942 H   0  0  0  0  0  0  0  0  0  0  0  0  # atno 10167 bound_to 10162
  157.6071  131.1041  150.7669 H   0  0  0  0  0  0  0  0  0  0  0  0  # atno 10718 bound_to 10713
  154.8474  135.4388  154.1634 H   0  0  0  0  0  0  0  0  0  0  0  0  # atno 10763 bound_to 10752
  153.2765  135.6950  153.7434 H   0  0  0  0  0  0  0  0  0  0  0  0  # atno 10764 bound_to 10752
  153.6654  135.3428  155.3114 H   0  0  0  0  0  0  0  0  0  0  0  0  # atno 10765 bound_to 10752
  140.3398  134.7286  157.4194 H   0  0  0  0  0  0  0  0  0  0  0  0  # atno 11005 bound_to 11000
  145.4152  139.1573  143.4104 LP  0  0  0  0  0  0  0  0  0  0  0  0  # atno 17320 bound_to 7965
  146.2922  140.4259  142.8735 LP  0  0  0  0  0  0  0  0  0  0  0  0  # atno 17321 bound_to 7965
  140.7820  143.4420  151.0538 LP  0  0  0  0  0  0  0  0  0  0  0  0  # atno 17342 bound_to 10162
  139.8098  143.7967  152.3170 LP  0  0  0  0  0  0  0  0  0  0  0  0  # atno 17343 bound_to 10162
  156.8055  130.4935  149.5363 LP  0  0  0  0  0  0  0  0  0  0  0  0  # atno 17370 bound_to 10713
  156.1161  130.6076  151.0123 LP  0  0  0  0  0  0  0  0  0  0  0  0  # atno 17371 bound_to 10713
  140.0790  134.5757  155.8560 LP  0  0  0  0  0  0  0  0  0  0  0  0  # atno 17394 bound_to 11000
  141.2041  133.6637  156.6104 LP  0  0  0  0  0  0  0  0  0  0  0  0  # atno 17395 bound_to 11000

$$$$
