#       Name:                AV-unprocessed.smi:852
#       Creating user name   scv26
#       Creation time:       Fri Mar 27 01:42:13 2020


#       File generated by GOLD software.
#

@<TRIPOS>MOLECULE
AV-unprocessed.smi:852
    36    37     1
SMALL
NO_CHARGES


@<TRIPOS>ATOM
      1 ****        -2.0903  -0.3178   0.7447 C.3            1 S1                 0.0000
      2 ****        -1.5490   0.3274  -0.5469 C.3            1 S1                 0.0000
      3 ****        -2.0726   1.7056  -0.6558 C.1            1 S1                 0.0000
      4 ****        -2.4823   2.7849  -0.7406 N.1            1 S1                 0.0000
      5 ****        -0.0846   0.3339  -0.5060 N.am           1 S1                 0.0000
      6 ****         0.7062   1.0637   0.2997 C.2            1 S1                 0.0000
      7 ****         0.2814   1.8457   1.1490 O.2            1 S1                 0.0000
      8 ****         2.2134   0.8767   0.1239 C.3            1 S1                 0.0000
      9 ****         2.7468  -0.0228   1.1303 N.pl3          1 S1                 0.0000
     10 ****         2.7429  -1.3589   1.1919 C.2            1 S1                 0.0000
     11 ****         3.3273  -1.8509   2.2774 N.2            1 S1                 0.0000
     12 ****         3.6891  -0.6775   2.8733 C.2            1 S1                 0.0000
     13 ****         4.3917  -0.6565   4.1452 C.1            1 S1                 0.0000
     14 ****         4.9515  -0.6397   5.1579 N.1            1 S1                 0.0000
     15 ****         3.3715   0.4482   2.2373 N.2            1 S1                 0.0000
     16 ****        -2.0340  -0.4979  -1.7372 C.3            1 S1                 0.0000
     17 ****        -2.2033   0.0833  -3.1234 C.3            1 S1                 0.0000
     18 ****        -3.4183  -0.3392  -2.3268 C.3            1 S1                 0.0000
     19 ****        -3.1787  -0.3833   0.7220 H              1 S1                 0.0000
     20 ****        -1.8243   0.2577   1.6316 H              1 S1                 0.0000
     21 ****        -1.7029  -1.3289   0.8779 H              1 S1                 0.0000
     22 ****         0.3741  -0.2743  -1.1685 H              1 S1                 0.0000
     23 ****         2.4392   0.4718  -0.8637 H              1 S1                 0.0000
     24 ****         2.7151   1.8431   0.1968 H              1 S1                 0.0000
     25 ****         2.3026  -1.9829   0.4280 H              1 S1                 0.0000
     26 ****        -1.6650  -1.5220  -1.7126 H              1 S1                 0.0000
     27 ****        -2.0381   1.1498  -3.2618 H              1 S1                 0.0000
     28 ****        -1.9139  -0.5417  -3.9657 H              1 S1                 0.0000
     29 ****        -3.9347  -1.2436  -2.6417 H              1 S1                 0.0000
     30 ****        -4.0602   0.4469  -1.9349 H              1 S1                 0.0000
     31 ****        -2.8363   3.7173  -0.8139 LP             1 S1                 0.0000
     32 ****        -0.7040   1.9660   1.2695 LP             1 S1                 0.0000
     33 ****         0.9214   2.3610   1.7188 LP             1 S1                 0.0000
     34 ****         3.4620  -2.7974   2.5706 LP             1 S1                 0.0000
     35 ****         5.4352  -0.6252   6.0330 LP             1 S1                 0.0000
     36 ****         3.5479   1.3950   2.5063 LP             1 S1                 0.0000
@<TRIPOS>BOND
    1    1    2 1     
    2    1   19 1     
    3    1   20 1     
    4    1   21 1     
    5    2    3 1     
    6    2    5 1     
    7    2   16 1     
    8    3    4 3     
    9    5    6 am    
   10    5   22 1     
   11    6    7 2     
   12    6    8 1     
   13    8    9 1     
   14    8   23 1     
   15    8   24 1     
   16    9   15 1     
   17    9   10 1     
   18   10   11 2     
   19   10   25 1     
   20   11   12 1     
   21   12   13 1     
   22   12   15 2     
   23   13   14 3     
   24   16   18 1     
   25   16   17 1     
   26   16   26 1     
   27   17   18 1     
   28   17   27 1     
   29   17   28 1     
   30   18   29 1     
   31   18   30 1     
   32    4   31 1     
   33    7   32 1     
   34    7   33 1     
   35   11   34 1     
   36   14   35 1     
   37   15   36 1     
@<TRIPOS>SUBSTRUCTURE
      1 S1             1
@<TRIPOS>SET
LONE_PAIRS      STATIC     ATOMS    <user>   **** ""
6 31 32 33 34 35 36
DONOR_HYDROGENS      STATIC     ATOMS    <user>   **** ""
1 22
ATOM$BLUE        STATIC     ATOMS    COLORGROUP SYSTEM
6 31 32 33 34 35 36
ATOM$RED        STATIC     ATOMS    COLORGROUP SYSTEM
1 22
