AV-unprocessed.smi:21|AV-procd|sdf|132|dock10
  -GOLD-   2262015323D 1   1.00000     0.00000
 Structure written by MMmdl.
 62 65  0  0  0  0  0  0  0  0  2 V2000
  144.5039  133.7214  149.9834 C   0  0  0  0  0  0  0  0  0  0  0  0
  145.6854  133.7518  150.7681 O   0  0  0  0  0  0  0  0  0  0  0  0
  145.6762  132.8286  151.8472 C   0  0  2  0  0  0  0  0  0  0  0  0
  147.0120  132.7447  152.5774 C   0  0  0  0  0  0  0  0  0  0  0  0
  147.0006  131.3510  153.2259 C   0  0  2  0  0  0  0  0  0  0  0  0
  148.4160  130.7610  153.4587 C   0  0  0  0  0  0  0  0  0  0  0  0
  148.5777  130.1365  154.7730 N   0  0  0  0  0  0  0  0  0  0  0  0
  147.4622  129.3389  155.2773 C   0  0  0  0  0  0  0  0  0  0  0  0
  149.4306  130.6938  155.6782 C   0  0  0  0  0  0  0  0  0  0  0  0
  150.0337  129.8850  156.5912 N   0  0  0  0  0  0  0  0  0  0  0  0
  150.8553  130.3890  157.5153 C   0  0  0  0  0  0  0  0  0  0  0  0
  151.2125  131.6585  157.7074 N   0  0  0  0  0  0  0  0  0  0  0  0
  150.6245  132.4798  156.7924 C   0  0  0  0  0  0  0  0  0  0  0  0
  149.7328  132.0875  155.7517 C   0  0  0  0  0  0  0  0  0  0  0  0
  149.3584  133.2086  155.0179 N   0  0  0  0  0  0  0  0  0  0  0  0
  149.9778  134.2005  155.5958 C   0  0  0  0  0  0  0  0  0  0  0  0
  150.7651  133.8508  156.6672 N   0  0  0  0  0  0  0  0  0  0  0  0
  151.5606  134.7496  157.4867 C   0  0  0  0  0  0  0  0  0  0  0  0
  151.2070  136.2453  157.2854 C   0  0  2  0  0  0  0  0  0  0  0  0
  151.6238  136.7365  155.8745 C   0  0  0  0  0  0  0  0  0  0  0  0
  150.9775  137.9429  155.5268 O   0  0  0  0  0  0  0  0  0  0  0  0
  151.8365  137.1028  158.4184 C   0  0  1  0  0  0  0  0  0  0  0  0
  151.7267  136.5285  159.8211 C   0  0  0  0  0  0  0  0  0  0  0  0
  152.7975  137.3024  160.5818 C   0  0  0  0  0  0  0  0  0  0  0  0
  153.8174  137.5837  159.6312 O   0  0  0  0  0  0  0  0  0  0  0  0
  153.3570  137.2768  158.3195 C   0  0  0  0  0  0  0  0  0  0  0  0
  146.0868  130.5260  152.3792 N   0  3  2  0  0  0  0  0  0  0  0  0
  146.5995  129.2404  151.8491 C   0  0  0  0  0  0  0  0  0  0  0  0
  145.5173  131.4019  151.3310 C   0  0  0  0  0  0  0  0  0  0  0  0
  144.8709  133.0529  152.5493 H   0  0  0  0  0  0  0  0  0  0  0  0
  146.4967  131.4308  154.1901 H   0  0  0  0  0  0  0  0  0  0  0  0
  144.6031  134.4167  149.1500 H   0  0  0  0  0  0  0  0  0  0  0  0
  143.6299  134.0209  150.5625 H   0  0  0  0  0  0  0  0  0  0  0  0
  144.3280  132.7271  149.5713 H   0  0  0  0  0  0  0  0  0  0  0  0
  147.8219  132.8125  151.8498 H   0  0  0  0  0  0  0  0  0  0  0  0
  147.1463  133.5459  153.3047 H   0  0  0  0  0  0  0  0  0  0  0  0
  148.6088  129.9783  152.7253 H   0  0  0  0  0  0  0  0  0  0  0  0
  149.1763  131.5155  153.2767 H   0  0  0  0  0  0  0  0  0  0  0  0
  147.8101  128.5954  155.9956 H   0  0  0  0  0  0  0  0  0  0  0  0
  146.9687  128.8056  154.4646 H   0  0  0  0  0  0  0  0  0  0  0  0
  146.7205  129.9728  155.7651 H   0  0  0  0  0  0  0  0  0  0  0  0
  151.2867  129.6726  158.1990 H   0  0  0  0  0  0  0  0  0  0  0  0
  149.8821  135.2202  155.2516 H   0  0  0  0  0  0  0  0  0  0  0  0
  151.4081  134.4519  158.5240 H   0  0  0  0  0  0  0  0  0  0  0  0
  152.6166  134.5821  157.2711 H   0  0  0  0  0  0  0  0  0  0  0  0
  150.1213  136.3280  157.3594 H   0  0  0  0  0  0  0  0  0  0  0  0
  152.7045  136.8676  155.8131 H   0  0  0  0  0  0  0  0  0  0  0  0
  151.3524  136.0190  155.1016 H   0  0  0  0  0  0  0  0  0  0  0  0
  150.5028  138.2578  156.2810 H   0  0  0  0  0  0  0  0  0  0  0  0
  151.3769  138.0929  158.4174 H   0  0  0  0  0  0  0  0  0  0  0  0
  150.7386  136.6548  160.2635 H   0  0  0  0  0  0  0  0  0  0  0  0
  151.9677  135.4644  159.8172 H   0  0  0  0  0  0  0  0  0  0  0  0
  152.3960  138.2472  160.9503 H   0  0  0  0  0  0  0  0  0  0  0  0
  153.1882  136.7449  161.4332 H   0  0  0  0  0  0  0  0  0  0  0  0
  153.8323  136.3481  158.0002 H   0  0  0  0  0  0  0  0  0  0  0  0
  153.6436  138.0608  157.6179 H   0  0  0  0  0  0  0  0  0  0  0  0
  147.4655  129.3897  151.2032 H   0  0  0  0  0  0  0  0  0  0  0  0
  145.8260  128.7454  151.2609 H   0  0  0  0  0  0  0  0  0  0  0  0
  146.8727  128.5616  152.6569 H   0  0  0  0  0  0  0  0  0  0  0  0
  144.4801  131.1478  151.1111 H   0  0  0  0  0  0  0  0  0  0  0  0
  146.0918  131.2853  150.4097 H   0  0  0  0  0  0  0  0  0  0  0  0
  145.3150  130.2861  152.9852 H   0  0  0  0  0  0  0  0  0  0  0  0
  1  2  1  0  0  0  0
  1 32  1  0  0  0  0
  1 33  1  0  0  0  0
  1 34  1  0  0  0  0
  2  3  1  0  0  0  0
  3 30  1  0  0  0  0
  3 29  1  0  0  0  0
  3  4  1  0  0  0  0
  4  5  1  0  0  0  0
  4 35  1  0  0  0  0
  4 36  1  0  0  0  0
  5 31  1  0  0  0  0
  5  6  1  0  0  0  0
  5 27  1  0  0  0  0
  6  7  1  0  0  0  0
  6 37  1  0  0  0  0
  6 38  1  0  0  0  0
  7  8  1  0  0  0  0
  7  9  1  0  0  0  0
  8 39  1  0  0  0  0
  8 40  1  0  0  0  0
  8 41  1  0  0  0  0
  9 14  1  0  0  0  0
  9 10  2  0  0  0  0
 10 11  1  0  0  0  0
 11 12  2  0  0  0  0
 11 42  1  0  0  0  0
 12 13  1  0  0  0  0
 13 17  1  0  0  0  0
 13 14  2  0  0  0  0
 14 15  1  0  0  0  0
 15 16  2  0  0  0  0
 16 17  1  0  0  0  0
 16 43  1  0  0  0  0
 17 18  1  0  0  0  0
 18 19  1  0  0  0  0
 18 44  1  0  0  0  0
 18 45  1  0  0  0  0
 19 20  1  0  0  0  0
 19 22  1  0  0  0  0
 19 46  1  0  0  0  0
 20 21  1  0  0  0  0
 20 47  1  0  0  0  0
 20 48  1  0  0  0  0
 21 49  1  0  0  0  0
 22 26  1  0  0  0  0
 22 23  1  0  0  0  0
 22 50  1  0  0  0  0
 23 24  1  0  0  0  0
 23 51  1  0  0  0  0
 23 52  1  0  0  0  0
 24 25  1  0  0  0  0
 24 53  1  0  0  0  0
 24 54  1  0  0  0  0
 25 26  1  0  0  0  0
 26 55  1  0  0  0  0
 26 56  1  0  0  0  0
 27 28  1  0  0  0  0
 27 29  1  0  0  0  0
 27 62  1  0  0  0  0
 28 57  1  0  0  0  0
 28 58  1  0  0  0  0
 28 59  1  0  0  0  0
 29 60  1  0  0  0  0
 29 61  1  0  0  0  0
M  CHG  1  27   1
M  END
> <s_m_source_file>
AV-unprocessed.smi

> <i_m_source_file_index>
21

> <i_lp_mmshare_version>
43012

> <i_f3d_flags>
0

> <s_epik_input>
W0NIM11PW0NASF0xW0NIMl1bQ0BIXShOKFtDSDNdKVtDSDJdMSlbQ0gyXU4oW0NIM10pYyhuW2NIXW4yKWMoYzIzKW5bY0hdbjNbQ0gyXVtDQEhdKFtDSDJdW09IXSlbQ0BASF00W0NIMl1bQ0gyXU9bQ0gyXTQ=

> <s_epik_cmdline>
J2VwaWtfcHl0aG9uJywgJy1waCcsICc3LjAnLCAnLXRuJywgJzgnLCAnLW1hJywgJzIwMCcsICctbWV0YWxfYmluZGluZycsICctaW1hZScsICc8aW5maWxlLm1hZT4nLCAnLW9tYWUnLCAnPG91dGZpbGUubWFlPic=

> <r_lp_tautomer_probability>
1

> <r_epik_Ionization_Penalty>
0.0157465

> <r_epik_Ionization_Penalty_Charging>
0.015354

> <r_epik_Ionization_Penalty_Neutral>
0.000392529

> <r_epik_State_Penalty>
0.0120612

> <r_epik_Charging_Adjusted_Penalty>
0.0274152

> <i_epik_Tot_Q>
1

> <i_epik_Tot_abs_Q>
1

> <r_epik_Metal_State_Penalty>
0.0121253

> <b_epik_Metal_Only>
0

> <s_lp_Force_Field>
OPLS_2005

> <r_lp_Energy>
62.0887

> <b_lp_Chiralities_Consistent>
1

> <s_lp_Variant>
AV-unprocessed.smi:21-12

> <Gold.Version>
5.8.1

> <Gold.Id.Protein>
6NUR|6NUR_protein|mol2

> <Gold.PLP.Fitness>
46.7030

> <Gold.PLP.PLP>
-41.0141

> <Gold.PLP.part.hbond>
-3.5948

> <Gold.PLP.part.metal>
0.0000

> <Gold.PLP.part.buried>
-5.6344

> <Gold.PLP.part.nonpolar>
-33.1438

> <Gold.PLP.part.repulsive>
0.2474

> <Gold.PLP.ligand.clash>
0.0000

> <Gold.PLP.ligand.torsion>
1.9796

> <Gold.PLP.Chemscore.Hbond>
1.9440

> <Gold.PLP.Chemscore.CHOScore>
1.0000

> <Gold.PLP.Chemscore.Metal>
0.0000

> <Gold.Chemscore.Hbonds>
donor molecule, donor type, donor heavy atom, donor atom, acceptor molecule, acceptor atom, score
      P1  H  6896  6909       L1    12  0.15

> <Gold.PLP.Chemscore.Internal.Correction>
0.8160

> <Gold.Rescore>
     Score         DG    S(hbond)    S(metal)    S(lipo)     H(rot)  DE(clash)    DE(int)     intcor
     10.25     -13.75       1.45        0.00      96.49       3.08       0.03       3.48       ----

> <Gold.Chemscore.Fitness>
10.2462

> <Gold.Chemscore.DG>
-13.7513

> <Gold.Chemscore.ZeroCoef>
-5.4800

> <Gold.Chemscore.Hbond>
1.4540

> <Gold.Chemscore.Metal>
0.0000

> <Gold.Chemscore.Lipo>
96.4869

> <Gold.Chemscore.Internal_Hbond>
0.0000

> <Gold.Chemscore.DEClash>
0.0293

> <Gold.Chemscore.DEInternal>
3.4759

> <Gold.Chemscore.Rot>
3.0758

> <Gold.Chemscore.Internal.Correction>
   9.000000E+99

> <Gold.Chemscore.Hbonds>
donor molecule, donor type, donor heavy atom, donor atom, acceptor molecule, acceptor atom, score
      P1  H  6896  6909       L1    12  0.01

> <Gold.Chemscore.Hbond.Weighted>
-4.8565

> <Gold.Chemscore.Metal.Weighted>
-0.0000

> <Gold.Chemscore.Lipo.Weighted>
-11.2890

> <Gold.Chemscore.Internal_Hbond.Weighted>
0.0000

> <Gold.Chemscore.DEClash.Weighted>
0.0293

> <Gold.Chemscore.DEInternal.Weighted>
3.4759

> <Gold.Chemscore.Rot.Weighted>
7.8741

> <Gold.Chemscore.Internal.Correction.Weighted>
   9.000000E+99

> <Gold.Protein.RotatedTorsions>
[ 6907 6896 6895 6894 ] final  -31.95 input  -60.11 | X-H torsion
[ 7974 7965 7964 7962 ] final -107.87 input  175.53 | X-H torsion
[ 8008 7997 7996 7995 ] final  -91.41 input   59.86 | X-H torsion
[ 10167 10162 10161 10158 ] final  -84.31 input  -65.29 | X-H torsion
[ 10718 10713 10712 10709 ] final  157.05 input   66.30 | X-H torsion
[ 10763 10752 10751 10750 ] final  -78.73 input  -60.55 | X-H torsion
[ 11005 11000 10999 10996 ] final   76.38 input  -57.11 | X-H torsion

> <Gold.Protein.ActiveResidues>
 VAL166  LYS551  ARG553  GLY616  TRP617  ASP618  TYR619  PRO620  LYS621  CYS622 
 ASP623  PHE694  ASN695  SER759  ASP760  ASP761  ALA762  ILE779  LEU786  VAL792 
 PHE793  MET794  SER795  GLU796  ALA797  LYS798  CYS799  TRP800  GLU811  SER814 

> <Gold.Protein.RotatedAtoms>
  151.0852  134.9883  159.8375 H   0  0  0  0  0  0  0  0  0  0  0  0  # atno 6907 bound_to 6896
  152.5424  134.2133  159.8768 H   0  0  0  0  0  0  0  0  0  0  0  0  # atno 6908 bound_to 6896
  151.2165  133.4482  159.2633 H   0  0  0  0  0  0  0  0  0  0  0  0  # atno 6909 bound_to 6896
  145.1999  140.9052  143.3375 H   0  0  0  0  0  0  0  0  0  0  0  0  # atno 7974 bound_to 7965
  154.7104  140.0520  157.0544 H   0  0  0  0  0  0  0  0  0  0  0  0  # atno 8008 bound_to 7997
  155.0563  140.3184  155.4656 H   0  0  0  0  0  0  0  0  0  0  0  0  # atno 8009 bound_to 7997
  156.2787  140.2107  156.5689 H   0  0  0  0  0  0  0  0  0  0  0  0  # atno 8010 bound_to 7997
  140.4144  143.2609  151.8974 H   0  0  0  0  0  0  0  0  0  0  0  0  # atno 10167 bound_to 10162
  157.1966  131.0667  151.2049 H   0  0  0  0  0  0  0  0  0  0  0  0  # atno 10718 bound_to 10713
  154.5296  135.5720  153.6748 H   0  0  0  0  0  0  0  0  0  0  0  0  # atno 10763 bound_to 10752
  152.9936  135.6201  154.2647 H   0  0  0  0  0  0  0  0  0  0  0  0  # atno 10764 bound_to 10752
  154.2572  135.2857  155.2772 H   0  0  0  0  0  0  0  0  0  0  0  0  # atno 10765 bound_to 10752
  139.9301  134.7596  156.1389 H   0  0  0  0  0  0  0  0  0  0  0  0  # atno 11005 bound_to 11000
  144.9958  139.3646  143.6192 LP  0  0  0  0  0  0  0  0  0  0  0  0  # atno 17320 bound_to 7965
  146.3419  139.9160  142.8773 LP  0  0  0  0  0  0  0  0  0  0  0  0  # atno 17321 bound_to 7965
  139.4782  144.5503  151.8395 LP  0  0  0  0  0  0  0  0  0  0  0  0  # atno 17342 bound_to 10162
  140.4603  144.1732  150.5905 LP  0  0  0  0  0  0  0  0  0  0  0  0  # atno 17343 bound_to 10162
  157.3808  130.7230  149.6629 LP  0  0  0  0  0  0  0  0  0  0  0  0  # atno 17370 bound_to 10713
  155.9705  130.4173  150.4272 LP  0  0  0  0  0  0  0  0  0  0  0  0  # atno 17371 bound_to 10713
  141.0884  133.6725  156.2485 LP  0  0  0  0  0  0  0  0  0  0  0  0  # atno 17394 bound_to 11000
  140.6227  134.5345  157.5549 LP  0  0  0  0  0  0  0  0  0  0  0  0  # atno 17395 bound_to 11000

$$$$
