AV-unprocessed.smi:247|AV-procd|sdf|1890|dock4
  -GOLD-   2262020553D 1   1.00000     0.00000
 Structure written by MMmdl.
 61 65  0  0  0  0  0  0  0  0  1 V2000
  150.2006  135.6668  158.8782 O   0  0  0  0  0  0  0  0  0  0  0  0
  150.0357  136.5292  157.7693 C   0  0  0  0  0  0  0  0  0  0  0  0
  151.3310  136.7138  156.9305 C   0  0  0  0  0  0  0  0  0  0  0  0
  151.7849  135.3149  156.4059 C   0  0  0  0  0  0  0  0  0  0  0  0
  150.7481  134.5359  155.7433 N   0  0  0  0  0  0  0  0  0  0  0  0
  150.4684  134.5148  154.3945 C   0  0  0  0  0  0  0  0  0  0  0  0
  149.4952  133.7222  154.0374 N   0  0  0  0  0  0  0  0  0  0  0  0
  149.0845  133.1390  155.2286 C   0  0  0  0  0  0  0  0  0  0  0  0
  148.0924  132.1802  155.5636 C   0  0  0  0  0  0  0  0  0  0  0  0
  147.2845  131.6411  154.6188 N   0  0  0  0  0  0  0  0  0  0  0  0
  147.3048  130.1918  154.7196 C   0  0  0  0  0  0  0  0  0  0  0  0
  146.6056  129.6921  153.4657 C   0  0  0  0  0  0  0  0  0  0  0  0
  146.8424  130.7998  152.4390 C   0  0  0  0  0  0  0  0  0  0  0  0
  147.4767  131.9849  153.2035 C   0  0  1  0  0  0  0  0  0  0  0  0
  146.8813  133.3746  152.7775 C   0  0  1  0  0  0  0  0  0  0  0  0
  147.0194  133.7079  151.2712 C   0  0  0  0  0  0  0  0  0  0  0  0
  146.2289  132.8195  150.4861 O   0  0  0  0  0  0  0  0  0  0  0  0
  144.8315  132.9542  150.7222 C   0  0  0  0  0  0  0  0  0  0  0  0
  144.5050  132.6778  152.1988 C   0  0  0  0  0  0  0  0  0  0  0  0
  145.3742  133.5628  153.1040 C   0  0  1  0  0  0  0  0  0  0  0  0
  145.0430  133.3511  154.4606 O   0  0  0  0  0  0  0  0  0  0  0  0
  147.9598  131.8392  156.8727 N   0  0  0  0  0  0  0  0  0  0  0  0
  148.7673  132.3791  157.7905 C   0  0  0  0  0  0  0  0  0  0  0  0
  149.7449  133.2722  157.6209 N   0  0  0  0  0  0  0  0  0  0  0  0
  149.8652  133.6321  156.3106 C   0  0  0  0  0  0  0  0  0  0  0  0
  151.0691  137.7122  155.7731 C   0  0  0  0  0  0  0  0  0  0  0  0
  152.3634  138.1179  155.0458 C   0  0  0  0  0  0  0  0  0  0  0  0
  153.2848  138.6764  155.9744 O   0  0  0  0  0  0  0  0  0  0  0  0
  153.6825  137.7598  156.9871 C   0  0  0  0  0  0  0  0  0  0  0  0
  152.4593  137.3120  157.8104 C   0  0  0  0  0  0  0  0  0  0  0  0
  149.3567  135.5332  159.2821 H   0  0  0  0  0  0  0  0  0  0  0  0
  149.2350  136.1276  157.1473 H   0  0  0  0  0  0  0  0  0  0  0  0
  149.6853  137.4859  158.1566 H   0  0  0  0  0  0  0  0  0  0  0  0
  152.6137  135.4026  155.7054 H   0  0  0  0  0  0  0  0  0  0  0  0
  152.1719  134.7189  157.2337 H   0  0  0  0  0  0  0  0  0  0  0  0
  151.0104  135.1136  153.6770 H   0  0  0  0  0  0  0  0  0  0  0  0
  148.3345  129.8301  154.7444 H   0  0  0  0  0  0  0  0  0  0  0  0
  146.8013  129.8450  155.6229 H   0  0  0  0  0  0  0  0  0  0  0  0
  146.9827  128.7224  153.1393 H   0  0  0  0  0  0  0  0  0  0  0  0
  145.5365  129.5890  153.6555 H   0  0  0  0  0  0  0  0  0  0  0  0
  147.5018  130.4622  151.6386 H   0  0  0  0  0  0  0  0  0  0  0  0
  145.8874  131.0678  151.9860 H   0  0  0  0  0  0  0  0  0  0  0  0
  148.5457  131.9728  152.9928 H   0  0  0  0  0  0  0  0  0  0  0  0
  147.4407  134.1396  153.3177 H   0  0  0  0  0  0  0  0  0  0  0  0
  146.7004  134.7336  151.0791 H   0  0  0  0  0  0  0  0  0  0  0  0
  148.0553  133.6716  150.9410 H   0  0  0  0  0  0  0  0  0  0  0  0
  144.5066  133.9561  150.4374 H   0  0  0  0  0  0  0  0  0  0  0  0
  144.2956  132.2540  150.0814 H   0  0  0  0  0  0  0  0  0  0  0  0
  143.4472  132.8687  152.3831 H   0  0  0  0  0  0  0  0  0  0  0  0
  144.6710  131.6241  152.4231 H   0  0  0  0  0  0  0  0  0  0  0  0
  145.1131  134.6028  152.9021 H   0  0  0  0  0  0  0  0  0  0  0  0
  144.3502  132.7099  154.5040 H   0  0  0  0  0  0  0  0  0  0  0  0
  148.6081  132.0467  158.8057 H   0  0  0  0  0  0  0  0  0  0  0  0
  150.3439  137.3141  155.0643 H   0  0  0  0  0  0  0  0  0  0  0  0
  150.6182  138.6236  156.1669 H   0  0  0  0  0  0  0  0  0  0  0  0
  152.8162  137.2733  154.5261 H   0  0  0  0  0  0  0  0  0  0  0  0
  152.1404  138.8671  154.2861 H   0  0  0  0  0  0  0  0  0  0  0  0
  154.2056  136.9126  156.5435 H   0  0  0  0  0  0  0  0  0  0  0  0
  154.4019  138.2566  157.6382 H   0  0  0  0  0  0  0  0  0  0  0  0
  152.0943  138.1879  158.3473 H   0  0  0  0  0  0  0  0  0  0  0  0
  152.7653  136.5983  158.5760 H   0  0  0  0  0  0  0  0  0  0  0  0
  1  2  1  0  0  0  0
  1 31  1  0  0  0  0
  2  3  1  0  0  0  0
  2 32  1  0  0  0  0
  2 33  1  0  0  0  0
  3 30  1  0  0  0  0
  3  4  1  0  0  0  0
  3 26  1  0  0  0  0
  4  5  1  0  0  0  0
  4 34  1  0  0  0  0
  4 35  1  0  0  0  0
  5 25  1  0  0  0  0
  5  6  1  0  0  0  0
  6  7  2  0  0  0  0
  6 36  1  0  0  0  0
  7  8  1  0  0  0  0
  8 25  2  0  0  0  0
  8  9  1  0  0  0  0
  9 10  1  0  0  0  0
  9 22  2  0  0  0  0
 10 14  1  0  0  0  0
 10 11  1  0  0  0  0
 11 12  1  0  0  0  0
 11 37  1  0  0  0  0
 11 38  1  0  0  0  0
 12 13  1  0  0  0  0
 12 39  1  0  0  0  0
 12 40  1  0  0  0  0
 13 14  1  0  0  0  0
 13 41  1  0  0  0  0
 13 42  1  0  0  0  0
 14 15  1  0  0  0  0
 14 43  1  0  0  0  0
 15 20  1  0  0  0  0
 15 16  1  0  0  0  0
 15 44  1  0  0  0  0
 16 17  1  0  0  0  0
 16 45  1  0  0  0  0
 16 46  1  0  0  0  0
 17 18  1  0  0  0  0
 18 19  1  0  0  0  0
 18 47  1  0  0  0  0
 18 48  1  0  0  0  0
 19 20  1  0  0  0  0
 19 49  1  0  0  0  0
 19 50  1  0  0  0  0
 20 21  1  0  0  0  0
 20 51  1  0  0  0  0
 21 52  1  0  0  0  0
 22 23  1  0  0  0  0
 23 24  2  0  0  0  0
 23 53  1  0  0  0  0
 24 25  1  0  0  0  0
 26 27  1  0  0  0  0
 26 54  1  0  0  0  0
 26 55  1  0  0  0  0
 27 28  1  0  0  0  0
 27 56  1  0  0  0  0
 27 57  1  0  0  0  0
 28 29  1  0  0  0  0
 29 30  1  0  0  0  0
 29 58  1  0  0  0  0
 29 59  1  0  0  0  0
 30 60  1  0  0  0  0
 30 61  1  0  0  0  0
M  END
> <s_m_source_file>
AV-unprocessed.smi

> <i_m_source_file_index>
247

> <i_lp_mmshare_version>
43012

> <i_f3d_flags>
0

> <s_epik_input>
W0NIMl0xW0NIMl1PW0NIMl1bQ0gyXUMxKFtDSDJdW09IXSlbQ0gyXW4oW2NIXW4yKWMoYzIzKW5bY0hdbmMzTjRbQ0gyXVtDSDJdW0NIMl1bQ0BIXTRbQ0BASF01W0NIMl1PW0NIMl1bQ0gyXVtDQEhdNVtPSF0=

> <s_epik_cmdline>
J2VwaWtfcHl0aG9uJywgJy1waCcsICc3LjAnLCAnLXRuJywgJzgnLCAnLW1hJywgJzIwMCcsICctbWV0YWxfYmluZGluZycsICctaW1hZScsICc8aW5maWxlLm1hZT4nLCAnLW9tYWUnLCAnPG91dGZpbGUubWFlPic=

> <r_lp_tautomer_probability>
1

> <r_epik_Ionization_Penalty>
0.00362597

> <r_epik_Ionization_Penalty_Charging>
0

> <r_epik_Ionization_Penalty_Neutral>
0.00362597

> <r_epik_State_Penalty>
0.00241433

> <r_epik_Charging_Adjusted_Penalty>
0.00241433

> <i_epik_Tot_Q>
0

> <i_epik_Tot_abs_Q>
0

> <r_epik_Metal_State_Penalty>
-0

> <b_epik_Metal_Only>
0

> <s_lp_Force_Field>
OPLS_2005

> <r_lp_Energy>
64.2344

> <b_lp_Chiralities_Consistent>
1

> <s_lp_Variant>
AV-unprocessed.smi:247-3

> <Gold.Version>
5.8.1

> <Gold.Id.Protein>
6NUR|6NUR_protein|mol2

> <Gold.PLP.Fitness>
41.2614

> <Gold.PLP.PLP>
-29.2226

> <Gold.PLP.part.hbond>
-4.0000

> <Gold.PLP.part.metal>
0.0000

> <Gold.PLP.part.buried>
-4.4878

> <Gold.PLP.part.nonpolar>
-19.4922

> <Gold.PLP.part.repulsive>
0.3919

> <Gold.PLP.ligand.clash>
0.0000

> <Gold.PLP.ligand.torsion>
0.5353

> <Gold.PLP.Chemscore.Hbond>
3.6080

> <Gold.PLP.Chemscore.CHOScore>
0.7360

> <Gold.PLP.Chemscore.Metal>
0.0000

> <Gold.Chemscore.Hbonds>
donor molecule, donor type, donor heavy atom, donor atom, acceptor molecule, acceptor atom, score
      L1  H    21    52       P1 10957  1.00
      P1  H  6896  6908       L1    24  1.00
      P1  H  6896  6909       L1     1  0.42
      P1  H  7997  8010       L1    28  0.98
      L1  C     6    36       P1  7949  0.74

> <Gold.PLP.Chemscore.Internal.Correction>
0.0774

> <Gold.Rescore>
     Score         DG    S(hbond)    S(metal)    S(lipo)     H(rot)  DE(clash)    DE(int)     intcor
      9.46     -16.84       3.07        0.00      80.09       3.23       0.41       6.96       ----

> <Gold.Chemscore.Fitness>
9.4569

> <Gold.Chemscore.DG>
-16.8354

> <Gold.Chemscore.ZeroCoef>
-5.4800

> <Gold.Chemscore.Hbond>
3.0682

> <Gold.Chemscore.Metal>
0.0000

> <Gold.Chemscore.Lipo>
80.0929

> <Gold.Chemscore.Internal_Hbond>
0.0000

> <Gold.Chemscore.DEClash>
0.4137

> <Gold.Chemscore.DEInternal>
6.9648

> <Gold.Chemscore.Rot>
3.2278

> <Gold.Chemscore.Internal.Correction>
   9.000000E+99

> <Gold.Chemscore.Hbonds>
donor molecule, donor type, donor heavy atom, donor atom, acceptor molecule, acceptor atom, score
      L1  H    21    52       P1 10957  0.95
      P1  H  6896  6908       L1    24  0.86
      P1  H  6896  6909       L1     1  0.23
      P1  H  7997  8010       L1    28  0.42

> <Gold.Chemscore.Hbond.Weighted>
-10.2478

> <Gold.Chemscore.Metal.Weighted>
-0.0000

> <Gold.Chemscore.Lipo.Weighted>
-9.3709

> <Gold.Chemscore.Internal_Hbond.Weighted>
0.0000

> <Gold.Chemscore.DEClash.Weighted>
0.4137

> <Gold.Chemscore.DEInternal.Weighted>
6.9648

> <Gold.Chemscore.Rot.Weighted>
8.2633

> <Gold.Chemscore.Internal.Correction.Weighted>
   9.000000E+99

> <Gold.Protein.RotatedTorsions>
[ 6907 6896 6895 6894 ] final  104.55 input  -60.11 | X-H torsion
[ 7974 7965 7964 7962 ] final  -44.25 input  175.53 | X-H torsion
[ 8008 7997 7996 7995 ] final   83.80 input   59.86 | X-H torsion
[ 10167 10162 10161 10158 ] final  -20.74 input  -65.29 | X-H torsion
[ 10718 10713 10712 10709 ] final  128.25 input   66.30 | X-H torsion
[ 10763 10752 10751 10750 ] final   41.71 input  -60.55 | X-H torsion
[ 11005 11000 10999 10996 ] final  179.73 input  -57.11 | X-H torsion

> <Gold.Protein.ActiveResidues>
 VAL166  LYS551  ARG553  GLY616  TRP617  ASP618  TYR619  PRO620  LYS621  CYS622 
 ASP623  PHE694  ASN695  SER759  ASP760  ASP761  ALA762  ILE779  LEU786  VAL792 
 PHE793  MET794  SER795  GLU796  ALA797  LYS798  CYS799  TRP800  GLU811  SER814 

> <Gold.Protein.RotatedAtoms>
  152.5260  133.9660  159.7739 H   0  0  0  0  0  0  0  0  0  0  0  0  # atno 6907 bound_to 6896
  150.9942  133.6112  159.2711 H   0  0  0  0  0  0  0  0  0  0  0  0  # atno 6908 bound_to 6896
  151.3244  135.0832  159.9370 H   0  0  0  0  0  0  0  0  0  0  0  0  # atno 6909 bound_to 6896
  145.9939  140.7150  142.9303 H   0  0  0  0  0  0  0  0  0  0  0  0  # atno 7974 bound_to 7965
  155.9287  140.3416  155.6231 H   0  0  0  0  0  0  0  0  0  0  0  0  # atno 8008 bound_to 7997
  155.7184  140.0780  157.2360 H   0  0  0  0  0  0  0  0  0  0  0  0  # atno 8009 bound_to 7997
  154.4081  140.1610  156.2362 H   0  0  0  0  0  0  0  0  0  0  0  0  # atno 8010 bound_to 7997
  140.7278  143.4693  151.0269 H   0  0  0  0  0  0  0  0  0  0  0  0  # atno 10167 bound_to 10162
  157.5261  131.1098  150.9080 H   0  0  0  0  0  0  0  0  0  0  0  0  # atno 10718 bound_to 10713
  152.9901  135.6153  154.2832 H   0  0  0  0  0  0  0  0  0  0  0  0  # atno 10763 bound_to 10752
  154.2561  135.2784  155.2799 H   0  0  0  0  0  0  0  0  0  0  0  0  # atno 10764 bound_to 10752
  154.5246  135.5805  153.6766 H   0  0  0  0  0  0  0  0  0  0  0  0  # atno 10765 bound_to 10752
  140.4094  134.6706  157.4605 H   0  0  0  0  0  0  0  0  0  0  0  0  # atno 11005 bound_to 11000
  144.6897  140.3117  143.7247 LP  0  0  0  0  0  0  0  0  0  0  0  0  # atno 17320 bound_to 7965
  145.7589  139.1818  143.2278 LP  0  0  0  0  0  0  0  0  0  0  0  0  # atno 17321 bound_to 7965
  139.8384  143.7597  152.3180 LP  0  0  0  0  0  0  0  0  0  0  0  0  # atno 17342 bound_to 10162
  139.7737  144.7468  151.0188 LP  0  0  0  0  0  0  0  0  0  0  0  0  # atno 17343 bound_to 10162
  156.9675  130.5478  149.5289 LP  0  0  0  0  0  0  0  0  0  0  0  0  # atno 17370 bound_to 10713
  156.0388  130.5473  150.8720 LP  0  0  0  0  0  0  0  0  0  0  0  0  # atno 17371 bound_to 10713
  140.0279  134.6450  155.9148 LP  0  0  0  0  0  0  0  0  0  0  0  0  # atno 17394 bound_to 11000
  141.1827  133.6549  156.5086 LP  0  0  0  0  0  0  0  0  0  0  0  0  # atno 17395 bound_to 11000

$$$$
