AV-unprocessed.smi:601|AV-procd|sdf|3033|dock9
  -GOLD-   2262023553D 1   1.00000     0.00000
 Structure written by MMmdl.
 49 50  0  0  0  0  0  0  0  0  2 V2000
  147.4303  139.4620  150.5205 C   0  0  0  0  0  0  0  0  0  0  0  0
  148.0007  140.6707  151.2745 C   0  0  0  0  0  0  0  0  0  0  0  0
  148.2242  140.4147  152.7734 C   0  0  0  0  0  0  0  0  0  0  0  0
  148.7972  141.6294  153.5296 C   0  0  0  0  0  0  0  0  0  0  0  0
  148.5912  141.5192  154.9817 N   0  0  0  0  0  0  0  0  0  0  0  0
  147.3461  141.6142  155.5194 C   0  0  0  0  0  0  0  0  0  0  0  0
  147.1452  141.4342  156.7228 O   0  0  0  0  0  0  0  0  0  0  0  0
  146.1496  142.0013  154.6108 C   0  0  2  0  0  0  0  0  0  0  0  0
  146.3125  143.3336  153.8666 C   0  0  0  0  0  0  0  0  0  0  0  0
  145.8016  144.3844  154.8451 C   0  0  0  0  0  0  0  0  0  0  0  0
  145.0580  143.5778  155.9135 C   0  0  0  0  0  0  0  0  0  0  0  0
  144.9912  142.2538  155.3971 O   0  0  0  0  0  0  0  0  0  0  0  0
  149.7294  141.2499  155.7638 C   0  0  0  0  0  0  0  0  0  0  0  0
  150.0840  142.0389  156.8123 C   0  0  0  0  0  0  0  0  0  0  0  0
  149.3419  143.1661  157.1359 N   0  0  0  0  0  0  0  0  0  0  0  0
  151.2276  141.7139  157.5900 N   0  0  0  0  0  0  0  0  0  0  0  0
  151.6166  142.6044  158.7042 C   0  0  0  0  0  0  0  0  0  0  0  0
  152.0589  143.9861  158.1923 C   0  0  0  0  0  0  0  0  0  0  0  0
  152.2110  145.0083  159.3235 C   0  0  0  0  0  0  0  0  0  0  0  0
  151.9504  140.5809  157.3307 C   0  0  0  0  0  0  0  0  0  0  0  0
  152.9131  140.3024  158.0472 O   0  0  0  0  0  0  0  0  0  0  0  0
  151.5832  139.7853  156.2855 N   0  5  0  0  0  0  0  0  0  0  0  0
  150.5181  140.0448  155.4819 C   0  0  0  0  0  0  0  0  0  0  0  0
  150.2043  139.3028  154.5507 O   0  0  0  0  0  0  0  0  0  0  0  0
  147.2256  139.7182  149.4808 H   0  0  0  0  0  0  0  0  0  0  0  0
  146.4954  139.1239  150.9684 H   0  0  0  0  0  0  0  0  0  0  0  0
  148.1257  138.6230  150.5198 H   0  0  0  0  0  0  0  0  0  0  0  0
  148.9335  140.9913  150.8093 H   0  0  0  0  0  0  0  0  0  0  0  0
  147.3063  141.5042  151.1642 H   0  0  0  0  0  0  0  0  0  0  0  0
  147.2677  140.1435  153.2211 H   0  0  0  0  0  0  0  0  0  0  0  0
  148.8716  139.5463  152.9003 H   0  0  0  0  0  0  0  0  0  0  0  0
  149.8600  141.7522  153.3170 H   0  0  0  0  0  0  0  0  0  0  0  0
  148.3201  142.5373  153.1567 H   0  0  0  0  0  0  0  0  0  0  0  0
  145.9555  141.2015  153.8957 H   0  0  0  0  0  0  0  0  0  0  0  0
  147.3327  143.5283  153.5334 H   0  0  0  0  0  0  0  0  0  0  0  0
  145.6812  143.3271  152.9773 H   0  0  0  0  0  0  0  0  0  0  0  0
  146.6230  144.9451  155.2924 H   0  0  0  0  0  0  0  0  0  0  0  0
  145.1437  145.0954  154.3445 H   0  0  0  0  0  0  0  0  0  0  0  0
  145.6126  143.5751  156.8529 H   0  0  0  0  0  0  0  0  0  0  0  0
  144.0597  143.9674  156.1122 H   0  0  0  0  0  0  0  0  0  0  0  0
  148.5234  143.4336  156.6086 H   0  0  0  0  0  0  0  0  0  0  0  0
  149.5402  143.7104  157.9630 H   0  0  0  0  0  0  0  0  0  0  0  0
  150.7975  142.7254  159.4150 H   0  0  0  0  0  0  0  0  0  0  0  0
  152.4075  142.1561  159.3056 H   0  0  0  0  0  0  0  0  0  0  0  0
  153.0065  143.8980  157.6599 H   0  0  0  0  0  0  0  0  0  0  0  0
  151.3333  144.3583  157.4680 H   0  0  0  0  0  0  0  0  0  0  0  0
  152.5136  145.9798  158.9322 H   0  0  0  0  0  0  0  0  0  0  0  0
  152.9658  144.6885  160.0424 H   0  0  0  0  0  0  0  0  0  0  0  0
  151.2717  145.1436  159.8601 H   0  0  0  0  0  0  0  0  0  0  0  0
  1  2  1  0  0  0  0
  1 25  1  0  0  0  0
  1 26  1  0  0  0  0
  1 27  1  0  0  0  0
  2  3  1  0  0  0  0
  2 28  1  0  0  0  0
  2 29  1  0  0  0  0
  3  4  1  0  0  0  0
  3 30  1  0  0  0  0
  3 31  1  0  0  0  0
  4  5  1  0  0  0  0
  4 32  1  0  0  0  0
  4 33  1  0  0  0  0
  5  6  1  0  0  0  0
  5 13  1  0  0  0  0
  6  7  2  0  0  0  0
  6  8  1  0  0  0  0
  8 12  1  0  0  0  0
  8  9  1  0  0  0  0
  8 34  1  0  0  0  0
  9 10  1  0  0  0  0
  9 35  1  0  0  0  0
  9 36  1  0  0  0  0
 10 11  1  0  0  0  0
 10 37  1  0  0  0  0
 10 38  1  0  0  0  0
 11 12  1  0  0  0  0
 11 39  1  0  0  0  0
 11 40  1  0  0  0  0
 13 23  1  0  0  0  0
 13 14  2  0  0  0  0
 14 15  1  0  0  0  0
 14 16  1  0  0  0  0
 15 41  1  0  0  0  0
 15 42  1  0  0  0  0
 16 17  1  0  0  0  0
 16 20  1  0  0  0  0
 17 18  1  0  0  0  0
 17 43  1  0  0  0  0
 17 44  1  0  0  0  0
 18 19  1  0  0  0  0
 18 45  1  0  0  0  0
 18 46  1  0  0  0  0
 19 47  1  0  0  0  0
 19 48  1  0  0  0  0
 19 49  1  0  0  0  0
 20 21  2  0  0  0  0
 20 22  1  0  0  0  0
 22 23  1  0  0  0  0
 23 24  2  0  0  0  0
M  CHG  1  22  -1
M  END
> <s_m_source_file>
AV-unprocessed.smi

> <i_m_source_file_index>
601

> <i_lp_mmshare_version>
43012

> <i_f3d_flags>
0

> <s_epik_input>
TzFbQ0gyXVtDSDJdW0NIMl1bQ0BIXTFDKD1PKU4oW0NIMl1bQ0gyXVtDSDJdW0NIM10pYzJjKFtOSDJdKW4oW0NIMl1bQ0gyXVtDSDNdKWMoPU8pW25IXWMyPU8=

> <s_epik_cmdline>
J2VwaWtfcHl0aG9uJywgJy1waCcsICc3LjAnLCAnLXRuJywgJzgnLCAnLW1hJywgJzIwMCcsICctbWV0YWxfYmluZGluZycsICctaW1hZScsICc8aW5maWxlLm1hZT4nLCAnLW9tYWUnLCAnPG91dGZpbGUubWFlPic=

> <r_lp_tautomer_probability>
1

> <r_epik_Ionization_Penalty>
5.90608

> <r_epik_Ionization_Penalty_Charging>
4.55687e-07

> <r_epik_Ionization_Penalty_Neutral>
5.90608

> <r_epik_State_Penalty>
5.90604

> <r_epik_Charging_Adjusted_Penalty>
5.90604

> <i_epik_Tot_Q>
-1

> <i_epik_Tot_abs_Q>
1

> <r_epik_Metal_State_Penalty>
1.84043

> <b_epik_Metal_Only>
1

> <s_lp_Force_Field>
OPLS_2005

> <r_lp_Energy>
51.8523

> <b_lp_Chiralities_Consistent>
1

> <s_lp_Variant>
AV-unprocessed.smi:601-3

> <Gold.Version>
5.8.1

> <Gold.Id.Protein>
6NUR|6NUR_protein|mol2

> <Gold.PLP.Fitness>
39.7782

> <Gold.PLP.PLP>
-37.6448

> <Gold.PLP.part.hbond>
-2.3751

> <Gold.PLP.part.metal>
0.0000

> <Gold.PLP.part.buried>
1.9384

> <Gold.PLP.part.nonpolar>
-38.1469

> <Gold.PLP.part.repulsive>
0.2053

> <Gold.PLP.ligand.clash>
0.0000

> <Gold.PLP.ligand.torsion>
1.3896

> <Gold.PLP.Chemscore.Hbond>
0.8800

> <Gold.PLP.Chemscore.CHOScore>
0.0000

> <Gold.PLP.Chemscore.Metal>
0.0000

> <Gold.Chemscore.Hbonds>
donor molecule, donor type, donor heavy atom, donor atom, acceptor molecule, acceptor atom, score
      L1  H    15    41       P1  8028  0.21
      P1  H  7997  8009       L1    21  0.93

> <Gold.PLP.Chemscore.Internal.Correction>
2.2727

> <Gold.Rescore>
     Score         DG    S(hbond)    S(metal)    S(lipo)     H(rot)  DE(clash)    DE(int)     intcor
      5.32     -14.11       0.87        0.00      90.83       1.92       1.81       6.98       ----

> <Gold.Chemscore.Fitness>
5.3167

> <Gold.Chemscore.DG>
-14.1081

> <Gold.Chemscore.ZeroCoef>
-5.4800

> <Gold.Chemscore.Hbond>
0.8731

> <Gold.Chemscore.Metal>
0.0000

> <Gold.Chemscore.Lipo>
90.8330

> <Gold.Chemscore.Internal_Hbond>
0.0000

> <Gold.Chemscore.DEClash>
1.8121

> <Gold.Chemscore.DEInternal>
6.9793

> <Gold.Chemscore.Rot>
1.9201

> <Gold.Chemscore.Internal.Correction>
   9.000000E+99

> <Gold.Chemscore.Hbonds>
donor molecule, donor type, donor heavy atom, donor atom, acceptor molecule, acceptor atom, score
      L1  H    15    41       P1  8028  0.10
      P1  H  7997  8009       L1    21  0.69

> <Gold.Chemscore.Hbond.Weighted>
-2.9160

> <Gold.Chemscore.Metal.Weighted>
-0.0000

> <Gold.Chemscore.Lipo.Weighted>
-10.6275

> <Gold.Chemscore.Internal_Hbond.Weighted>
0.0000

> <Gold.Chemscore.DEClash.Weighted>
1.8121

> <Gold.Chemscore.DEInternal.Weighted>
6.9793

> <Gold.Chemscore.Rot.Weighted>
4.9154

> <Gold.Chemscore.Internal.Correction.Weighted>
   9.000000E+99

> <Gold.Protein.RotatedTorsions>
[ 6907 6896 6895 6894 ] final -127.12 input  -60.11 | X-H torsion
[ 7974 7965 7964 7962 ] final  152.04 input  175.53 | X-H torsion
[ 8008 7997 7996 7995 ] final  159.53 input   59.86 | X-H torsion
[ 10167 10162 10161 10158 ] final  110.43 input  -65.29 | X-H torsion
[ 10718 10713 10712 10709 ] final   94.01 input   66.30 | X-H torsion
[ 10763 10752 10751 10750 ] final -148.84 input  -60.55 | X-H torsion
[ 11005 11000 10999 10996 ] final   55.28 input  -57.11 | X-H torsion

> <Gold.Protein.ActiveResidues>
 VAL166  LYS551  ARG553  GLY616  TRP617  ASP618  TYR619  PRO620  LYS621  CYS622 
 ASP623  PHE694  ASN695  SER759  ASP760  ASP761  ALA762  ILE779  LEU786  VAL792 
 PHE793  MET794  SER795  GLU796  ALA797  LYS798  CYS799  TRP800  GLU811  SER814 

> <Gold.Protein.RotatedAtoms>
  150.9040  133.7081  159.2871 H   0  0  0  0  0  0  0  0  0  0  0  0  # atno 6907 bound_to 6896
  151.4590  135.1035  159.9729 H   0  0  0  0  0  0  0  0  0  0  0  0  # atno 6908 bound_to 6896
  152.4893  133.8408  159.7207 H   0  0  0  0  0  0  0  0  0  0  0  0  # atno 6909 bound_to 6896
  144.8250  139.6616  143.6084 H   0  0  0  0  0  0  0  0  0  0  0  0  # atno 7974 bound_to 7965
  156.2232  140.1828  156.7426 H   0  0  0  0  0  0  0  0  0  0  0  0  # atno 8008 bound_to 7997
  154.5899  140.0652  156.9252 H   0  0  0  0  0  0  0  0  0  0  0  0  # atno 8009 bound_to 7997
  155.2354  140.3318  155.4301 H   0  0  0  0  0  0  0  0  0  0  0  0  # atno 8010 bound_to 7997
  139.6689  144.7126  151.1725 H   0  0  0  0  0  0  0  0  0  0  0  0  # atno 10167 bound_to 10162
  157.6951  131.0498  150.4122 H   0  0  0  0  0  0  0  0  0  0  0  0  # atno 10718 bound_to 10713
  154.8211  135.3324  154.7036 H   0  0  0  0  0  0  0  0  0  0  0  0  # atno 10763 bound_to 10752
  153.7669  135.6928  153.4918 H   0  0  0  0  0  0  0  0  0  0  0  0  # atno 10764 bound_to 10752
  153.2072  135.4495  155.0285 H   0  0  0  0  0  0  0  0  0  0  0  0  # atno 10765 bound_to 10752
  140.0619  134.5590  155.9142 H   0  0  0  0  0  0  0  0  0  0  0  0  # atno 11005 bound_to 11000
  146.2555  139.6294  142.9397 LP  0  0  0  0  0  0  0  0  0  0  0  0  # atno 17320 bound_to 7965
  145.5020  141.0437  143.2535 LP  0  0  0  0  0  0  0  0  0  0  0  0  # atno 17321 bound_to 7965
  140.7610  143.5875  150.8830 LP  0  0  0  0  0  0  0  0  0  0  0  0  # atno 17342 bound_to 10162
  139.9539  143.6240  152.3021 LP  0  0  0  0  0  0  0  0  0  0  0  0  # atno 17343 bound_to 10162
  156.4505  130.4010  149.6639 LP  0  0  0  0  0  0  0  0  0  0  0  0  # atno 17370 bound_to 10713
  156.3790  130.7569  151.2560 LP  0  0  0  0  0  0  0  0  0  0  0  0  # atno 17371 bound_to 10713
  141.1977  133.6597  156.5753 LP  0  0  0  0  0  0  0  0  0  0  0  0  # atno 17394 bound_to 11000
  140.3757  134.7567  157.4628 LP  0  0  0  0  0  0  0  0  0  0  0  0  # atno 17395 bound_to 11000

$$$$
