AV-unprocessed.smi:2564|AV-procd|sdf|10065|dock3
  -GOLD-   2272014103D 1   1.00000     0.00000
 Structure written by MMmdl.
 30 31  0  0  0  0  0  0  0  0  3 V2000
  152.3302  142.8341  159.5471 C   0  0  0  0  0  0  0  0  0  0  0  0
  152.0944  144.2161  159.6550 C   0  0  0  0  0  0  0  0  0  0  0  0
  151.3030  144.9008  158.7997 N   0  0  0  0  0  0  0  0  0  0  0  0
  150.7191  144.2157  157.8006 N   0  3  0  0  0  0  0  0  0  0  0  0
  150.8814  142.8825  157.6082 C   0  0  0  0  0  0  0  0  0  0  0  0
  150.2006  142.3230  156.5188 N   0  0  0  0  0  0  0  0  0  0  0  0
  150.3103  140.9013  156.2282 C   0  0  0  0  0  0  0  0  0  0  0  0
  149.5757  140.5295  154.9314 C   0  0  1  0  0  0  0  0  0  0  0  0
  149.8775  139.0800  154.4993 C   0  0  0  0  0  0  0  0  0  0  0  0
  149.0880  138.7284  153.3021 N   0  3  0  0  0  0  0  0  0  0  0  0
  147.6453  138.9521  153.5178 C   0  0  0  0  0  0  0  0  0  0  0  0
  147.4009  140.3943  153.9917 C   0  0  0  0  0  0  0  0  0  0  0  0
  148.1733  140.6479  155.1613 O   0  0  0  0  0  0  0  0  0  0  0  0
  151.7049  142.1474  158.4924 C   0  0  0  0  0  0  0  0  0  0  0  0
  152.9693  142.3205  160.2501 H   0  0  0  0  0  0  0  0  0  0  0  0
  152.5523  144.7893  160.4478 H   0  0  0  0  0  0  0  0  0  0  0  0
  149.4931  142.8629  156.0409 H   0  0  0  0  0  0  0  0  0  0  0  0
  151.3671  140.6495  156.1307 H   0  0  0  0  0  0  0  0  0  0  0  0
  149.9146  140.3222  157.0637 H   0  0  0  0  0  0  0  0  0  0  0  0
  149.8781  141.2157  154.1376 H   0  0  0  0  0  0  0  0  0  0  0  0
  150.9374  138.9562  154.2749 H   0  0  0  0  0  0  0  0  0  0  0  0
  149.6351  138.3832  155.3031 H   0  0  0  0  0  0  0  0  0  0  0  0
  149.3922  139.3071  152.5319 H   0  0  0  0  0  0  0  0  0  0  0  0
  147.1050  138.7538  152.5920 H   0  0  0  0  0  0  0  0  0  0  0  0
  147.2800  138.2435  154.2622 H   0  0  0  0  0  0  0  0  0  0  0  0
  147.6567  141.1117  153.2102 H   0  0  0  0  0  0  0  0  0  0  0  0
  146.3458  140.5399  154.2245 H   0  0  0  0  0  0  0  0  0  0  0  0
  151.8637  141.0856  158.3773 H   0  0  0  0  0  0  0  0  0  0  0  0
  149.2457  137.7586  153.0664 H   0  0  0  0  0  0  0  0  0  0  0  0
  150.1204  144.7269  157.1519 H   0  0  0  0  0  0  0  0  0  0  0  0
  1 14  1  0  0  0  0
  1  2  2  0  0  0  0
  1 15  1  0  0  0  0
  2  3  1  0  0  0  0
  2 16  1  0  0  0  0
  3  4  2  0  0  0  0
  4  5  1  0  0  0  0
  4 30  1  0  0  0  0
  5  6  1  0  0  0  0
  5 14  2  0  0  0  0
  6  7  1  0  0  0  0
  6 17  1  0  0  0  0
  7  8  1  0  0  0  0
  7 18  1  0  0  0  0
  7 19  1  0  0  0  0
  8 13  1  0  0  0  0
  8  9  1  0  0  0  0
  8 20  1  0  0  0  0
  9 10  1  0  0  0  0
  9 21  1  0  0  0  0
  9 22  1  0  0  0  0
 10 11  1  0  0  0  0
 10 23  1  0  0  0  0
 10 29  1  0  0  0  0
 11 12  1  0  0  0  0
 11 24  1  0  0  0  0
 11 25  1  0  0  0  0
 12 13  1  0  0  0  0
 12 26  1  0  0  0  0
 12 27  1  0  0  0  0
 14 28  1  0  0  0  0
M  CHG  1   4   1
M  CHG  1  10   1
M  END
> <s_m_source_file>
AV-unprocessed.smi

> <i_m_source_file_index>
2564

> <i_lp_mmshare_version>
43012

> <i_f3d_flags>
0

> <s_epik_input>
W2NIXTFbY0hdW2NIXW5uYzFbTkhdW0NIMl1bQ0BASF0yW0NIMl1bTkhdW0NIMl1bQ0gyXU8y

> <s_epik_cmdline>
J2VwaWtfcHl0aG9uJywgJy1waCcsICc3LjAnLCAnLXRuJywgJzgnLCAnLW1hJywgJzIwMCcsICctbWV0YWxfYmluZGluZycsICctaW1hZScsICc8aW5maWxlLm1hZT4nLCAnLW9tYWUnLCAnPG91dGZpbGUubWFlPic=

> <r_lp_tautomer_probability>
0.966961

> <r_epik_Ionization_Penalty>
2.43489

> <r_epik_Ionization_Penalty_Charging>
2.43489

> <r_epik_Ionization_Penalty_Neutral>
2.70443e-06

> <r_epik_State_Penalty>
1.93608

> <r_epik_Charging_Adjusted_Penalty>
4.37096

> <i_epik_Tot_Q>
2

> <i_epik_Tot_abs_Q>
2

> <r_epik_Metal_State_Penalty>
1.94389

> <b_epik_Metal_Only>
0

> <s_lp_Force_Field>
OPLS_2005

> <r_lp_Energy>
28.6288

> <b_lp_Chiralities_Consistent>
1

> <s_lp_Variant>
AV-unprocessed.smi:2564-4

> <Gold.Version>
5.8.1

> <Gold.Id.Protein>
6NUR|6NUR_protein|mol2

> <Gold.PLP.Fitness>
50.5132

> <Gold.PLP.PLP>
-30.0846

> <Gold.PLP.part.hbond>
-3.9712

> <Gold.PLP.part.metal>
0.0000

> <Gold.PLP.part.buried>
-5.4034

> <Gold.PLP.part.nonpolar>
-22.2310

> <Gold.PLP.part.repulsive>
0.3963

> <Gold.PLP.ligand.clash>
0.0000

> <Gold.PLP.ligand.torsion>
0.0567

> <Gold.PLP.Chemscore.Hbond>
6.8473

> <Gold.PLP.Chemscore.CHOScore>
0.0000

> <Gold.PLP.Chemscore.Metal>
0.0000

> <Gold.Chemscore.Hbonds>
donor molecule, donor type, donor heavy atom, donor atom, acceptor molecule, acceptor atom, score
      L1  H     4    30       P1  8028  2.00
      L1  H     6    17       P1  8028  1.73
      L1  H    10    23       P1  7957  1.00
      L1  H    10    29       P1  7948  1.98

> <Gold.PLP.Chemscore.Internal.Correction>
0.0003

> <Gold.Rescore>
     Score         DG    S(hbond)    S(metal)    S(lipo)     H(rot)  DE(clash)    DE(int)     intcor
     21.83     -22.02       3.63        0.00      67.31       1.35       0.10       0.08       ----

> <Gold.Chemscore.Fitness>
21.8336

> <Gold.Chemscore.DG>
-22.0175

> <Gold.Chemscore.ZeroCoef>
-5.4800

> <Gold.Chemscore.Hbond>
3.6260

> <Gold.Chemscore.Metal>
0.0000

> <Gold.Chemscore.Lipo>
67.3121

> <Gold.Chemscore.Internal_Hbond>
0.0000

> <Gold.Chemscore.DEClash>
0.1030

> <Gold.Chemscore.DEInternal>
0.0808

> <Gold.Chemscore.Rot>
1.3472

> <Gold.Chemscore.Internal.Correction>
   9.000000E+99

> <Gold.Chemscore.Hbonds>
donor molecule, donor type, donor heavy atom, donor atom, acceptor molecule, acceptor atom, score
      L1  H     4    30       P1  8028  0.29
      L1  H     6    17       P1  8028  0.82
      L1  H    10    23       P1  7957  0.96
      L1  H    10    29       P1  7948  0.92

> <Gold.Chemscore.Hbond.Weighted>
-12.1108

> <Gold.Chemscore.Metal.Weighted>
-0.0000

> <Gold.Chemscore.Lipo.Weighted>
-7.8755

> <Gold.Chemscore.Internal_Hbond.Weighted>
0.0000

> <Gold.Chemscore.DEClash.Weighted>
0.1030

> <Gold.Chemscore.DEInternal.Weighted>
0.0808

> <Gold.Chemscore.Rot.Weighted>
3.4489

> <Gold.Chemscore.Internal.Correction.Weighted>
   9.000000E+99

> <Gold.Protein.RotatedTorsions>
[ 6907 6896 6895 6894 ] final -144.70 input  -60.11 | X-H torsion
[ 7974 7965 7964 7962 ] final  -50.71 input  175.53 | X-H torsion
[ 8008 7997 7996 7995 ] final  126.20 input   59.86 | X-H torsion
[ 10167 10162 10161 10158 ] final -146.37 input  -65.29 | X-H torsion
[ 10718 10713 10712 10709 ] final -161.57 input   66.30 | X-H torsion
[ 10763 10752 10751 10750 ] final  -43.74 input  -60.55 | X-H torsion
[ 11005 11000 10999 10996 ] final  -17.65 input  -57.11 | X-H torsion

> <Gold.Protein.ActiveResidues>
 VAL166  LYS551  ARG553  GLY616  TRP617  ASP618  TYR619  PRO620  LYS621  CYS622 
 ASP623  PHE694  ASN695  SER759  ASP760  ASP761  ALA762  ILE779  LEU786  VAL792 
 PHE793  MET794  SER795  GLU796  ALA797  LYS798  CYS799  TRP800  GLU811  SER814 

> <Gold.Protein.RotatedAtoms>
  151.1177  133.5127  159.2603 H   0  0  0  0  0  0  0  0  0  0  0  0  # atno 6907 bound_to 6896
  151.1896  135.0396  159.8837 H   0  0  0  0  0  0  0  0  0  0  0  0  # atno 6908 bound_to 6896
  152.5454  134.1019  159.8375 H   0  0  0  0  0  0  0  0  0  0  0  0  # atno 6909 bound_to 6896
  145.9269  140.7784  142.9619 H   0  0  0  0  0  0  0  0  0  0  0  0  # atno 7974 bound_to 7965
  156.2857  140.2698  156.2073 H   0  0  0  0  0  0  0  0  0  0  0  0  # atno 8008 bound_to 7997
  155.0300  140.0386  157.2488 H   0  0  0  0  0  0  0  0  0  0  0  0  # atno 8009 bound_to 7997
  154.7362  140.2716  155.6418 H   0  0  0  0  0  0  0  0  0  0  0  0  # atno 8010 bound_to 7997
  139.7719  143.8225  152.2626 H   0  0  0  0  0  0  0  0  0  0  0  0  # atno 10167 bound_to 10162
  156.5981  130.8799  151.2907 H   0  0  0  0  0  0  0  0  0  0  0  0  # atno 10718 bound_to 10713
  154.0005  135.6694  153.4759 H   0  0  0  0  0  0  0  0  0  0  0  0  # atno 10763 bound_to 10752
  153.0664  135.4998  154.8206 H   0  0  0  0  0  0  0  0  0  0  0  0  # atno 10764 bound_to 10752
  154.7055  135.3087  154.9239 H   0  0  0  0  0  0  0  0  0  0  0  0  # atno 10765 bound_to 10752
  140.8189  133.8083  155.9639 H   0  0  0  0  0  0  0  0  0  0  0  0  # atno 11005 bound_to 11000
  144.6760  140.2065  143.7381 LP  0  0  0  0  0  0  0  0  0  0  0  0  # atno 17320 bound_to 7965
  145.8477  139.2160  143.1790 LP  0  0  0  0  0  0  0  0  0  0  0  0  # atno 17321 bound_to 7965
  139.8262  144.7274  150.9509 LP  0  0  0  0  0  0  0  0  0  0  0  0  # atno 17342 bound_to 10162
  140.7814  143.4112  151.0989 LP  0  0  0  0  0  0  0  0  0  0  0  0  # atno 17343 bound_to 10162
  157.7286  130.9660  150.1752 LP  0  0  0  0  0  0  0  0  0  0  0  0  # atno 17370 bound_to 10713
  156.2492  130.3699  149.8251 LP  0  0  0  0  0  0  0  0  0  0  0  0  # atno 17371 bound_to 10713
  140.9119  134.2249  157.4980 LP  0  0  0  0  0  0  0  0  0  0  0  0  # atno 17394 bound_to 11000
  139.8709  134.9754  156.4882 LP  0  0  0  0  0  0  0  0  0  0  0  0  # atno 17395 bound_to 11000

$$$$
