AV-unprocessed.smi:949|AV-procd|sdf|4244|dock2
  -GOLD-   22720 2153D 1   1.00000     0.00000
 Structure written by MMmdl.
 33 34  0  0  0  0  0  0  0  0  2 V2000
  147.7208  131.7105  152.9150 C   0  0  0  0  0  0  0  0  0  0  0  0
  147.7640  133.1787  153.3753 C   0  0  2  0  0  0  0  0  0  0  0  0
  147.3731  134.0673  152.2859 N   0  0  0  0  0  0  0  0  0  0  0  0
  146.0866  134.0703  151.7175 C   0  0  0  0  0  0  0  0  0  0  0  0
  145.3304  132.8847  151.5342 C   0  0  0  0  0  0  0  0  0  0  0  0
  144.0456  132.9576  150.9601 C   0  0  0  0  0  0  0  0  0  0  0  0
  143.5411  134.1521  150.5886 N   0  3  0  0  0  0  0  0  0  0  0  0
  144.2189  135.3086  150.7418 C   0  0  0  0  0  0  0  0  0  0  0  0
  145.5101  135.3025  151.3107 C   0  0  0  0  0  0  0  0  0  0  0  0
  146.1899  136.5140  151.4593 N   0  0  0  0  0  0  0  0  0  0  0  0
  149.1664  133.5560  153.8917 C   0  0  1  0  0  0  0  0  0  0  0  0
  149.1865  134.7398  154.8623 C   0  0  0  0  0  0  0  0  0  0  0  0
  150.4524  134.4770  155.6440 C   0  0  0  0  0  0  0  0  0  0  0  0
  150.4103  132.9603  155.7903 C   0  0  0  0  0  0  0  0  0  0  0  0
  149.7302  132.4762  154.6350 O   0  0  0  0  0  0  0  0  0  0  0  0
  147.9790  131.0338  153.7299 H   0  0  0  0  0  0  0  0  0  0  0  0
  148.4250  131.5308  152.1017 H   0  0  0  0  0  0  0  0  0  0  0  0
  146.7303  131.4248  152.5615 H   0  0  0  0  0  0  0  0  0  0  0  0
  147.0699  133.3110  154.2053 H   0  0  0  0  0  0  0  0  0  0  0  0
  148.0632  134.7154  151.9346 H   0  0  0  0  0  0  0  0  0  0  0  0
  145.7117  131.9168  151.8210 H   0  0  0  0  0  0  0  0  0  0  0  0
  143.4115  132.1001  150.7875 H   0  0  0  0  0  0  0  0  0  0  0  0
  143.7084  136.1994  150.4058 H   0  0  0  0  0  0  0  0  0  0  0  0
  147.1155  136.5563  151.8615 H   0  0  0  0  0  0  0  0  0  0  0  0
  145.7519  137.3958  151.2341 H   0  0  0  0  0  0  0  0  0  0  0  0
  149.8361  133.7677  153.0562 H   0  0  0  0  0  0  0  0  0  0  0  0
  149.1915  135.7056  154.3562 H   0  0  0  0  0  0  0  0  0  0  0  0
  148.3238  134.7073  155.5298 H   0  0  0  0  0  0  0  0  0  0  0  0
  151.3233  134.7761  155.0589 H   0  0  0  0  0  0  0  0  0  0  0  0
  150.4852  134.9982  156.6011 H   0  0  0  0  0  0  0  0  0  0  0  0
  151.4047  132.5229  155.8814 H   0  0  0  0  0  0  0  0  0  0  0  0
  149.8342  132.6791  156.6727 H   0  0  0  0  0  0  0  0  0  0  0  0
  142.6088  134.1827  150.1751 H   0  0  0  0  0  0  0  0  0  0  0  0
  1  2  1  0  0  0  0
  1 16  1  0  0  0  0
  1 17  1  0  0  0  0
  1 18  1  0  0  0  0
  2  3  1  0  0  0  0
  2 11  1  0  0  0  0
  2 19  1  0  0  0  0
  3  4  1  0  0  0  0
  3 20  1  0  0  0  0
  4  9  1  0  0  0  0
  4  5  2  0  0  0  0
  5  6  1  0  0  0  0
  5 21  1  0  0  0  0
  6  7  2  0  0  0  0
  6 22  1  0  0  0  0
  7  8  1  0  0  0  0
  7 33  1  0  0  0  0
  8  9  2  0  0  0  0
  8 23  1  0  0  0  0
  9 10  1  0  0  0  0
 10 24  1  0  0  0  0
 10 25  1  0  0  0  0
 11 15  1  0  0  0  0
 11 12  1  0  0  0  0
 11 26  1  0  0  0  0
 12 13  1  0  0  0  0
 12 27  1  0  0  0  0
 12 28  1  0  0  0  0
 13 14  1  0  0  0  0
 13 29  1  0  0  0  0
 13 30  1  0  0  0  0
 14 15  1  0  0  0  0
 14 31  1  0  0  0  0
 14 32  1  0  0  0  0
M  CHG  1   7   1
M  END
> <s_m_source_file>
AV-unprocessed.smi

> <i_m_source_file_index>
949

> <i_lp_mmshare_version>
43012

> <i_f3d_flags>
0

> <s_epik_input>
TzFbQ0gyXVtDSDJdW0NIMl1bQ0BIXTFbQ0BIXShbQ0gzXSlbTkhdYzJbY0hdW2NIXW5bY0hdYzJbTkgyXQ==

> <s_epik_cmdline>
J2VwaWtfcHl0aG9uJywgJy1waCcsICc3LjAnLCAnLXRuJywgJzgnLCAnLW1hJywgJzIwMCcsICctbWV0YWxfYmluZGluZycsICctaW1hZScsICc8aW5maWxlLm1hZT4nLCAnLW9tYWUnLCAnPG91dGZpbGUubWFlPic=

> <r_epik_Ionization_Penalty>
0.000849261

> <r_epik_Ionization_Penalty_Charging>
0.000847912

> <r_epik_Ionization_Penalty_Neutral>
1.34939e-06

> <r_epik_State_Penalty>
0.000546618

> <r_epik_Charging_Adjusted_Penalty>
0.00139453

> <i_epik_Tot_Q>
1

> <i_epik_Tot_abs_Q>
1

> <r_epik_Metal_State_Penalty>
0.526583

> <b_epik_Metal_Only>
0

> <s_lp_Force_Field>
OPLS_2005

> <r_lp_Energy>
29.4206

> <b_lp_Chiralities_Consistent>
1

> <s_lp_Variant>
AV-unprocessed.smi:949-3

> <Gold.Version>
5.8.1

> <Gold.Id.Protein>
6NUR|6NUR_protein|mol2

> <Gold.PLP.Fitness>
38.8039

> <Gold.PLP.PLP>
-28.5168

> <Gold.PLP.part.hbond>
-3.0000

> <Gold.PLP.part.metal>
0.0000

> <Gold.PLP.part.buried>
-3.5937

> <Gold.PLP.part.nonpolar>
-22.0199

> <Gold.PLP.part.repulsive>
0.1534

> <Gold.PLP.ligand.clash>
0.0031

> <Gold.PLP.ligand.torsion>
0.7137

> <Gold.PLP.Chemscore.Hbond>
3.9000

> <Gold.PLP.Chemscore.CHOScore>
0.0000

> <Gold.PLP.Chemscore.Metal>
0.0000

> <Gold.Chemscore.Hbonds>
donor molecule, donor type, donor heavy atom, donor atom, acceptor molecule, acceptor atom, score
      L1  H     3    20       P1  7948  0.90
      L1  H     7    33       P1 10186  2.00
      L1  H    10    24       P1  7948  1.00

> <Gold.PLP.Chemscore.Internal.Correction>
0.0177

> <Gold.Rescore>
     Score         DG    S(hbond)    S(metal)    S(lipo)     H(rot)  DE(clash)    DE(int)     intcor
     16.16     -17.85       2.53        0.00      60.54       1.23       0.04       1.65       ----

> <Gold.Chemscore.Fitness>
16.1632

> <Gold.Chemscore.DG>
-17.8516

> <Gold.Chemscore.ZeroCoef>
-5.4800

> <Gold.Chemscore.Hbond>
2.5298

> <Gold.Chemscore.Metal>
0.0000

> <Gold.Chemscore.Lipo>
60.5394

> <Gold.Chemscore.Internal_Hbond>
0.0000

> <Gold.Chemscore.DEClash>
0.0398

> <Gold.Chemscore.DEInternal>
1.6486

> <Gold.Chemscore.Rot>
1.2347

> <Gold.Chemscore.Internal.Correction>
   9.000000E+99

> <Gold.Chemscore.Hbonds>
donor molecule, donor type, donor heavy atom, donor atom, acceptor molecule, acceptor atom, score
      L1  H     3    20       P1  7948  0.18
      L1  H     7    33       P1 10186  0.93
      L1  H    10    24       P1  7948  0.96

> <Gold.Chemscore.Hbond.Weighted>
-8.4494

> <Gold.Chemscore.Metal.Weighted>
-0.0000

> <Gold.Chemscore.Lipo.Weighted>
-7.0831

> <Gold.Chemscore.Internal_Hbond.Weighted>
0.0000

> <Gold.Chemscore.DEClash.Weighted>
0.0398

> <Gold.Chemscore.DEInternal.Weighted>
1.6486

> <Gold.Chemscore.Rot.Weighted>
3.1609

> <Gold.Chemscore.Internal.Correction.Weighted>
   9.000000E+99

> <Gold.Protein.RotatedTorsions>
[ 6907 6896 6895 6894 ] final  137.67 input  -60.11 | X-H torsion
[ 7974 7965 7964 7962 ] final   90.38 input  175.53 | X-H torsion
[ 8008 7997 7996 7995 ] final -135.36 input   59.86 | X-H torsion
[ 10167 10162 10161 10158 ] final -109.30 input  -65.29 | X-H torsion
[ 10718 10713 10712 10709 ] final   -5.67 input   66.30 | X-H torsion
[ 10763 10752 10751 10750 ] final   99.20 input  -60.55 | X-H torsion
[ 11005 11000 10999 10996 ] final   57.67 input  -57.11 | X-H torsion

> <Gold.Protein.ActiveResidues>
 VAL166  LYS551  ARG553  GLY616  TRP617  ASP618  TYR619  PRO620  LYS621  CYS622 
 ASP623  PHE694  ASN695  SER759  ASP760  ASP761  ALA762  ILE779  LEU786  VAL792 
 PHE793  MET794  SER795  GLU796  ALA797  LYS798  CYS799  TRP800  GLU811  SER814 

> <Gold.Protein.RotatedAtoms>
  152.2755  133.5421  159.5464 H   0  0  0  0  0  0  0  0  0  0  0  0  # atno 6907 bound_to 6896
  150.7175  134.0638  159.3849 H   0  0  0  0  0  0  0  0  0  0  0  0  # atno 6908 bound_to 6896
  151.8551  135.0544  160.0514 H   0  0  0  0  0  0  0  0  0  0  0  0  # atno 6909 bound_to 6896
  145.5197  139.2279  143.2678 H   0  0  0  0  0  0  0  0  0  0  0  0  # atno 7974 bound_to 7965
  155.3774  140.0492  157.3044 H   0  0  0  0  0  0  0  0  0  0  0  0  # atno 8008 bound_to 7997
  154.5099  140.2188  155.9138 H   0  0  0  0  0  0  0  0  0  0  0  0  # atno 8009 bound_to 7997
  156.1571  140.3124  155.8749 H   0  0  0  0  0  0  0  0  0  0  0  0  # atno 8010 bound_to 7997
  140.1568  143.4153  152.1455 H   0  0  0  0  0  0  0  0  0  0  0  0  # atno 10167 bound_to 10162
  156.7432  130.5216  149.5819 H   0  0  0  0  0  0  0  0  0  0  0  0  # atno 10718 bound_to 10713
  153.2985  135.4121  155.1231 H   0  0  0  0  0  0  0  0  0  0  0  0  # atno 10763 bound_to 10752
  154.8542  135.3535  154.5884 H   0  0  0  0  0  0  0  0  0  0  0  0  # atno 10764 bound_to 10752
  153.6309  135.7061  153.5334 H   0  0  0  0  0  0  0  0  0  0  0  0  # atno 10765 bound_to 10752
  140.0435  134.5839  155.9352 H   0  0  0  0  0  0  0  0  0  0  0  0  # atno 11005 bound_to 11000
  146.2114  140.6008  142.9058 LP  0  0  0  0  0  0  0  0  0  0  0  0  # atno 17320 bound_to 7965
  144.7682  140.5579  143.6688 LP  0  0  0  0  0  0  0  0  0  0  0  0  # atno 17321 bound_to 7965
  139.5400  144.7247  151.4766 LP  0  0  0  0  0  0  0  0  0  0  0  0  # atno 17342 bound_to 10162
  140.6668  143.8380  150.6951 LP  0  0  0  0  0  0  0  0  0  0  0  0  # atno 17343 bound_to 10162
  156.1451  130.6271  151.0520 LP  0  0  0  0  0  0  0  0  0  0  0  0  # atno 17370 bound_to 10713
  157.6809  131.0838  150.7371 LP  0  0  0  0  0  0  0  0  0  0  0  0  # atno 17371 bound_to 10713
  141.1895  133.6565  156.5370 LP  0  0  0  0  0  0  0  0  0  0  0  0  # atno 17394 bound_to 11000
  140.4031  134.7339  157.4792 LP  0  0  0  0  0  0  0  0  0  0  0  0  # atno 17395 bound_to 11000

$$$$
