AV-unprocessed.smi:893|AV-procd|sdf|4071|dock5
  -GOLD-   22720 1553D 1   1.00000     0.00000
 Structure written by MMmdl.
 26 27  0  0  0  0  0  0  0  0  2 V2000
  148.9916  140.6799  154.2041 C   0  0  0  0  0  0  0  0  0  0  0  0
  149.7614  141.4250  155.3117 C   0  0  0  0  0  0  0  0  0  0  0  0
  150.8150  140.5978  156.0989 C   0  0  2  0  0  0  0  0  0  0  0  0
  151.3449  141.3979  157.2787 C   0  0  0  0  0  0  0  0  0  0  0  0
  151.0368  142.7469  157.6283 C   0  0  0  0  0  0  0  0  0  0  0  0
  151.6629  143.1617  158.7175 N   0  0  0  0  0  0  0  0  0  0  0  0
  152.3963  142.0992  159.1039 N   0  0  0  0  0  0  0  0  0  0  0  0
  153.2260  142.1953  160.2856 C   0  0  0  0  0  0  0  0  0  0  0  0
  152.2276  141.0258  158.2572 C   0  0  0  0  0  0  0  0  0  0  0  0
  151.8861  140.1596  155.2124 N   0  5  0  0  0  0  0  0  0  0  0  0
  151.9611  138.8079  155.2542 C   0  0  0  0  0  0  0  0  0  0  0  0
  152.7487  138.0798  154.6546 O   0  0  0  0  0  0  0  0  0  0  0  0
  151.0249  138.3076  156.0667 N   0  0  0  0  0  0  0  0  0  0  0  0
  150.2761  139.2652  156.6053 C   0  0  0  0  0  0  0  0  0  0  0  0
  149.3197  139.1216  157.3666 O   0  0  0  0  0  0  0  0  0  0  0  0
  148.2991  141.3542  153.7001 H   0  0  0  0  0  0  0  0  0  0  0  0
  148.4054  139.8526  154.6038 H   0  0  0  0  0  0  0  0  0  0  0  0
  149.6664  140.2802  153.4472 H   0  0  0  0  0  0  0  0  0  0  0  0
  150.2517  142.2929  154.8687 H   0  0  0  0  0  0  0  0  0  0  0  0
  149.0280  141.8298  156.0102 H   0  0  0  0  0  0  0  0  0  0  0  0
  150.3740  143.4331  157.1219 H   0  0  0  0  0  0  0  0  0  0  0  0
  153.7393  141.2491  160.4597 H   0  0  0  0  0  0  0  0  0  0  0  0
  152.6079  142.4278  161.1532 H   0  0  0  0  0  0  0  0  0  0  0  0
  153.9688  142.9823  160.1520 H   0  0  0  0  0  0  0  0  0  0  0  0
  152.7436  140.0904  158.4177 H   0  0  0  0  0  0  0  0  0  0  0  0
  150.8934  137.3219  156.2375 H   0  0  0  0  0  0  0  0  0  0  0  0
  1  2  1  0  0  0  0
  1 16  1  0  0  0  0
  1 17  1  0  0  0  0
  1 18  1  0  0  0  0
  2  3  1  0  0  0  0
  2 19  1  0  0  0  0
  2 20  1  0  0  0  0
  3 14  1  0  0  0  0
  3  4  1  0  0  0  0
  3 10  1  0  0  0  0
  4  9  2  0  0  0  0
  4  5  1  0  0  0  0
  5  6  2  0  0  0  0
  5 21  1  0  0  0  0
  6  7  1  0  0  0  0
  7  8  1  0  0  0  0
  7  9  1  0  0  0  0
  8 22  1  0  0  0  0
  8 23  1  0  0  0  0
  8 24  1  0  0  0  0
  9 25  1  0  0  0  0
 10 11  1  0  0  0  0
 11 12  2  0  0  0  0
 11 13  1  0  0  0  0
 13 14  1  0  0  0  0
 13 26  1  0  0  0  0
 14 15  2  0  0  0  0
M  CHG  1  10  -1
M  END
> <s_m_source_file>
AV-unprocessed.smi

> <i_m_source_file_index>
893

> <i_lp_mmshare_version>
43012

> <i_f3d_flags>
0

> <s_epik_input>
Tz1DMVtOSF1DKD1PKVtOSF1bQ0BAXTEoW0NIMl1bQ0gzXSljMltjSF1ubihbQ0gzXSlbY0hdMg==

> <s_epik_cmdline>
J2VwaWtfcHl0aG9uJywgJy1waCcsICc3LjAnLCAnLXRuJywgJzgnLCAnLW1hJywgJzIwMCcsICctbWV0YWxfYmluZGluZycsICctaW1hZScsICc8aW5maWxlLm1hZT4nLCAnLW9tYWUnLCAnPG91dGZpbGUubWFlPic=

> <r_lp_tautomer_probability>
1

> <r_epik_Ionization_Penalty>
4.97057

> <r_epik_Ionization_Penalty_Charging>
4.97009

> <r_epik_Ionization_Penalty_Neutral>
0.000472554

> <r_epik_State_Penalty>
4.98892

> <r_epik_Charging_Adjusted_Penalty>
9.95901

> <i_epik_Tot_Q>
-1

> <i_epik_Tot_abs_Q>
1

> <r_epik_Metal_State_Penalty>
1.41037

> <b_epik_Metal_Only>
1

> <s_lp_Force_Field>
OPLS_2005

> <r_lp_Energy>
9.72866

> <b_lp_Chiralities_Consistent>
1

> <s_lp_Variant>
AV-unprocessed.smi:893-6

> <Gold.Version>
5.8.1

> <Gold.Id.Protein>
6NUR|6NUR_protein|mol2

> <Gold.PLP.Fitness>
33.8199

> <Gold.PLP.PLP>
-28.5098

> <Gold.PLP.part.hbond>
-1.8216

> <Gold.PLP.part.metal>
0.0000

> <Gold.PLP.part.buried>
-4.3416

> <Gold.PLP.part.nonpolar>
-23.0662

> <Gold.PLP.part.repulsive>
0.1568

> <Gold.PLP.ligand.clash>
0.0000

> <Gold.PLP.ligand.torsion>
0.1368

> <Gold.PLP.Chemscore.Hbond>
0.8320

> <Gold.PLP.Chemscore.CHOScore>
1.0000

> <Gold.PLP.Chemscore.Metal>
0.0000

> <Gold.Chemscore.Hbonds>
donor molecule, donor type, donor heavy atom, donor atom, acceptor molecule, acceptor atom, score
      P1  H  7989  7998       L1    10  0.83
      L1  C     5    21       P1  8028  1.00

> <Gold.PLP.Chemscore.Internal.Correction>
0.0876

> <Gold.Rescore>
     Score         DG    S(hbond)    S(metal)    S(lipo)     H(rot)  DE(clash)    DE(int)     intcor
     11.70     -11.84       1.04        0.00      52.62       1.28       0.00       0.13       ----

> <Gold.Chemscore.Fitness>
11.7035

> <Gold.Chemscore.DG>
-11.8405

> <Gold.Chemscore.ZeroCoef>
-5.4800

> <Gold.Chemscore.Hbond>
1.0426

> <Gold.Chemscore.Metal>
0.0000

> <Gold.Chemscore.Lipo>
52.6185

> <Gold.Chemscore.Internal_Hbond>
0.0000

> <Gold.Chemscore.DEClash>
0.0048

> <Gold.Chemscore.DEInternal>
0.1323

> <Gold.Chemscore.Rot>
1.2805

> <Gold.Chemscore.Internal.Correction>
   9.000000E+99

> <Gold.Chemscore.Hbonds>
donor molecule, donor type, donor heavy atom, donor atom, acceptor molecule, acceptor atom, score
      P1  H  7989  7998       L1    10  0.59

> <Gold.Chemscore.Hbond.Weighted>
-3.4823

> <Gold.Chemscore.Metal.Weighted>
-0.0000

> <Gold.Chemscore.Lipo.Weighted>
-6.1564

> <Gold.Chemscore.Internal_Hbond.Weighted>
0.0000

> <Gold.Chemscore.DEClash.Weighted>
0.0048

> <Gold.Chemscore.DEInternal.Weighted>
0.1323

> <Gold.Chemscore.Rot.Weighted>
3.2782

> <Gold.Chemscore.Internal.Correction.Weighted>
   9.000000E+99

> <Gold.Protein.RotatedTorsions>
[ 6907 6896 6895 6894 ] final -102.95 input  -60.11 | X-H torsion
[ 7974 7965 7964 7962 ] final   -1.45 input  175.53 | X-H torsion
[ 8008 7997 7996 7995 ] final   99.22 input   59.86 | X-H torsion
[ 10167 10162 10161 10158 ] final   70.59 input  -65.29 | X-H torsion
[ 10718 10713 10712 10709 ] final  153.09 input   66.30 | X-H torsion
[ 10763 10752 10751 10750 ] final  116.40 input  -60.55 | X-H torsion
[ 11005 11000 10999 10996 ] final -174.56 input  -57.11 | X-H torsion

> <Gold.Protein.ActiveResidues>
 VAL166  LYS551  ARG553  GLY616  TRP617  ASP618  TYR619  PRO620  LYS621  CYS622 
 ASP623  PHE694  ASN695  SER759  ASP760  ASP761  ALA762  ILE779  LEU786  VAL792 
 PHE793  MET794  SER795  GLU796  ALA797  LYS798  CYS799  TRP800  GLU811  SER814 

> <Gold.Protein.RotatedAtoms>
  150.7218  134.0504  159.3795 H   0  0  0  0  0  0  0  0  0  0  0  0  # atno 6907 bound_to 6896
  151.8480  135.0565  160.0465 H   0  0  0  0  0  0  0  0  0  0  0  0  # atno 6908 bound_to 6896
  152.2812  133.5436  159.5535 H   0  0  0  0  0  0  0  0  0  0  0  0  # atno 6909 bound_to 6896
  146.2417  140.1422  142.8335 H   0  0  0  0  0  0  0  0  0  0  0  0  # atno 7974 bound_to 7965
  156.1083  140.3232  155.8037 H   0  0  0  0  0  0  0  0  0  0  0  0  # atno 8008 bound_to 7997
  155.4717  140.0547  157.2996 H   0  0  0  0  0  0  0  0  0  0  0  0  # atno 8009 bound_to 7997
  154.4743  140.2025  155.9932 H   0  0  0  0  0  0  0  0  0  0  0  0  # atno 8010 bound_to 7997
  140.0553  144.5278  150.7333 H   0  0  0  0  0  0  0  0  0  0  0  0  # atno 10167 bound_to 10162
  157.2493  131.0775  151.1741 H   0  0  0  0  0  0  0  0  0  0  0  0  # atno 10718 bound_to 10713
  153.5366  135.3567  155.2700 H   0  0  0  0  0  0  0  0  0  0  0  0  # atno 10763 bound_to 10752
  154.8721  135.4081  154.3091 H   0  0  0  0  0  0  0  0  0  0  0  0  # atno 10764 bound_to 10752
  153.3790  135.7067  153.6648 H   0  0  0  0  0  0  0  0  0  0  0  0  # atno 10765 bound_to 10752
  140.4731  134.6146  157.4890 H   0  0  0  0  0  0  0  0  0  0  0  0  # atno 11005 bound_to 11000
  145.0237  140.8815  143.5151 LP  0  0  0  0  0  0  0  0  0  0  0  0  # atno 17320 bound_to 7965
  145.1474  139.2535  143.5458 LP  0  0  0  0  0  0  0  0  0  0  0  0  # atno 17321 bound_to 7965
  140.7197  143.2577  151.4317 LP  0  0  0  0  0  0  0  0  0  0  0  0  # atno 17342 bound_to 10162
  139.5927  144.1463  152.2108 LP  0  0  0  0  0  0  0  0  0  0  0  0  # atno 17343 bound_to 10162
  157.3295  130.6978  149.6316 LP  0  0  0  0  0  0  0  0  0  0  0  0  # atno 17370 bound_to 10713
  155.9667  130.4311  150.4908 LP  0  0  0  0  0  0  0  0  0  0  0  0  # atno 17371 bound_to 10713
  139.9872  134.7042  155.9752 LP  0  0  0  0  0  0  0  0  0  0  0  0  # atno 17394 bound_to 11000
  141.1567  133.6542  156.4185 LP  0  0  0  0  0  0  0  0  0  0  0  0  # atno 17395 bound_to 11000

$$$$
