AV-unprocessed.smi:2364|AV-procd|sdf|9418|dock2
  -GOLD-   2272013 53D 1   1.00000     0.00000
 Structure written by MMmdl.
 46 47  0  0  0  0  0  0  0  0  1 V2000
  152.3352  143.6205  161.3564 C   0  0  0  0  0  0  0  0  0  0  0  0
  151.4388  143.2300  160.1674 C   0  0  0  0  0  0  0  0  0  0  0  0
  151.3833  144.2458  158.9906 C   0  0  2  0  0  0  0  0  0  0  0  0
  152.8188  144.5471  158.5062 C   0  0  0  0  0  0  0  0  0  0  0  0
  150.7225  145.5583  159.4927 C   0  0  0  0  0  0  0  0  0  0  0  0
  151.6023  146.3364  160.2813 O   0  0  0  0  0  0  0  0  0  0  0  0
  150.6379  143.6954  157.8482 N   0  0  0  0  0  0  0  0  0  0  0  0
  150.4696  142.4077  157.5013 C   0  0  0  0  0  0  0  0  0  0  0  0
  150.9551  141.4588  158.1178 O   0  0  0  0  0  0  0  0  0  0  0  0
  149.7073  142.3040  156.3986 N   0  0  0  0  0  0  0  0  0  0  0  0
  149.3142  141.1268  155.7097 C   0  0  0  0  0  0  0  0  0  0  0  0
  148.4737  141.2304  154.6416 N   0  0  0  0  0  0  0  0  0  0  0  0
  148.3885  139.9470  154.3167 C   0  0  0  0  0  0  0  0  0  0  0  0
  149.0720  139.1246  155.1235 N   0  0  0  0  0  0  0  0  0  0  0  0
  149.3017  137.6783  155.0480 C   0  0  0  0  0  0  0  0  0  0  0  0
  148.6831  136.9210  156.2465 C   0  0  0  0  0  0  0  0  0  0  0  0
  149.4031  137.2465  157.5687 C   0  0  0  0  0  0  0  0  0  0  0  0
  150.9056  136.9349  157.4715 C   0  0  0  0  0  0  0  0  0  0  0  0
  151.5531  137.6392  156.2673 C   0  0  0  0  0  0  0  0  0  0  0  0
  150.8040  137.3087  154.9627 C   0  0  0  0  0  0  0  0  0  0  0  0
  149.7287  139.8985  156.0243 N   0  0  0  0  0  0  0  0  0  0  0  0
  152.3264  142.8345  162.1115 H   0  0  0  0  0  0  0  0  0  0  0  0
  151.9937  144.5349  161.8402 H   0  0  0  0  0  0  0  0  0  0  0  0
  153.3720  143.7654  161.0536 H   0  0  0  0  0  0  0  0  0  0  0  0
  151.7721  142.2592  159.8000 H   0  0  0  0  0  0  0  0  0  0  0  0
  150.4277  143.0584  160.5389 H   0  0  0  0  0  0  0  0  0  0  0  0
  153.4334  144.9490  159.3123 H   0  0  0  0  0  0  0  0  0  0  0  0
  152.8278  145.2763  157.6955 H   0  0  0  0  0  0  0  0  0  0  0  0
  153.3166  143.6549  158.1272 H   0  0  0  0  0  0  0  0  0  0  0  0
  150.3676  146.1711  158.6641 H   0  0  0  0  0  0  0  0  0  0  0  0
  149.8446  145.3281  160.0971 H   0  0  0  0  0  0  0  0  0  0  0  0
  152.1363  146.8614  159.7050 H   0  0  0  0  0  0  0  0  0  0  0  0
  150.1846  144.3817  157.2631 H   0  0  0  0  0  0  0  0  0  0  0  0
  149.3701  143.1689  156.0030 H   0  0  0  0  0  0  0  0  0  0  0  0
  147.8125  139.6071  153.4693 H   0  0  0  0  0  0  0  0  0  0  0  0
  148.8121  137.3362  154.1355 H   0  0  0  0  0  0  0  0  0  0  0  0
  147.6178  137.1331  156.3343 H   0  0  0  0  0  0  0  0  0  0  0  0
  148.7508  135.8479  156.0624 H   0  0  0  0  0  0  0  0  0  0  0  0
  149.2628  138.2974  157.8234 H   0  0  0  0  0  0  0  0  0  0  0  0
  148.9595  136.6727  158.3826 H   0  0  0  0  0  0  0  0  0  0  0  0
  151.4083  137.2328  158.3919 H   0  0  0  0  0  0  0  0  0  0  0  0
  151.0458  135.8573  157.3786 H   0  0  0  0  0  0  0  0  0  0  0  0
  151.5592  138.7172  156.4318 H   0  0  0  0  0  0  0  0  0  0  0  0
  152.5972  137.3374  156.1809 H   0  0  0  0  0  0  0  0  0  0  0  0
  150.8971  136.2405  154.7622 H   0  0  0  0  0  0  0  0  0  0  0  0
  151.2840  137.8042  154.1183 H   0  0  0  0  0  0  0  0  0  0  0  0
  1  2  1  0  0  0  0
  1 22  1  0  0  0  0
  1 23  1  0  0  0  0
  1 24  1  0  0  0  0
  2  3  1  0  0  0  0
  2 25  1  0  0  0  0
  2 26  1  0  0  0  0
  3  4  1  0  0  0  0
  3  5  1  0  0  0  0
  3  7  1  0  0  0  0
  4 27  1  0  0  0  0
  4 28  1  0  0  0  0
  4 29  1  0  0  0  0
  5  6  1  0  0  0  0
  5 30  1  0  0  0  0
  5 31  1  0  0  0  0
  6 32  1  0  0  0  0
  7  8  1  0  0  0  0
  7 33  1  0  0  0  0
  8  9  2  0  0  0  0
  8 10  1  0  0  0  0
 10 11  1  0  0  0  0
 10 34  1  0  0  0  0
 11 21  2  0  0  0  0
 11 12  1  0  0  0  0
 12 13  2  0  0  0  0
 13 14  1  0  0  0  0
 13 35  1  0  0  0  0
 14 15  1  0  0  0  0
 14 21  1  0  0  0  0
 15 20  1  0  0  0  0
 15 16  1  0  0  0  0
 15 36  1  0  0  0  0
 16 17  1  0  0  0  0
 16 37  1  0  0  0  0
 16 38  1  0  0  0  0
 17 18  1  0  0  0  0
 17 39  1  0  0  0  0
 17 40  1  0  0  0  0
 18 19  1  0  0  0  0
 18 41  1  0  0  0  0
 18 42  1  0  0  0  0
 19 20  1  0  0  0  0
 19 43  1  0  0  0  0
 19 44  1  0  0  0  0
 20 45  1  0  0  0  0
 20 46  1  0  0  0  0
M  END
> <s_m_source_file>
AV-unprocessed.smi

> <i_m_source_file_index>
2364

> <i_lp_mmshare_version>
43012

> <i_f3d_flags>
0

> <s_epik_input>
W0NIM11bQ0gyXVtDQEBdKFtDSDNdKShbQ0gyXVtPSF0pW05IXUMoPU8pW05IXWMxbltjSF1uKG4xKVtDSF0yW0NIMl1bQ0gyXVtDSDJdW0NIMl1bQ0gyXTI=

> <s_epik_cmdline>
J2VwaWtfcHl0aG9uJywgJy1waCcsICc3LjAnLCAnLXRuJywgJzgnLCAnLW1hJywgJzIwMCcsICctbWV0YWxfYmluZGluZycsICctaW1hZScsICc8aW5maWxlLm1hZT4nLCAnLW9tYWUnLCAnPG91dGZpbGUubWFlPic=

> <r_lp_tautomer_probability>
1

> <r_epik_Ionization_Penalty>
9.31261e-05

> <r_epik_Ionization_Penalty_Charging>
0

> <r_epik_Ionization_Penalty_Neutral>
9.31261e-05

> <r_epik_State_Penalty>
-0

> <r_epik_Charging_Adjusted_Penalty>
0

> <i_epik_Tot_Q>
0

> <i_epik_Tot_abs_Q>
0

> <r_epik_Metal_State_Penalty>
-0

> <b_epik_Metal_Only>
0

> <s_lp_Force_Field>
OPLS_2005

> <r_lp_Energy>
24.8913

> <b_lp_Chiralities_Consistent>
1

> <s_lp_Variant>
AV-unprocessed.smi:2364-2

> <Gold.Version>
5.8.1

> <Gold.Id.Protein>
6NUR|6NUR_protein|mol2

> <Gold.PLP.Fitness>
47.3949

> <Gold.PLP.PLP>
-40.6886

> <Gold.PLP.part.hbond>
-5.5940

> <Gold.PLP.part.metal>
0.0000

> <Gold.PLP.part.buried>
-2.0198

> <Gold.PLP.part.nonpolar>
-34.4051

> <Gold.PLP.part.repulsive>
0.3325

> <Gold.PLP.ligand.clash>
0.0000

> <Gold.PLP.ligand.torsion>
0.9125

> <Gold.PLP.Chemscore.Hbond>
2.1394

> <Gold.PLP.Chemscore.CHOScore>
0.6698

> <Gold.PLP.Chemscore.Metal>
0.0000

> <Gold.Chemscore.Hbonds>
donor molecule, donor type, donor heavy atom, donor atom, acceptor molecule, acceptor atom, score
      L1  H     7    33       P1  8028  0.89
      L1  H    10    34       P1  8028  1.00

> <Gold.PLP.Chemscore.Internal.Correction>
0.1035

> <Gold.Rescore>
     Score         DG    S(hbond)    S(metal)    S(lipo)     H(rot)  DE(clash)    DE(int)     intcor
      8.92     -15.41       1.55        0.00      91.64       2.34       1.18       5.31       ----

> <Gold.Chemscore.Fitness>
8.9246

> <Gold.Chemscore.DG>
-15.4092

> <Gold.Chemscore.ZeroCoef>
-5.4800

> <Gold.Chemscore.Hbond>
1.5528

> <Gold.Chemscore.Metal>
0.0000

> <Gold.Chemscore.Lipo>
91.6362

> <Gold.Chemscore.Internal_Hbond>
0.0000

> <Gold.Chemscore.DEClash>
1.1761

> <Gold.Chemscore.DEInternal>
5.3086

> <Gold.Chemscore.Rot>
2.3354

> <Gold.Chemscore.Internal.Correction>
   9.000000E+99

> <Gold.Chemscore.Hbonds>
donor molecule, donor type, donor heavy atom, donor atom, acceptor molecule, acceptor atom, score
      L1  H     7    33       P1  8028  0.49
      L1  H    10    34       P1  8028  1.00

> <Gold.Chemscore.Hbond.Weighted>
-5.1865

> <Gold.Chemscore.Metal.Weighted>
-0.0000

> <Gold.Chemscore.Lipo.Weighted>
-10.7214

> <Gold.Chemscore.Internal_Hbond.Weighted>
0.0000

> <Gold.Chemscore.DEClash.Weighted>
1.1761

> <Gold.Chemscore.DEInternal.Weighted>
5.3086

> <Gold.Chemscore.Rot.Weighted>
5.9787

> <Gold.Chemscore.Internal.Correction.Weighted>
   9.000000E+99

> <Gold.Protein.RotatedTorsions>
[ 6907 6896 6895 6894 ] final -119.69 input  -60.11 | X-H torsion
[ 7974 7965 7964 7962 ] final  -58.37 input  175.53 | X-H torsion
[ 8008 7997 7996 7995 ] final  134.49 input   59.86 | X-H torsion
[ 10167 10162 10161 10158 ] final -162.63 input  -65.29 | X-H torsion
[ 10718 10713 10712 10709 ] final   75.89 input   66.30 | X-H torsion
[ 10763 10752 10751 10750 ] final   17.81 input  -60.55 | X-H torsion
[ 11005 11000 10999 10996 ] final -109.31 input  -57.11 | X-H torsion

> <Gold.Protein.ActiveResidues>
 VAL166  LYS551  ARG553  GLY616  TRP617  ASP618  TYR619  PRO620  LYS621  CYS622 
 ASP623  PHE694  ASN695  SER759  ASP760  ASP761  ALA762  ILE779  LEU786  VAL792 
 PHE793  MET794  SER795  GLU796  ALA797  LYS798  CYS799  TRP800  GLU811  SER814 

> <Gold.Protein.RotatedAtoms>
  150.8327  133.8064  159.3091 H   0  0  0  0  0  0  0  0  0  0  0  0  # atno 6907 bound_to 6896
  151.5790  135.1057  160.0022 H   0  0  0  0  0  0  0  0  0  0  0  0  # atno 6908 bound_to 6896
  152.4404  133.7396  159.6689 H   0  0  0  0  0  0  0  0  0  0  0  0  # atno 6909 bound_to 6896
  145.8401  140.8423  143.0039 H   0  0  0  0  0  0  0  0  0  0  0  0  # atno 7974 bound_to 7965
  156.2999  140.2495  156.3425 H   0  0  0  0  0  0  0  0  0  0  0  0  # atno 8008 bound_to 7997
  154.9041  140.0405  157.1929 H   0  0  0  0  0  0  0  0  0  0  0  0  # atno 8009 bound_to 7997
  154.8471  140.2900  155.5626 H   0  0  0  0  0  0  0  0  0  0  0  0  # atno 8010 bound_to 7997
  139.6379  144.0316  152.2068 H   0  0  0  0  0  0  0  0  0  0  0  0  # atno 10167 bound_to 10162
  157.6652  130.9748  150.1419 H   0  0  0  0  0  0  0  0  0  0  0  0  # atno 10718 bound_to 10713
  153.1305  135.6739  153.9185 H   0  0  0  0  0  0  0  0  0  0  0  0  # atno 10763 bound_to 10752
  153.8673  135.3074  155.3442 H   0  0  0  0  0  0  0  0  0  0  0  0  # atno 10764 bound_to 10752
  154.7703  135.4942  153.9717 H   0  0  0  0  0  0  0  0  0  0  0  0  # atno 10765 bound_to 10752
  141.0854  133.9147  157.2196 H   0  0  0  0  0  0  0  0  0  0  0  0  # atno 11005 bound_to 11000
  144.6734  140.0799  143.7469 LP  0  0  0  0  0  0  0  0  0  0  0  0  # atno 17320 bound_to 7965
  145.9475  139.2710  143.1232 LP  0  0  0  0  0  0  0  0  0  0  0  0  # atno 17321 bound_to 7965
  139.9998  144.6302  150.7740 LP  0  0  0  0  0  0  0  0  0  0  0  0  # atno 17342 bound_to 10162
  140.7475  143.2907  151.3338 LP  0  0  0  0  0  0  0  0  0  0  0  0  # atno 17343 bound_to 10162
  156.2239  130.3676  149.8523 LP  0  0  0  0  0  0  0  0  0  0  0  0  # atno 17370 bound_to 10713
  156.6368  130.8688  151.3506 LP  0  0  0  0  0  0  0  0  0  0  0  0  # atno 17371 bound_to 10713
  139.9672  135.0138  156.9418 LP  0  0  0  0  0  0  0  0  0  0  0  0  # atno 17394 bound_to 11000
  140.5374  134.0753  155.7332 LP  0  0  0  0  0  0  0  0  0  0  0  0  # atno 17395 bound_to 11000

$$$$
