#       Name:                AV-unprocessed.smi:72
#       Creating user name   scv26
#       Creation time:       Thu Mar 26 17:03:18 2020


#       File generated by GOLD software.
#

@<TRIPOS>MOLECULE
AV-unprocessed.smi:72
    41    42     1
SMALL
NO_CHARGES


@<TRIPOS>ATOM
      1 ****        -5.0563  -0.2151  -0.0276 N.pl3          1 S1                 0.0000
      2 ****        -3.7173  -0.5431  -0.0743 C.2            1 S1                 0.0000
      3 ****        -2.8076   0.4892  -0.2205 N.pl3          1 S1                 1.0000
      4 ****        -1.4778   0.3393  -0.2935 C.2            1 S1                 0.0000
      5 ****        -0.9672  -0.8732  -0.2362 N.am           1 S1                 0.0000
      6 ****         0.5188  -1.0851  -0.3203 C.3            1 S1                 0.0000
      7 ****         1.0473  -0.0613  -1.1073 O.3            1 S1                 0.0000
      8 ****         2.1938   0.4979  -0.4751 C.3            1 S1                 0.0000
      9 ****         2.3948   1.9478  -0.9421 C.3            1 S1                 0.0000
     10 ****         3.0517   1.9656  -2.1909 O.3            1 S1                 0.0000
     11 ****         1.8414   0.3737   1.0075 C.3            1 S1                 0.0000
     12 ****         2.9703   0.4704   1.8549 O.3            1 S1                 0.0000
     13 ****         1.1502  -0.9841   1.0764 C.3            1 S1                 0.0000
     14 ****         2.0584  -2.0468   1.2985 O.3            1 S1                 0.0000
     15 ****        -1.8175  -1.9935  -0.0542 C.2            1 S1                 0.0000
     16 ****        -1.3470  -3.1258   0.0458 O.2            1 S1                 0.0000
     17 ****        -3.1949  -1.7356   0.0093 N.2            1 S1                 0.0000
     18 ****         0.6754  -2.0435  -0.8188 H              1 S1                 0.0000
     19 ****         3.0678  -0.1172  -0.6995 H              1 S1                 0.0000
     20 ****         1.1267   1.1518   1.2797 H              1 S1                 0.0000
     21 ****         0.3902  -1.0121   1.8587 H              1 S1                 0.0000
     22 ****        -5.7907  -0.9009   0.0808 H              1 S1                 0.0000
     23 ****        -5.4097   0.7280  -0.1037 H              1 S1                 0.0000
     24 ****        -0.8445   1.2121  -0.3926 H              1 S1                 0.0000
     25 ****         1.4465   2.4821  -1.0035 H              1 S1                 0.0000
     26 ****         3.0254   2.4861  -0.2339 H              1 S1                 0.0000
     27 ****         3.2019   2.8648  -2.4405 H              1 S1                 0.0000
     28 ****         2.6988   0.2935   2.7430 H              1 S1                 0.0000
     29 ****         2.7507  -1.9914   0.6571 H              1 S1                 0.0000
     30 ****        -3.1789   1.4269  -0.2779 H              1 S1                 0.0000
     31 ****         0.3567   0.6514  -1.2307 LP             1 S1                 0.0000
     32 ****         1.3082  -0.4306  -1.9992 LP             1 S1                 0.0000
     33 ****         2.4809   1.5162  -2.8781 LP             1 S1                 0.0000
     34 ****         3.9260   1.4857  -2.1183 LP             1 S1                 0.0000
     35 ****         3.3558   1.3913   1.7980 LP             1 S1                 0.0000
     36 ****         3.6597  -0.1975   1.5745 LP             1 S1                 0.0000
     37 ****         1.5825  -2.9215   1.2058 LP             1 S1                 0.0000
     38 ****         2.4445  -1.9733   2.2180 LP             1 S1                 0.0000
     39 ****        -0.3575  -3.2620  -0.0010 LP             1 S1                 0.0000
     40 ****        -1.9542  -3.9100   0.1740 LP             1 S1                 0.0000
     41 ****        -3.8136  -2.5126   0.1257 LP             1 S1                 0.0000
@<TRIPOS>BOND
    1    1    2 1     
    2    1   22 1     
    3    1   23 1     
    4    2   17 2     
    5    2    3 1     
    6    3    4 2     
    7    3   30 1     
    8    4    5 1     
    9    4   24 1     
   10    5    6 1     
   11    5   15 am    
   12    6   18 1     
   13    6   13 1     
   14    6    7 1     
   15    7    8 1     
   16    8   19 1     
   17    8    9 1     
   18    8   11 1     
   19    9   10 1     
   20    9   25 1     
   21    9   26 1     
   22   10   27 1     
   23   11   20 1     
   24   11   12 1     
   25   11   13 1     
   26   12   28 1     
   27   13   21 1     
   28   13   14 1     
   29   14   29 1     
   30   15   16 2     
   31   15   17 1     
   32    7   31 1     
   33    7   32 1     
   34   10   33 1     
   35   10   34 1     
   36   12   35 1     
   37   12   36 1     
   38   14   37 1     
   39   14   38 1     
   40   16   39 1     
   41   16   40 1     
   42   17   41 1     
@<TRIPOS>SUBSTRUCTURE
      1 S1             1
@<TRIPOS>SET
LONE_PAIRS      STATIC     ATOMS    <user>   **** ""
11 31 32 33 34 35 36 37 38 39 40 41
DONOR_HYDROGENS      STATIC     ATOMS    <user>   **** ""
6 22 23 30 27 28 29
ATOM$BLUE        STATIC     ATOMS    COLORGROUP SYSTEM
11 31 32 33 34 35 36 37 38 39 40 41
ATOM$RED        STATIC     ATOMS    COLORGROUP SYSTEM
6 22 23 30 27 28 29
