AV-unprocessed.smi:886|AV-procd|sdf|4050|dock5
  -GOLD-   22720 1533D 1   1.00000     0.00000
 Structure written by MMmdl.
 35 37  0  0  0  0  0  0  0  0  1 V2000
  149.5231  138.5482  157.9809 C   0  0  0  0  0  0  0  0  0  0  0  0
  150.7839  138.8882  158.6220 N   0  0  0  0  0  0  0  0  0  0  0  0
  151.6436  137.9863  159.1201 C   0  0  0  0  0  0  0  0  0  0  0  0
  151.4381  136.7723  159.0960 O   0  0  0  0  0  0  0  0  0  0  0  0
  152.8841  138.5623  159.7538 C   0  0  0  0  0  0  0  0  0  0  0  0
  153.7713  137.7076  160.4497 C   0  0  0  0  0  0  0  0  0  0  0  0
  154.9129  138.2457  161.0696 C   0  0  0  0  0  0  0  0  0  0  0  0
  155.1278  139.6314  160.9778 C   0  0  0  0  0  0  0  0  0  0  0  0
  154.2934  140.4638  160.3235 N   0  0  0  0  0  0  0  0  0  0  0  0
  153.1899  139.9540  159.7229 C   0  0  0  0  0  0  0  0  0  0  0  0
  152.3625  140.8592  159.0335 N   0  0  0  0  0  0  0  0  0  0  0  0
  152.6592  142.2877  159.0216 C   0  0  2  0  0  0  0  0  0  0  0  0
  152.8172  142.8783  160.4290 C   0  0  0  0  0  0  0  0  0  0  0  0
  151.7669  143.9959  160.4249 C   0  0  1  0  0  0  0  0  0  0  0  0
  152.1525  145.1532  159.4936 C   0  0  0  0  0  0  0  0  0  0  0  0
  151.9197  144.5351  158.1153 C   0  0  0  0  0  0  0  0  0  0  0  0
  151.4789  143.1103  158.4778 C   0  0  2  0  0  0  0  0  0  0  0  0
  150.7465  143.3752  159.6637 O   0  0  0  0  0  0  0  0  0  0  0  0
  149.0041  139.4568  157.6760 H   0  0  0  0  0  0  0  0  0  0  0  0
  148.8751  137.9989  158.6651 H   0  0  0  0  0  0  0  0  0  0  0  0
  149.6915  137.9368  157.0933 H   0  0  0  0  0  0  0  0  0  0  0  0
  151.0171  139.8680  158.6946 H   0  0  0  0  0  0  0  0  0  0  0  0
  153.5816  136.6463  160.5197 H   0  0  0  0  0  0  0  0  0  0  0  0
  155.6035  137.6125  161.6064 H   0  0  0  0  0  0  0  0  0  0  0  0
  155.9912  140.0841  161.4421 H   0  0  0  0  0  0  0  0  0  0  0  0
  151.3996  140.5907  158.8867 H   0  0  0  0  0  0  0  0  0  0  0  0
  153.5438  142.4682  158.4093 H   0  0  0  0  0  0  0  0  0  0  0  0
  152.5815  142.1460  161.2028 H   0  0  0  0  0  0  0  0  0  0  0  0
  153.8241  143.2530  160.6149 H   0  0  0  0  0  0  0  0  0  0  0  0
  151.4546  144.3126  161.4203 H   0  0  0  0  0  0  0  0  0  0  0  0
  151.4945  146.0097  159.6444 H   0  0  0  0  0  0  0  0  0  0  0  0
  153.1818  145.4798  159.6443 H   0  0  0  0  0  0  0  0  0  0  0  0
  151.1234  145.0637  157.5901 H   0  0  0  0  0  0  0  0  0  0  0  0
  152.8110  144.5498  157.4871 H   0  0  0  0  0  0  0  0  0  0  0  0
  150.9082  142.6176  157.6895 H   0  0  0  0  0  0  0  0  0  0  0  0
  1  2  1  0  0  0  0
  1 19  1  0  0  0  0
  1 20  1  0  0  0  0
  1 21  1  0  0  0  0
  2  3  1  0  0  0  0
  2 22  1  0  0  0  0
  3  4  2  0  0  0  0
  3  5  1  0  0  0  0
  5 10  1  0  0  0  0
  5  6  2  0  0  0  0
  6  7  1  0  0  0  0
  6 23  1  0  0  0  0
  7  8  2  0  0  0  0
  7 24  1  0  0  0  0
  8  9  1  0  0  0  0
  8 25  1  0  0  0  0
  9 10  2  0  0  0  0
 10 11  1  0  0  0  0
 11 12  1  0  0  0  0
 11 26  1  0  0  0  0
 12 17  1  0  0  0  0
 12 13  1  0  0  0  0
 12 27  1  0  0  0  0
 13 14  1  0  0  0  0
 13 28  1  0  0  0  0
 13 29  1  0  0  0  0
 14 18  1  0  0  0  0
 14 15  1  0  0  0  0
 14 30  1  0  0  0  0
 15 16  1  0  0  0  0
 15 31  1  0  0  0  0
 15 32  1  0  0  0  0
 16 17  1  0  0  0  0
 16 33  1  0  0  0  0
 16 34  1  0  0  0  0
 17 18  1  0  0  0  0
 17 35  1  0  0  0  0
M  END
> <s_m_source_file>
AV-unprocessed.smi

> <i_m_source_file_index>
886

> <i_lp_mmshare_version>
43012

> <i_f3d_flags>
0

> <s_epik_input>
W0NIM11bTkhdQyg9TyljMVtjSF1bY0hdW2NIXW5jMVtOSF1bQ0BIXShbQ0gyXVtDQEhdMjMpW0NASF0oTzMpW0NIMl1bQ0gyXTI=

> <s_epik_cmdline>
J2VwaWtfcHl0aG9uJywgJy1waCcsICc3LjAnLCAnLXRuJywgJzgnLCAnLW1hJywgJzIwMCcsICctbWV0YWxfYmluZGluZycsICctaW1hZScsICc8aW5maWxlLm1hZT4nLCAnLW9tYWUnLCAnPG91dGZpbGUubWFlPic=

> <r_lp_tautomer_probability>
1

> <r_epik_Ionization_Penalty>
0.0065447

> <r_epik_Ionization_Penalty_Charging>
0

> <r_epik_Ionization_Penalty_Neutral>
0.0065447

> <r_epik_State_Penalty>
0.00484214

> <r_epik_Charging_Adjusted_Penalty>
0.00484214

> <i_epik_Tot_Q>
0

> <i_epik_Tot_abs_Q>
0

> <r_epik_Metal_State_Penalty>
-0

> <b_epik_Metal_Only>
0

> <s_lp_Force_Field>
OPLS_2005

> <r_lp_Energy>
46.3803

> <b_lp_Chiralities_Consistent>
1

> <s_lp_Variant>
AV-unprocessed.smi:886-3

> <Gold.Version>
5.8.1

> <Gold.Id.Protein>
6NUR|6NUR_protein|mol2

> <Gold.PLP.Fitness>
38.9740

> <Gold.PLP.PLP>
-36.1535

> <Gold.PLP.part.hbond>
-1.0292

> <Gold.PLP.part.metal>
0.0000

> <Gold.PLP.part.buried>
-5.7384

> <Gold.PLP.part.nonpolar>
-29.6361

> <Gold.PLP.part.repulsive>
0.3279

> <Gold.PLP.ligand.clash>
0.0000

> <Gold.PLP.ligand.torsion>
0.1014

> <Gold.PLP.Chemscore.Hbond>
1.0000

> <Gold.PLP.Chemscore.CHOScore>
0.0000

> <Gold.PLP.Chemscore.Metal>
0.0000

> <Gold.Chemscore.Hbonds>
donor molecule, donor type, donor heavy atom, donor atom, acceptor molecule, acceptor atom, score
      P1  H  6896  6908       L1     4  1.00

> <Gold.PLP.Chemscore.Internal.Correction>
0.0234

> <Gold.Rescore>
     Score         DG    S(hbond)    S(metal)    S(lipo)     H(rot)  DE(clash)    DE(int)     intcor
     15.44     -18.65       1.00        0.00     106.03       1.00       0.02       3.19       ----

> <Gold.Chemscore.Fitness>
15.4394

> <Gold.Chemscore.DG>
-18.6503

> <Gold.Chemscore.ZeroCoef>
-5.4800

> <Gold.Chemscore.Hbond>
0.9953

> <Gold.Chemscore.Metal>
0.0000

> <Gold.Chemscore.Lipo>
106.0328

> <Gold.Chemscore.Internal_Hbond>
0.0000

> <Gold.Chemscore.DEClash>
0.0244

> <Gold.Chemscore.DEInternal>
3.1864

> <Gold.Chemscore.Rot>
1.0000

> <Gold.Chemscore.Internal.Correction>
   9.000000E+99

> <Gold.Chemscore.Hbonds>
donor molecule, donor type, donor heavy atom, donor atom, acceptor molecule, acceptor atom, score
      P1  H  6896  6908       L1     4  0.96

> <Gold.Chemscore.Hbond.Weighted>
-3.3244

> <Gold.Chemscore.Metal.Weighted>
-0.0000

> <Gold.Chemscore.Lipo.Weighted>
-12.4058

> <Gold.Chemscore.Internal_Hbond.Weighted>
0.0000

> <Gold.Chemscore.DEClash.Weighted>
0.0244

> <Gold.Chemscore.DEInternal.Weighted>
3.1864

> <Gold.Chemscore.Rot.Weighted>
2.5600

> <Gold.Chemscore.Internal.Correction.Weighted>
   9.000000E+99

> <Gold.Protein.RotatedTorsions>
[ 6907 6896 6895 6894 ] final -130.91 input  -60.11 | X-H torsion
[ 7974 7965 7964 7962 ] final -120.97 input  175.53 | X-H torsion
[ 8008 7997 7996 7995 ] final   75.46 input   59.86 | X-H torsion
[ 10167 10162 10161 10158 ] final  -86.86 input  -65.29 | X-H torsion
[ 10718 10713 10712 10709 ] final  157.05 input   66.30 | X-H torsion
[ 10763 10752 10751 10750 ] final  103.84 input  -60.55 | X-H torsion
[ 11005 11000 10999 10996 ] final  162.86 input  -57.11 | X-H torsion

> <Gold.Protein.ActiveResidues>
 VAL166  LYS551  ARG553  GLY616  TRP617  ASP618  TYR619  PRO620  LYS621  CYS622 
 ASP623  PHE694  ASN695  SER759  ASP760  ASP761  ALA762  ILE779  LEU786  VAL792 
 PHE793  MET794  SER795  GLU796  ALA797  LYS798  CYS799  TRP800  GLU811  SER814 

> <Gold.Protein.RotatedAtoms>
  150.9451  133.6613  159.2782 H   0  0  0  0  0  0  0  0  0  0  0  0  # atno 6907 bound_to 6896
  151.3988  135.0966  159.9559 H   0  0  0  0  0  0  0  0  0  0  0  0  # atno 6908 bound_to 6896
  152.5086  133.8949  159.7467 H   0  0  0  0  0  0  0  0  0  0  0  0  # atno 6909 bound_to 6896
  145.0454  140.8177  143.4241 H   0  0  0  0  0  0  0  0  0  0  0  0  # atno 7974 bound_to 7965
  155.8133  140.3472  155.5470 H   0  0  0  0  0  0  0  0  0  0  0  0  # atno 8008 bound_to 7997
  155.8418  140.0943  157.1750 H   0  0  0  0  0  0  0  0  0  0  0  0  # atno 8009 bound_to 7997
  154.4005  140.1393  156.3725 H   0  0  0  0  0  0  0  0  0  0  0  0  # atno 8010 bound_to 7997
  140.3901  143.2709  151.9276 H   0  0  0  0  0  0  0  0  0  0  0  0  # atno 10167 bound_to 10162
  157.1967  131.0667  151.2048 H   0  0  0  0  0  0  0  0  0  0  0  0  # atno 10718 bound_to 10713
  153.3580  135.3963  155.1696 H   0  0  0  0  0  0  0  0  0  0  0  0  # atno 10763 bound_to 10752
  154.8674  135.3672  154.5136 H   0  0  0  0  0  0  0  0  0  0  0  0  # atno 10764 bound_to 10752
  153.5593  135.7081  153.5615 H   0  0  0  0  0  0  0  0  0  0  0  0  # atno 10765 bound_to 10752
  140.2300  134.8131  157.3307 H   0  0  0  0  0  0  0  0  0  0  0  0  # atno 11005 bound_to 11000
  145.1594  139.2467  143.5399 LP  0  0  0  0  0  0  0  0  0  0  0  0  # atno 17320 bound_to 7965
  146.3513  140.1317  142.8597 LP  0  0  0  0  0  0  0  0  0  0  0  0  # atno 17321 bound_to 7965
  139.4789  144.5736  151.8048 LP  0  0  0  0  0  0  0  0  0  0  0  0  # atno 17342 bound_to 10162
  140.4849  144.1396  150.5939 LP  0  0  0  0  0  0  0  0  0  0  0  0  # atno 17343 bound_to 10162
  157.3807  130.7230  149.6628 LP  0  0  0  0  0  0  0  0  0  0  0  0  # atno 17370 bound_to 10713
  155.9705  130.4173  150.4273 LP  0  0  0  0  0  0  0  0  0  0  0  0  # atno 17371 bound_to 10713
  140.1760  134.4549  155.7801 LP  0  0  0  0  0  0  0  0  0  0  0  0  # atno 17394 bound_to 11000
  141.2218  133.6962  156.7788 LP  0  0  0  0  0  0  0  0  0  0  0  0  # atno 17395 bound_to 11000

$$$$
