AV-unprocessed.smi:3134|AV-procd|sdf|11942|dock1
  -GOLD-   2272017333D 1   1.00000     0.00000
 Structure written by MMmdl.
 37 37  0  0  0  0  0  0  0  0  2 V2000
  149.5633  140.2948  154.8695 C   0  0  0  0  0  0  0  0  0  0  0  0
  149.4558  138.7618  154.9041 C   0  0  0  0  0  0  0  0  0  0  0  0
  150.7767  138.0911  154.5049 C   0  0  0  0  0  0  0  0  0  0  0  0
  148.3909  138.3054  154.0155 N   0  0  0  0  0  0  0  0  0  0  0  0
  147.1125  138.7102  154.0683 C   0  0  0  0  0  0  0  0  0  0  0  0
  146.6916  139.5143  154.9011 O   0  0  0  0  0  0  0  0  0  0  0  0
  146.1597  138.1132  153.0232 C   0  0  1  0  0  0  0  0  0  0  0  0
  146.5587  138.5855  151.6170 C   0  0  0  0  0  0  0  0  0  0  0  0
  146.1738  136.6350  153.0804 N   0  3  0  0  0  0  0  0  0  0  0  0
  145.1199  135.9695  152.2833 C   0  0  0  0  0  0  0  0  0  0  0  0
  145.6740  135.4631  150.9418 C   0  0  0  0  0  0  0  0  0  0  0  0
  145.4071  134.0495  150.7366 N   0  0  0  0  0  0  0  0  0  0  0  0
  144.1933  133.4250  150.5398 C   0  0  0  0  0  0  0  0  0  0  0  0
  144.4420  132.0904  150.3924 C   0  0  0  0  0  0  0  0  0  0  0  0
  145.8548  131.9920  150.5281 C   0  0  0  0  0  0  0  0  0  0  0  0
  146.4283  133.1651  150.7412 N   0  0  0  0  0  0  0  0  0  0  0  0
  150.3536  140.6457  155.5338 H   0  0  0  0  0  0  0  0  0  0  0  0
  148.6339  140.7662  155.1910 H   0  0  0  0  0  0  0  0  0  0  0  0
  149.7894  140.6551  153.8654 H   0  0  0  0  0  0  0  0  0  0  0  0
  149.2239  138.4536  155.9252 H   0  0  0  0  0  0  0  0  0  0  0  0
  151.5845  138.3901  155.1734 H   0  0  0  0  0  0  0  0  0  0  0  0
  151.0695  138.3601  153.4894 H   0  0  0  0  0  0  0  0  0  0  0  0
  150.6963  137.0045  154.5527 H   0  0  0  0  0  0  0  0  0  0  0  0
  148.6500  137.6369  153.3043 H   0  0  0  0  0  0  0  0  0  0  0  0
  145.1424  138.4555  153.2223 H   0  0  0  0  0  0  0  0  0  0  0  0
  146.5320  139.6735  151.5421 H   0  0  0  0  0  0  0  0  0  0  0  0
  145.8758  138.1914  150.8638 H   0  0  0  0  0  0  0  0  0  0  0  0
  147.5658  138.2586  151.3538 H   0  0  0  0  0  0  0  0  0  0  0  0
  147.0697  136.3020  152.7548 H   0  0  0  0  0  0  0  0  0  0  0  0
  144.6898  135.1352  152.8391 H   0  0  0  0  0  0  0  0  0  0  0  0
  144.3090  136.6787  152.1140 H   0  0  0  0  0  0  0  0  0  0  0  0
  145.2239  136.0173  150.1174 H   0  0  0  0  0  0  0  0  0  0  0  0
  146.7502  135.6321  150.8850 H   0  0  0  0  0  0  0  0  0  0  0  0
  143.2637  133.9746  150.5161 H   0  0  0  0  0  0  0  0  0  0  0  0
  143.7239  131.3032  150.2171 H   0  0  0  0  0  0  0  0  0  0  0  0
  146.4760  131.1096  150.4802 H   0  0  0  0  0  0  0  0  0  0  0  0
  146.0619  136.3698  154.0490 H   0  0  0  0  0  0  0  0  0  0  0  0
  1  2  1  0  0  0  0
  1 17  1  0  0  0  0
  1 18  1  0  0  0  0
  1 19  1  0  0  0  0
  2  3  1  0  0  0  0
  2  4  1  0  0  0  0
  2 20  1  0  0  0  0
  3 21  1  0  0  0  0
  3 22  1  0  0  0  0
  3 23  1  0  0  0  0
  4  5  1  0  0  0  0
  4 24  1  0  0  0  0
  5  6  2  0  0  0  0
  5  7  1  0  0  0  0
  7  8  1  0  0  0  0
  7  9  1  0  0  0  0
  7 25  1  0  0  0  0
  8 26  1  0  0  0  0
  8 27  1  0  0  0  0
  8 28  1  0  0  0  0
  9 10  1  0  0  0  0
  9 29  1  0  0  0  0
  9 37  1  0  0  0  0
 10 11  1  0  0  0  0
 10 30  1  0  0  0  0
 10 31  1  0  0  0  0
 11 12  1  0  0  0  0
 11 32  1  0  0  0  0
 11 33  1  0  0  0  0
 12 16  1  0  0  0  0
 12 13  1  0  0  0  0
 13 14  2  0  0  0  0
 13 34  1  0  0  0  0
 14 15  1  0  0  0  0
 14 35  1  0  0  0  0
 15 16  2  0  0  0  0
 15 36  1  0  0  0  0
M  CHG  1   9   1
M  END
> <s_m_source_file>
AV-unprocessed.smi

> <i_m_source_file_index>
3134

> <i_lp_mmshare_version>
43012

> <i_f3d_flags>
0

> <s_epik_input>
W0NIM11bQ0hdKFtDSDNdKVtOSF1DKD1PKVtDQEhdKFtDSDNdKVtOSF1bQ0gyXVtDSDJdbjFbY0hdW2NIXVtjSF1uMQ==

> <s_epik_cmdline>
J2VwaWtfcHl0aG9uJywgJy1waCcsICc3LjAnLCAnLXRuJywgJzgnLCAnLW1hJywgJzIwMCcsICctbWV0YWxfYmluZGluZycsICctaW1hZScsICc8aW5maWxlLm1hZT4nLCAnLW9tYWUnLCAnPG91dGZpbGUubWFlPic=

> <r_lp_tautomer_probability>
1

> <r_epik_Ionization_Penalty>
0.20398

> <r_epik_Ionization_Penalty_Charging>
0.203977

> <r_epik_Ionization_Penalty_Neutral>
3.23345e-06

> <r_epik_State_Penalty>
0.193898

> <r_epik_Charging_Adjusted_Penalty>
0.397875

> <i_epik_Tot_Q>
1

> <i_epik_Tot_abs_Q>
1

> <r_epik_Metal_State_Penalty>
0.194184

> <b_epik_Metal_Only>
0

> <s_lp_Force_Field>
OPLS_2005

> <r_lp_Energy>
4.47428

> <b_lp_Chiralities_Consistent>
1

> <s_lp_Variant>
AV-unprocessed.smi:3134-2

> <Gold.Version>
5.8.1

> <Gold.Id.Protein>
6NUR|6NUR_protein|mol2

> <Gold.PLP.Fitness>
45.6783

> <Gold.PLP.PLP>
-32.0956

> <Gold.PLP.part.hbond>
-2.0000

> <Gold.PLP.part.metal>
0.0000

> <Gold.PLP.part.buried>
-3.5446

> <Gold.PLP.part.nonpolar>
-27.5176

> <Gold.PLP.part.repulsive>
0.2996

> <Gold.PLP.ligand.clash>
0.0000

> <Gold.PLP.ligand.torsion>
0.8089

> <Gold.PLP.Chemscore.Hbond>
3.0000

> <Gold.PLP.Chemscore.CHOScore>
1.9961

> <Gold.PLP.Chemscore.Metal>
0.0000

> <Gold.Chemscore.Hbonds>
donor molecule, donor type, donor heavy atom, donor atom, acceptor molecule, acceptor atom, score
      L1  H     4    24       P1  7948  1.00
      L1  H     9    29       P1  7948  1.76
      L1  C    13    34       P1 10186  1.00
      L1  C    15    36       P1 10747  1.00

> <Gold.PLP.Chemscore.Internal.Correction>
0.2122

> <Gold.Rescore>
     Score         DG    S(hbond)    S(metal)    S(lipo)     H(rot)  DE(clash)    DE(int)     intcor
     13.91     -15.58       1.99        0.00      76.10       2.13       0.25       1.42       ----

> <Gold.Chemscore.Fitness>
13.9087

> <Gold.Chemscore.DG>
-15.5804

> <Gold.Chemscore.ZeroCoef>
-5.4800

> <Gold.Chemscore.Hbond>
1.9936

> <Gold.Chemscore.Metal>
0.0000

> <Gold.Chemscore.Lipo>
76.0978

> <Gold.Chemscore.Internal_Hbond>
0.0000

> <Gold.Chemscore.DEClash>
0.2548

> <Gold.Chemscore.DEInternal>
1.4168

> <Gold.Chemscore.Rot>
2.1334

> <Gold.Chemscore.Internal.Correction>
   9.000000E+99

> <Gold.Chemscore.Hbonds>
donor molecule, donor type, donor heavy atom, donor atom, acceptor molecule, acceptor atom, score
      L1  H     4    24       P1  7948  0.94
      L1  H     9    29       P1  7948  0.85

> <Gold.Chemscore.Hbond.Weighted>
-6.6585

> <Gold.Chemscore.Metal.Weighted>
-0.0000

> <Gold.Chemscore.Lipo.Weighted>
-8.9034

> <Gold.Chemscore.Internal_Hbond.Weighted>
0.0000

> <Gold.Chemscore.DEClash.Weighted>
0.2548

> <Gold.Chemscore.DEInternal.Weighted>
1.4168

> <Gold.Chemscore.Rot.Weighted>
5.4615

> <Gold.Chemscore.Internal.Correction.Weighted>
   9.000000E+99

> <Gold.Protein.RotatedTorsions>
[ 6907 6896 6895 6894 ] final -138.87 input  -60.11 | X-H torsion
[ 7974 7965 7964 7962 ] final  -17.03 input  175.53 | X-H torsion
[ 8008 7997 7996 7995 ] final -155.58 input   59.86 | X-H torsion
[ 10167 10162 10161 10158 ] final  -26.71 input  -65.29 | X-H torsion
[ 10718 10713 10712 10709 ] final -115.63 input   66.30 | X-H torsion
[ 10763 10752 10751 10750 ] final  151.36 input  -60.55 | X-H torsion
[ 11005 11000 10999 10996 ] final  102.77 input  -57.11 | X-H torsion

> <Gold.Protein.ActiveResidues>
 VAL166  LYS551  ARG553  GLY616  TRP617  ASP618  TYR619  PRO620  LYS621  CYS622 
 ASP623  PHE694  ASN695  SER759  ASP760  ASP761  ALA762  ILE779  LEU786  VAL792 
 PHE793  MET794  SER795  GLU796  ALA797  LYS798  CYS799  TRP800  GLU811  SER814 

> <Gold.Protein.RotatedAtoms>
  151.0406  133.5710  159.2651 H   0  0  0  0  0  0  0  0  0  0  0  0  # atno 6907 bound_to 6896
  151.2757  135.0698  159.9160 H   0  0  0  0  0  0  0  0  0  0  0  0  # atno 6908 bound_to 6896
  152.5363  134.0129  159.8000 H   0  0  0  0  0  0  0  0  0  0  0  0  # atno 6909 bound_to 6896
  146.1960  140.3722  142.8440 H   0  0  0  0  0  0  0  0  0  0  0  0  # atno 7974 bound_to 7965
  155.7040  140.0770  157.2399 H   0  0  0  0  0  0  0  0  0  0  0  0  # atno 8008 bound_to 7997
  154.4068  140.1642  156.2275 H   0  0  0  0  0  0  0  0  0  0  0  0  # atno 8009 bound_to 7997
  155.9342  140.3389  155.6277 H   0  0  0  0  0  0  0  0  0  0  0  0  # atno 8010 bound_to 7997
  140.7281  143.4155  151.1035 H   0  0  0  0  0  0  0  0  0  0  0  0  # atno 10167 bound_to 10162
  156.0908  130.6091  150.8930 H   0  0  0  0  0  0  0  0  0  0  0  0  # atno 10718 bound_to 10713
  154.1026  135.2844  155.3248 H   0  0  0  0  0  0  0  0  0  0  0  0  # atno 10763 bound_to 10752
  154.6545  135.5357  153.7945 H   0  0  0  0  0  0  0  0  0  0  0  0  # atno 10764 bound_to 10752
  153.0373  135.6518  154.1189 H   0  0  0  0  0  0  0  0  0  0  0  0  # atno 10765 bound_to 10752
  139.8779  134.9237  156.5108 H   0  0  0  0  0  0  0  0  0  0  0  0  # atno 11005 bound_to 11000
  144.8581  140.7100  143.6125 LP  0  0  0  0  0  0  0  0  0  0  0  0  # atno 17320 bound_to 7965
  145.3642  139.1674  143.4367 LP  0  0  0  0  0  0  0  0  0  0  0  0  # atno 17321 bound_to 7965
  139.7794  143.8377  152.3135 LP  0  0  0  0  0  0  0  0  0  0  0  0  # atno 17342 bound_to 10162
  139.8323  144.7248  150.9434 LP  0  0  0  0  0  0  0  0  0  0  0  0  # atno 17343 bound_to 10162
  157.6057  131.0939  150.8884 LP  0  0  0  0  0  0  0  0  0  0  0  0  # atno 17370 bound_to 10713
  156.9033  130.5254  149.5282 LP  0  0  0  0  0  0  0  0  0  0  0  0  # atno 17371 bound_to 10713
  140.8521  133.8124  155.9179 LP  0  0  0  0  0  0  0  0  0  0  0  0  # atno 17394 bound_to 11000
  140.9133  134.2233  157.4972 LP  0  0  0  0  0  0  0  0  0  0  0  0  # atno 17395 bound_to 11000

$$$$
