AV-unprocessed.smi:113|AV-procd|sdf|1098|dock4
  -GOLD-   2262018203D 1   1.00000     0.00000
 Structure written by MMmdl.
 52 55  0  0  0  0  0  0  0  0  1 V2000
  154.7252  139.4981  160.9778 C   0  0  0  0  0  0  0  0  0  0  0  0
  153.6840  140.1469  160.0898 C   0  0  0  0  0  0  0  0  0  0  0  0
  153.1595  139.4621  158.9792 C   0  0  0  0  0  0  0  0  0  0  0  0
  152.1893  140.1023  158.1747 C   0  0  0  0  0  0  0  0  0  0  0  0
  151.5796  139.3983  156.9574 C   0  0  0  0  0  0  0  0  0  0  0  0
  151.1478  138.0197  157.1405 N   0  0  0  0  0  0  0  0  0  0  0  0
  151.6524  137.0464  156.2444 C   0  0  0  0  0  0  0  0  0  0  0  0
  152.4297  137.3478  155.3361 O   0  0  0  0  0  0  0  0  0  0  0  0
  151.1686  135.6824  156.4699 C   0  0  0  0  0  0  0  0  0  0  0  0
  151.6684  134.5832  155.5456 C   0  0  0  0  0  0  0  0  0  0  0  0
  150.2976  135.4346  157.4775 C   0  0  0  0  0  0  0  0  0  0  0  0
  149.8122  136.4086  158.3360 N   0  0  0  0  0  0  0  0  0  0  0  0
  148.8259  136.0862  159.4421 C   0  0  1  0  0  0  0  0  0  0  0  0
  148.3453  134.6393  159.3292 C   0  0  0  0  0  0  0  0  0  0  0  0
  149.3555  133.9152  160.1945 C   0  0  2  0  0  0  0  0  0  0  0  0
  148.8529  132.6757  160.6521 O   0  0  0  0  0  0  0  0  0  0  0  0
  149.6581  134.9432  161.3001 C   0  0  2  0  0  0  0  0  0  0  0  0
  148.7429  134.8857  162.5401 C   0  0  0  0  0  0  0  0  0  0  0  0
  148.9255  133.6734  163.2415 O   0  0  0  0  0  0  0  0  0  0  0  0
  149.4491  136.2187  160.6869 O   0  0  0  0  0  0  0  0  0  0  0  0
  150.2215  137.7485  158.1723 C   0  0  0  0  0  0  0  0  0  0  0  0
  149.7701  138.6409  158.8944 O   0  0  0  0  0  0  0  0  0  0  0  0
  151.7951  141.4209  158.5298 C   0  0  0  0  0  0  0  0  0  0  0  0
  150.8326  142.1338  157.7743 C   0  0  0  0  0  0  0  0  0  0  0  0
  150.4550  143.4373  158.1431 C   0  0  0  0  0  0  0  0  0  0  0  0
  151.0356  144.0424  159.2699 C   0  0  0  0  0  0  0  0  0  0  0  0
  151.9933  143.3417  160.0250 C   0  0  0  0  0  0  0  0  0  0  0  0
  152.3872  142.0326  159.6742 C   0  0  0  0  0  0  0  0  0  0  0  0
  153.3107  141.3967  160.4282 N   0  0  0  0  0  0  0  0  0  0  0  0
  154.6856  138.4116  160.8958 H   0  0  0  0  0  0  0  0  0  0  0  0
  154.5644  139.7626  162.0237 H   0  0  0  0  0  0  0  0  0  0  0  0
  155.7233  139.8274  160.6888 H   0  0  0  0  0  0  0  0  0  0  0  0
  153.5044  138.4622  158.7623 H   0  0  0  0  0  0  0  0  0  0  0  0
  150.7169  139.9574  156.5920 H   0  0  0  0  0  0  0  0  0  0  0  0
  152.2833  139.4146  156.1239 H   0  0  0  0  0  0  0  0  0  0  0  0
  151.2524  133.6099  155.8077 H   0  0  0  0  0  0  0  0  0  0  0  0
  152.7550  134.5056  155.5979 H   0  0  0  0  0  0  0  0  0  0  0  0
  151.3887  134.7976  154.5133 H   0  0  0  0  0  0  0  0  0  0  0  0
  149.9646  134.4157  157.6019 H   0  0  0  0  0  0  0  0  0  0  0  0
  148.0283  136.8259  159.3581 H   0  0  0  0  0  0  0  0  0  0  0  0
  147.3440  134.5765  159.7578 H   0  0  0  0  0  0  0  0  0  0  0  0
  148.3095  134.2900  158.2965 H   0  0  0  0  0  0  0  0  0  0  0  0
  150.2604  133.7314  159.6138 H   0  0  0  0  0  0  0  0  0  0  0  0
  149.4101  132.3650  161.3499 H   0  0  0  0  0  0  0  0  0  0  0  0
  150.7004  134.8753  161.6154 H   0  0  0  0  0  0  0  0  0  0  0  0
  148.9965  135.6960  163.2242 H   0  0  0  0  0  0  0  0  0  0  0  0
  147.6937  135.0122  162.2714 H   0  0  0  0  0  0  0  0  0  0  0  0
  148.0822  133.2614  163.3527 H   0  0  0  0  0  0  0  0  0  0  0  0
  150.3679  141.6988  156.9029 H   0  0  0  0  0  0  0  0  0  0  0  0
  149.7197  143.9728  157.5606 H   0  0  0  0  0  0  0  0  0  0  0  0
  150.7475  145.0433  159.5558 H   0  0  0  0  0  0  0  0  0  0  0  0
  152.4329  143.8183  160.8891 H   0  0  0  0  0  0  0  0  0  0  0  0
  1  2  1  0  0  0  0
  1 30  1  0  0  0  0
  1 31  1  0  0  0  0
  1 32  1  0  0  0  0
  2 29  1  0  0  0  0
  2  3  2  0  0  0  0
  3  4  1  0  0  0  0
  3 33  1  0  0  0  0
  4  5  1  0  0  0  0
  4 23  2  0  0  0  0
  5  6  1  0  0  0  0
  5 34  1  0  0  0  0
  5 35  1  0  0  0  0
  6 21  1  0  0  0  0
  6  7  1  0  0  0  0
  7  8  2  0  0  0  0
  7  9  1  0  0  0  0
  9 10  1  0  0  0  0
  9 11  2  0  0  0  0
 10 36  1  0  0  0  0
 10 37  1  0  0  0  0
 10 38  1  0  0  0  0
 11 12  1  0  0  0  0
 11 39  1  0  0  0  0
 12 13  1  0  0  0  0
 12 21  1  0  0  0  0
 13 20  1  0  0  0  0
 13 14  1  0  0  0  0
 13 40  1  0  0  0  0
 14 15  1  0  0  0  0
 14 41  1  0  0  0  0
 14 42  1  0  0  0  0
 15 16  1  0  0  0  0
 15 17  1  0  0  0  0
 15 43  1  0  0  0  0
 16 44  1  0  0  0  0
 17 18  1  0  0  0  0
 17 20  1  0  0  0  0
 17 45  1  0  0  0  0
 18 19  1  0  0  0  0
 18 46  1  0  0  0  0
 18 47  1  0  0  0  0
 19 48  1  0  0  0  0
 21 22  2  0  0  0  0
 23 28  1  0  0  0  0
 23 24  1  0  0  0  0
 24 25  2  0  0  0  0
 24 49  1  0  0  0  0
 25 26  1  0  0  0  0
 25 50  1  0  0  0  0
 26 27  2  0  0  0  0
 26 51  1  0  0  0  0
 27 28  1  0  0  0  0
 27 52  1  0  0  0  0
 28 29  2  0  0  0  0
M  END
> <s_m_source_file>
AV-unprocessed.smi

> <i_m_source_file_index>
113

> <i_lp_mmshare_version>
43012

> <i_f3d_flags>
0

> <s_epik_input>
W2NIXTFbY0hdW2NIXVtjSF1jKGMxMiluYyhbQ0gzXSlbY0hdYzJbQ0gyXW4zYyg9TyljKFtDSDNdKVtjSF1uKGMzPU8pW0NAQEhdNFtDSDJdW0NAQEhdKFtPSF0pW0NASF0oTzQpW0NIMl1bT0hd

> <s_epik_cmdline>
J2VwaWtfcHl0aG9uJywgJy1waCcsICc3LjAnLCAnLXRuJywgJzgnLCAnLW1hJywgJzIwMCcsICctbWV0YWxfYmluZGluZycsICctaW1hZScsICc8aW5maWxlLm1hZT4nLCAnLW9tYWUnLCAnPG91dGZpbGUubWFlPic=

> <r_lp_tautomer_probability>
1

> <r_epik_Ionization_Penalty>
0.214728

> <r_epik_Ionization_Penalty_Charging>
3.04883e-08

> <r_epik_Ionization_Penalty_Neutral>
0.214728

> <r_epik_State_Penalty>
0.204913

> <r_epik_Charging_Adjusted_Penalty>
0.204913

> <i_epik_Tot_Q>
0

> <i_epik_Tot_abs_Q>
0

> <r_epik_Metal_State_Penalty>
0.000244761

> <b_epik_Metal_Only>
0

> <s_epik_Chemistry_Notes>
This compound contains an acetal/aminal-like group ( X-CH(R)-Y where X, Y are N, S, or O) that may be acid/base labile, releasing an aldehyde.

> <s_lp_Force_Field>
OPLS_2005

> <r_lp_Energy>
41.6677

> <b_lp_Chiralities_Consistent>
1

> <s_lp_Variant>
AV-unprocessed.smi:113-8

> <Gold.Version>
5.8.1

> <Gold.Id.Protein>
6NUR|6NUR_protein|mol2

> <Gold.PLP.Fitness>
51.6441

> <Gold.PLP.PLP>
-46.8358

> <Gold.PLP.part.hbond>
-5.0263

> <Gold.PLP.part.metal>
0.0000

> <Gold.PLP.part.buried>
-6.3629

> <Gold.PLP.part.nonpolar>
-36.2230

> <Gold.PLP.part.repulsive>
0.0307

> <Gold.PLP.ligand.clash>
0.0000

> <Gold.PLP.ligand.torsion>
0.3578

> <Gold.PLP.Chemscore.Hbond>
1.8361

> <Gold.PLP.Chemscore.CHOScore>
0.0000

> <Gold.PLP.Chemscore.Metal>
0.0000

> <Gold.Chemscore.Hbonds>
donor molecule, donor type, donor heavy atom, donor atom, acceptor molecule, acceptor atom, score
      P1  H  6931  6943       L1    20  0.09
      P1  H 10752 10765       L1     8  0.67

> <Gold.PLP.Chemscore.Internal.Correction>
0.0158

> <Gold.Rescore>
     Score         DG    S(hbond)    S(metal)    S(lipo)     H(rot)  DE(clash)    DE(int)     intcor
     15.90     -18.39       1.73        0.00     125.40       2.95       0.05       2.44       ----

> <Gold.Chemscore.Fitness>
15.9000

> <Gold.Chemscore.DG>
-18.3931

> <Gold.Chemscore.ZeroCoef>
-5.4800

> <Gold.Chemscore.Hbond>
1.7320

> <Gold.Chemscore.Metal>
0.0000

> <Gold.Chemscore.Lipo>
125.4032

> <Gold.Chemscore.Internal_Hbond>
0.0000

> <Gold.Chemscore.DEClash>
0.0504

> <Gold.Chemscore.DEInternal>
2.4427

> <Gold.Chemscore.Rot>
2.9469

> <Gold.Chemscore.Internal.Correction>
   9.000000E+99

> <Gold.Chemscore.Hbonds>
donor molecule, donor type, donor heavy atom, donor atom, acceptor molecule, acceptor atom, score
      P1  H  6931  6943       L1    20  0.11
      P1  H 10752 10765       L1     8  0.17

> <Gold.Chemscore.Hbond.Weighted>
-5.7849

> <Gold.Chemscore.Metal.Weighted>
-0.0000

> <Gold.Chemscore.Lipo.Weighted>
-14.6722

> <Gold.Chemscore.Internal_Hbond.Weighted>
0.0000

> <Gold.Chemscore.DEClash.Weighted>
0.0504

> <Gold.Chemscore.DEInternal.Weighted>
2.4427

> <Gold.Chemscore.Rot.Weighted>
7.5439

> <Gold.Chemscore.Internal.Correction.Weighted>
   9.000000E+99

> <Gold.Protein.RotatedTorsions>
[ 6907 6896 6895 6894 ] final  157.02 input  -60.11 | X-H torsion
[ 7974 7965 7964 7962 ] final  -33.47 input  175.53 | X-H torsion
[ 8008 7997 7996 7995 ] final  156.97 input   59.86 | X-H torsion
[ 10167 10162 10161 10158 ] final   60.42 input  -65.29 | X-H torsion
[ 10718 10713 10712 10709 ] final  117.66 input   66.30 | X-H torsion
[ 10763 10752 10751 10750 ] final -165.18 input  -60.55 | X-H torsion
[ 11005 11000 10999 10996 ] final  -51.51 input  -57.11 | X-H torsion

> <Gold.Protein.ActiveResidues>
 VAL166  LYS551  ARG553  GLY616  TRP617  ASP618  TYR619  PRO620  LYS621  CYS622 
 ASP623  PHE694  ASN695  SER759  ASP760  ASP761  ALA762  ILE779  LEU786  VAL792 
 PHE793  MET794  SER795  GLU796  ALA797  LYS798  CYS799  TRP800  GLU811  SER814 

> <Gold.Protein.RotatedAtoms>
  152.0211  133.3899  159.4258 H   0  0  0  0  0  0  0  0  0  0  0  0  # atno 6907 bound_to 6896
  150.6890  134.3624  159.4965 H   0  0  0  0  0  0  0  0  0  0  0  0  # atno 6908 bound_to 6896
  152.1398  134.9071  160.0605 H   0  0  0  0  0  0  0  0  0  0  0  0  # atno 6909 bound_to 6896
  146.0908  140.5920  142.8865 H   0  0  0  0  0  0  0  0  0  0  0  0  # atno 7974 bound_to 7965
  156.2391  140.1898  156.7037 H   0  0  0  0  0  0  0  0  0  0  0  0  # atno 8008 bound_to 7997
  154.6163  140.0615  156.9585 H   0  0  0  0  0  0  0  0  0  0  0  0  # atno 8009 bound_to 7997
  155.1934  140.3286  155.4357 H   0  0  0  0  0  0  0  0  0  0  0  0  # atno 8010 bound_to 7997
  140.1658  144.4326  150.6686 H   0  0  0  0  0  0  0  0  0  0  0  0  # atno 10167 bound_to 10162
  157.6082  131.1039  150.7646 H   0  0  0  0  0  0  0  0  0  0  0  0  # atno 10718 bound_to 10713
  154.6957  135.2979  154.9415 H   0  0  0  0  0  0  0  0  0  0  0  0  # atno 10763 bound_to 10752
  154.0363  135.6663  153.4789 H   0  0  0  0  0  0  0  0  0  0  0  0  # atno 10764 bound_to 10752
  153.0644  135.5097  154.8073 H   0  0  0  0  0  0  0  0  0  0  0  0  # atno 10765 bound_to 10752
  141.0875  133.6639  156.3888 H   0  0  0  0  0  0  0  0  0  0  0  0  # atno 11005 bound_to 11000
  144.7359  140.4806  143.6904 LP  0  0  0  0  0  0  0  0  0  0  0  0  # atno 17320 bound_to 7965
  145.6042  139.1507  143.3112 LP  0  0  0  0  0  0  0  0  0  0  0  0  # atno 17321 bound_to 7965
  140.6614  143.2253  151.5847 LP  0  0  0  0  0  0  0  0  0  0  0  0  # atno 17342 bound_to 10162
  139.5360  144.2779  152.1252 LP  0  0  0  0  0  0  0  0  0  0  0  0  # atno 17343 bound_to 10162
  156.8029  130.4927  149.5367 LP  0  0  0  0  0  0  0  0  0  0  0  0  # atno 17370 bound_to 10713
  156.1175  130.6086  151.0143 LP  0  0  0  0  0  0  0  0  0  0  0  0  # atno 17371 bound_to 10713
  140.5329  134.6195  157.5356 LP  0  0  0  0  0  0  0  0  0  0  0  0  # atno 17394 bound_to 11000
  139.9695  134.7316  156.0069 LP  0  0  0  0  0  0  0  0  0  0  0  0  # atno 17395 bound_to 11000

$$$$
