AV-unprocessed.smi:559|AV-procd|sdf|2925|dock7
  -GOLD-   2262023413D 1   1.00000     0.00000
 Structure written by MMmdl.
 41 42  0  0  0  0  0  0  0  0  1 V2000
  145.2400  132.1195  161.9183 C   0  0  0  0  0  0  0  0  0  0  0  0
  144.6893  133.4841  162.2188 C   0  0  0  0  0  0  0  0  0  0  0  0
  143.3972  133.6242  162.4617 N   0  0  0  0  0  0  0  0  0  0  0  0
  143.2286  134.9418  162.6886 N   0  0  0  0  0  0  0  0  0  0  0  0
  141.8958  135.4275  162.9917 C   0  0  0  0  0  0  0  0  0  0  0  0
  144.4201  135.6373  162.5915 C   0  0  0  0  0  0  0  0  0  0  0  0
  144.5073  137.1158  162.7986 C   0  0  0  0  0  0  0  0  0  0  0  0
  145.3931  134.7220  162.2864 C   0  0  0  0  0  0  0  0  0  0  0  0
  146.8692  134.9441  162.0680 C   0  0  0  0  0  0  0  0  0  0  0  0
  147.0881  136.1206  161.1155 C   0  0  0  0  0  0  0  0  0  0  0  0
  147.6381  137.1445  161.5193 O   0  0  0  0  0  0  0  0  0  0  0  0
  146.6441  135.9643  159.8582 N   0  0  0  0  0  0  0  0  0  0  0  0
  146.7566  136.9485  158.7868 C   0  0  0  0  0  0  0  0  0  0  0  0
  147.8791  136.5970  157.7912 C   0  0  1  0  0  0  0  0  0  0  0  0
  149.3024  136.7811  158.3604 C   0  0  0  0  0  0  0  0  0  0  0  0
  150.3048  136.1304  157.4020 C   0  0  0  0  0  0  0  0  0  0  0  0
  149.4379  134.6865  156.6842 S   0  0  0  0  0  0  0  0  0  0  0  0
  149.4813  134.7832  155.2173 O   0  0  0  0  0  0  0  0  0  0  0  0
  149.8668  133.4613  157.3755 O   0  0  0  0  0  0  0  0  0  0  0  0
  147.7680  135.1521  157.2797 C   0  0  0  0  0  0  0  0  0  0  0  0
  145.8881  132.1442  161.0425 H   0  0  0  0  0  0  0  0  0  0  0  0
  144.4471  131.3973  161.7199 H   0  0  0  0  0  0  0  0  0  0  0  0
  145.8283  131.7452  162.7560 H   0  0  0  0  0  0  0  0  0  0  0  0
  141.8723  136.5167  163.0021 H   0  0  0  0  0  0  0  0  0  0  0  0
  141.5858  135.0584  163.9695 H   0  0  0  0  0  0  0  0  0  0  0  0
  141.1926  135.0717  162.2378 H   0  0  0  0  0  0  0  0  0  0  0  0
  145.5265  137.4770  162.6656 H   0  0  0  0  0  0  0  0  0  0  0  0
  144.1866  137.3856  163.8049 H   0  0  0  0  0  0  0  0  0  0  0  0
  143.8739  137.6448  162.0863 H   0  0  0  0  0  0  0  0  0  0  0  0
  147.3916  135.1440  163.0037 H   0  0  0  0  0  0  0  0  0  0  0  0
  147.3411  134.0549  161.6482 H   0  0  0  0  0  0  0  0  0  0  0  0
  146.2060  135.0859  159.6221 H   0  0  0  0  0  0  0  0  0  0  0  0
  145.8055  137.0702  158.2653 H   0  0  0  0  0  0  0  0  0  0  0  0
  146.9716  137.9111  159.2516 H   0  0  0  0  0  0  0  0  0  0  0  0
  147.7891  137.2531  156.9239 H   0  0  0  0  0  0  0  0  0  0  0  0
  149.5448  137.8313  158.5243 H   0  0  0  0  0  0  0  0  0  0  0  0
  149.3669  136.2845  159.3294 H   0  0  0  0  0  0  0  0  0  0  0  0
  150.5598  136.8097  156.5883 H   0  0  0  0  0  0  0  0  0  0  0  0
  151.2241  135.8140  157.8951 H   0  0  0  0  0  0  0  0  0  0  0  0
  147.5025  134.4686  158.0869 H   0  0  0  0  0  0  0  0  0  0  0  0
  147.0384  135.0400  156.4776 H   0  0  0  0  0  0  0  0  0  0  0  0
  1  2  1  0  0  0  0
  1 21  1  0  0  0  0
  1 22  1  0  0  0  0
  1 23  1  0  0  0  0
  2  8  1  0  0  0  0
  2  3  2  0  0  0  0
  3  4  1  0  0  0  0
  4  5  1  0  0  0  0
  4  6  1  0  0  0  0
  5 24  1  0  0  0  0
  5 25  1  0  0  0  0
  5 26  1  0  0  0  0
  6  7  1  0  0  0  0
  6  8  2  0  0  0  0
  7 27  1  0  0  0  0
  7 28  1  0  0  0  0
  7 29  1  0  0  0  0
  8  9  1  0  0  0  0
  9 10  1  0  0  0  0
  9 30  1  0  0  0  0
  9 31  1  0  0  0  0
 10 11  2  0  0  0  0
 10 12  1  0  0  0  0
 12 13  1  0  0  0  0
 12 32  1  0  0  0  0
 13 14  1  0  0  0  0
 13 33  1  0  0  0  0
 13 34  1  0  0  0  0
 14 20  1  0  0  0  0
 14 15  1  0  0  0  0
 14 35  1  0  0  0  0
 15 16  1  0  0  0  0
 15 36  1  0  0  0  0
 15 37  1  0  0  0  0
 16 17  1  0  0  0  0
 16 38  1  0  0  0  0
 16 39  1  0  0  0  0
 17 18  2  0  0  0  0
 17 19  2  0  0  0  0
 17 20  1  0  0  0  0
 20 40  1  0  0  0  0
 20 41  1  0  0  0  0
M  END
> <s_m_source_file>
AV-unprocessed.smi

> <i_m_source_file_index>
559

> <i_lp_mmshare_version>
43012

> <i_f3d_flags>
0

> <s_epik_input>
W0NIM11jMW5uKFtDSDNdKWMoW0NIM10pYzFbQ0gyXUMoPU8pW05IXVtDSDJdW0NAQEhdKFtDSDJdMilbQ0gyXVtDSDJdUzIoPU8pPU8=

> <s_epik_cmdline>
J2VwaWtfcHl0aG9uJywgJy1waCcsICc3LjAnLCAnLXRuJywgJzgnLCAnLW1hJywgJzIwMCcsICctbWV0YWxfYmluZGluZycsICctaW1hZScsICc8aW5maWxlLm1hZT4nLCAnLW9tYWUnLCAnPG91dGZpbGUubWFlPic=

> <r_lp_tautomer_probability>
1

> <r_epik_Ionization_Penalty>
0.00301269

> <r_epik_Ionization_Penalty_Charging>
0

> <r_epik_Ionization_Penalty_Neutral>
0.00301269

> <r_epik_State_Penalty>
0.00211587

> <r_epik_Charging_Adjusted_Penalty>
0.00211587

> <i_epik_Tot_Q>
0

> <i_epik_Tot_abs_Q>
0

> <r_epik_Metal_State_Penalty>
-0

> <b_epik_Metal_Only>
0

> <s_lp_Force_Field>
OPLS_2005

> <r_lp_Energy>
-1.18315

> <b_lp_Chiralities_Consistent>
1

> <s_lp_Variant>
AV-unprocessed.smi:559-2

> <Gold.Version>
5.8.1

> <Gold.Id.Protein>
6NUR|6NUR_protein|mol2

> <Gold.PLP.Fitness>
34.7313

> <Gold.PLP.PLP>
-27.3987

> <Gold.PLP.part.hbond>
-3.0000

> <Gold.PLP.part.metal>
0.0000

> <Gold.PLP.part.buried>
-5.0350

> <Gold.PLP.part.nonpolar>
-19.1815

> <Gold.PLP.part.repulsive>
0.2717

> <Gold.PLP.ligand.clash>
0.0000

> <Gold.PLP.ligand.torsion>
0.3200

> <Gold.PLP.Chemscore.Hbond>
2.6560

> <Gold.PLP.Chemscore.CHOScore>
0.0000

> <Gold.PLP.Chemscore.Metal>
0.0000

> <Gold.Chemscore.Hbonds>
donor molecule, donor type, donor heavy atom, donor atom, acceptor molecule, acceptor atom, score
      P1  H  6896  6908       L1    19  0.76
      P1  H  6931  6943       L1    11  1.00
      P1  H  6934  6947       L1    11  0.80

> <Gold.PLP.Chemscore.Internal.Correction>
0.0047

> <Gold.Rescore>
     Score         DG    S(hbond)    S(metal)    S(lipo)     H(rot)  DE(clash)    DE(int)     intcor
     16.14     -16.57       2.73        0.00      52.81       1.64       0.00       0.42       ----

> <Gold.Chemscore.Fitness>
16.1427

> <Gold.Chemscore.DG>
-16.5658

> <Gold.Chemscore.ZeroCoef>
-5.4800

> <Gold.Chemscore.Hbond>
2.7260

> <Gold.Chemscore.Metal>
0.0000

> <Gold.Chemscore.Lipo>
52.8053

> <Gold.Chemscore.Internal_Hbond>
0.0000

> <Gold.Chemscore.DEClash>
0.0000

> <Gold.Chemscore.DEInternal>
0.4231

> <Gold.Chemscore.Rot>
1.6396

> <Gold.Chemscore.Internal.Correction>
   9.000000E+99

> <Gold.Chemscore.Hbonds>
donor molecule, donor type, donor heavy atom, donor atom, acceptor molecule, acceptor atom, score
      P1  H  6896  6908       L1    19  0.63
      P1  H  6931  6943       L1    11  0.95
      P1  H  6934  6947       L1    11  0.76

> <Gold.Chemscore.Hbond.Weighted>
-9.1049

> <Gold.Chemscore.Metal.Weighted>
-0.0000

> <Gold.Chemscore.Lipo.Weighted>
-6.1782

> <Gold.Chemscore.Internal_Hbond.Weighted>
0.0000

> <Gold.Chemscore.DEClash.Weighted>
0.0000

> <Gold.Chemscore.DEInternal.Weighted>
0.4231

> <Gold.Chemscore.Rot.Weighted>
4.1974

> <Gold.Chemscore.Internal.Correction.Weighted>
   9.000000E+99

> <Gold.Protein.RotatedTorsions>
[ 6907 6896 6895 6894 ] final  124.23 input  -60.11 | X-H torsion
[ 7974 7965 7964 7962 ] final   -2.23 input  175.53 | X-H torsion
[ 8008 7997 7996 7995 ] final   27.07 input   59.86 | X-H torsion
[ 10167 10162 10161 10158 ] final -141.27 input  -65.29 | X-H torsion
[ 10718 10713 10712 10709 ] final -142.40 input   66.30 | X-H torsion
[ 10763 10752 10751 10750 ] final -100.82 input  -60.55 | X-H torsion
[ 11005 11000 10999 10996 ] final  -97.45 input  -57.11 | X-H torsion

> <Gold.Protein.ActiveResidues>
 VAL166  LYS551  ARG553  GLY616  TRP617  ASP618  TYR619  PRO620  LYS621  CYS622 
 ASP623  PHE694  ASN695  SER759  ASP760  ASP761  ALA762  ILE779  LEU786  VAL792 
 PHE793  MET794  SER795  GLU796  ALA797  LYS798  CYS799  TRP800  GLU811  SER814 

> <Gold.Protein.RotatedAtoms>
  152.4095  133.6941  159.6385 H   0  0  0  0  0  0  0  0  0  0  0  0  # atno 6907 bound_to 6896
  150.7977  133.8649  159.3251 H   0  0  0  0  0  0  0  0  0  0  0  0  # atno 6908 bound_to 6896
  151.6395  135.1016  160.0190 H   0  0  0  0  0  0  0  0  0  0  0  0  # atno 6909 bound_to 6896
  146.2407  140.1539  142.8333 H   0  0  0  0  0  0  0  0  0  0  0  0  # atno 7974 bound_to 7965
  155.0372  140.3165  155.4737 H   0  0  0  0  0  0  0  0  0  0  0  0  # atno 8008 bound_to 7997
  156.2862  140.2169  156.5438 H   0  0  0  0  0  0  0  0  0  0  0  0  # atno 8009 bound_to 7997
  154.7320  140.0480  157.0723 H   0  0  0  0  0  0  0  0  0  0  0  0  # atno 8010 bound_to 7997
  139.8201  143.7586  152.2666 H   0  0  0  0  0  0  0  0  0  0  0  0  # atno 10167 bound_to 10162
  156.3455  130.7660  151.1804 H   0  0  0  0  0  0  0  0  0  0  0  0  # atno 10718 bound_to 10713
  154.7609  135.4921  153.9462 H   0  0  0  0  0  0  0  0  0  0  0  0  # atno 10763 bound_to 10752
  153.1250  135.6740  153.9279 H   0  0  0  0  0  0  0  0  0  0  0  0  # atno 10764 bound_to 10752
  153.9000  135.3111  155.3427 H   0  0  0  0  0  0  0  0  0  0  0  0  # atno 10765 bound_to 10752
  141.1378  133.8172  157.0708 H   0  0  0  0  0  0  0  0  0  0  0  0  # atno 11005 bound_to 11000
  145.0144  140.8742  143.5204 LP  0  0  0  0  0  0  0  0  0  0  0  0  # atno 17320 bound_to 7965
  145.1578  139.2476  143.5407 LP  0  0  0  0  0  0  0  0  0  0  0  0  # atno 17321 bound_to 7965
  139.7761  144.7460  151.0154 LP  0  0  0  0  0  0  0  0  0  0  0  0  # atno 17342 bound_to 10162
  140.7814  143.4592  151.0302 LP  0  0  0  0  0  0  0  0  0  0  0  0  # atno 17343 bound_to 10162
  157.7453  131.0442  150.4783 LP  0  0  0  0  0  0  0  0  0  0  0  0  # atno 17370 bound_to 10713
  156.4970  130.4108  149.6374 LP  0  0  0  0  0  0  0  0  0  0  0  0  # atno 17371 bound_to 10713
  140.0513  134.9804  157.1141 LP  0  0  0  0  0  0  0  0  0  0  0  0  # atno 17394 bound_to 11000
  140.3986  134.2107  155.7164 LP  0  0  0  0  0  0  0  0  0  0  0  0  # atno 17395 bound_to 11000

$$$$
