AV-unprocessed.smi:1977|AV-procd|sdf|7991|dock10
  -GOLD-   2272010173D 1   1.00000     0.00000
 Structure written by MMmdl.
 45 46  0  0  0  0  0  0  0  0  1 V2000
  144.4008  133.0299  149.9144 C   0  0  0  0  0  0  0  0  0  0  0  0
  145.4901  133.8177  150.6627 C   0  0  0  0  0  0  0  0  0  0  0  0
  145.6296  133.3121  152.1059 C   0  0  0  0  0  0  0  0  0  0  0  0
  145.2350  135.3400  150.6406 C   0  0  0  0  0  0  0  0  0  0  0  0
  146.1342  136.0741  151.5250 N   0  0  0  0  0  0  0  0  0  0  0  0
  145.7637  136.7019  152.6496 C   0  0  0  0  0  0  0  0  0  0  0  0
  144.6083  136.7332  153.0733 O   0  0  0  0  0  0  0  0  0  0  0  0
  146.8042  137.2958  153.2513 N   0  0  0  0  0  0  0  0  0  0  0  0
  146.7461  138.0596  154.4953 C   0  0  0  0  0  0  0  0  0  0  0  0
  147.3425  139.4662  154.3977 C   0  0  0  0  0  0  0  0  0  0  0  0
  146.4948  140.5948  154.3069 C   0  0  0  0  0  0  0  0  0  0  0  0
  147.0564  141.8826  154.2528 C   0  0  0  0  0  0  0  0  0  0  0  0
  148.4559  142.0005  154.2991 C   0  0  0  0  0  0  0  0  0  0  0  0
  149.2810  140.9388  154.3942 N   0  0  0  0  0  0  0  0  0  0  0  0
  148.7459  139.6943  154.4469 C   0  0  0  0  0  0  0  0  0  0  0  0
  149.6455  138.6160  154.5251 N   0  0  0  0  0  0  0  0  0  0  0  0
  149.4881  137.7160  155.6632 C   0  0  0  0  0  0  0  0  0  0  0  0
  150.4194  136.5023  155.5020 C   0  0  0  0  0  0  0  0  0  0  0  0
  151.7637  136.9501  155.3489 O   0  0  0  0  0  0  0  0  0  0  0  0
  151.9263  137.7741  154.1974 C   0  0  0  0  0  0  0  0  0  0  0  0
  151.0311  139.0193  154.3210 C   0  0  0  0  0  0  0  0  0  0  0  0
  143.4180  133.1976  150.3560 H   0  0  0  0  0  0  0  0  0  0  0  0
  144.6004  131.9585  149.9471 H   0  0  0  0  0  0  0  0  0  0  0  0
  144.3480  133.3160  148.8638 H   0  0  0  0  0  0  0  0  0  0  0  0
  146.4397  133.6252  150.1617 H   0  0  0  0  0  0  0  0  0  0  0  0
  144.7110  133.4694  152.6719 H   0  0  0  0  0  0  0  0  0  0  0  0
  146.4350  133.8297  152.6278 H   0  0  0  0  0  0  0  0  0  0  0  0
  145.8566  132.2457  152.1289 H   0  0  0  0  0  0  0  0  0  0  0  0
  145.3711  135.7243  149.6291 H   0  0  0  0  0  0  0  0  0  0  0  0
  144.2001  135.5563  150.9119 H   0  0  0  0  0  0  0  0  0  0  0  0
  147.1077  136.1052  151.2593 H   0  0  0  0  0  0  0  0  0  0  0  0
  147.7116  137.2108  152.8172 H   0  0  0  0  0  0  0  0  0  0  0  0
  145.7191  138.1486  154.8524 H   0  0  0  0  0  0  0  0  0  0  0  0
  147.2665  137.4624  155.2418 H   0  0  0  0  0  0  0  0  0  0  0  0
  145.4208  140.4878  154.2866 H   0  0  0  0  0  0  0  0  0  0  0  0
  146.4286  142.7586  154.1829 H   0  0  0  0  0  0  0  0  0  0  0  0
  148.9257  142.9721  154.2612 H   0  0  0  0  0  0  0  0  0  0  0  0
  149.7301  138.2408  156.5886 H   0  0  0  0  0  0  0  0  0  0  0  0
  148.4504  137.3885  155.7356 H   0  0  0  0  0  0  0  0  0  0  0  0
  150.3563  135.8602  156.3805 H   0  0  0  0  0  0  0  0  0  0  0  0
  150.1265  135.8977  154.6421 H   0  0  0  0  0  0  0  0  0  0  0  0
  152.9723  138.0692  154.1154 H   0  0  0  0  0  0  0  0  0  0  0  0
  151.6819  137.2090  153.2965 H   0  0  0  0  0  0  0  0  0  0  0  0
  151.1228  139.6359  153.4264 H   0  0  0  0  0  0  0  0  0  0  0  0
  151.3556  139.6311  155.1641 H   0  0  0  0  0  0  0  0  0  0  0  0
  1  2  1  0  0  0  0
  1 22  1  0  0  0  0
  1 23  1  0  0  0  0
  1 24  1  0  0  0  0
  2  3  1  0  0  0  0
  2  4  1  0  0  0  0
  2 25  1  0  0  0  0
  3 26  1  0  0  0  0
  3 27  1  0  0  0  0
  3 28  1  0  0  0  0
  4  5  1  0  0  0  0
  4 29  1  0  0  0  0
  4 30  1  0  0  0  0
  5  6  1  0  0  0  0
  5 31  1  0  0  0  0
  6  7  2  0  0  0  0
  6  8  1  0  0  0  0
  8  9  1  0  0  0  0
  8 32  1  0  0  0  0
  9 10  1  0  0  0  0
  9 33  1  0  0  0  0
  9 34  1  0  0  0  0
 10 15  1  0  0  0  0
 10 11  2  0  0  0  0
 11 12  1  0  0  0  0
 11 35  1  0  0  0  0
 12 13  2  0  0  0  0
 12 36  1  0  0  0  0
 13 14  1  0  0  0  0
 13 37  1  0  0  0  0
 14 15  2  0  0  0  0
 15 16  1  0  0  0  0
 16 21  1  0  0  0  0
 16 17  1  0  0  0  0
 17 18  1  0  0  0  0
 17 38  1  0  0  0  0
 17 39  1  0  0  0  0
 18 19  1  0  0  0  0
 18 40  1  0  0  0  0
 18 41  1  0  0  0  0
 19 20  1  0  0  0  0
 20 21  1  0  0  0  0
 20 42  1  0  0  0  0
 20 43  1  0  0  0  0
 21 44  1  0  0  0  0
 21 45  1  0  0  0  0
M  END
> <s_m_source_file>
AV-unprocessed.smi

> <i_m_source_file_index>
1977

> <i_lp_mmshare_version>
43012

> <i_f3d_flags>
0

> <s_epik_input>
W0NIM11bQ0hdKFtDSDNdKVtDSDJdW05IXUMoPU8pW05IXVtDSDJdYzFbY0hdW2NIXVtjSF1uYzFOMltDSDJdW0NIMl1PW0NIMl1bQ0gyXTI=

> <s_epik_cmdline>
J2VwaWtfcHl0aG9uJywgJy1waCcsICc3LjAnLCAnLXRuJywgJzgnLCAnLW1hJywgJzIwMCcsICctbWV0YWxfYmluZGluZycsICctaW1hZScsICc8aW5maWxlLm1hZT4nLCAnLW9tYWUnLCAnPG91dGZpbGUubWFlPic=

> <r_lp_tautomer_probability>
1

> <r_epik_Ionization_Penalty>
0.00617532

> <r_epik_Ionization_Penalty_Charging>
0

> <r_epik_Ionization_Penalty_Neutral>
0.00617532

> <r_epik_State_Penalty>
0.00451205

> <r_epik_Charging_Adjusted_Penalty>
0.00451205

> <i_epik_Tot_Q>
0

> <i_epik_Tot_abs_Q>
0

> <r_epik_Metal_State_Penalty>
-0

> <b_epik_Metal_Only>
0

> <s_lp_Force_Field>
OPLS_2005

> <r_lp_Energy>
18.8779

> <b_lp_Chiralities_Consistent>
1

> <s_lp_Variant>
AV-unprocessed.smi:1977-1

> <Gold.Version>
5.8.1

> <Gold.Id.Protein>
6NUR|6NUR_protein|mol2

> <Gold.PLP.Fitness>
41.3910

> <Gold.PLP.PLP>
-30.4864

> <Gold.PLP.part.hbond>
-3.3961

> <Gold.PLP.part.metal>
0.0000

> <Gold.PLP.part.buried>
-1.4905

> <Gold.PLP.part.nonpolar>
-25.9945

> <Gold.PLP.part.repulsive>
0.6223

> <Gold.PLP.ligand.clash>
0.0000

> <Gold.PLP.ligand.torsion>
0.4715

> <Gold.PLP.Chemscore.Hbond>
2.8880

> <Gold.PLP.Chemscore.CHOScore>
1.0000

> <Gold.PLP.Chemscore.Metal>
0.0000

> <Gold.Chemscore.Hbonds>
donor molecule, donor type, donor heavy atom, donor atom, acceptor molecule, acceptor atom, score
      L1  H     5    31       P1  7948  0.98
      L1  H     8    32       P1  7948  1.00
      P1  H 10752 10765       L1    19  0.93
      L1  C    13    37       P1  8028  1.00

> <Gold.PLP.Chemscore.Internal.Correction>
0.1837

> <Gold.Rescore>
     Score         DG    S(hbond)    S(metal)    S(lipo)     H(rot)  DE(clash)    DE(int)     intcor
     14.91     -17.18       2.18        0.00      76.44       1.77       0.80       1.46       ----

> <Gold.Chemscore.Fitness>
14.9139

> <Gold.Chemscore.DG>
-17.1792

> <Gold.Chemscore.ZeroCoef>
-5.4800

> <Gold.Chemscore.Hbond>
2.1789

> <Gold.Chemscore.Metal>
0.0000

> <Gold.Chemscore.Lipo>
76.4359

> <Gold.Chemscore.Internal_Hbond>
0.0000

> <Gold.Chemscore.DEClash>
0.8020

> <Gold.Chemscore.DEInternal>
1.4634

> <Gold.Chemscore.Rot>
1.7662

> <Gold.Chemscore.Internal.Correction>
   9.000000E+99

> <Gold.Chemscore.Hbonds>
donor molecule, donor type, donor heavy atom, donor atom, acceptor molecule, acceptor atom, score
      L1  H     5    31       P1  7948  0.93
      L1  H     8    32       P1  7948  0.95
      P1  H  7989  7998       L1    14  0.01
      P1  H 10752 10765       L1    19  0.20

> <Gold.Chemscore.Hbond.Weighted>
-7.2776

> <Gold.Chemscore.Metal.Weighted>
-0.0000

> <Gold.Chemscore.Lipo.Weighted>
-8.9430

> <Gold.Chemscore.Internal_Hbond.Weighted>
0.0000

> <Gold.Chemscore.DEClash.Weighted>
0.8020

> <Gold.Chemscore.DEInternal.Weighted>
1.4634

> <Gold.Chemscore.Rot.Weighted>
4.5214

> <Gold.Chemscore.Internal.Correction.Weighted>
   9.000000E+99

> <Gold.Protein.RotatedTorsions>
[ 6907 6896 6895 6894 ] final  108.58 input  -60.11 | X-H torsion
[ 7974 7965 7964 7962 ] final  150.53 input  175.53 | X-H torsion
[ 8008 7997 7996 7995 ] final   73.92 input   59.86 | X-H torsion
[ 10167 10162 10161 10158 ] final  152.28 input  -65.29 | X-H torsion
[ 10718 10713 10712 10709 ] final  160.89 input   66.30 | X-H torsion
[ 10763 10752 10751 10750 ] final -155.37 input  -60.55 | X-H torsion
[ 11005 11000 10999 10996 ] final  -70.30 input  -57.11 | X-H torsion

> <Gold.Protein.ActiveResidues>
 VAL166  LYS551  ARG553  GLY616  TRP617  ASP618  TYR619  PRO620  LYS621  CYS622 
 ASP623  PHE694  ASN695  SER759  ASP760  ASP761  ALA762  ILE779  LEU786  VAL792 
 PHE793  MET794  SER795  GLU796  ALA797  LYS798  CYS799  TRP800  GLU811  SER814 

> <Gold.Protein.RotatedAtoms>
  152.5106  133.9068  159.7467 H   0  0  0  0  0  0  0  0  0  0  0  0  # atno 6907 bound_to 6896
  150.9471  133.6583  159.2786 H   0  0  0  0  0  0  0  0  0  0  0  0  # atno 6908 bound_to 6896
  151.3874  135.0955  159.9568 H   0  0  0  0  0  0  0  0  0  0  0  0  # atno 6909 bound_to 6896
  144.8358  139.6420  143.6039 H   0  0  0  0  0  0  0  0  0  0  0  0  # atno 7974 bound_to 7965
  155.7907  140.3479  155.5348 H   0  0  0  0  0  0  0  0  0  0  0  0  # atno 8008 bound_to 7997
  155.8637  140.0975  157.1617 H   0  0  0  0  0  0  0  0  0  0  0  0  # atno 8009 bound_to 7997
  154.4013  140.1353  156.3979 H   0  0  0  0  0  0  0  0  0  0  0  0  # atno 8010 bound_to 7997
  139.4834  144.5371  151.7627 H   0  0  0  0  0  0  0  0  0  0  0  0  # atno 10167 bound_to 10162
  157.1442  131.0548  151.2312 H   0  0  0  0  0  0  0  0  0  0  0  0  # atno 10718 bound_to 10713
  154.7791  135.3169  154.8027 H   0  0  0  0  0  0  0  0  0  0  0  0  # atno 10763 bound_to 10752
  153.8743  135.6841  153.4776 H   0  0  0  0  0  0  0  0  0  0  0  0  # atno 10764 bound_to 10752
  153.1423  135.4734  154.9451 H   0  0  0  0  0  0  0  0  0  0  0  0  # atno 10765 bound_to 10752
  141.1571  133.6786  156.6731 H   0  0  0  0  0  0  0  0  0  0  0  0  # atno 11005 bound_to 11000
  146.2656  139.6513  142.9331 LP  0  0  0  0  0  0  0  0  0  0  0  0  # atno 17320 bound_to 7965
  145.4799  141.0438  143.2652 LP  0  0  0  0  0  0  0  0  0  0  0  0  # atno 17321 bound_to 7965
  140.4905  144.1317  150.5949 LP  0  0  0  0  0  0  0  0  0  0  0  0  # atno 17342 bound_to 10162
  140.4176  143.2626  151.9755 LP  0  0  0  0  0  0  0  0  0  0  0  0  # atno 17343 bound_to 10162
  157.4280  130.7474  149.6966 LP  0  0  0  0  0  0  0  0  0  0  0  0  # atno 17370 bound_to 10713
  155.9783  130.4053  150.3659 LP  0  0  0  0  0  0  0  0  0  0  0  0  # atno 17371 bound_to 10713
  140.3160  134.8047  157.4214 LP  0  0  0  0  0  0  0  0  0  0  0  0  # atno 17394 bound_to 11000
  140.1138  134.5310  155.8243 LP  0  0  0  0  0  0  0  0  0  0  0  0  # atno 17395 bound_to 11000

$$$$
