AV-unprocessed.smi:448|AV-procd|sdf|2605|dock3
  -GOLD-   2262023 03D 1   1.00000     0.00000
 Structure written by MMmdl.
 43 44  0  0  0  0  0  0  0  0  1 V2000
  151.8508  143.2996  160.0385 C   0  0  0  0  0  0  0  0  0  0  0  0
  151.3993  144.2358  158.8970 C   0  0  0  0  0  0  0  0  0  0  0  0
  149.8629  144.3451  158.9425 C   0  0  0  0  0  0  0  0  0  0  0  0
  151.9953  145.6410  159.1269 C   0  0  0  0  0  0  0  0  0  0  0  0
  151.8023  143.6803  157.5004 C   0  0  0  0  0  0  0  0  0  0  0  0
  151.1086  142.3770  157.0783 C   0  0  0  0  0  0  0  0  0  0  0  0
  151.3478  141.3353  157.6891 O   0  0  0  0  0  0  0  0  0  0  0  0
  150.2360  142.4812  156.0580 N   0  0  0  0  0  0  0  0  0  0  0  0
  149.4959  141.4471  155.4261 C   0  0  0  0  0  0  0  0  0  0  0  0
  148.2570  141.8427  154.8791 C   0  0  0  0  0  0  0  0  0  0  0  0
  147.4549  140.8929  154.2184 C   0  0  0  0  0  0  0  0  0  0  0  0
  147.9056  139.5559  154.1068 C   0  0  0  0  0  0  0  0  0  0  0  0
  147.1607  138.5493  153.4551 N   0  0  0  0  0  0  0  0  0  0  0  0
  146.1613  137.8170  154.2273 C   0  0  0  0  0  0  0  0  0  0  0  0
  145.6853  136.5787  153.4486 C   0  0  0  0  0  0  0  0  0  0  0  0
  145.2102  136.9718  152.1654 O   0  0  0  0  0  0  0  0  0  0  0  0
  146.2338  137.5832  151.3875 C   0  0  0  0  0  0  0  0  0  0  0  0
  146.7341  138.8564  152.0920 C   0  0  0  0  0  0  0  0  0  0  0  0
  149.1570  139.2586  154.6934 C   0  0  0  0  0  0  0  0  0  0  0  0
  149.9258  140.1667  155.3289 N   0  0  0  0  0  0  0  0  0  0  0  0
  151.4669  143.6377  161.0016 H   0  0  0  0  0  0  0  0  0  0  0  0
  152.9361  143.2577  160.1294 H   0  0  0  0  0  0  0  0  0  0  0  0
  151.4917  142.2818  159.8824 H   0  0  0  0  0  0  0  0  0  0  0  0
  149.3910  143.3727  158.7975 H   0  0  0  0  0  0  0  0  0  0  0  0
  149.4873  145.0113  158.1650 H   0  0  0  0  0  0  0  0  0  0  0  0
  149.5183  144.7357  159.9007 H   0  0  0  0  0  0  0  0  0  0  0  0
  151.6488  146.0678  160.0686 H   0  0  0  0  0  0  0  0  0  0  0  0
  151.7087  146.3283  158.3303 H   0  0  0  0  0  0  0  0  0  0  0  0
  153.0849  145.6196  159.1676 H   0  0  0  0  0  0  0  0  0  0  0  0
  151.5865  144.4276  156.7355 H   0  0  0  0  0  0  0  0  0  0  0  0
  152.8828  143.5307  157.4640 H   0  0  0  0  0  0  0  0  0  0  0  0
  150.1054  143.4061  155.6752 H   0  0  0  0  0  0  0  0  0  0  0  0
  147.9199  142.8662  154.9592 H   0  0  0  0  0  0  0  0  0  0  0  0
  146.5132  141.2130  153.7985 H   0  0  0  0  0  0  0  0  0  0  0  0
  146.5803  137.5016  155.1836 H   0  0  0  0  0  0  0  0  0  0  0  0
  145.3144  138.4715  154.4371 H   0  0  0  0  0  0  0  0  0  0  0  0
  146.4921  135.8517  153.3430 H   0  0  0  0  0  0  0  0  0  0  0  0
  144.8788  136.0828  153.9886 H   0  0  0  0  0  0  0  0  0  0  0  0
  147.0528  136.8801  151.2277 H   0  0  0  0  0  0  0  0  0  0  0  0
  145.8322  137.8318  150.4052 H   0  0  0  0  0  0  0  0  0  0  0  0
  145.9346  139.5970  152.1329 H   0  0  0  0  0  0  0  0  0  0  0  0
  147.5396  139.2937  151.5039 H   0  0  0  0  0  0  0  0  0  0  0  0
  149.5586  138.2565  154.6722 H   0  0  0  0  0  0  0  0  0  0  0  0
  1  2  1  0  0  0  0
  1 21  1  0  0  0  0
  1 22  1  0  0  0  0
  1 23  1  0  0  0  0
  2  3  1  0  0  0  0
  2  4  1  0  0  0  0
  2  5  1  0  0  0  0
  3 24  1  0  0  0  0
  3 25  1  0  0  0  0
  3 26  1  0  0  0  0
  4 27  1  0  0  0  0
  4 28  1  0  0  0  0
  4 29  1  0  0  0  0
  5  6  1  0  0  0  0
  5 30  1  0  0  0  0
  5 31  1  0  0  0  0
  6  7  2  0  0  0  0
  6  8  1  0  0  0  0
  8  9  1  0  0  0  0
  8 32  1  0  0  0  0
  9 20  1  0  0  0  0
  9 10  2  0  0  0  0
 10 11  1  0  0  0  0
 10 33  1  0  0  0  0
 11 12  2  0  0  0  0
 11 34  1  0  0  0  0
 12 13  1  0  0  0  0
 12 19  1  0  0  0  0
 13 18  1  0  0  0  0
 13 14  1  0  0  0  0
 14 15  1  0  0  0  0
 14 35  1  0  0  0  0
 14 36  1  0  0  0  0
 15 16  1  0  0  0  0
 15 37  1  0  0  0  0
 15 38  1  0  0  0  0
 16 17  1  0  0  0  0
 17 18  1  0  0  0  0
 17 39  1  0  0  0  0
 17 40  1  0  0  0  0
 18 41  1  0  0  0  0
 18 42  1  0  0  0  0
 19 20  2  0  0  0  0
 19 43  1  0  0  0  0
M  END
> <s_m_source_file>
AV-unprocessed.smi

> <i_m_source_file_index>
448

> <i_lp_mmshare_version>
43012

> <i_f3d_flags>
0

> <s_epik_input>
W0NIM11DKFtDSDNdKShbQ0gzXSlbQ0gyXUMoPU8pW05IXWMxW2NIXVtjSF1jKFtjSF1uMSlOMltDSDJdW0NIMl1PW0NIMl1bQ0gyXTI=

> <s_epik_cmdline>
J2VwaWtfcHl0aG9uJywgJy1waCcsICc3LjAnLCAnLXRuJywgJzgnLCAnLW1hJywgJzIwMCcsICctbWV0YWxfYmluZGluZycsICctaW1hZScsICc8aW5maWxlLm1hZT4nLCAnLW9tYWUnLCAnPG91dGZpbGUubWFlPic=

> <r_lp_tautomer_probability>
1

> <r_epik_Ionization_Penalty>
0.00318181

> <r_epik_Ionization_Penalty_Charging>
0

> <r_epik_Ionization_Penalty_Neutral>
0.00318181

> <r_epik_State_Penalty>
0.00295116

> <r_epik_Charging_Adjusted_Penalty>
0.00295116

> <i_epik_Tot_Q>
0

> <i_epik_Tot_abs_Q>
0

> <r_epik_Metal_State_Penalty>
-0

> <b_epik_Metal_Only>
0

> <s_lp_Force_Field>
OPLS_2005

> <r_lp_Energy>
25.5761

> <b_lp_Chiralities_Consistent>
1

> <s_lp_Variant>
AV-unprocessed.smi:448-1

> <Gold.Version>
5.8.1

> <Gold.Id.Protein>
6NUR|6NUR_protein|mol2

> <Gold.PLP.Fitness>
39.0341

> <Gold.PLP.PLP>
-35.5472

> <Gold.PLP.part.hbond>
-1.5972

> <Gold.PLP.part.metal>
0.0000

> <Gold.PLP.part.buried>
3.6489

> <Gold.PLP.part.nonpolar>
-37.2111

> <Gold.PLP.part.repulsive>
1.1066

> <Gold.PLP.ligand.clash>
0.0000

> <Gold.PLP.ligand.torsion>
0.6931

> <Gold.PLP.Chemscore.Hbond>
1.4958

> <Gold.PLP.Chemscore.CHOScore>
0.0000

> <Gold.PLP.Chemscore.Metal>
0.0000

> <Gold.Chemscore.Hbonds>
donor molecule, donor type, donor heavy atom, donor atom, acceptor molecule, acceptor atom, score
      L1  H     8    32       P1  8028  0.82

> <Gold.PLP.Chemscore.Internal.Correction>
0.3859

> <Gold.Rescore>
     Score         DG    S(hbond)    S(metal)    S(lipo)     H(rot)  DE(clash)    DE(int)     intcor
     13.71     -16.90       0.95        0.00      99.17       1.30       1.25       1.94       ----

> <Gold.Chemscore.Fitness>
13.7084

> <Gold.Chemscore.DG>
-16.9015

> <Gold.Chemscore.ZeroCoef>
-5.4800

> <Gold.Chemscore.Hbond>
0.9453

> <Gold.Chemscore.Metal>
0.0000

> <Gold.Chemscore.Lipo>
99.1702

> <Gold.Chemscore.Internal_Hbond>
0.0000

> <Gold.Chemscore.DEClash>
1.2500

> <Gold.Chemscore.DEInternal>
1.9430

> <Gold.Chemscore.Rot>
1.3042

> <Gold.Chemscore.Internal.Correction>
   9.000000E+99

> <Gold.Chemscore.Hbonds>
donor molecule, donor type, donor heavy atom, donor atom, acceptor molecule, acceptor atom, score
      L1  H     8    32       P1  8028  0.81

> <Gold.Chemscore.Hbond.Weighted>
-3.1574

> <Gold.Chemscore.Metal.Weighted>
-0.0000

> <Gold.Chemscore.Lipo.Weighted>
-11.6029

> <Gold.Chemscore.Internal_Hbond.Weighted>
0.0000

> <Gold.Chemscore.DEClash.Weighted>
1.2500

> <Gold.Chemscore.DEInternal.Weighted>
1.9430

> <Gold.Chemscore.Rot.Weighted>
3.3389

> <Gold.Chemscore.Internal.Correction.Weighted>
   9.000000E+99

> <Gold.Protein.RotatedTorsions>
[ 6907 6896 6895 6894 ] final   65.90 input  -60.11 | X-H torsion
[ 7974 7965 7964 7962 ] final  -27.38 input  175.53 | X-H torsion
[ 8008 7997 7996 7995 ] final -120.32 input   59.86 | X-H torsion
[ 10167 10162 10161 10158 ] final   27.18 input  -65.29 | X-H torsion
[ 10718 10713 10712 10709 ] final   63.16 input   66.30 | X-H torsion
[ 10763 10752 10751 10750 ] final   -8.77 input  -60.55 | X-H torsion
[ 11005 11000 10999 10996 ] final  -89.06 input  -57.11 | X-H torsion

> <Gold.Protein.ActiveResidues>
 VAL166  LYS551  ARG553  GLY616  TRP617  ASP618  TYR619  PRO620  LYS621  CYS622 
 ASP623  PHE694  ASN695  SER759  ASP760  ASP761  ALA762  ILE779  LEU786  VAL792 
 PHE793  MET794  SER795  GLU796  ALA797  LYS798  CYS799  TRP800  GLU811  SER814 

> <Gold.Protein.RotatedAtoms>
  152.4441  134.5530  159.9872 H   0  0  0  0  0  0  0  0  0  0  0  0  # atno 6907 bound_to 6896
  151.5620  133.3396  159.2981 H   0  0  0  0  0  0  0  0  0  0  0  0  # atno 6908 bound_to 6896
  150.8354  134.7657  159.6952 H   0  0  0  0  0  0  0  0  0  0  0  0  # atno 6909 bound_to 6896
  146.1362  140.5144  142.8672 H   0  0  0  0  0  0  0  0  0  0  0  0  # atno 7974 bound_to 7965
  155.1300  140.0400  157.2772 H   0  0  0  0  0  0  0  0  0  0  0  0  # atno 8008 bound_to 7997
  154.6550  140.2578  155.7146 H   0  0  0  0  0  0  0  0  0  0  0  0  # atno 8009 bound_to 7997
  156.2594  140.2828  156.0999 H   0  0  0  0  0  0  0  0  0  0  0  0  # atno 8010 bound_to 7997
  140.4960  144.0391  150.6314 H   0  0  0  0  0  0  0  0  0  0  0  0  # atno 10167 bound_to 10162
  157.5952  130.9090  149.9681 H   0  0  0  0  0  0  0  0  0  0  0  0  # atno 10718 bound_to 10713
  153.4452  135.7014  153.6143 H   0  0  0  0  0  0  0  0  0  0  0  0  # atno 10763 bound_to 10752
  153.4501  135.3760  155.2279 H   0  0  0  0  0  0  0  0  0  0  0  0  # atno 10764 bound_to 10752
  154.8728  135.3995  154.3856 H   0  0  0  0  0  0  0  0  0  0  0  0  # atno 10765 bound_to 10752
  141.1591  133.7607  156.9541 H   0  0  0  0  0  0  0  0  0  0  0  0  # atno 11005 bound_to 11000
  144.7742  140.5703  143.6649 LP  0  0  0  0  0  0  0  0  0  0  0  0  # atno 17320 bound_to 7965
  145.5151  139.1478  143.3583 LP  0  0  0  0  0  0  0  0  0  0  0  0  # atno 17321 bound_to 7965
  140.3673  143.2874  152.0317 LP  0  0  0  0  0  0  0  0  0  0  0  0  # atno 17342 bound_to 10162
  139.4861  144.6257  151.7169 LP  0  0  0  0  0  0  0  0  0  0  0  0  # atno 17343 bound_to 10162
  156.1013  130.3655  150.0213 LP  0  0  0  0  0  0  0  0  0  0  0  0  # atno 17370 bound_to 10713
  156.8327  130.9398  151.3636 LP  0  0  0  0  0  0  0  0  0  0  0  0  # atno 17371 bound_to 10713
  140.1237  134.9400  157.2240 LP  0  0  0  0  0  0  0  0  0  0  0  0  # atno 17394 bound_to 11000
  140.3039  134.3100  155.7283 LP  0  0  0  0  0  0  0  0  0  0  0  0  # atno 17395 bound_to 11000

$$$$
