#       Name:                AV-unprocessed.smi:39
#       Creating user name   scv26
#       Creation time:       Thu Mar 26 16:19:27 2020


#       File generated by GOLD software.
#

@<TRIPOS>MOLECULE
AV-unprocessed.smi:39
    42    43     1
SMALL
NO_CHARGES


@<TRIPOS>ATOM
      1 ****        -3.5280   1.9245  -0.7732 C.3            1 S1                 0.0000
      2 ****        -2.9181   0.5785  -0.4171 C.2            1 S1                 0.0000
      3 ****        -1.5892   0.3262  -0.5390 C.2            1 S1                 0.0000
      4 ****        -1.0036  -0.8944  -0.2209 N.am           1 S1                 0.0000
      5 ****         0.4816  -1.1603  -0.3770 C.3            1 S1                 0.0000
      6 ****         1.1602  -1.3023   0.9999 C.3            1 S1                 0.0000
      7 ****         2.3320  -0.3350   0.9059 C.3            1 S1                 0.0000
      8 ****         3.5203  -0.9918   0.3428 N.2            1 S1                 0.0000
      9 ****         4.2495  -1.5974   1.1394 N.1            1 S1                 1.0000
     10 ****         4.8206  -2.1575   1.9488 N.1            1 S1                -1.0000
     11 ****         1.7536   0.7228  -0.0408 C.3            1 S1                 0.0000
     12 ****         2.7863   1.6544  -0.6976 C.3            1 S1                 0.0000
     13 ****         2.1489   2.8222  -1.1694 O.3            1 S1                 0.0000
     14 ****         1.0986  -0.0804  -1.0152 O.3            1 S1                 0.0000
     15 ****        -1.8204  -1.9499   0.2349 C.2            1 S1                 0.0000
     16 ****        -1.3745  -3.0618   0.5163 O.2            1 S1                 0.0000
     17 ****        -3.1833  -1.6906   0.3625 N.am           1 S1                 0.0000
     18 ****        -3.8102  -0.4779   0.0682 C.2            1 S1                 0.0000
     19 ****        -5.0254  -0.3691   0.2238 O.2            1 S1                 0.0000
     20 ****         0.5597  -2.0470  -1.0091 H              1 S1                 0.0000
     21 ****         2.5574   0.1101   1.8771 H              1 S1                 0.0000
     22 ****         1.0154   1.3107   0.5086 H              1 S1                 0.0000
     23 ****        -3.7682  -2.4442   0.6929 H              1 S1                 0.0000
     24 ****        -2.7738   2.6342  -1.1146 H              1 S1                 0.0000
     25 ****        -4.0265   2.3588   0.0941 H              1 S1                 0.0000
     26 ****        -4.2636   1.8102  -1.5700 H              1 S1                 0.0000
     27 ****        -0.9706   1.1305  -0.9072 H              1 S1                 0.0000
     28 ****         0.4766  -0.9830   1.7883 H              1 S1                 0.0000
     29 ****         1.4485  -2.3370   1.1906 H              1 S1                 0.0000
     30 ****         3.5335   1.9617   0.0347 H              1 S1                 0.0000
     31 ****         3.3134   1.1564  -1.5118 H              1 S1                 0.0000
     32 ****         2.8000   3.3798  -1.5669 H              1 S1                 0.0000
     33 ****         3.7292  -0.9516  -0.6343 LP             1 S1                 0.0000
     34 ****         5.3224  -2.6497   2.6601 LP             1 S1                 0.0000
     35 ****         1.7150   3.3013  -0.4063 LP             1 S1                 0.0000
     36 ****         1.4553   2.5775  -1.8470 LP             1 S1                 0.0000
     37 ****         0.4093   0.4658  -1.4911 LP             1 S1                 0.0000
     38 ****         1.7689  -0.4198  -1.6751 LP             1 S1                 0.0000
     39 ****        -0.3958  -3.2458   0.4252 LP             1 S1                 0.0000
     40 ****        -1.9909  -3.7815   0.8361 LP             1 S1                 0.0000
     41 ****        -5.4810   0.4957   0.0131 LP             1 S1                 0.0000
     42 ****        -5.5578  -1.1455   0.5611 LP             1 S1                 0.0000
@<TRIPOS>BOND
    1    1    2 1     
    2    1   24 1     
    3    1   25 1     
    4    1   26 1     
    5    2   18 1     
    6    2    3 2     
    7    3    4 1     
    8    3   27 1     
    9    4    5 1     
   10    4   15 1     
   11    5   20 1     
   12    5   14 1     
   13    5    6 1     
   14    6    7 1     
   15    6   28 1     
   16    6   29 1     
   17    7   21 1     
   18    7    8 1     
   19    7   11 1     
   20    8    9 2     
   21    9   10 2     
   22   11   22 1     
   23   11   12 1     
   24   11   14 1     
   25   12   13 1     
   26   12   30 1     
   27   12   31 1     
   28   13   32 1     
   29   15   16 2     
   30   15   17 1     
   31   17   23 1     
   32   17   18 1     
   33   18   19 2     
   34    8   33 1     
   35   10   34 1     
   36   13   35 1     
   37   13   36 1     
   38   14   37 1     
   39   14   38 1     
   40   16   39 1     
   41   16   40 1     
   42   19   41 1     
   43   19   42 1     
@<TRIPOS>SUBSTRUCTURE
      1 S1             1
@<TRIPOS>SET
LONE_PAIRS      STATIC     ATOMS    <user>   **** ""
10 33 34 35 36 37 38 39 40 41 42
DONOR_HYDROGENS      STATIC     ATOMS    <user>   **** ""
2 32 23
ATOM$BLUE        STATIC     ATOMS    COLORGROUP SYSTEM
10 33 34 35 36 37 38 39 40 41 42
ATOM$RED        STATIC     ATOMS    COLORGROUP SYSTEM
2 32 23
