AV-unprocessed.smi:2182|AV-procd|sdf|8863|dock1
  -GOLD-   2272012 53D 1   1.00000     0.00000
 Structure written by MMmdl.
 41 43  0  0  0  0  0  0  0  0  1 V2000
  149.9071  133.9202  155.2173 N   0  0  0  0  0  0  0  0  0  0  0  0
  150.1092  135.0598  155.2114 C   0  0  0  0  0  0  0  0  0  0  0  0
  150.3849  136.4586  155.2204 C   0  0  0  0  0  0  0  0  0  0  0  0
  149.6101  137.3396  154.5547 C   0  0  0  0  0  0  0  0  0  0  0  0
  149.8570  138.6951  154.5581 N   0  0  0  0  0  0  0  0  0  0  0  0
  149.1200  139.5920  153.7131 C   0  0  0  0  0  0  0  0  0  0  0  0
  148.5984  140.9070  154.2597 C   0  0  0  0  0  0  0  0  0  0  0  0
  147.6392  139.7813  153.9586 C   0  0  0  0  0  0  0  0  0  0  0  0
  150.9997  139.2057  155.2110 C   0  0  0  0  0  0  0  0  0  0  0  0
  151.2920  140.4028  155.1443 O   0  0  0  0  0  0  0  0  0  0  0  0
  151.8116  138.2982  155.9345 N   0  0  0  0  0  0  0  0  0  0  0  0
  153.0067  138.8282  156.6264 C   0  0  0  0  0  0  0  0  0  0  0  0
  152.7560  139.1008  158.1165 C   0  0  0  0  0  0  0  0  0  0  0  0
  152.5521  138.1715  158.8989 O   0  0  0  0  0  0  0  0  0  0  0  0
  152.7743  140.3888  158.4909 N   0  0  0  0  0  0  0  0  0  0  0  0
  152.6189  140.8742  159.8581 C   0  0  0  0  0  0  0  0  0  0  0  0
  152.7652  142.4042  159.9366 C   0  0  2  0  0  0  0  0  0  0  0  0
  152.3319  143.0366  161.2583 C   0  0  0  0  0  0  0  0  0  0  0  0
  152.0481  144.4758  160.8681 C   0  0  0  0  0  0  0  0  0  0  0  0
  151.7860  144.4056  159.3596 C   0  0  0  0  0  0  0  0  0  0  0  0
  151.8976  143.0314  159.0065 O   0  0  0  0  0  0  0  0  0  0  0  0
  151.5529  136.9041  155.9770 C   0  0  0  0  0  0  0  0  0  0  0  0
  152.2869  136.1396  156.6053 O   0  0  0  0  0  0  0  0  0  0  0  0
  148.7591  136.9713  153.9997 H   0  0  0  0  0  0  0  0  0  0  0  0
  149.4312  139.6050  152.6699 H   0  0  0  0  0  0  0  0  0  0  0  0
  148.7786  141.1380  155.3080 H   0  0  0  0  0  0  0  0  0  0  0  0
  148.5968  141.7630  153.5881 H   0  0  0  0  0  0  0  0  0  0  0  0
  146.9964  139.8889  153.0873 H   0  0  0  0  0  0  0  0  0  0  0  0
  147.1902  139.2697  154.8081 H   0  0  0  0  0  0  0  0  0  0  0  0
  153.8413  138.1331  156.5173 H   0  0  0  0  0  0  0  0  0  0  0  0
  153.3679  139.7504  156.1694 H   0  0  0  0  0  0  0  0  0  0  0  0
  152.9401  141.0850  157.7787 H   0  0  0  0  0  0  0  0  0  0  0  0
  151.6242  140.5882  160.2006 H   0  0  0  0  0  0  0  0  0  0  0  0
  153.3250  140.3845  160.5311 H   0  0  0  0  0  0  0  0  0  0  0  0
  153.7913  142.6966  159.7040 H   0  0  0  0  0  0  0  0  0  0  0  0
  151.4149  142.5671  161.6170 H   0  0  0  0  0  0  0  0  0  0  0  0
  153.0865  142.9495  162.0408 H   0  0  0  0  0  0  0  0  0  0  0  0
  151.1990  144.8825  161.4185 H   0  0  0  0  0  0  0  0  0  0  0  0
  152.9137  145.1078  161.0706 H   0  0  0  0  0  0  0  0  0  0  0  0
  150.8001  144.7869  159.0923 H   0  0  0  0  0  0  0  0  0  0  0  0
  152.5326  144.9837  158.8132 H   0  0  0  0  0  0  0  0  0  0  0  0
  1  2  3  0  0  0  0
  2  3  1  0  0  0  0
  3 22  1  0  0  0  0
  3  4  2  0  0  0  0
  4  5  1  0  0  0  0
  4 24  1  0  0  0  0
  5  6  1  0  0  0  0
  5  9  1  0  0  0  0
  6  8  1  0  0  0  0
  6  7  1  0  0  0  0
  6 25  1  0  0  0  0
  7  8  1  0  0  0  0
  7 26  1  0  0  0  0
  7 27  1  0  0  0  0
  8 28  1  0  0  0  0
  8 29  1  0  0  0  0
  9 10  2  0  0  0  0
  9 11  1  0  0  0  0
 11 12  1  0  0  0  0
 11 22  1  0  0  0  0
 12 13  1  0  0  0  0
 12 30  1  0  0  0  0
 12 31  1  0  0  0  0
 13 14  2  0  0  0  0
 13 15  1  0  0  0  0
 15 16  1  0  0  0  0
 15 32  1  0  0  0  0
 16 17  1  0  0  0  0
 16 33  1  0  0  0  0
 16 34  1  0  0  0  0
 17 21  1  0  0  0  0
 17 18  1  0  0  0  0
 17 35  1  0  0  0  0
 18 19  1  0  0  0  0
 18 36  1  0  0  0  0
 18 37  1  0  0  0  0
 19 20  1  0  0  0  0
 19 38  1  0  0  0  0
 19 39  1  0  0  0  0
 20 21  1  0  0  0  0
 20 40  1  0  0  0  0
 20 41  1  0  0  0  0
 22 23  2  0  0  0  0
M  END
> <s_m_source_file>
AV-unprocessed.smi

> <i_m_source_file_index>
2182

> <i_lp_mmshare_version>
43012

> <i_f3d_flags>
0

> <s_epik_input>
TiNDYzFbY0hdbihbQ0hdMltDSDJdW0NIMl0yKWMoPU8pbihjMT1PKVtDSDJdQyg9TylbTkhdW0NIMl1bQ0BASF0zW0NIMl1bQ0gyXVtDSDJdTzM=

> <s_epik_cmdline>
J2VwaWtfcHl0aG9uJywgJy1waCcsICc3LjAnLCAnLXRuJywgJzgnLCAnLW1hJywgJzIwMCcsICctbWV0YWxfYmluZGluZycsICctaW1hZScsICc8aW5maWxlLm1hZT4nLCAnLW9tYWUnLCAnPG91dGZpbGUubWFlPic=

> <r_lp_tautomer_probability>
1

> <r_epik_Ionization_Penalty>
2.69429e-08

> <r_epik_Ionization_Penalty_Charging>
8.38654e-11

> <r_epik_Ionization_Penalty_Neutral>
2.6859e-08

> <r_epik_State_Penalty>
-0

> <r_epik_Charging_Adjusted_Penalty>
8.38654e-11

> <i_epik_Tot_Q>
0

> <i_epik_Tot_abs_Q>
0

> <r_epik_Metal_State_Penalty>
-0

> <b_epik_Metal_Only>
0

> <s_lp_Force_Field>
OPLS_2005

> <r_lp_Energy>
43.5175

> <b_lp_Chiralities_Consistent>
1

> <s_lp_Variant>
AV-unprocessed.smi:2182-1

> <Gold.Version>
5.8.1

> <Gold.Id.Protein>
6NUR|6NUR_protein|mol2

> <Gold.PLP.Fitness>
44.2255

> <Gold.PLP.PLP>
-37.1288

> <Gold.PLP.part.hbond>
-2.0000

> <Gold.PLP.part.metal>
0.0000

> <Gold.PLP.part.buried>
2.4729

> <Gold.PLP.part.nonpolar>
-37.6326

> <Gold.PLP.part.repulsive>
0.2548

> <Gold.PLP.ligand.clash>
0.0000

> <Gold.PLP.ligand.torsion>
0.5907

> <Gold.PLP.Chemscore.Hbond>
1.9760

> <Gold.PLP.Chemscore.CHOScore>
0.7030

> <Gold.PLP.Chemscore.Metal>
0.0000

> <Gold.Chemscore.Hbonds>
donor molecule, donor type, donor heavy atom, donor atom, acceptor molecule, acceptor atom, score
      P1  H  7989  7998       L1    10  0.99
      P1  H 10752 10763       L1    23  1.00
      L1  C     4    24       P1  7948  0.82

> <Gold.PLP.Chemscore.Internal.Correction>
0.2410

> <Gold.Rescore>
     Score         DG    S(hbond)    S(metal)    S(lipo)     H(rot)  DE(clash)    DE(int)     intcor
     14.34     -16.39       1.92        0.00      83.74       2.08       0.18       1.86       ----

> <Gold.Chemscore.Fitness>
14.3440

> <Gold.Chemscore.DG>
-16.3858

> <Gold.Chemscore.ZeroCoef>
-5.4800

> <Gold.Chemscore.Hbond>
1.9243

> <Gold.Chemscore.Metal>
0.0000

> <Gold.Chemscore.Lipo>
83.7413

> <Gold.Chemscore.Internal_Hbond>
0.0000

> <Gold.Chemscore.DEClash>
0.1836

> <Gold.Chemscore.DEInternal>
1.8582

> <Gold.Chemscore.Rot>
2.0778

> <Gold.Chemscore.Internal.Correction>
   9.000000E+99

> <Gold.Chemscore.Hbonds>
donor molecule, donor type, donor heavy atom, donor atom, acceptor molecule, acceptor atom, score
      P1  H  7989  7998       L1    10  0.77
      P1  H 10752 10763       L1    23  0.35

> <Gold.Chemscore.Hbond.Weighted>
-6.4272

> <Gold.Chemscore.Metal.Weighted>
-0.0000

> <Gold.Chemscore.Lipo.Weighted>
-9.7977

> <Gold.Chemscore.Internal_Hbond.Weighted>
0.0000

> <Gold.Chemscore.DEClash.Weighted>
0.1836

> <Gold.Chemscore.DEInternal.Weighted>
1.8582

> <Gold.Chemscore.Rot.Weighted>
5.3191

> <Gold.Chemscore.Internal.Correction.Weighted>
   9.000000E+99

> <Gold.Protein.RotatedTorsions>
[ 6907 6896 6895 6894 ] final  152.40 input  -60.11 | X-H torsion
[ 7974 7965 7964 7962 ] final  -90.99 input  175.53 | X-H torsion
[ 8008 7997 7996 7995 ] final  150.57 input   59.86 | X-H torsion
[ 10167 10162 10161 10158 ] final -100.44 input  -65.29 | X-H torsion
[ 10718 10713 10712 10709 ] final  -26.31 input   66.30 | X-H torsion
[ 10763 10752 10751 10750 ] final  105.69 input  -60.55 | X-H torsion
[ 11005 11000 10999 10996 ] final   23.72 input  -57.11 | X-H torsion

> <Gold.Protein.ActiveResidues>
 VAL166  LYS551  ARG553  GLY616  TRP617  ASP618  TYR619  PRO620  LYS621  CYS622 
 ASP623  PHE694  ASN695  SER759  ASP760  ASP761  ALA762  ILE779  LEU786  VAL792 
 PHE793  MET794  SER795  GLU796  ALA797  LYS798  CYS799  TRP800  GLU811  SER814 

> <Gold.Protein.RotatedAtoms>
  152.0873  133.4182  159.4527 H   0  0  0  0  0  0  0  0  0  0  0  0  # atno 6907 bound_to 6896
  150.6862  134.2913  159.4677 H   0  0  0  0  0  0  0  0  0  0  0  0  # atno 6908 bound_to 6896
  152.0761  134.9502  160.0624 H   0  0  0  0  0  0  0  0  0  0  0  0  # atno 6909 bound_to 6896
  145.4191  140.9550  143.2191 H   0  0  0  0  0  0  0  0  0  0  0  0  # atno 7974 bound_to 7965
  156.2710  140.2071  156.6039 H   0  0  0  0  0  0  0  0  0  0  0  0  # atno 8008 bound_to 7997
  154.6885  140.0532  157.0363 H   0  0  0  0  0  0  0  0  0  0  0  0  # atno 8009 bound_to 7997
  155.0900  140.3195  155.4579 H   0  0  0  0  0  0  0  0  0  0  0  0  # atno 8010 bound_to 7997
  140.2519  143.3467  152.0707 H   0  0  0  0  0  0  0  0  0  0  0  0  # atno 10167 bound_to 10162
  156.4529  130.4487  149.6978 H   0  0  0  0  0  0  0  0  0  0  0  0  # atno 10718 bound_to 10713
  153.3827  135.3902  155.1868 H   0  0  0  0  0  0  0  0  0  0  0  0  # atno 10763 bound_to 10752
  154.8709  135.3729  154.4836 H   0  0  0  0  0  0  0  0  0  0  0  0  # atno 10764 bound_to 10752
  153.5315  135.7085  153.5742 H   0  0  0  0  0  0  0  0  0  0  0  0  # atno 10765 bound_to 10752
  140.3666  134.2068  155.7669 H   0  0  0  0  0  0  0  0  0  0  0  0  # atno 11005 bound_to 11000
  144.8257  139.5713  143.6966 LP  0  0  0  0  0  0  0  0  0  0  0  0  # atno 17320 bound_to 7965
  146.2666  139.6534  142.9325 LP  0  0  0  0  0  0  0  0  0  0  0  0  # atno 17321 bound_to 7965
  139.5044  144.6774  151.6094 LP  0  0  0  0  0  0  0  0  0  0  0  0  # atno 17342 bound_to 10162
  140.6034  143.9568  150.6402 LP  0  0  0  0  0  0  0  0  0  0  0  0  # atno 17343 bound_to 10162
  156.3797  130.7573  151.2564 LP  0  0  0  0  0  0  0  0  0  0  0  0  # atno 17370 bound_to 10713
  157.7502  131.0299  150.4113 LP  0  0  0  0  0  0  0  0  0  0  0  0  # atno 17371 bound_to 10713
  141.1968  133.8075  157.0657 LP  0  0  0  0  0  0  0  0  0  0  0  0  # atno 17394 bound_to 11000
  140.0585  134.9768  157.1263 LP  0  0  0  0  0  0  0  0  0  0  0  0  # atno 17395 bound_to 11000

$$$$
