AV-unprocessed.smi:99|AV-procd|sdf|891|dock7
  -GOLD-   2262017383D 1   1.00000     0.00000
 Structure written by MMmdl.
 52 55  0  0  0  0  0  0  0  0  2 V2000
  149.5879  141.3358  156.3164 O   0  0  0  0  0  0  0  0  0  0  0  0
  150.0683  141.0418  157.4130 C   0  0  0  0  0  0  0  0  0  0  0  0
  149.7797  139.9032  158.0725 O   0  0  0  0  0  0  0  0  0  0  0  0
  148.6023  139.1800  157.7548 C   0  0  0  0  0  0  0  0  0  0  0  0
  148.8537  138.3251  156.5050 C   0  0  2  0  0  0  0  0  0  0  0  0
  147.7353  138.3571  155.6336 O   0  0  0  0  0  0  0  0  0  0  0  0
  147.8396  137.2849  154.7519 C   0  0  2  0  0  0  0  0  0  0  0  0
  146.4438  136.8803  154.3278 N   0  0  0  0  0  0  0  0  0  0  0  0
  146.1340  136.8739  152.9795 C   0  0  0  0  0  0  0  0  0  0  0  0
  144.9000  136.5529  152.5400 C   0  0  0  0  0  0  0  0  0  0  0  0
  143.8614  136.2127  153.5076 C   0  0  0  0  0  0  0  0  0  0  0  0
  142.7437  135.9050  153.0983 O   0  0  0  0  0  0  0  0  0  0  0  0
  144.1809  136.2549  154.8327 N   0  5  0  0  0  0  0  0  0  0  0  0
  145.4259  136.5908  155.2806 C   0  0  0  0  0  0  0  0  0  0  0  0
  145.7059  136.6600  156.4753 O   0  0  0  0  0  0  0  0  0  0  0  0
  148.6218  136.1641  155.4671 C   0  0  1  0  0  0  0  0  0  0  0  0
  149.7681  135.7724  154.7392 O   0  0  0  0  0  0  0  0  0  0  0  0
  149.0686  136.8287  156.7723 C   0  0  2  0  0  0  0  0  0  0  0  0
  148.2707  136.3941  157.8674 O   0  0  0  0  0  0  0  0  0  0  0  0
  148.5769  135.2775  158.5582 C   0  0  0  0  0  0  0  0  0  0  0  0
  149.2419  134.3478  158.0970 O   0  0  0  0  0  0  0  0  0  0  0  0
  148.0217  135.2885  159.9421 C   0  0  0  0  0  0  0  0  0  0  0  0
  147.7876  136.5251  160.5871 C   0  0  0  0  0  0  0  0  0  0  0  0
  147.2680  136.5640  161.8958 C   0  0  0  0  0  0  0  0  0  0  0  0
  146.9781  135.3667  162.5757 C   0  0  0  0  0  0  0  0  0  0  0  0
  147.2077  134.1301  161.9453 C   0  0  0  0  0  0  0  0  0  0  0  0
  147.7255  134.0893  160.6363 C   0  0  0  0  0  0  0  0  0  0  0  0
  151.0345  141.9096  158.1470 C   0  0  0  0  0  0  0  0  0  0  0  0
  151.2536  143.2339  157.7009 C   0  0  0  0  0  0  0  0  0  0  0  0
  152.1674  144.0735  158.3672 C   0  0  0  0  0  0  0  0  0  0  0  0
  152.8726  143.5993  159.4885 C   0  0  0  0  0  0  0  0  0  0  0  0
  152.6622  142.2846  159.9437 C   0  0  0  0  0  0  0  0  0  0  0  0
  151.7492  141.4432  159.2783 C   0  0  0  0  0  0  0  0  0  0  0  0
  148.3392  138.5375  158.5961 H   0  0  0  0  0  0  0  0  0  0  0  0
  147.7707  139.8667  157.5887 H   0  0  0  0  0  0  0  0  0  0  0  0
  149.7193  138.7089  155.9619 H   0  0  0  0  0  0  0  0  0  0  0  0
  148.3425  137.6276  153.8462 H   0  0  0  0  0  0  0  0  0  0  0  0
  146.8922  137.1277  152.2538 H   0  0  0  0  0  0  0  0  0  0  0  0
  144.6798  136.5510  151.4826 H   0  0  0  0  0  0  0  0  0  0  0  0
  147.9997  135.2847  155.6358 H   0  0  0  0  0  0  0  0  0  0  0  0
  149.5839  135.8672  153.8175 H   0  0  0  0  0  0  0  0  0  0  0  0
  150.1200  136.6390  156.9955 H   0  0  0  0  0  0  0  0  0  0  0  0
  148.0046  137.4570  160.0855 H   0  0  0  0  0  0  0  0  0  0  0  0
  147.0937  137.5141  162.3787 H   0  0  0  0  0  0  0  0  0  0  0  0
  146.5816  135.3965  163.5799 H   0  0  0  0  0  0  0  0  0  0  0  0
  146.9895  133.2097  162.4663 H   0  0  0  0  0  0  0  0  0  0  0  0
  147.8935  133.1226  160.1840 H   0  0  0  0  0  0  0  0  0  0  0  0
  150.7253  143.6198  156.8409 H   0  0  0  0  0  0  0  0  0  0  0  0
  152.3280  145.0820  158.0154 H   0  0  0  0  0  0  0  0  0  0  0  0
  153.5746  144.2427  159.9982 H   0  0  0  0  0  0  0  0  0  0  0  0
  153.2033  141.9190  160.8038 H   0  0  0  0  0  0  0  0  0  0  0  0
  151.6141  140.4386  159.6514 H   0  0  0  0  0  0  0  0  0  0  0  0
  1  2  2  0  0  0  0
  2  3  1  0  0  0  0
  2 28  1  0  0  0  0
  3  4  1  0  0  0  0
  4  5  1  0  0  0  0
  4 34  1  0  0  0  0
  4 35  1  0  0  0  0
  5 18  1  0  0  0  0
  5  6  1  0  0  0  0
  5 36  1  0  0  0  0
  6  7  1  0  0  0  0
  7  8  1  0  0  0  0
  7 16  1  0  0  0  0
  7 37  1  0  0  0  0
  8 14  1  0  0  0  0
  8  9  1  0  0  0  0
  9 10  2  0  0  0  0
  9 38  1  0  0  0  0
 10 11  1  0  0  0  0
 10 39  1  0  0  0  0
 11 12  2  0  0  0  0
 11 13  1  0  0  0  0
 13 14  1  0  0  0  0
 14 15  2  0  0  0  0
 16 17  1  0  0  0  0
 16 18  1  0  0  0  0
 16 40  1  0  0  0  0
 17 41  1  0  0  0  0
 18 19  1  0  0  0  0
 18 42  1  0  0  0  0
 19 20  1  0  0  0  0
 20 21  2  0  0  0  0
 20 22  1  0  0  0  0
 22 27  1  0  0  0  0
 22 23  2  0  0  0  0
 23 24  1  0  0  0  0
 23 43  1  0  0  0  0
 24 25  2  0  0  0  0
 24 44  1  0  0  0  0
 25 26  1  0  0  0  0
 25 45  1  0  0  0  0
 26 27  2  0  0  0  0
 26 46  1  0  0  0  0
 27 47  1  0  0  0  0
 28 33  1  0  0  0  0
 28 29  2  0  0  0  0
 29 30  1  0  0  0  0
 29 48  1  0  0  0  0
 30 31  2  0  0  0  0
 30 49  1  0  0  0  0
 31 32  1  0  0  0  0
 31 50  1  0  0  0  0
 32 33  2  0  0  0  0
 32 51  1  0  0  0  0
 33 52  1  0  0  0  0
M  CHG  1  13  -1
M  END
> <s_m_source_file>
AV-unprocessed.smi

> <i_m_source_file_index>
99

> <i_lp_mmshare_version>
43012

> <i_f3d_flags>
0

> <s_epik_input>
W2NIXTFbY0hdW2NIXVtjSF1bY0hdYzFDKD1PKU9bQ0gyXVtDQEBIXTJPW0NAQEhdKG4zW2NIXVtjSF1jKD1PKVtuSF1jMz1PKVtDQEBIXShbT0hdKVtDQEhdMk9DKD1PKWM0W2NIXVtjSF1bY0hdW2NIXVtjSF00

> <s_epik_cmdline>
J2VwaWtfcHl0aG9uJywgJy1waCcsICc3LjAnLCAnLXRuJywgJzgnLCAnLW1hJywgJzIwMCcsICctbWV0YWxfYmluZGluZycsICctaW1hZScsICc8aW5maWxlLm1hZT4nLCAnLW9tYWUnLCAnPG91dGZpbGUubWFlPic=

> <r_lp_tautomer_probability>
1

> <r_epik_Ionization_Penalty>
2.89159

> <r_epik_Ionization_Penalty_Charging>
2.1077e-08

> <r_epik_Ionization_Penalty_Neutral>
2.89159

> <r_epik_State_Penalty>
2.88671

> <r_epik_Charging_Adjusted_Penalty>
2.88671

> <i_epik_Tot_Q>
-1

> <i_epik_Tot_abs_Q>
1

> <r_epik_Metal_State_Penalty>
0.0727308

> <b_epik_Metal_Only>
1

> <s_epik_Chemistry_Notes>
This compound has an ester and may undergo hydrolysis at high or low pH. This compound contains an acetal/aminal-like group ( X-CH(R)-Y where X, Y are N, S, or O) that may be acid/base labile, releasing an aldehyde.

> <s_lp_Force_Field>
OPLS_2005

> <r_lp_Energy>
34.2079

> <b_lp_Chiralities_Consistent>
1

> <s_lp_Variant>
AV-unprocessed.smi:99-27

> <Gold.Version>
5.8.1

> <Gold.Id.Protein>
6NUR|6NUR_protein|mol2

> <Gold.PLP.Fitness>
51.5438

> <Gold.PLP.PLP>
-46.2090

> <Gold.PLP.part.hbond>
-2.0000

> <Gold.PLP.part.metal>
0.0000

> <Gold.PLP.part.buried>
-6.7517

> <Gold.PLP.part.nonpolar>
-38.4460

> <Gold.PLP.part.repulsive>
0.2468

> <Gold.PLP.ligand.clash>
0.0000

> <Gold.PLP.ligand.torsion>
1.9974

> <Gold.PLP.Chemscore.Hbond>
2.0000

> <Gold.PLP.Chemscore.CHOScore>
1.0000

> <Gold.PLP.Chemscore.Metal>
0.0000

> <Gold.Chemscore.Hbonds>
donor molecule, donor type, donor heavy atom, donor atom, acceptor molecule, acceptor atom, score
      L1  H    17    41       P1  7948  0.94
      P1  H  6896  6908       L1    21  1.00
      L1  C     9    38       P1  7948  1.00

> <Gold.PLP.Chemscore.Internal.Correction>
0.3295

> <Gold.Rescore>
     Score         DG    S(hbond)    S(metal)    S(lipo)     H(rot)  DE(clash)    DE(int)     intcor
     13.18     -17.75       1.86        0.00     120.33       3.13       0.11       4.46       ----

> <Gold.Chemscore.Fitness>
13.1794

> <Gold.Chemscore.DG>
-17.7466

> <Gold.Chemscore.ZeroCoef>
-5.4800

> <Gold.Chemscore.Hbond>
1.8600

> <Gold.Chemscore.Metal>
0.0000

> <Gold.Chemscore.Lipo>
120.3322

> <Gold.Chemscore.Internal_Hbond>
0.0000

> <Gold.Chemscore.DEClash>
0.1112

> <Gold.Chemscore.DEInternal>
4.4560

> <Gold.Chemscore.Rot>
3.1346

> <Gold.Chemscore.Internal.Correction>
   9.000000E+99

> <Gold.Chemscore.Hbonds>
donor molecule, donor type, donor heavy atom, donor atom, acceptor molecule, acceptor atom, score
      L1  H    17    41       P1  7948  0.36
      P1  H  6896  6908       L1    21  0.73

> <Gold.Chemscore.Hbond.Weighted>
-6.2122

> <Gold.Chemscore.Metal.Weighted>
-0.0000

> <Gold.Chemscore.Lipo.Weighted>
-14.0789

> <Gold.Chemscore.Internal_Hbond.Weighted>
0.0000

> <Gold.Chemscore.DEClash.Weighted>
0.1112

> <Gold.Chemscore.DEInternal.Weighted>
4.4560

> <Gold.Chemscore.Rot.Weighted>
8.0246

> <Gold.Chemscore.Internal.Correction.Weighted>
   9.000000E+99

> <Gold.Protein.RotatedTorsions>
[ 6907 6896 6895 6894 ] final  128.02 input  -60.11 | X-H torsion
[ 7974 7965 7964 7962 ] final  163.78 input  175.53 | X-H torsion
[ 8008 7997 7996 7995 ] final  139.34 input   59.86 | X-H torsion
[ 10167 10162 10161 10158 ] final  140.08 input  -65.29 | X-H torsion
[ 10718 10713 10712 10709 ] final -126.63 input   66.30 | X-H torsion
[ 10763 10752 10751 10750 ] final -164.37 input  -60.55 | X-H torsion
[ 11005 11000 10999 10996 ] final  102.40 input  -57.11 | X-H torsion

> <Gold.Protein.ActiveResidues>
 VAL166  LYS551  ARG553  GLY616  TRP617  ASP618  TYR619  PRO620  LYS621  CYS622 
 ASP623  PHE694  ASN695  SER759  ASP760  ASP761  ALA762  ILE779  LEU786  VAL792 
 PHE793  MET794  SER795  GLU796  ALA797  LYS798  CYS799  TRP800  GLU811  SER814 

> <Gold.Protein.RotatedAtoms>
  152.3758  133.6479  159.6122 H   0  0  0  0  0  0  0  0  0  0  0  0  # atno 6907 bound_to 6896
  150.7703  133.9195  159.3402 H   0  0  0  0  0  0  0  0  0  0  0  0  # atno 6908 bound_to 6896
  151.7010  135.0931  160.0302 H   0  0  0  0  0  0  0  0  0  0  0  0  # atno 6909 bound_to 6896
  144.7574  139.8232  143.6345 H   0  0  0  0  0  0  0  0  0  0  0  0  # atno 7974 bound_to 7965
  156.2990  140.2370  156.4221 H   0  0  0  0  0  0  0  0  0  0  0  0  # atno 8008 bound_to 7997
  154.8346  140.0431  157.1520 H   0  0  0  0  0  0  0  0  0  0  0  0  # atno 8009 bound_to 7997
  154.9170  140.2998  155.5239 H   0  0  0  0  0  0  0  0  0  0  0  0  # atno 8010 bound_to 7997
  139.5059  144.6256  151.5945 H   0  0  0  0  0  0  0  0  0  0  0  0  # atno 10167 bound_to 10162
  156.1782  130.6714  151.0270 H   0  0  0  0  0  0  0  0  0  0  0  0  # atno 10718 bound_to 10713
  154.7035  135.2992  154.9306 H   0  0  0  0  0  0  0  0  0  0  0  0  # atno 10763 bound_to 10752
  154.0231  135.6680  153.4778 H   0  0  0  0  0  0  0  0  0  0  0  0  # atno 10764 bound_to 10752
  153.0699  135.5067  154.8192 H   0  0  0  0  0  0  0  0  0  0  0  0  # atno 10765 bound_to 10752
  139.8777  134.9222  156.5053 H   0  0  0  0  0  0  0  0  0  0  0  0  # atno 11005 bound_to 11000
  146.1600  139.4711  142.9994 LP  0  0  0  0  0  0  0  0  0  0  0  0  # atno 17320 bound_to 7965
  145.6733  141.0211  143.1646 LP  0  0  0  0  0  0  0  0  0  0  0  0  # atno 17321 bound_to 7965
  140.5972  143.9675  150.6362 LP  0  0  0  0  0  0  0  0  0  0  0  0  # atno 17342 bound_to 10162
  140.2875  143.3347  152.1094 LP  0  0  0  0  0  0  0  0  0  0  0  0  # atno 17343 bound_to 10162
  157.6850  131.0827  150.7266 LP  0  0  0  0  0  0  0  0  0  0  0  0  # atno 17370 bound_to 10713
  156.7324  130.4713  149.5496 LP  0  0  0  0  0  0  0  0  0  0  0  0  # atno 17371 bound_to 10713
  140.8560  133.8096  155.9216 LP  0  0  0  0  0  0  0  0  0  0  0  0  # atno 17394 bound_to 11000
  140.9097  134.2276  157.4993 LP  0  0  0  0  0  0  0  0  0  0  0  0  # atno 17395 bound_to 11000

$$$$
