AV-unprocessed.smi:2222|AV-procd|sdf|8987|dock2
  -GOLD-   2272012203D 1   1.00000     0.00000
 Structure written by MMmdl.
 34 35  0  0  0  0  0  0  0  0  1 V2000
  146.5688  141.7127  154.5394 C   0  0  0  0  0  0  0  0  0  0  0  0
  147.8425  141.8872  155.1425 O   0  0  0  0  0  0  0  0  0  0  0  0
  148.7834  140.8883  154.9836 C   0  0  0  0  0  0  0  0  0  0  0  0
  148.5196  139.6591  154.3271 C   0  0  0  0  0  0  0  0  0  0  0  0
  149.5437  138.7030  154.2129 C   0  0  0  0  0  0  0  0  0  0  0  0
  150.8018  139.0085  154.7614 C   0  0  0  0  0  0  0  0  0  0  0  0
  151.9519  138.0279  154.6723 C   0  0  0  0  0  0  0  0  0  0  0  0
  151.0644  140.1729  155.3878 N   0  0  0  0  0  0  0  0  0  0  0  0
  150.0852  141.1037  155.5056 C   0  0  0  0  0  0  0  0  0  0  0  0
  150.2835  142.3553  156.1506 N   0  0  0  0  0  0  0  0  0  0  0  0
  151.1373  142.6654  157.1463 C   0  0  0  0  0  0  0  0  0  0  0  0
  151.8801  141.8622  157.7080 O   0  0  0  0  0  0  0  0  0  0  0  0
  151.0954  143.9544  157.5284 N   0  0  0  0  0  0  0  0  0  0  0  0
  151.8692  144.5965  158.5501 C   0  0  2  0  0  0  0  0  0  0  0  0
  152.2133  143.7715  159.7712 C   0  0  0  0  0  0  0  0  0  0  0  0
  151.2210  144.8978  159.8889 C   0  0  2  0  0  0  0  0  0  0  0  0
  149.7559  144.6135  160.1571 C   0  0  0  0  0  0  0  0  0  0  0  0
  145.9496  142.5843  154.7507 H   0  0  0  0  0  0  0  0  0  0  0  0
  146.0538  140.8382  154.9392 H   0  0  0  0  0  0  0  0  0  0  0  0
  146.6500  141.6215  153.4553 H   0  0  0  0  0  0  0  0  0  0  0  0
  147.5521  139.4292  153.9077 H   0  0  0  0  0  0  0  0  0  0  0  0
  149.3637  137.7612  153.7156 H   0  0  0  0  0  0  0  0  0  0  0  0
  151.6231  137.0677  154.2741 H   0  0  0  0  0  0  0  0  0  0  0  0
  152.3836  137.8562  155.6587 H   0  0  0  0  0  0  0  0  0  0  0  0
  152.7319  138.4197  154.0190 H   0  0  0  0  0  0  0  0  0  0  0  0
  149.7130  143.1119  155.8026 H   0  0  0  0  0  0  0  0  0  0  0  0
  150.3924  144.5295  157.0871 H   0  0  0  0  0  0  0  0  0  0  0  0
  152.6556  145.2780  158.2288 H   0  0  0  0  0  0  0  0  0  0  0  0
  151.8331  142.7525  159.8188 H   0  0  0  0  0  0  0  0  0  0  0  0
  153.1942  143.9207  160.2180 H   0  0  0  0  0  0  0  0  0  0  0  0
  151.5793  145.7982  160.3844 H   0  0  0  0  0  0  0  0  0  0  0  0
  149.4504  143.6656  159.7134 H   0  0  0  0  0  0  0  0  0  0  0  0
  149.1385  145.4088  159.7391 H   0  0  0  0  0  0  0  0  0  0  0  0
  149.5771  144.5629  161.2312 H   0  0  0  0  0  0  0  0  0  0  0  0
  1  2  1  0  0  0  0
  1 18  1  0  0  0  0
  1 19  1  0  0  0  0
  1 20  1  0  0  0  0
  2  3  1  0  0  0  0
  3  9  1  0  0  0  0
  3  4  2  0  0  0  0
  4  5  1  0  0  0  0
  4 21  1  0  0  0  0
  5  6  2  0  0  0  0
  5 22  1  0  0  0  0
  6  7  1  0  0  0  0
  6  8  1  0  0  0  0
  7 23  1  0  0  0  0
  7 24  1  0  0  0  0
  7 25  1  0  0  0  0
  8  9  2  0  0  0  0
  9 10  1  0  0  0  0
 10 11  1  0  0  0  0
 10 26  1  0  0  0  0
 11 12  2  0  0  0  0
 11 13  1  0  0  0  0
 13 14  1  0  0  0  0
 13 27  1  0  0  0  0
 14 16  1  0  0  0  0
 14 15  1  0  0  0  0
 14 28  1  0  0  0  0
 15 16  1  0  0  0  0
 15 29  1  0  0  0  0
 15 30  1  0  0  0  0
 16 17  1  0  0  0  0
 16 31  1  0  0  0  0
 17 32  1  0  0  0  0
 17 33  1  0  0  0  0
 17 34  1  0  0  0  0
M  END
> <s_m_source_file>
AV-unprocessed.smi

> <i_m_source_file_index>
2222

> <i_lp_mmshare_version>
43012

> <i_f3d_flags>
0

> <s_epik_input>
W0NIM11PYzFbY0hdW2NIXWMoW0NIM10pbmMxW05IXUMoPU8pW05IXVtDQEBIXTJbQ0gyXVtDQEhdMltDSDNd

> <s_epik_cmdline>
J2VwaWtfcHl0aG9uJywgJy1waCcsICc3LjAnLCAnLXRuJywgJzgnLCAnLW1hJywgJzIwMCcsICctbWV0YWxfYmluZGluZycsICctaW1hZScsICc8aW5maWxlLm1hZT4nLCAnLW9tYWUnLCAnPG91dGZpbGUubWFlPic=

> <r_lp_tautomer_probability>
1

> <r_epik_Ionization_Penalty>
6.59103e-05

> <r_epik_Ionization_Penalty_Charging>
0

> <r_epik_Ionization_Penalty_Neutral>
6.59103e-05

> <r_epik_State_Penalty>
-0

> <r_epik_Charging_Adjusted_Penalty>
0

> <i_epik_Tot_Q>
0

> <i_epik_Tot_abs_Q>
0

> <r_epik_Metal_State_Penalty>
-0

> <b_epik_Metal_Only>
0

> <s_lp_Force_Field>
OPLS_2005

> <r_lp_Energy>
34.1661

> <b_lp_Chiralities_Consistent>
1

> <s_lp_Variant>
AV-unprocessed.smi:2222-3

> <Gold.Version>
5.8.1

> <Gold.Id.Protein>
6NUR|6NUR_protein|mol2

> <Gold.PLP.Fitness>
45.0715

> <Gold.PLP.PLP>
-39.6855

> <Gold.PLP.part.hbond>
-3.0000

> <Gold.PLP.part.metal>
0.0000

> <Gold.PLP.part.buried>
-4.6788

> <Gold.PLP.part.nonpolar>
-33.3553

> <Gold.PLP.part.repulsive>
1.3100

> <Gold.PLP.ligand.clash>
0.0000

> <Gold.PLP.ligand.torsion>
0.4800

> <Gold.PLP.Chemscore.Hbond>
2.1020

> <Gold.PLP.Chemscore.CHOScore>
0.0000

> <Gold.PLP.Chemscore.Metal>
0.0000

> <Gold.Chemscore.Hbonds>
donor molecule, donor type, donor heavy atom, donor atom, acceptor molecule, acceptor atom, score
      L1  H    10    26       P1  8028  1.00
      L1  H    13    27       P1  8028  0.96
      P1  H  7989  7998       L1     8  0.16

> <Gold.PLP.Chemscore.Internal.Correction>
0.0399

> <Gold.Rescore>
     Score         DG    S(hbond)    S(metal)    S(lipo)     H(rot)  DE(clash)    DE(int)     intcor
     14.94     -18.19       1.85        0.00      82.40       1.22       0.11       3.14       ----

> <Gold.Chemscore.Fitness>
14.9397

> <Gold.Chemscore.DG>
-18.1863

> <Gold.Chemscore.ZeroCoef>
-5.4800

> <Gold.Chemscore.Hbond>
1.8503

> <Gold.Chemscore.Metal>
0.0000

> <Gold.Chemscore.Lipo>
82.4027

> <Gold.Chemscore.Internal_Hbond>
0.0000

> <Gold.Chemscore.DEClash>
0.1062

> <Gold.Chemscore.DEInternal>
3.1404

> <Gold.Chemscore.Rot>
1.2168

> <Gold.Chemscore.Internal.Correction>
   9.000000E+99

> <Gold.Chemscore.Hbonds>
donor molecule, donor type, donor heavy atom, donor atom, acceptor molecule, acceptor atom, score
      L1  H    10    26       P1  8028  1.00
      L1  H    13    27       P1  8028  0.63

> <Gold.Chemscore.Hbond.Weighted>
-6.1801

> <Gold.Chemscore.Metal.Weighted>
-0.0000

> <Gold.Chemscore.Lipo.Weighted>
-9.6411

> <Gold.Chemscore.Internal_Hbond.Weighted>
0.0000

> <Gold.Chemscore.DEClash.Weighted>
0.1062

> <Gold.Chemscore.DEInternal.Weighted>
3.1404

> <Gold.Chemscore.Rot.Weighted>
3.1150

> <Gold.Chemscore.Internal.Correction.Weighted>
   9.000000E+99

> <Gold.Protein.RotatedTorsions>
[ 6907 6896 6895 6894 ] final   58.38 input  -60.11 | X-H torsion
[ 7974 7965 7964 7962 ] final  -32.94 input  175.53 | X-H torsion
[ 8008 7997 7996 7995 ] final   29.39 input   59.86 | X-H torsion
[ 10167 10162 10161 10158 ] final  -56.85 input  -65.29 | X-H torsion
[ 10718 10713 10712 10709 ] final  -14.86 input   66.30 | X-H torsion
[ 10763 10752 10751 10750 ] final   72.95 input  -60.55 | X-H torsion
[ 11005 11000 10999 10996 ] final  179.94 input  -57.11 | X-H torsion

> <Gold.Protein.ActiveResidues>
 VAL166  LYS551  ARG553  GLY616  TRP617  ASP618  TYR619  PRO620  LYS621  CYS622 
 ASP623  PHE694  ASN695  SER759  ASP760  ASP761  ALA762  ILE779  LEU786  VAL792 
 PHE793  MET794  SER795  GLU796  ALA797  LYS798  CYS799  TRP800  GLU811  SER814 

> <Gold.Protein.RotatedAtoms>
  152.3819  134.6577  160.0139 H   0  0  0  0  0  0  0  0  0  0  0  0  # atno 6907 bound_to 6896
  151.6838  133.3306  159.3234 H   0  0  0  0  0  0  0  0  0  0  0  0  # atno 6908 bound_to 6896
  150.7754  134.6694  159.6428 H   0  0  0  0  0  0  0  0  0  0  0  0  # atno 6909 bound_to 6896
  146.0950  140.5854  142.8847 H   0  0  0  0  0  0  0  0  0  0  0  0  # atno 7974 bound_to 7965
  155.0737  140.3203  155.4622 H   0  0  0  0  0  0  0  0  0  0  0  0  # atno 8008 bound_to 7997
  156.2784  140.2107  156.5810 H   0  0  0  0  0  0  0  0  0  0  0  0  # atno 8009 bound_to 7997
  154.7034  140.0505  157.0468 H   0  0  0  0  0  0  0  0  0  0  0  0  # atno 8010 bound_to 7997
  140.6293  143.2452  151.5282 H   0  0  0  0  0  0  0  0  0  0  0  0  # atno 10167 bound_to 10162
  156.6100  130.4847  149.6205 H   0  0  0  0  0  0  0  0  0  0  0  0  # atno 10718 bound_to 10713
  153.0490  135.5081  154.7820 H   0  0  0  0  0  0  0  0  0  0  0  0  # atno 10763 bound_to 10752
  154.6697  135.2951  154.9760 H   0  0  0  0  0  0  0  0  0  0  0  0  # atno 10764 bound_to 10752
  154.0583  135.6694  153.4861 H   0  0  0  0  0  0  0  0  0  0  0  0  # atno 10765 bound_to 10752
  140.4118  134.6685  157.4618 H   0  0  0  0  0  0  0  0  0  0  0  0  # atno 11005 bound_to 11000
  144.7389  140.4886  143.6884 LP  0  0  0  0  0  0  0  0  0  0  0  0  # atno 17320 bound_to 7965
  145.5965  139.1500  143.3153 LP  0  0  0  0  0  0  0  0  0  0  0  0  # atno 17321 bound_to 7965
  139.5509  144.2398  152.1528 LP  0  0  0  0  0  0  0  0  0  0  0  0  # atno 17342 bound_to 10162
  140.1637  144.5001  150.6618 LP  0  0  0  0  0  0  0  0  0  0  0  0  # atno 17343 bound_to 10162
  156.2398  130.6844  151.1544 LP  0  0  0  0  0  0  0  0  0  0  0  0  # atno 17370 bound_to 10713
  157.7257  131.0651  150.5943 LP  0  0  0  0  0  0  0  0  0  0  0  0  # atno 17371 bound_to 10713
  140.0262  134.6473  155.9169 LP  0  0  0  0  0  0  0  0  0  0  0  0  # atno 17394 bound_to 11000
  141.1818  133.6548  156.5052 LP  0  0  0  0  0  0  0  0  0  0  0  0  # atno 17395 bound_to 11000

$$$$
