#       Name:                AV-unprocessed.smi:896
#       Creating user name   scv26
#       Creation time:       Fri Mar 27 01:56:39 2020


#       File generated by GOLD software.
#

@<TRIPOS>MOLECULE
AV-unprocessed.smi:896
    54    55     1
SMALL
NO_CHARGES


@<TRIPOS>ATOM
      1 ****        -7.1032   3.1109   1.7246 C.3            1 S1                 0.0000
      2 ****        -6.5594   1.8017   1.8544 O.3            1 S1                 0.0000
      3 ****        -5.1867   1.6626   1.8794 C.ar           1 S1                 0.0000
      4 ****        -4.6412   0.3707   2.0062 C.ar           1 S1                 0.0000
      5 ****        -3.2418   0.2231   2.0304 C.ar           1 S1                 0.0000
      6 ****        -2.4258   1.3738   1.9168 C.ar           1 S1                 0.0000
      7 ****        -1.0051   1.3218   1.9553 N.am           1 S1                 0.0000
      8 ****        -0.2037   0.3241   1.5462 C.2            1 S1                 0.0000
      9 ****        -0.5859  -0.7380   1.0538 O.2            1 S1                 0.0000
     10 ****         1.0890   0.6381   1.7138 N.am           1 S1                 0.0000
     11 ****         2.2082  -0.2159   1.3342 C.3            1 S1                 0.0000
     12 ****         2.4801  -0.1416  -0.1801 C.3            1 S1                 0.0000
     13 ****         3.6766  -0.9981  -0.6535 C.3            1 S1                 0.0000
     14 ****         4.0615  -0.6925  -2.1144 C.3            1 S1                 0.0000
     15 ****         3.0384  -1.2586  -3.1168 C.3            1 S1                 0.0000
     16 ****         2.8509  -2.7184  -2.9256 N.4            1 S1                 1.0000
     17 ****         1.9480  -3.3056  -3.9387 C.3            1 S1                 0.0000
     18 ****         2.4403  -3.0565  -1.5401 C.3            1 S1                 0.0000
     19 ****         3.4556  -2.5196  -0.5153 C.3            1 S1                 0.0000
     20 ****        -3.0701   2.6298   1.8090 C.ar           1 S1                 0.0000
     21 ****        -2.2764   3.9199   1.7001 C.3            1 S1                 0.0000
     22 ****        -4.4135   2.7722   1.7859 N.ar           1 S1                 0.0000
     23 ****        -8.1915   3.0507   1.7165 H              1 S1                 0.0000
     24 ****        -6.7915   3.5820   0.7912 H              1 S1                 0.0000
     25 ****        -6.8137   3.7479   2.5617 H              1 S1                 0.0000
     26 ****        -5.2851  -0.4927   2.0886 H              1 S1                 0.0000
     27 ****        -2.8206  -0.7635   2.1499 H              1 S1                 0.0000
     28 ****        -0.5463   2.1722   2.2475 H              1 S1                 0.0000
     29 ****         1.3146   1.5318   2.1259 H              1 S1                 0.0000
     30 ****         3.0889   0.1099   1.8881 H              1 S1                 0.0000
     31 ****         2.0019  -1.2382   1.6517 H              1 S1                 0.0000
     32 ****         1.5799  -0.4185  -0.7280 H              1 S1                 0.0000
     33 ****         2.6717   0.9010  -0.4378 H              1 S1                 0.0000
     34 ****         4.5285  -0.7255  -0.0290 H              1 S1                 0.0000
     35 ****         4.1730   0.3823  -2.2613 H              1 S1                 0.0000
     36 ****         5.0398  -1.1265  -2.3248 H              1 S1                 0.0000
     37 ****         2.0800  -0.7479  -3.0156 H              1 S1                 0.0000
     38 ****         3.3868  -1.0696  -4.1330 H              1 S1                 0.0000
     39 ****         0.9416  -2.8939  -3.8508 H              1 S1                 0.0000
     40 ****         1.8866  -4.3878  -3.8191 H              1 S1                 0.0000
     41 ****         2.3143  -3.1028  -4.9455 H              1 S1                 0.0000
     42 ****         1.4450  -2.6572  -1.3407 H              1 S1                 0.0000
     43 ****         2.3668  -4.1401  -1.4399 H              1 S1                 0.0000
     44 ****         4.4082  -3.0294  -0.6664 H              1 S1                 0.0000
     45 ****         3.1427  -2.7827   0.4942 H              1 S1                 0.0000
     46 ****        -1.6131   3.8861   0.8353 H              1 S1                 0.0000
     47 ****        -1.6709   4.0689   2.5945 H              1 S1                 0.0000
     48 ****        -2.9304   4.7857   1.5880 H              1 S1                 0.0000
     49 ****         3.7559  -3.1439  -3.0678 H              1 S1                 0.0000
     50 ****        -6.8975   1.2629   1.0828 LP             1 S1                 0.0000
     51 ****        -6.9113   1.4183   2.7083 LP             1 S1                 0.0000
     52 ****        -1.5635  -0.9096   0.9321 LP             1 S1                 0.0000
     53 ****         0.0814  -1.4290   0.7757 LP             1 S1                 0.0000
     54 ****        -4.8290   3.6778   1.7016 LP             1 S1                 0.0000
@<TRIPOS>BOND
    1    1    2 1     
    2    1   23 1     
    3    1   24 1     
    4    1   25 1     
    5    2    3 1     
    6    3   22 ar    
    7    3    4 ar    
    8    4    5 ar    
    9    4   26 1     
   10    5    6 ar    
   11    5   27 1     
   12    6    7 1     
   13    6   20 ar    
   14    7    8 am    
   15    7   28 1     
   16    8    9 2     
   17    8   10 am    
   18   10   11 1     
   19   10   29 1     
   20   11   12 1     
   21   11   30 1     
   22   11   31 1     
   23   12   13 1     
   24   12   32 1     
   25   12   33 1     
   26   13   19 1     
   27   13   14 1     
   28   13   34 1     
   29   14   15 1     
   30   14   35 1     
   31   14   36 1     
   32   15   16 1     
   33   15   37 1     
   34   15   38 1     
   35   16   17 1     
   36   16   18 1     
   37   16   49 1     
   38   17   39 1     
   39   17   40 1     
   40   17   41 1     
   41   18   19 1     
   42   18   42 1     
   43   18   43 1     
   44   19   44 1     
   45   19   45 1     
   46   20   21 1     
   47   20   22 ar    
   48   21   46 1     
   49   21   47 1     
   50   21   48 1     
   51    2   50 1     
   52    2   51 1     
   53    9   52 1     
   54    9   53 1     
   55   22   54 1     
@<TRIPOS>SUBSTRUCTURE
      1 S1             1
@<TRIPOS>SET
LONE_PAIRS      STATIC     ATOMS    <user>   **** ""
5 50 51 52 53 54
DONOR_HYDROGENS      STATIC     ATOMS    <user>   **** ""
3 28 29 49
ATOM$BLUE        STATIC     ATOMS    COLORGROUP SYSTEM
5 50 51 52 53 54
ATOM$RED        STATIC     ATOMS    COLORGROUP SYSTEM
3 28 29 49
