AV-unprocessed.smi:83|AV-procd|sdf|807|dock7
  -GOLD-   2262017203D 1   1.00000     0.00000
 Structure written by MMmdl.
 56 59  0  0  0  0  0  0  0  0  1 V2000
  155.7544  131.2409  164.8993 C   0  0  0  0  0  0  0  0  0  0  0  0
  155.8754  131.9177  166.2657 C   0  0  0  0  0  0  0  0  0  0  0  0
  155.8671  131.2209  167.2805 O   0  0  0  0  0  0  0  0  0  0  0  0
  155.9842  133.2610  166.3086 N   0  0  0  0  0  0  0  0  0  0  0  0
  156.0899  134.0717  167.5206 C   0  0  0  0  0  0  0  0  0  0  0  0
  155.9895  135.5244  167.0507 C   0  0  0  0  0  0  0  0  0  0  0  0
  156.4867  135.4837  165.6096 C   0  0  2  0  0  0  0  0  0  0  0  0
  156.0182  136.6756  164.7509 C   0  0  0  0  0  0  0  0  0  0  0  0
  156.8416  137.8708  164.9434 N   0  0  0  0  0  0  0  0  0  0  0  0
  158.1695  137.7062  165.5205 C   0  0  0  0  0  0  0  0  0  0  0  0
  156.5620  138.9835  164.2108 C   0  0  0  0  0  0  0  0  0  0  0  0
  157.0626  140.1711  164.6439 N   0  0  0  0  0  0  0  0  0  0  0  0
  156.8123  141.3017  163.9789 C   0  0  0  0  0  0  0  0  0  0  0  0
  156.0911  141.4742  162.8712 N   0  0  0  0  0  0  0  0  0  0  0  0
  155.5812  140.2905  162.4276 C   0  0  0  0  0  0  0  0  0  0  0  0
  155.7667  139.0093  163.0242 C   0  0  0  0  0  0  0  0  0  0  0  0
  155.0789  138.0522  162.2835 N   0  0  0  0  0  0  0  0  0  0  0  0
  154.5298  138.7241  161.3093 C   0  0  0  0  0  0  0  0  0  0  0  0
  154.7789  140.0760  161.3221 N   0  0  0  0  0  0  0  0  0  0  0  0
  154.2922  141.0616  160.3740 C   0  0  0  0  0  0  0  0  0  0  0  0
  153.3110  142.0597  161.0171 C   0  0  1  0  0  0  0  0  0  0  0  0
  153.9443  142.7786  162.0595 O   0  0  0  0  0  0  0  0  0  0  0  0
  152.6864  143.0258  159.9905 C   0  0  1  0  0  0  0  0  0  0  0  0
  151.9678  142.3812  158.7930 C   0  0  0  0  0  0  0  0  0  0  0  0
  150.6531  143.1417  158.7035 C   0  0  0  0  0  0  0  0  0  0  0  0
  150.8940  144.3774  159.5635 C   0  0  0  0  0  0  0  0  0  0  0  0
  151.7324  143.8890  160.5968 O   0  0  0  0  0  0  0  0  0  0  0  0
  156.0138  134.1095  165.1213 C   0  0  0  0  0  0  0  0  0  0  0  0
  154.9078  131.6422  164.3417 H   0  0  0  0  0  0  0  0  0  0  0  0
  155.6012  130.1672  165.0142 H   0  0  0  0  0  0  0  0  0  0  0  0
  156.6624  131.3900  164.3144 H   0  0  0  0  0  0  0  0  0  0  0  0
  155.3076  133.8383  168.2441 H   0  0  0  0  0  0  0  0  0  0  0  0
  157.0574  133.8891  167.9903 H   0  0  0  0  0  0  0  0  0  0  0  0
  154.9465  135.8438  167.0758 H   0  0  0  0  0  0  0  0  0  0  0  0
  156.5630  136.2091  167.6763 H   0  0  0  0  0  0  0  0  0  0  0  0
  157.5775  135.4742  165.6433 H   0  0  0  0  0  0  0  0  0  0  0  0
  155.9671  136.3878  163.7007 H   0  0  0  0  0  0  0  0  0  0  0  0
  154.9947  136.9298  165.0280 H   0  0  0  0  0  0  0  0  0  0  0  0
  158.5119  138.6319  165.9842 H   0  0  0  0  0  0  0  0  0  0  0  0
  158.8890  137.4061  164.7582 H   0  0  0  0  0  0  0  0  0  0  0  0
  158.1570  136.9363  166.2921 H   0  0  0  0  0  0  0  0  0  0  0  0
  157.2509  142.1963  164.3957 H   0  0  0  0  0  0  0  0  0  0  0  0
  153.9237  138.2498  160.5510 H   0  0  0  0  0  0  0  0  0  0  0  0
  155.1480  141.5855  159.9456 H   0  0  0  0  0  0  0  0  0  0  0  0
  153.8077  140.5320  159.5529 H   0  0  0  0  0  0  0  0  0  0  0  0
  152.4985  141.4969  161.4781 H   0  0  0  0  0  0  0  0  0  0  0  0
  153.7185  143.6920  161.9732 H   0  0  0  0  0  0  0  0  0  0  0  0
  153.4774  143.6693  159.6008 H   0  0  0  0  0  0  0  0  0  0  0  0
  152.5590  142.5089  157.8853 H   0  0  0  0  0  0  0  0  0  0  0  0
  151.7888  141.3132  158.9180 H   0  0  0  0  0  0  0  0  0  0  0  0
  150.3707  143.3882  157.6796 H   0  0  0  0  0  0  0  0  0  0  0  0
  149.8524  142.5431  159.1396 H   0  0  0  0  0  0  0  0  0  0  0  0
  151.4192  145.1503  158.9997 H   0  0  0  0  0  0  0  0  0  0  0  0
  149.9720  144.8038  159.9590 H   0  0  0  0  0  0  0  0  0  0  0  0
  156.6773  133.7141  164.3501 H   0  0  0  0  0  0  0  0  0  0  0  0
  155.0058  134.1636  164.7073 H   0  0  0  0  0  0  0  0  0  0  0  0
  1  2  1  0  0  0  0
  1 29  1  0  0  0  0
  1 30  1  0  0  0  0
  1 31  1  0  0  0  0
  2  3  2  0  0  0  0
  2  4  1  0  0  0  0
  4 28  1  0  0  0  0
  4  5  1  0  0  0  0
  5  6  1  0  0  0  0
  5 32  1  0  0  0  0
  5 33  1  0  0  0  0
  6  7  1  0  0  0  0
  6 34  1  0  0  0  0
  6 35  1  0  0  0  0
  7  8  1  0  0  0  0
  7 28  1  0  0  0  0
  7 36  1  0  0  0  0
  8  9  1  0  0  0  0
  8 37  1  0  0  0  0
  8 38  1  0  0  0  0
  9 10  1  0  0  0  0
  9 11  1  0  0  0  0
 10 39  1  0  0  0  0
 10 40  1  0  0  0  0
 10 41  1  0  0  0  0
 11 16  1  0  0  0  0
 11 12  2  0  0  0  0
 12 13  1  0  0  0  0
 13 14  2  0  0  0  0
 13 42  1  0  0  0  0
 14 15  1  0  0  0  0
 15 19  1  0  0  0  0
 15 16  2  0  0  0  0
 16 17  1  0  0  0  0
 17 18  2  0  0  0  0
 18 19  1  0  0  0  0
 18 43  1  0  0  0  0
 19 20  1  0  0  0  0
 20 21  1  0  0  0  0
 20 44  1  0  0  0  0
 20 45  1  0  0  0  0
 21 22  1  0  0  0  0
 21 23  1  0  0  0  0
 21 46  1  0  0  0  0
 22 47  1  0  0  0  0
 23 27  1  0  0  0  0
 23 24  1  0  0  0  0
 23 48  1  0  0  0  0
 24 25  1  0  0  0  0
 24 49  1  0  0  0  0
 24 50  1  0  0  0  0
 25 26  1  0  0  0  0
 25 51  1  0  0  0  0
 25 52  1  0  0  0  0
 26 27  1  0  0  0  0
 26 53  1  0  0  0  0
 26 54  1  0  0  0  0
 28 55  1  0  0  0  0
 28 56  1  0  0  0  0
M  END
> <s_m_source_file>
AV-unprocessed.smi

> <i_m_source_file_index>
83

> <i_lp_mmshare_version>
43012

> <i_f3d_flags>
0

> <s_epik_input>
W0NIM11DKD1PKU4xW0NIMl1bQ0gyXVtDQEhdKFtDSDJdMSlbQ0gyXU4oW0NIM10pYyhuW2NIXW4yKWMoYzIzKW5bY0hdbjNbQ0gyXVtDQEhdKFtPSF0pW0NAQEhdNFtDSDJdW0NIMl1bQ0gyXU80

> <s_epik_cmdline>
J2VwaWtfcHl0aG9uJywgJy1waCcsICc3LjAnLCAnLXRuJywgJzgnLCAnLW1hJywgJzIwMCcsICctbWV0YWxfYmluZGluZycsICctaW1hZScsICc8aW5maWxlLm1hZT4nLCAnLW9tYWUnLCAnPG91dGZpbGUubWFlPic=

> <r_lp_tautomer_probability>
1

> <r_epik_Ionization_Penalty>
0.00109752

> <r_epik_Ionization_Penalty_Charging>
0

> <r_epik_Ionization_Penalty_Neutral>
0.00109752

> <r_epik_State_Penalty>
0.000634803

> <r_epik_Charging_Adjusted_Penalty>
0.000634803

> <i_epik_Tot_Q>
0

> <i_epik_Tot_abs_Q>
0

> <r_epik_Metal_State_Penalty>
-0

> <b_epik_Metal_Only>
0

> <s_lp_Force_Field>
OPLS_2005

> <r_lp_Energy>
54.4429

> <b_lp_Chiralities_Consistent>
1

> <s_lp_Variant>
AV-unprocessed.smi:83-8

> <Gold.Version>
5.8.1

> <Gold.Id.Protein>
6NUR|6NUR_protein|mol2

> <Gold.PLP.Fitness>
51.4028

> <Gold.PLP.PLP>
-52.4323

> <Gold.PLP.part.hbond>
-1.2517

> <Gold.PLP.part.metal>
0.0000

> <Gold.PLP.part.buried>
-7.1582

> <Gold.PLP.part.nonpolar>
-45.1463

> <Gold.PLP.part.repulsive>
0.1633

> <Gold.PLP.ligand.clash>
0.0000

> <Gold.PLP.ligand.torsion>
0.7654

> <Gold.PLP.Chemscore.Hbond>
0.0000

> <Gold.PLP.Chemscore.CHOScore>
0.0000

> <Gold.PLP.Chemscore.Metal>
0.0000

> <Gold.PLP.Chemscore.Internal.Correction>
0.5013

> <Gold.Rescore>
     Score         DG    S(hbond)    S(metal)    S(lipo)     H(rot)  DE(clash)    DE(int)     intcor
     10.84     -12.85       0.00        0.00     120.21       2.62       0.03       1.98       ----

> <Gold.Chemscore.Fitness>
10.8430

> <Gold.Chemscore.DG>
-12.8499

> <Gold.Chemscore.ZeroCoef>
-5.4800

> <Gold.Chemscore.Hbond>
0.0000

> <Gold.Chemscore.Metal>
0.0000

> <Gold.Chemscore.Lipo>
120.2120

> <Gold.Chemscore.Internal_Hbond>
0.0000

> <Gold.Chemscore.DEClash>
0.0262

> <Gold.Chemscore.DEInternal>
1.9807

> <Gold.Chemscore.Rot>
2.6152

> <Gold.Chemscore.Internal.Correction>
   9.000000E+99

> <Gold.Chemscore.Hbond.Weighted>
-0.0000

> <Gold.Chemscore.Metal.Weighted>
-0.0000

> <Gold.Chemscore.Lipo.Weighted>
-14.0648

> <Gold.Chemscore.Internal_Hbond.Weighted>
0.0000

> <Gold.Chemscore.DEClash.Weighted>
0.0262

> <Gold.Chemscore.DEInternal.Weighted>
1.9807

> <Gold.Chemscore.Rot.Weighted>
6.6949

> <Gold.Chemscore.Internal.Correction.Weighted>
   9.000000E+99

> <Gold.Protein.RotatedTorsions>
[ 6907 6896 6895 6894 ] final   11.39 input  -60.11 | X-H torsion
[ 7974 7965 7964 7962 ] final -163.61 input  175.53 | X-H torsion
[ 8008 7997 7996 7995 ] final   48.70 input   59.86 | X-H torsion
[ 10167 10162 10161 10158 ] final -124.11 input  -65.29 | X-H torsion
[ 10718 10713 10712 10709 ] final -145.25 input   66.30 | X-H torsion
[ 10763 10752 10751 10750 ] final  -17.53 input  -60.55 | X-H torsion
[ 11005 11000 10999 10996 ] final   90.68 input  -57.11 | X-H torsion

> <Gold.Protein.ActiveResidues>
 VAL166  LYS551  ARG553  GLY616  TRP617  ASP618  TYR619  PRO620  LYS621  CYS622 
 ASP623  PHE694  ASN695  SER759  ASP760  ASP761  ALA762  ILE779  LEU786  VAL792 
 PHE793  MET794  SER795  GLU796  ALA797  LYS798  CYS799  TRP800  GLU811  SER814 

> <Gold.Protein.RotatedAtoms>
  151.7535  135.0827  160.0334 H   0  0  0  0  0  0  0  0  0  0  0  0  # atno 6907 bound_to 6896
  152.3401  133.6053  159.5879 H   0  0  0  0  0  0  0  0  0  0  0  0  # atno 6908 bound_to 6896
  150.7474  133.9651  159.3570 H   0  0  0  0  0  0  0  0  0  0  0  0  # atno 6909 bound_to 6896
  144.7321  140.3082  143.6192 H   0  0  0  0  0  0  0  0  0  0  0  0  # atno 7974 bound_to 7965
  155.3899  140.3433  155.4251 H   0  0  0  0  0  0  0  0  0  0  0  0  # atno 8008 bound_to 7997
  156.1563  140.1586  156.8720 H   0  0  0  0  0  0  0  0  0  0  0  0  # atno 8009 bound_to 7997
  154.5098  140.0793  156.7948 H   0  0  0  0  0  0  0  0  0  0  0  0  # atno 8010 bound_to 7997
  139.9963  143.5587  152.2322 H   0  0  0  0  0  0  0  0  0  0  0  0  # atno 10167 bound_to 10162
  156.3802  130.7833  151.2024 H   0  0  0  0  0  0  0  0  0  0  0  0  # atno 10718 bound_to 10713
  153.5753  135.7006  153.5486 H   0  0  0  0  0  0  0  0  0  0  0  0  # atno 10763 bound_to 10752
  153.3308  135.4048  155.1493 H   0  0  0  0  0  0  0  0  0  0  0  0  # atno 10764 bound_to 10752
  154.8626  135.3718  154.5278 H   0  0  0  0  0  0  0  0  0  0  0  0  # atno 10765 bound_to 10752
  139.8852  134.8629  156.3320 H   0  0  0  0  0  0  0  0  0  0  0  0  # atno 11005 bound_to 11000
  145.7692  139.1851  143.2222 LP  0  0  0  0  0  0  0  0  0  0  0  0  # atno 17320 bound_to 7965
  146.0925  140.7639  142.9588 LP  0  0  0  0  0  0  0  0  0  0  0  0  # atno 17321 bound_to 7965
  139.6303  144.7643  151.2549 LP  0  0  0  0  0  0  0  0  0  0  0  0  # atno 17342 bound_to 10162
  140.7436  143.6490  150.8265 LP  0  0  0  0  0  0  0  0  0  0  0  0  # atno 17343 bound_to 10162
  157.7491  131.0346  150.4326 LP  0  0  0  0  0  0  0  0  0  0  0  0  # atno 17370 bound_to 10713
  156.4569  130.4023  149.6601 LP  0  0  0  0  0  0  0  0  0  0  0  0  # atno 17371 bound_to 10713
  140.9716  133.7323  156.0543 LP  0  0  0  0  0  0  0  0  0  0  0  0  # atno 17394 bound_to 11000
  140.7863  134.3668  157.5475 LP  0  0  0  0  0  0  0  0  0  0  0  0  # atno 17395 bound_to 11000

$$$$
