AV-unprocessed.smi:2830|AV-procd|sdf|10906|dock10
  -GOLD-   2272015353D 1   1.00000     0.00000
 Structure written by MMmdl.
 28 28  0  0  0  0  0  0  0  0  1 V2000
  146.4718  142.5341  154.0498 C   0  0  0  0  0  0  0  0  0  0  0  0
  146.3869  141.1199  154.0402 O   0  0  0  0  0  0  0  0  0  0  0  0
  147.5291  140.5085  153.4594 C   0  0  0  0  0  0  0  0  0  0  0  0
  147.3051  138.9901  153.3298 C   0  0  2  0  0  0  0  0  0  0  0  0
  148.5959  138.3039  153.3478 N   0  0  0  0  0  0  0  0  0  0  0  0
  149.5550  138.5493  154.3429 C   0  0  0  0  0  0  0  0  0  0  0  0
  150.8871  138.1508  154.1030 C   0  0  0  0  0  0  0  0  0  0  0  0
  151.8600  138.3965  155.0914 C   0  0  0  0  0  0  0  0  0  0  0  0
  151.4681  139.0343  156.2847 C   0  0  0  0  0  0  0  0  0  0  0  0
  152.4344  139.3115  157.3333 C   0  0  0  0  0  0  0  0  0  0  0  0
  153.2040  139.5322  158.1687 N   0  0  0  0  0  0  0  0  0  0  0  0
  150.1146  139.3977  156.4345 C   0  0  0  0  0  0  0  0  0  0  0  0
  149.1782  139.1647  155.4898 N   0  0  0  0  0  0  0  0  0  0  0  0
  146.4793  138.6816  152.0695 C   0  0  0  0  0  0  0  0  0  0  0  0
  145.2399  138.2196  152.2530 N   0  0  0  0  0  0  0  0  0  0  0  0
  146.9470  138.8689  150.9472 O   0  0  0  0  0  0  0  0  0  0  0  0
  145.5762  142.9515  154.5099 H   0  0  0  0  0  0  0  0  0  0  0  0
  146.5460  142.9314  153.0368 H   0  0  0  0  0  0  0  0  0  0  0  0
  147.3342  142.8740  154.6245 H   0  0  0  0  0  0  0  0  0  0  0  0
  147.7482  140.9523  152.4861 H   0  0  0  0  0  0  0  0  0  0  0  0
  148.3919  140.7001  154.0998 H   0  0  0  0  0  0  0  0  0  0  0  0
  146.7420  138.6725  154.2092 H   0  0  0  0  0  0  0  0  0  0  0  0
  148.6829  137.4627  152.7964 H   0  0  0  0  0  0  0  0  0  0  0  0
  151.1624  137.6631  153.1791 H   0  0  0  0  0  0  0  0  0  0  0  0
  152.8861  138.0992  154.9301 H   0  0  0  0  0  0  0  0  0  0  0  0
  149.7684  139.8891  157.3325 H   0  0  0  0  0  0  0  0  0  0  0  0
  144.6612  138.0004  151.4551 H   0  0  0  0  0  0  0  0  0  0  0  0
  144.8873  138.0886  153.1899 H   0  0  0  0  0  0  0  0  0  0  0  0
  1  2  1  0  0  0  0
  1 17  1  0  0  0  0
  1 18  1  0  0  0  0
  1 19  1  0  0  0  0
  2  3  1  0  0  0  0
  3  4  1  0  0  0  0
  3 20  1  0  0  0  0
  3 21  1  0  0  0  0
  4  5  1  0  0  0  0
  4 14  1  0  0  0  0
  4 22  1  0  0  0  0
  5  6  1  0  0  0  0
  5 23  1  0  0  0  0
  6 13  1  0  0  0  0
  6  7  2  0  0  0  0
  7  8  1  0  0  0  0
  7 24  1  0  0  0  0
  8  9  2  0  0  0  0
  8 25  1  0  0  0  0
  9 10  1  0  0  0  0
  9 12  1  0  0  0  0
 10 11  3  0  0  0  0
 12 13  2  0  0  0  0
 12 26  1  0  0  0  0
 14 15  1  0  0  0  0
 14 16  2  0  0  0  0
 15 27  1  0  0  0  0
 15 28  1  0  0  0  0
M  END
> <s_m_source_file>
AV-unprocessed.smi

> <i_m_source_file_index>
2830

> <i_lp_mmshare_version>
43012

> <i_f3d_flags>
0

> <s_epik_input>
W0NIM11PW0NIMl1bQ0BASF0oQyg9TylbTkgyXSlbTkhdYzFbY0hdW2NIXWMoQyNOKVtjSF1uMQ==

> <s_epik_cmdline>
J2VwaWtfcHl0aG9uJywgJy1waCcsICc3LjAnLCAnLXRuJywgJzgnLCAnLW1hJywgJzIwMCcsICctbWV0YWxfYmluZGluZycsICctaW1hZScsICc8aW5maWxlLm1hZT4nLCAnLW9tYWUnLCAnPG91dGZpbGUubWFlPic=

> <r_lp_tautomer_probability>
1

> <r_epik_Ionization_Penalty>
4.37908e-06

> <r_epik_Ionization_Penalty_Charging>
0

> <r_epik_Ionization_Penalty_Neutral>
4.37908e-06

> <r_epik_State_Penalty>
-0

> <r_epik_Charging_Adjusted_Penalty>
0

> <i_epik_Tot_Q>
0

> <i_epik_Tot_abs_Q>
0

> <r_epik_Metal_State_Penalty>
-0

> <b_epik_Metal_Only>
0

> <s_lp_Force_Field>
OPLS_2005

> <r_lp_Energy>
0.179783

> <b_lp_Chiralities_Consistent>
1

> <s_lp_Variant>
AV-unprocessed.smi:2830-1

> <Gold.Version>
5.8.1

> <Gold.Id.Protein>
6NUR|6NUR_protein|mol2

> <Gold.PLP.Fitness>
38.2405

> <Gold.PLP.PLP>
-27.7177

> <Gold.PLP.part.hbond>
-6.0000

> <Gold.PLP.part.metal>
0.0000

> <Gold.PLP.part.buried>
-2.1441

> <Gold.PLP.part.nonpolar>
-21.6877

> <Gold.PLP.part.repulsive>
2.4079

> <Gold.PLP.ligand.clash>
0.0000

> <Gold.PLP.ligand.torsion>
0.4892

> <Gold.PLP.Chemscore.Hbond>
3.8240

> <Gold.PLP.Chemscore.CHOScore>
0.0000

> <Gold.PLP.Chemscore.Metal>
0.0000

> <Gold.Chemscore.Hbonds>
donor molecule, donor type, donor heavy atom, donor atom, acceptor molecule, acceptor atom, score
      L1  H     5    23       P1  7948  1.00
      L1  H    15    27       P1 10171  0.96
      P1  H  7954  7966       L1    16  0.85
      P1  H  7997  8009       L1    11  1.00

> <Gold.PLP.Chemscore.Internal.Correction>
0.0292

> <Gold.Rescore>
     Score         DG    S(hbond)    S(metal)    S(lipo)     H(rot)  DE(clash)    DE(int)     intcor
     14.36     -16.66       3.55        0.00      45.08       2.32       0.29       2.02       ----

> <Gold.Chemscore.Fitness>
14.3600

> <Gold.Chemscore.DG>
-16.6630

> <Gold.Chemscore.ZeroCoef>
-5.4800

> <Gold.Chemscore.Hbond>
3.5469

> <Gold.Chemscore.Metal>
0.0000

> <Gold.Chemscore.Lipo>
45.0838

> <Gold.Chemscore.Internal_Hbond>
0.0000

> <Gold.Chemscore.DEClash>
0.2863

> <Gold.Chemscore.DEInternal>
2.0168

> <Gold.Chemscore.Rot>
2.3197

> <Gold.Chemscore.Internal.Correction>
   9.000000E+99

> <Gold.Chemscore.Hbonds>
donor molecule, donor type, donor heavy atom, donor atom, acceptor molecule, acceptor atom, score
      L1  H     5    23       P1  7948  0.95
      L1  H    15    27       P1 10171  0.92
      P1  H  7954  7966       L1    16  0.83
      P1  H  7997  8009       L1    11  0.34

> <Gold.Chemscore.Hbond.Weighted>
-11.8466

> <Gold.Chemscore.Metal.Weighted>
-0.0000

> <Gold.Chemscore.Lipo.Weighted>
-5.2748

> <Gold.Chemscore.Internal_Hbond.Weighted>
0.0000

> <Gold.Chemscore.DEClash.Weighted>
0.2863

> <Gold.Chemscore.DEInternal.Weighted>
2.0168

> <Gold.Chemscore.Rot.Weighted>
5.9384

> <Gold.Chemscore.Internal.Correction.Weighted>
   9.000000E+99

> <Gold.Protein.RotatedTorsions>
[ 6907 6896 6895 6894 ] final -135.55 input  -60.11 | X-H torsion
[ 7974 7965 7964 7962 ] final -101.74 input  175.53 | X-H torsion
[ 8008 7997 7996 7995 ] final  140.58 input   59.86 | X-H torsion
[ 10167 10162 10161 10158 ] final   70.79 input  -65.29 | X-H torsion
[ 10718 10713 10712 10709 ] final   -6.89 input   66.30 | X-H torsion
[ 10763 10752 10751 10750 ] final   95.70 input  -60.55 | X-H torsion
[ 11005 11000 10999 10996 ] final -142.07 input  -57.11 | X-H torsion

> <Gold.Protein.ActiveResidues>
 VAL166  LYS551  ARG553  GLY616  TRP617  ASP618  TYR619  PRO620  LYS621  CYS622 
 ASP623  PHE694  ASN695  SER759  ASP760  ASP761  ALA762  ILE779  LEU786  VAL792 
 PHE793  MET794  SER795  GLU796  ALA797  LYS798  CYS799  TRP800  GLU811  SER814 

> <Gold.Protein.RotatedAtoms>
  150.9992  133.6072  159.2697 H   0  0  0  0  0  0  0  0  0  0  0  0  # atno 6907 bound_to 6896
  151.3265  135.0830  159.9333 H   0  0  0  0  0  0  0  0  0  0  0  0  # atno 6908 bound_to 6896
  152.5269  133.9630  159.7780 H   0  0  0  0  0  0  0  0  0  0  0  0  # atno 6909 bound_to 6896
  145.2777  140.9317  143.2950 H   0  0  0  0  0  0  0  0  0  0  0  0  # atno 7974 bound_to 7965
  156.2977  140.2337  156.4425 H   0  0  0  0  0  0  0  0  0  0  0  0  # atno 8008 bound_to 7997
  154.8173  140.0440  157.1406 H   0  0  0  0  0  0  0  0  0  0  0  0  # atno 8009 bound_to 7997
  154.9355  140.3022  155.5150 H   0  0  0  0  0  0  0  0  0  0  0  0  # atno 8010 bound_to 7997
  140.0531  144.5295  150.7349 H   0  0  0  0  0  0  0  0  0  0  0  0  # atno 10167 bound_to 10162
  156.7252  130.5163  149.5858 H   0  0  0  0  0  0  0  0  0  0  0  0  # atno 10718 bound_to 10713
  153.2562  135.4245  155.0848 H   0  0  0  0  0  0  0  0  0  0  0  0  # atno 10763 bound_to 10752
  154.8402  135.3438  154.6442 H   0  0  0  0  0  0  0  0  0  0  0  0  # atno 10764 bound_to 10752
  153.6863  135.7036  153.5160 H   0  0  0  0  0  0  0  0  0  0  0  0  # atno 10765 bound_to 10752
  140.8262  134.2572  157.4878 H   0  0  0  0  0  0  0  0  0  0  0  0  # atno 11005 bound_to 11000
  144.9280  139.4332  143.6509 LP  0  0  0  0  0  0  0  0  0  0  0  0  # atno 17320 bound_to 7965
  146.3226  139.8176  142.8933 LP  0  0  0  0  0  0  0  0  0  0  0  0  # atno 17321 bound_to 7965
  140.7207  143.2586  151.4286 LP  0  0  0  0  0  0  0  0  0  0  0  0  # atno 17342 bound_to 10162
  139.5941  144.1436  152.2123 LP  0  0  0  0  0  0  0  0  0  0  0  0  # atno 17343 bound_to 10162
  156.1567  130.6346  151.0666 LP  0  0  0  0  0  0  0  0  0  0  0  0  # atno 17370 bound_to 10713
  157.6881  131.0818  150.7184 LP  0  0  0  0  0  0  0  0  0  0  0  0  # atno 17371 bound_to 10713
  139.8706  134.9562  156.4229 LP  0  0  0  0  0  0  0  0  0  0  0  0  # atno 17394 bound_to 11000
  140.9047  133.7754  155.9721 LP  0  0  0  0  0  0  0  0  0  0  0  0  # atno 17395 bound_to 11000

$$$$
