AV-unprocessed.smi:3096|AV-procd|sdf|11796|dock7
  -GOLD-   2272017173D 1   1.00000     0.00000
 Structure written by MMmdl.
 33 33  0  0  0  0  0  0  0  0  2 V2000
  152.2256  138.9516  155.0731 C   0  0  0  0  0  0  0  0  0  0  0  0
  151.0150  139.5111  154.9317 C   0  0  0  0  0  0  0  0  0  0  0  0
  149.8960  138.9243  154.1001 C   0  0  0  0  0  0  0  0  0  0  0  0
  148.7372  139.8231  154.1592 N   0  0  0  0  0  0  0  0  0  0  0  0
  147.5727  139.6509  153.5034 C   0  0  0  0  0  0  0  0  0  0  0  0
  147.4007  138.5811  152.7023 N   0  3  0  0  0  0  0  0  0  0  0  0
  146.1882  138.2759  151.9332 C   0  0  0  0  0  0  0  0  0  0  0  0
  146.5796  140.5498  153.6498 N   0  0  0  0  0  0  0  0  0  0  0  0
  146.6309  141.7474  154.4986 C   0  0  0  0  0  0  0  0  0  0  0  0
  145.2220  142.2597  154.8255 C   0  0  0  0  0  0  0  0  0  0  0  0
  144.9571  143.5334  154.1857 N   0  0  0  0  0  0  0  0  0  0  0  0
  145.5941  144.0997  153.1014 C   0  0  0  0  0  0  0  0  0  0  0  0
  144.9965  145.3042  152.8636 C   0  0  0  0  0  0  0  0  0  0  0  0
  143.9903  145.3868  153.8665 C   0  0  0  0  0  0  0  0  0  0  0  0
  143.9692  144.3250  154.6561 N   0  0  0  0  0  0  0  0  0  0  0  0
  152.4739  138.0188  154.5886 H   0  0  0  0  0  0  0  0  0  0  0  0
  152.9865  139.4224  155.6784 H   0  0  0  0  0  0  0  0  0  0  0  0
  150.8054  140.4469  155.4298 H   0  0  0  0  0  0  0  0  0  0  0  0
  150.2292  138.8199  153.0673 H   0  0  0  0  0  0  0  0  0  0  0  0
  149.6203  137.9358  154.4694 H   0  0  0  0  0  0  0  0  0  0  0  0
  148.8317  140.6346  154.7530 H   0  0  0  0  0  0  0  0  0  0  0  0
  146.3241  137.3540  151.3674 H   0  0  0  0  0  0  0  0  0  0  0  0
  145.9687  139.0817  151.2328 H   0  0  0  0  0  0  0  0  0  0  0  0
  145.3350  138.1496  152.5998 H   0  0  0  0  0  0  0  0  0  0  0  0
  145.7161  140.3904  153.1504 H   0  0  0  0  0  0  0  0  0  0  0  0
  147.1654  141.5004  155.4165 H   0  0  0  0  0  0  0  0  0  0  0  0
  147.2036  142.5225  153.9886 H   0  0  0  0  0  0  0  0  0  0  0  0
  144.4703  141.5415  154.4951 H   0  0  0  0  0  0  0  0  0  0  0  0
  145.0959  142.3788  155.9028 H   0  0  0  0  0  0  0  0  0  0  0  0
  146.4105  143.6052  152.5953 H   0  0  0  0  0  0  0  0  0  0  0  0
  145.2402  146.0181  152.0906 H   0  0  0  0  0  0  0  0  0  0  0  0
  143.2800  146.1812  154.0434 H   0  0  0  0  0  0  0  0  0  0  0  0
  148.1627  137.9236  152.6160 H   0  0  0  0  0  0  0  0  0  0  0  0
  1  2  2  0  0  0  0
  1 16  1  0  0  0  0
  1 17  1  0  0  0  0
  2  3  1  0  0  0  0
  2 18  1  0  0  0  0
  3  4  1  0  0  0  0
  3 19  1  0  0  0  0
  3 20  1  0  0  0  0
  4  5  1  0  0  0  0
  4 21  1  0  0  0  0
  5  6  2  0  0  0  0
  5  8  1  0  0  0  0
  6  7  1  0  0  0  0
  6 33  1  0  0  0  0
  7 22  1  0  0  0  0
  7 23  1  0  0  0  0
  7 24  1  0  0  0  0
  8  9  1  0  0  0  0
  8 25  1  0  0  0  0
  9 10  1  0  0  0  0
  9 26  1  0  0  0  0
  9 27  1  0  0  0  0
 10 11  1  0  0  0  0
 10 28  1  0  0  0  0
 10 29  1  0  0  0  0
 11 15  1  0  0  0  0
 11 12  1  0  0  0  0
 12 13  2  0  0  0  0
 12 30  1  0  0  0  0
 13 14  1  0  0  0  0
 13 31  1  0  0  0  0
 14 15  2  0  0  0  0
 14 32  1  0  0  0  0
M  CHG  1   6   1
M  END
> <s_m_source_file>
AV-unprocessed.smi

> <i_m_source_file_index>
3096

> <i_lp_mmshare_version>
43012

> <i_f3d_flags>
0

> <s_epik_input>
W0NIMl09W0NIXVtDSDJdW05IXS9DKD1OL1tDSDNdKVtOSF1bQ0gyXVtDSDJdbjFbY0hdW2NIXVtjSF1uMQ==

> <s_epik_cmdline>
J2VwaWtfcHl0aG9uJywgJy1waCcsICc3LjAnLCAnLXRuJywgJzgnLCAnLW1hJywgJzIwMCcsICctbWV0YWxfYmluZGluZycsICctaW1hZScsICc8aW5maWxlLm1hZT4nLCAnLW9tYWUnLCAnPG91dGZpbGUubWFlPic=

> <r_lp_tautomer_probability>
1

> <r_epik_Ionization_Penalty>
5.14269e-05

> <r_epik_Ionization_Penalty_Charging>
1.55211e-07

> <r_epik_Ionization_Penalty_Neutral>
5.12717e-05

> <r_epik_State_Penalty>
-0

> <r_epik_Charging_Adjusted_Penalty>
1.55211e-07

> <i_epik_Tot_Q>
1

> <i_epik_Tot_abs_Q>
1

> <r_epik_Metal_State_Penalty>
-0

> <b_epik_Metal_Only>
0

> <s_epik_Chemistry_Notes>
This compound has an imine and may undergo hydrolysis.

> <s_lp_Force_Field>
OPLS_2005

> <r_lp_Energy>
4.847

> <b_lp_Chiralities_Consistent>
1

> <s_lp_Variant>
AV-unprocessed.smi:3096-1

> <Gold.Version>
5.8.1

> <Gold.Id.Protein>
6NUR|6NUR_protein|mol2

> <Gold.PLP.Fitness>
41.5489

> <Gold.PLP.PLP>
-32.7096

> <Gold.PLP.part.hbond>
-3.3308

> <Gold.PLP.part.metal>
0.0000

> <Gold.PLP.part.buried>
-0.2125

> <Gold.PLP.part.nonpolar>
-30.5502

> <Gold.PLP.part.repulsive>
0.2803

> <Gold.PLP.ligand.clash>
0.0000

> <Gold.PLP.ligand.torsion>
0.7847

> <Gold.PLP.Chemscore.Hbond>
3.4625

> <Gold.PLP.Chemscore.CHOScore>
0.0000

> <Gold.PLP.Chemscore.Metal>
0.0000

> <Gold.Chemscore.Hbonds>
donor molecule, donor type, donor heavy atom, donor atom, acceptor molecule, acceptor atom, score
      L1  H     6    33       P1  7948  2.00
      L1  H     8    25       P1 10175  1.46

> <Gold.PLP.Chemscore.Internal.Correction>
0.0211

> <Gold.Rescore>
     Score         DG    S(hbond)    S(metal)    S(lipo)     H(rot)  DE(clash)    DE(int)     intcor
     13.87     -15.17       1.92        0.00      69.50       1.89       0.46       0.84       ----

> <Gold.Chemscore.Fitness>
13.8681

> <Gold.Chemscore.DG>
-15.1714

> <Gold.Chemscore.ZeroCoef>
-5.4800

> <Gold.Chemscore.Hbond>
1.9151

> <Gold.Chemscore.Metal>
0.0000

> <Gold.Chemscore.Lipo>
69.4969

> <Gold.Chemscore.Internal_Hbond>
0.0000

> <Gold.Chemscore.DEClash>
0.4605

> <Gold.Chemscore.DEInternal>
0.8429

> <Gold.Chemscore.Rot>
1.8891

> <Gold.Chemscore.Internal.Correction>
   9.000000E+99

> <Gold.Chemscore.Hbonds>
donor molecule, donor type, donor heavy atom, donor atom, acceptor molecule, acceptor atom, score
      L1  H     6    33       P1  7948  0.92
      L1  H     8    25       P1 10175  0.69

> <Gold.Chemscore.Hbond.Weighted>
-6.3964

> <Gold.Chemscore.Metal.Weighted>
-0.0000

> <Gold.Chemscore.Lipo.Weighted>
-8.1311

> <Gold.Chemscore.Internal_Hbond.Weighted>
0.0000

> <Gold.Chemscore.DEClash.Weighted>
0.4605

> <Gold.Chemscore.DEInternal.Weighted>
0.8429

> <Gold.Chemscore.Rot.Weighted>
4.8361

> <Gold.Chemscore.Internal.Correction.Weighted>
   9.000000E+99

> <Gold.Protein.RotatedTorsions>
[ 6907 6896 6895 6894 ] final  127.93 input  -60.11 | X-H torsion
[ 7974 7965 7964 7962 ] final  153.20 input  175.53 | X-H torsion
[ 8008 7997 7996 7995 ] final    3.42 input   59.86 | X-H torsion
[ 10167 10162 10161 10158 ] final   76.10 input  -65.29 | X-H torsion
[ 10718 10713 10712 10709 ] final  -26.65 input   66.30 | X-H torsion
[ 10763 10752 10751 10750 ] final   96.47 input  -60.55 | X-H torsion
[ 11005 11000 10999 10996 ] final -167.98 input  -57.11 | X-H torsion

> <Gold.Protein.ActiveResidues>
 VAL166  LYS551  ARG553  GLY616  TRP617  ASP618  TYR619  PRO620  LYS621  CYS622 
 ASP623  PHE694  ASN695  SER759  ASP760  ASP761  ALA762  ILE779  LEU786  VAL792 
 PHE793  MET794  SER795  GLU796  ALA797  LYS798  CYS799  TRP800  GLU811  SER814 

> <Gold.Protein.RotatedAtoms>
  152.3767  133.6490  159.6128 H   0  0  0  0  0  0  0  0  0  0  0  0  # atno 6907 bound_to 6896
  150.7709  133.9182  159.3399 H   0  0  0  0  0  0  0  0  0  0  0  0  # atno 6908 bound_to 6896
  151.6995  135.0934  160.0299 H   0  0  0  0  0  0  0  0  0  0  0  0  # atno 6909 bound_to 6896
  144.8171  139.6769  143.6117 H   0  0  0  0  0  0  0  0  0  0  0  0  # atno 7974 bound_to 7965
  154.7034  140.2678  155.6698 H   0  0  0  0  0  0  0  0  0  0  0  0  # atno 8008 bound_to 7997
  156.2772  140.2767  156.1576 H   0  0  0  0  0  0  0  0  0  0  0  0  # atno 8009 bound_to 7997
  155.0733  140.0372  157.2606 H   0  0  0  0  0  0  0  0  0  0  0  0  # atno 8010 bound_to 7997
  139.9959  144.5722  150.7778 H   0  0  0  0  0  0  0  0  0  0  0  0  # atno 10167 bound_to 10162
  156.4485  130.4479  149.7005 H   0  0  0  0  0  0  0  0  0  0  0  0  # atno 10718 bound_to 10713
  153.2653  135.4217  155.0934 H   0  0  0  0  0  0  0  0  0  0  0  0  # atno 10763 bound_to 10752
  154.8436  135.3459  154.6320 H   0  0  0  0  0  0  0  0  0  0  0  0  # atno 10764 bound_to 10752
  153.6740  135.7042  153.5195 H   0  0  0  0  0  0  0  0  0  0  0  0  # atno 10765 bound_to 10752
  140.5471  134.5465  157.5114 H   0  0  0  0  0  0  0  0  0  0  0  0  # atno 11005 bound_to 11000
  146.2474  139.6128  142.9450 LP  0  0  0  0  0  0  0  0  0  0  0  0  # atno 17320 bound_to 7965
  145.5190  141.0432  143.2446 LP  0  0  0  0  0  0  0  0  0  0  0  0  # atno 17321 bound_to 7965
  140.7437  143.2850  151.3489 LP  0  0  0  0  0  0  0  0  0  0  0  0  # atno 17342 bound_to 10162
  139.6306  144.0728  152.2473 LP  0  0  0  0  0  0  0  0  0  0  0  0  # atno 17343 bound_to 10162
  156.3841  130.7594  151.2590 LP  0  0  0  0  0  0  0  0  0  0  0  0  # atno 17370 bound_to 10713
  157.7504  131.0287  150.4060 LP  0  0  0  0  0  0  0  0  0  0  0  0  # atno 17371 bound_to 10713
  139.9474  134.7678  156.0529 LP  0  0  0  0  0  0  0  0  0  0  0  0  # atno 17394 bound_to 11000
  141.1193  133.6618  156.3174 LP  0  0  0  0  0  0  0  0  0  0  0  0  # atno 17395 bound_to 11000

$$$$
