#       Name:                AV-unprocessed.smi:56
#       Creating user name   scv26
#       Creation time:       Thu Mar 26 16:48:04 2020


#       File generated by GOLD software.
#

@<TRIPOS>MOLECULE
AV-unprocessed.smi:56
    26    27     1
SMALL
NO_CHARGES


@<TRIPOS>ATOM
      1 ****        -1.9053   0.2065  -0.2641 O.3            1 S1                 0.0000
      2 ****        -0.4981   0.1077  -0.1124 C.3            1 S1                 0.0000
      3 ****        -0.0660  -1.3423  -0.0590 C.2            1 S1                 0.0000
      4 ****         0.6858  -2.0221   0.9487 C.2            1 S1                 0.0000
      5 ****         0.7818  -3.3056   0.4924 C.2            1 S1                 0.0000
      6 ****         0.1168  -3.3442  -0.7088 N.pl3          1 S1                 0.0000
      7 ****        -0.4057  -2.1535  -1.0544 N.2            1 S1                 0.0000
      8 ****         0.1802   0.9086  -1.2289 C.3            1 S1                 0.0000
      9 ****         0.1172   2.3686  -0.7553 C.3            1 S1                 0.0000
     10 ****        -0.1255   2.3311   0.7018 N.4            1 S1                 1.0000
     11 ****        -0.1027   0.9203   1.1292 C.3            1 S1                 0.0000
     12 ****         0.0108  -4.1616  -1.2932 H              1 S1                 0.0000
     13 ****        -2.1432   1.1162  -0.3503 H              1 S1                 0.0000
     14 ****         1.0929  -1.6326   1.8698 H              1 S1                 0.0000
     15 ****         1.2577  -4.1784   0.9150 H              1 S1                 0.0000
     16 ****         1.2286   0.6137  -1.3004 H              1 S1                 0.0000
     17 ****        -0.2670   0.7505  -2.2114 H              1 S1                 0.0000
     18 ****         1.0391   2.9045  -0.9834 H              1 S1                 0.0000
     19 ****        -0.7071   2.8983  -1.2339 H              1 S1                 0.0000
     20 ****         0.5678   2.8686   1.2030 H              1 S1                 0.0000
     21 ****        -0.7395   0.7355   1.9954 H              1 S1                 0.0000
     22 ****         0.9258   0.7008   1.4187 H              1 S1                 0.0000
     23 ****        -1.0443   2.7100   0.8814 H              1 S1                 0.0000
     24 ****        -2.3569  -0.1833   0.5385 LP             1 S1                 0.0000
     25 ****        -2.1899  -0.2932  -1.0822 LP             1 S1                 0.0000
     26 ****        -0.9311  -1.9298  -1.8753 LP             1 S1                 0.0000
@<TRIPOS>BOND
    1    1    2 1     
    2    1   13 1     
    3    2   11 1     
    4    2    8 1     
    5    2    3 1     
    6    3    7 2     
    7    3    4 1     
    8    4    5 2     
    9    4   14 1     
   10    5    6 1     
   11    5   15 1     
   12    6    7 1     
   13    6   12 1     
   14    8    9 1     
   15    8   16 1     
   16    8   17 1     
   17    9   10 1     
   18    9   18 1     
   19    9   19 1     
   20   10   11 1     
   21   10   20 1     
   22   10   23 1     
   23   11   21 1     
   24   11   22 1     
   25    1   24 1     
   26    1   25 1     
   27    7   26 1     
@<TRIPOS>SUBSTRUCTURE
      1 S1             1
@<TRIPOS>SET
LONE_PAIRS      STATIC     ATOMS    <user>   **** ""
3 24 25 26
DONOR_HYDROGENS      STATIC     ATOMS    <user>   **** ""
4 13 12 20 23
ATOM$BLUE        STATIC     ATOMS    COLORGROUP SYSTEM
3 24 25 26
ATOM$RED        STATIC     ATOMS    COLORGROUP SYSTEM
4 13 12 20 23
