AV-unprocessed.smi:557|AV-procd|sdf|2915|dock10
  -GOLD-   2262023403D 1   1.00000     0.00000
 Structure written by MMmdl.
 47 49  0  0  0  0  0  0  0  0  2 V2000
  151.7844  141.8676  158.0270 C   0  0  0  0  0  0  0  0  0  0  0  0
  151.5694  140.8903  156.9817 N   0  0  0  0  0  0  0  0  0  0  0  0
  150.5097  140.7840  156.1067 C   0  0  0  0  0  0  0  0  0  0  0  0
  150.7496  139.7061  155.3019 C   0  0  0  0  0  0  0  0  0  0  0  0
  149.9054  139.1567  154.1863 C   0  0  0  0  0  0  0  0  0  0  0  0
  148.5068  138.7644  154.6807 C   0  0  0  0  0  0  0  0  0  0  0  0
  147.9827  137.6441  153.9041 N   0  0  0  0  0  0  0  0  0  0  0  0
  146.8138  137.0062  154.0837 C   0  0  0  0  0  0  0  0  0  0  0  0
  146.0296  137.3227  154.9761 O   0  0  0  0  0  0  0  0  0  0  0  0
  146.5853  136.0044  153.2178 N   0  0  0  0  0  0  0  0  0  0  0  0
  145.3949  135.1598  153.2023 C   0  0  1  0  0  0  0  0  0  0  0  0
  144.1007  135.9560  152.9584 C   0  0  0  0  0  0  0  0  0  0  0  0
  143.2279  135.0542  152.0637 C   0  0  0  0  0  0  0  0  0  0  0  0
  143.9817  133.7938  151.9248 N   0  3  1  0  0  0  0  0  0  0  0  0
  143.6972  132.9666  150.7321 C   0  0  0  0  0  0  0  0  0  0  0  0
  144.5130  131.6607  150.8133 C   0  0  0  0  0  0  0  0  0  0  0  0
  146.0150  131.9375  151.0282 C   0  0  0  0  0  0  0  0  0  0  0  0
  146.2422  132.8806  152.2254 C   0  0  0  0  0  0  0  0  0  0  0  0
  145.4021  134.1566  152.0455 C   0  0  2  0  0  0  0  0  0  0  0  0
  152.0012  139.2153  155.7714 C   0  0  0  0  0  0  0  0  0  0  0  0
  152.4879  139.9243  156.7766 N   0  0  0  0  0  0  0  0  0  0  0  0
  150.9462  142.5636  158.0671 H   0  0  0  0  0  0  0  0  0  0  0  0
  152.6994  142.4258  157.8267 H   0  0  0  0  0  0  0  0  0  0  0  0
  151.8747  141.3648  158.9903 H   0  0  0  0  0  0  0  0  0  0  0  0
  149.6808  141.4761  156.1288 H   0  0  0  0  0  0  0  0  0  0  0  0
  149.8126  139.8881  153.3824 H   0  0  0  0  0  0  0  0  0  0  0  0
  150.3879  138.2861  153.7404 H   0  0  0  0  0  0  0  0  0  0  0  0
  148.5500  138.4855  155.7350 H   0  0  0  0  0  0  0  0  0  0  0  0
  147.8310  139.6171  154.5950 H   0  0  0  0  0  0  0  0  0  0  0  0
  148.5723  137.3109  153.1547 H   0  0  0  0  0  0  0  0  0  0  0  0
  147.2874  135.8183  152.5163 H   0  0  0  0  0  0  0  0  0  0  0  0
  145.2942  134.6237  154.1486 H   0  0  0  0  0  0  0  0  0  0  0  0
  143.6046  136.1963  153.8994 H   0  0  0  0  0  0  0  0  0  0  0  0
  144.3018  136.8976  152.4453 H   0  0  0  0  0  0  0  0  0  0  0  0
  142.2427  134.8695  152.4930 H   0  0  0  0  0  0  0  0  0  0  0  0
  143.0904  135.5187  151.0860 H   0  0  0  0  0  0  0  0  0  0  0  0
  142.6308  132.7428  150.6870 H   0  0  0  0  0  0  0  0  0  0  0  0
  143.9501  133.5201  149.8265 H   0  0  0  0  0  0  0  0  0  0  0  0
  144.1390  131.0531  151.6387 H   0  0  0  0  0  0  0  0  0  0  0  0
  144.3672  131.0711  149.9076 H   0  0  0  0  0  0  0  0  0  0  0  0
  146.5516  131.0008  151.1809 H   0  0  0  0  0  0  0  0  0  0  0  0
  146.4319  132.3894  150.1271 H   0  0  0  0  0  0  0  0  0  0  0  0
  145.9678  132.3774  153.1536 H   0  0  0  0  0  0  0  0  0  0  0  0
  147.3008  133.1288  152.3041 H   0  0  0  0  0  0  0  0  0  0  0  0
  145.7094  134.6678  151.1301 H   0  0  0  0  0  0  0  0  0  0  0  0
  152.5661  138.3673  155.4134 H   0  0  0  0  0  0  0  0  0  0  0  0
  143.7614  133.2361  152.7378 H   0  0  0  0  0  0  0  0  0  0  0  0
  1  2  1  0  0  0  0
  1 22  1  0  0  0  0
  1 23  1  0  0  0  0
  1 24  1  0  0  0  0
  2 21  1  0  0  0  0
  2  3  1  0  0  0  0
  3  4  2  0  0  0  0
  3 25  1  0  0  0  0
  4  5  1  0  0  0  0
  4 20  1  0  0  0  0
  5  6  1  0  0  0  0
  5 26  1  0  0  0  0
  5 27  1  0  0  0  0
  6  7  1  0  0  0  0
  6 28  1  0  0  0  0
  6 29  1  0  0  0  0
  7  8  1  0  0  0  0
  7 30  1  0  0  0  0
  8  9  2  0  0  0  0
  8 10  1  0  0  0  0
 10 11  1  0  0  0  0
 10 31  1  0  0  0  0
 11 19  1  0  0  0  0
 11 12  1  0  0  0  0
 11 32  1  0  0  0  0
 12 13  1  0  0  0  0
 12 33  1  0  0  0  0
 12 34  1  0  0  0  0
 13 14  1  0  0  0  0
 13 35  1  0  0  0  0
 13 36  1  0  0  0  0
 14 19  1  0  0  0  0
 14 15  1  0  0  0  0
 14 47  1  0  0  0  0
 15 16  1  0  0  0  0
 15 37  1  0  0  0  0
 15 38  1  0  0  0  0
 16 17  1  0  0  0  0
 16 39  1  0  0  0  0
 16 40  1  0  0  0  0
 17 18  1  0  0  0  0
 17 41  1  0  0  0  0
 17 42  1  0  0  0  0
 18 19  1  0  0  0  0
 18 43  1  0  0  0  0
 18 44  1  0  0  0  0
 19 45  1  0  0  0  0
 20 21  2  0  0  0  0
 20 46  1  0  0  0  0
M  CHG  1  14   1
M  END
> <s_m_source_file>
AV-unprocessed.smi

> <i_m_source_file_index>
557

> <i_lp_mmshare_version>
43012

> <i_f3d_flags>
0

> <s_epik_input>
W0NIM11uMVtjSF1jKFtjSF1uMSlbQ0gyXVtDSDJdW05IXUMoPU8pW05IXVtDQEhdKFtDSDJdW0NIMl0yKVtDQEhdKE4yMylbQ0gyXVtDSDJdW0NIMl1bQ0gyXTM=

> <s_epik_cmdline>
J2VwaWtfcHl0aG9uJywgJy1waCcsICc3LjAnLCAnLXRuJywgJzgnLCAnLW1hJywgJzIwMCcsICctbWV0YWxfYmluZGluZycsICctaW1hZScsICc8aW5maWxlLm1hZT4nLCAnLW9tYWUnLCAnPG91dGZpbGUubWFlPic=

> <r_lp_tautomer_probability>
1

> <r_epik_Ionization_Penalty>
0.000956547

> <r_epik_Ionization_Penalty_Charging>
0.000435796

> <r_epik_Ionization_Penalty_Neutral>
0.000520752

> <r_epik_State_Penalty>
-0

> <r_epik_Charging_Adjusted_Penalty>
0.000435796

> <i_epik_Tot_Q>
1

> <i_epik_Tot_abs_Q>
1

> <r_epik_Metal_State_Penalty>
-0

> <b_epik_Metal_Only>
0

> <s_lp_Force_Field>
OPLS_2005

> <r_lp_Energy>
39.7592

> <b_lp_Chiralities_Consistent>
1

> <s_lp_Variant>
AV-unprocessed.smi:557-2

> <Gold.Version>
5.8.1

> <Gold.Id.Protein>
6NUR|6NUR_protein|mol2

> <Gold.PLP.Fitness>
42.1518

> <Gold.PLP.PLP>
-33.6746

> <Gold.PLP.part.hbond>
-3.0000

> <Gold.PLP.part.metal>
0.0000

> <Gold.PLP.part.buried>
-3.7107

> <Gold.PLP.part.nonpolar>
-27.2434

> <Gold.PLP.part.repulsive>
0.0467

> <Gold.PLP.ligand.clash>
0.0000

> <Gold.PLP.ligand.torsion>
0.2065

> <Gold.PLP.Chemscore.Hbond>
2.9600

> <Gold.PLP.Chemscore.CHOScore>
0.0000

> <Gold.PLP.Chemscore.Metal>
0.0000

> <Gold.Chemscore.Hbonds>
donor molecule, donor type, donor heavy atom, donor atom, acceptor molecule, acceptor atom, score
      L1  H     7    30       P1  7948  1.00
      L1  H    10    31       P1  7948  0.96
      P1  H  7997  8008       L1    21  1.00

> <Gold.PLP.Chemscore.Internal.Correction>
0.0103

> <Gold.Rescore>
     Score         DG    S(hbond)    S(metal)    S(lipo)     H(rot)  DE(clash)    DE(int)     intcor
     20.79     -21.12       2.86        0.00      87.06       1.60       0.12       0.22       ----

> <Gold.Chemscore.Fitness>
20.7900

> <Gold.Chemscore.DG>
-21.1232

> <Gold.Chemscore.ZeroCoef>
-5.4800

> <Gold.Chemscore.Hbond>
2.8616

> <Gold.Chemscore.Metal>
0.0000

> <Gold.Chemscore.Lipo>
87.0594

> <Gold.Chemscore.Internal_Hbond>
0.0000

> <Gold.Chemscore.DEClash>
0.1168

> <Gold.Chemscore.DEInternal>
0.2163

> <Gold.Chemscore.Rot>
1.6018

> <Gold.Chemscore.Internal.Correction>
   9.000000E+99

> <Gold.Chemscore.Hbonds>
donor molecule, donor type, donor heavy atom, donor atom, acceptor molecule, acceptor atom, score
      L1  H     7    30       P1  7948  0.98
      L1  H    10    31       P1  7948  0.92
      P1  H  7997  8008       L1    21  0.39

> <Gold.Chemscore.Hbond.Weighted>
-9.5578

> <Gold.Chemscore.Metal.Weighted>
-0.0000

> <Gold.Chemscore.Lipo.Weighted>
-10.1860

> <Gold.Chemscore.Internal_Hbond.Weighted>
0.0000

> <Gold.Chemscore.DEClash.Weighted>
0.1168

> <Gold.Chemscore.DEInternal.Weighted>
0.2163

> <Gold.Chemscore.Rot.Weighted>
4.1006

> <Gold.Chemscore.Internal.Correction.Weighted>
   9.000000E+99

> <Gold.Protein.RotatedTorsions>
[ 6907 6896 6895 6894 ] final  129.88 input  -60.11 | X-H torsion
[ 7974 7965 7964 7962 ] final  111.11 input  175.53 | X-H torsion
[ 8008 7997 7996 7995 ] final  -39.38 input   59.86 | X-H torsion
[ 10167 10162 10161 10158 ] final -103.41 input  -65.29 | X-H torsion
[ 10718 10713 10712 10709 ] final -125.41 input   66.30 | X-H torsion
[ 10763 10752 10751 10750 ] final   54.04 input  -60.55 | X-H torsion
[ 11005 11000 10999 10996 ] final  144.43 input  -57.11 | X-H torsion

> <Gold.Protein.ActiveResidues>
 VAL166  LYS551  ARG553  GLY616  TRP617  ASP618  TYR619  PRO620  LYS621  CYS622 
 ASP623  PHE694  ASN695  SER759  ASP760  ASP761  ALA762  ILE779  LEU786  VAL792 
 PHE793  MET794  SER795  GLU796  ALA797  LYS798  CYS799  TRP800  GLU811  SER814 

> <Gold.Protein.RotatedAtoms>
  152.3580  133.6262  159.5993 H   0  0  0  0  0  0  0  0  0  0  0  0  # atno 6907 bound_to 6896
  150.7582  133.9468  159.3482 H   0  0  0  0  0  0  0  0  0  0  0  0  # atno 6908 bound_to 6896
  151.7311  135.0875  160.0351 H   0  0  0  0  0  0  0  0  0  0  0  0  # atno 6909 bound_to 6896
  145.2464  139.2758  143.4091 H   0  0  0  0  0  0  0  0  0  0  0  0  # atno 7974 bound_to 7965
  154.4024  140.1553  156.2854 H   0  0  0  0  0  0  0  0  0  0  0  0  # atno 8008 bound_to 7997
  155.8833  140.3442  155.5881 H   0  0  0  0  0  0  0  0  0  0  0  0  # atno 8009 bound_to 7997
  155.7642  140.0821  157.2130 H   0  0  0  0  0  0  0  0  0  0  0  0  # atno 8010 bound_to 7997
  140.2202  143.3681  152.0976 H   0  0  0  0  0  0  0  0  0  0  0  0  # atno 10167 bound_to 10162
  156.1673  130.6643  151.0132 H   0  0  0  0  0  0  0  0  0  0  0  0  # atno 10718 bound_to 10713
  152.9800  135.5758  154.4839 H   0  0  0  0  0  0  0  0  0  0  0  0  # atno 10763 bound_to 10752
  154.4383  135.2775  155.1867 H   0  0  0  0  0  0  0  0  0  0  0  0  # atno 10764 bound_to 10752
  154.3546  135.6202  153.5713 H   0  0  0  0  0  0  0  0  0  0  0  0  # atno 10765 bound_to 10752
  140.0632  134.9193  157.1219 H   0  0  0  0  0  0  0  0  0  0  0  0  # atno 11005 bound_to 11000
  146.3315  140.2841  142.8612 LP  0  0  0  0  0  0  0  0  0  0  0  0  # atno 17320 bound_to 7965
  144.9543  140.8210  143.5553 LP  0  0  0  0  0  0  0  0  0  0  0  0  # atno 17321 bound_to 7965
  139.5147  144.6951  151.5651 LP  0  0  0  0  0  0  0  0  0  0  0  0  # atno 17342 bound_to 10162
  140.6260  143.9167  150.6565 LP  0  0  0  0  0  0  0  0  0  0  0  0  # atno 17343 bound_to 10162
  157.6777  131.0846  150.7452 LP  0  0  0  0  0  0  0  0  0  0  0  0  # atno 17370 bound_to 10713
  156.7512  130.4769  149.5456 LP  0  0  0  0  0  0  0  0  0  0  0  0  # atno 17371 bound_to 10713
  140.3739  134.2360  155.7176 LP  0  0  0  0  0  0  0  0  0  0  0  0  # atno 17394 bound_to 11000
  141.1982  133.8042  157.0595 LP  0  0  0  0  0  0  0  0  0  0  0  0  # atno 17395 bound_to 11000

$$$$
