AV-unprocessed.smi:3314|AV-procd|sdf|12732|dock3
  -GOLD-   2272019 73D 1   1.00000     0.00000
 Structure written by MMmdl.
 38 39  0  0  0  0  0  0  0  0  2 V2000
  153.7506  141.8856  162.1876 C   0  0  0  0  0  0  0  0  0  0  0  0
  153.0261  142.3115  160.9278 C   0  0  0  0  0  0  0  0  0  0  0  0
  152.5059  143.6133  160.7969 C   0  0  0  0  0  0  0  0  0  0  0  0
  151.8403  143.9464  159.6010 C   0  0  0  0  0  0  0  0  0  0  0  0
  151.2577  145.3284  159.3925 C   0  0  0  0  0  0  0  0  0  0  0  0
  151.6794  143.0767  158.5805 N   0  0  0  0  0  0  0  0  0  0  0  0
  152.1744  141.8196  158.6968 C   0  0  0  0  0  0  0  0  0  0  0  0
  152.0580  140.8319  157.6837 N   0  0  0  0  0  0  0  0  0  0  0  0
  151.3251  140.8767  156.5555 C   0  0  0  0  0  0  0  0  0  0  0  0
  150.6034  141.8201  156.2283 O   0  0  0  0  0  0  0  0  0  0  0  0
  151.4341  139.6328  155.6526 C   0  0  1  0  0  0  0  0  0  0  0  0
  150.9511  138.3140  156.3029 C   0  0  0  0  0  0  0  0  0  0  0  0
  149.4749  138.2860  156.4379 N   0  3  2  0  0  0  0  0  0  0  0  0
  148.9850  137.0569  157.0969 C   0  0  0  0  0  0  0  0  0  0  0  0
  148.8218  138.5357  155.1335 C   0  0  0  0  0  0  0  0  0  0  0  0
  149.3144  139.8632  154.5354 C   0  0  0  0  0  0  0  0  0  0  0  0
  150.7373  139.8412  154.4205 O   0  0  0  0  0  0  0  0  0  0  0  0
  152.8585  141.4053  159.8614 C   0  0  0  0  0  0  0  0  0  0  0  0
  153.8164  142.7049  162.9041 H   0  0  0  0  0  0  0  0  0  0  0  0
  154.7631  141.5586  161.9499 H   0  0  0  0  0  0  0  0  0  0  0  0
  153.2246  141.0577  162.6634 H   0  0  0  0  0  0  0  0  0  0  0  0
  152.6137  144.3372  161.5918 H   0  0  0  0  0  0  0  0  0  0  0  0
  151.3687  145.9437  160.2859 H   0  0  0  0  0  0  0  0  0  0  0  0
  150.1953  145.2614  159.1567 H   0  0  0  0  0  0  0  0  0  0  0  0
  151.7626  145.8312  158.5673 H   0  0  0  0  0  0  0  0  0  0  0  0
  152.5912  139.9884  157.8377 H   0  0  0  0  0  0  0  0  0  0  0  0
  152.4907  139.5175  155.4073 H   0  0  0  0  0  0  0  0  0  0  0  0
  151.2712  137.4684  155.6919 H   0  0  0  0  0  0  0  0  0  0  0  0
  151.4142  138.1814  157.2820 H   0  0  0  0  0  0  0  0  0  0  0  0
  149.2083  136.1739  156.4965 H   0  0  0  0  0  0  0  0  0  0  0  0
  147.9060  137.1060  157.2463 H   0  0  0  0  0  0  0  0  0  0  0  0
  149.4516  136.9335  158.0747 H   0  0  0  0  0  0  0  0  0  0  0  0
  149.0406  137.7134  154.4504 H   0  0  0  0  0  0  0  0  0  0  0  0
  147.7393  138.5663  155.2616 H   0  0  0  0  0  0  0  0  0  0  0  0
  148.8873  140.0047  153.5425 H   0  0  0  0  0  0  0  0  0  0  0  0
  148.9813  140.7090  155.1383 H   0  0  0  0  0  0  0  0  0  0  0  0
  153.2499  140.4012  159.9414 H   0  0  0  0  0  0  0  0  0  0  0  0
  149.2265  139.0577  157.0413 H   0  0  0  0  0  0  0  0  0  0  0  0
  1  2  1  0  0  0  0
  1 19  1  0  0  0  0
  1 20  1  0  0  0  0
  1 21  1  0  0  0  0
  2 18  1  0  0  0  0
  2  3  2  0  0  0  0
  3  4  1  0  0  0  0
  3 22  1  0  0  0  0
  4  5  1  0  0  0  0
  4  6  2  0  0  0  0
  5 23  1  0  0  0  0
  5 24  1  0  0  0  0
  5 25  1  0  0  0  0
  6  7  1  0  0  0  0
  7  8  1  0  0  0  0
  7 18  2  0  0  0  0
  8  9  1  0  0  0  0
  8 26  1  0  0  0  0
  9 10  2  0  0  0  0
  9 11  1  0  0  0  0
 11 17  1  0  0  0  0
 11 12  1  0  0  0  0
 11 27  1  0  0  0  0
 12 13  1  0  0  0  0
 12 28  1  0  0  0  0
 12 29  1  0  0  0  0
 13 14  1  0  0  0  0
 13 15  1  0  0  0  0
 13 38  1  0  0  0  0
 14 30  1  0  0  0  0
 14 31  1  0  0  0  0
 14 32  1  0  0  0  0
 15 16  1  0  0  0  0
 15 33  1  0  0  0  0
 15 34  1  0  0  0  0
 16 17  1  0  0  0  0
 16 35  1  0  0  0  0
 16 36  1  0  0  0  0
 18 37  1  0  0  0  0
M  CHG  1  13   1
M  END
> <s_m_source_file>
AV-unprocessed.smi

> <i_m_source_file_index>
3314

> <i_lp_mmshare_version>
43012

> <i_f3d_flags>
0

> <s_epik_input>
W0NIM11jMVtjSF1jKFtDSDNdKW5jKFtjSF0xKVtOSF1DKD1PKVtDQEBIXTJbQ0gyXU4oW0NIM10pW0NIMl1bQ0gyXU8y

> <s_epik_cmdline>
J2VwaWtfcHl0aG9uJywgJy1waCcsICc3LjAnLCAnLXRuJywgJzgnLCAnLW1hJywgJzIwMCcsICctbWV0YWxfYmluZGluZycsICctaW1hZScsICc8aW5maWxlLm1hZT4nLCAnLW9tYWUnLCAnPG91dGZpbGUubWFlPic=

> <r_epik_Ionization_Penalty>
0.32442

> <r_epik_Ionization_Penalty_Charging>
0.314023

> <r_epik_Ionization_Penalty_Neutral>
0.0103972

> <r_epik_State_Penalty>
0.29453

> <r_epik_Charging_Adjusted_Penalty>
0.608553

> <i_epik_Tot_Q>
1

> <i_epik_Tot_abs_Q>
1

> <r_epik_Metal_State_Penalty>
0.286909

> <b_epik_Metal_Only>
0

> <s_lp_Force_Field>
OPLS_2005

> <r_lp_Energy>
14.9445

> <b_lp_Chiralities_Consistent>
1

> <s_lp_Variant>
AV-unprocessed.smi:3314-2

> <Gold.Version>
5.8.1

> <Gold.Id.Protein>
6NUR|6NUR_protein|mol2

> <Gold.PLP.Fitness>
38.5203

> <Gold.PLP.PLP>
-35.6242

> <Gold.PLP.part.hbond>
-1.0000

> <Gold.PLP.part.metal>
0.0000

> <Gold.PLP.part.buried>
-5.5774

> <Gold.PLP.part.nonpolar>
-30.0344

> <Gold.PLP.part.repulsive>
0.3254

> <Gold.PLP.ligand.clash>
0.0000

> <Gold.PLP.ligand.torsion>
0.0628

> <Gold.PLP.Chemscore.Hbond>
1.0000

> <Gold.PLP.Chemscore.CHOScore>
0.0000

> <Gold.PLP.Chemscore.Metal>
0.0000

> <Gold.Chemscore.Hbonds>
donor molecule, donor type, donor heavy atom, donor atom, acceptor molecule, acceptor atom, score
      P1  H  7989  7998       L1    17  1.00

> <Gold.PLP.Chemscore.Internal.Correction>
0.0217

> <Gold.Rescore>
     Score         DG    S(hbond)    S(metal)    S(lipo)     H(rot)  DE(clash)    DE(int)     intcor
     13.90     -16.55       0.91        0.00      90.52       1.00       0.05       2.60       ----

> <Gold.Chemscore.Fitness>
13.9040

> <Gold.Chemscore.DG>
-16.5496

> <Gold.Chemscore.ZeroCoef>
-5.4800

> <Gold.Chemscore.Hbond>
0.9096

> <Gold.Chemscore.Metal>
0.0000

> <Gold.Chemscore.Lipo>
90.5247

> <Gold.Chemscore.Internal_Hbond>
0.0000

> <Gold.Chemscore.DEClash>
0.0456

> <Gold.Chemscore.DEInternal>
2.6000

> <Gold.Chemscore.Rot>
1.0000

> <Gold.Chemscore.Internal.Correction>
   9.000000E+99

> <Gold.Chemscore.Hbonds>
donor molecule, donor type, donor heavy atom, donor atom, acceptor molecule, acceptor atom, score
      P1  H  7989  7998       L1    17  0.65

> <Gold.Chemscore.Hbond.Weighted>
-3.0382

> <Gold.Chemscore.Metal.Weighted>
-0.0000

> <Gold.Chemscore.Lipo.Weighted>
-10.5914

> <Gold.Chemscore.Internal_Hbond.Weighted>
0.0000

> <Gold.Chemscore.DEClash.Weighted>
0.0456

> <Gold.Chemscore.DEInternal.Weighted>
2.6000

> <Gold.Chemscore.Rot.Weighted>
2.5600

> <Gold.Chemscore.Internal.Correction.Weighted>
   9.000000E+99

> <Gold.Protein.RotatedTorsions>
[ 6907 6896 6895 6894 ] final  -51.43 input  -60.11 | X-H torsion
[ 7974 7965 7964 7962 ] final  145.69 input  175.53 | X-H torsion
[ 8008 7997 7996 7995 ] final   -3.79 input   59.86 | X-H torsion
[ 10167 10162 10161 10158 ] final   46.33 input  -65.29 | X-H torsion
[ 10718 10713 10712 10709 ] final   52.93 input   66.30 | X-H torsion
[ 10763 10752 10751 10750 ] final  147.72 input  -60.55 | X-H torsion
[ 11005 11000 10999 10996 ] final  -96.50 input  -57.11 | X-H torsion

> <Gold.Protein.ActiveResidues>
 VAL166  LYS551  ARG553  GLY616  TRP617  ASP618  TYR619  PRO620  LYS621  CYS622 
 ASP623  PHE694  ASN695  SER759  ASP760  ASP761  ALA762  ILE779  LEU786  VAL792 
 PHE793  MET794  SER795  GLU796  ALA797  LYS798  CYS799  TRP800  GLU811  SER814 

> <Gold.Protein.RotatedAtoms>
  150.8612  134.7965  159.7084 H   0  0  0  0  0  0  0  0  0  0  0  0  # atno 6907 bound_to 6896
  152.4648  134.5096  159.9759 H   0  0  0  0  0  0  0  0  0  0  0  0  # atno 6908 bound_to 6896
  151.5200  133.3430  159.2935 H   0  0  0  0  0  0  0  0  0  0  0  0  # atno 6909 bound_to 6896
  144.8732  139.5813  143.5877 H   0  0  0  0  0  0  0  0  0  0  0  0  # atno 7974 bound_to 7965
  154.6212  140.2500  155.7548 H   0  0  0  0  0  0  0  0  0  0  0  0  # atno 8008 bound_to 7997
  156.2427  140.2926  156.0439 H   0  0  0  0  0  0  0  0  0  0  0  0  # atno 8009 bound_to 7997
  155.1895  140.0391  157.2888 H   0  0  0  0  0  0  0  0  0  0  0  0  # atno 8010 bound_to 7997
  140.3151  144.2774  150.6192 H   0  0  0  0  0  0  0  0  0  0  0  0  # atno 10167 bound_to 10162
  157.5121  130.8507  149.8448 H   0  0  0  0  0  0  0  0  0  0  0  0  # atno 10718 bound_to 10713
  154.0430  135.2888  155.3352 H   0  0  0  0  0  0  0  0  0  0  0  0  # atno 10763 bound_to 10752
  154.6917  135.5224  153.8405 H   0  0  0  0  0  0  0  0  0  0  0  0  # atno 10764 bound_to 10752
  153.0592  135.6607  154.0633 H   0  0  0  0  0  0  0  0  0  0  0  0  # atno 10765 bound_to 10752
  141.1409  133.8102  157.0579 H   0  0  0  0  0  0  0  0  0  0  0  0  # atno 11005 bound_to 11000
  146.2945  139.7236  142.9137 LP  0  0  0  0  0  0  0  0  0  0  0  0  # atno 17320 bound_to 7965
  145.4091  141.0394  143.3027 LP  0  0  0  0  0  0  0  0  0  0  0  0  # atno 17321 bound_to 7965
  140.5534  143.2203  151.7889 LP  0  0  0  0  0  0  0  0  0  0  0  0  # atno 17342 bound_to 10162
  139.4885  144.4446  151.9725 LP  0  0  0  0  0  0  0  0  0  0  0  0  # atno 17343 bound_to 10162
  156.0296  130.3769  150.1726 LP  0  0  0  0  0  0  0  0  0  0  0  0  # atno 17370 bound_to 10713
  156.9915  130.9895  151.3413 LP  0  0  0  0  0  0  0  0  0  0  0  0  # atno 17371 bound_to 10713
  140.0590  134.9765  157.1271 LP  0  0  0  0  0  0  0  0  0  0  0  0  # atno 17394 bound_to 11000
  140.3877  134.2219  155.7167 LP  0  0  0  0  0  0  0  0  0  0  0  0  # atno 17395 bound_to 11000

$$$$
