AV-unprocessed.smi:3253|AV-procd|sdf|12449|dock8
  -GOLD-   2272018343D 1   1.00000     0.00000
 Structure written by MMmdl.
 36 37  0  0  0  0  0  0  0  0  1 V2000
  149.2421  133.9610  156.1470 C   0  0  0  0  0  0  0  0  0  0  0  0
  148.4873  134.5466  154.9389 C   0  0  2  0  0  0  0  0  0  0  0  0
  148.2077  133.5038  153.8386 C   0  0  0  0  0  0  0  0  0  0  0  0
  147.2611  133.9741  152.8447 N   0  0  0  0  0  0  0  0  0  0  0  0
  147.1307  133.5353  151.5333 C   0  0  0  0  0  0  0  0  0  0  0  0
  146.1090  134.2688  150.9735 C   0  0  0  0  0  0  0  0  0  0  0  0
  145.6037  135.1631  151.9143 N   0  0  0  0  0  0  0  0  0  0  0  0
  146.3364  134.9321  152.9958 C   0  0  0  0  0  0  0  0  0  0  0  0
  149.2397  135.6576  154.3622 N   0  0  0  0  0  0  0  0  0  0  0  0
  149.5381  136.8051  154.9916 C   0  0  0  0  0  0  0  0  0  0  0  0
  149.2072  137.0447  156.1533 O   0  0  0  0  0  0  0  0  0  0  0  0
  150.3330  137.8429  154.1838 C   0  0  2  0  0  0  0  0  0  0  0  0
  151.8032  137.9102  154.6453 C   0  0  0  0  0  0  0  0  0  0  0  0
  151.9282  139.2861  155.2786 C   0  0  0  0  0  0  0  0  0  0  0  0
  152.9470  139.6676  155.8524 O   0  0  0  0  0  0  0  0  0  0  0  0
  150.8002  139.9855  155.1286 N   0  0  0  0  0  0  0  0  0  0  0  0
  150.5633  141.3351  155.6229 C   0  0  0  0  0  0  0  0  0  0  0  0
  149.7869  139.2767  154.3658 C   0  0  0  0  0  0  0  0  0  0  0  0
  148.6669  133.1735  156.6342 H   0  0  0  0  0  0  0  0  0  0  0  0
  149.4383  134.7254  156.8996 H   0  0  0  0  0  0  0  0  0  0  0  0
  150.2003  133.5362  155.8472 H   0  0  0  0  0  0  0  0  0  0  0  0
  147.5254  134.9260  155.2895 H   0  0  0  0  0  0  0  0  0  0  0  0
  149.1331  133.2387  153.3250 H   0  0  0  0  0  0  0  0  0  0  0  0
  147.8193  132.5836  154.2776 H   0  0  0  0  0  0  0  0  0  0  0  0
  147.7550  132.7574  151.1191 H   0  0  0  0  0  0  0  0  0  0  0  0
  145.7029  134.2235  149.9737 H   0  0  0  0  0  0  0  0  0  0  0  0
  146.1959  135.4713  153.9213 H   0  0  0  0  0  0  0  0  0  0  0  0
  149.5543  135.5469  153.4092 H   0  0  0  0  0  0  0  0  0  0  0  0
  150.2938  137.5749  153.1264 H   0  0  0  0  0  0  0  0  0  0  0  0
  152.0751  137.1339  155.3630 H   0  0  0  0  0  0  0  0  0  0  0  0
  152.4849  137.8371  153.7973 H   0  0  0  0  0  0  0  0  0  0  0  0
  151.3093  142.0253  155.2276 H   0  0  0  0  0  0  0  0  0  0  0  0
  150.6169  141.3566  156.7119 H   0  0  0  0  0  0  0  0  0  0  0  0
  149.5784  141.6961  155.3252 H   0  0  0  0  0  0  0  0  0  0  0  0
  149.6544  139.7662  153.4000 H   0  0  0  0  0  0  0  0  0  0  0  0
  148.8268  139.3073  154.8844 H   0  0  0  0  0  0  0  0  0  0  0  0
  1  2  1  0  0  0  0
  1 19  1  0  0  0  0
  1 20  1  0  0  0  0
  1 21  1  0  0  0  0
  2  3  1  0  0  0  0
  2  9  1  0  0  0  0
  2 22  1  0  0  0  0
  3  4  1  0  0  0  0
  3 23  1  0  0  0  0
  3 24  1  0  0  0  0
  4  8  1  0  0  0  0
  4  5  1  0  0  0  0
  5  6  2  0  0  0  0
  5 25  1  0  0  0  0
  6  7  1  0  0  0  0
  6 26  1  0  0  0  0
  7  8  2  0  0  0  0
  8 27  1  0  0  0  0
  9 10  1  0  0  0  0
  9 28  1  0  0  0  0
 10 11  2  0  0  0  0
 10 12  1  0  0  0  0
 12 18  1  0  0  0  0
 12 13  1  0  0  0  0
 12 29  1  0  0  0  0
 13 14  1  0  0  0  0
 13 30  1  0  0  0  0
 13 31  1  0  0  0  0
 14 15  2  0  0  0  0
 14 16  1  0  0  0  0
 16 17  1  0  0  0  0
 16 18  1  0  0  0  0
 17 32  1  0  0  0  0
 17 33  1  0  0  0  0
 17 34  1  0  0  0  0
 18 35  1  0  0  0  0
 18 36  1  0  0  0  0
M  END
> <s_m_source_file>
AV-unprocessed.smi

> <i_m_source_file_index>
3253

> <i_lp_mmshare_version>
43012

> <i_f3d_flags>
0

> <s_epik_input>
W2NIXTFuW2NIXVtjSF1uMVtDSDJdW0NAQEhdKFtDSDNdKVtOSF1DKD1PKVtDQEBIXTJbQ0gyXUMoPU8pTihbQ0gzXSlbQ0gyXTI=

> <s_epik_cmdline>
J2VwaWtfcHl0aG9uJywgJy1waCcsICc3LjAnLCAnLXRuJywgJzgnLCAnLW1hJywgJzIwMCcsICctbWV0YWxfYmluZGluZycsICctaW1hZScsICc8aW5maWxlLm1hZT4nLCAnLW9tYWUnLCAnPG91dGZpbGUubWFlPic=

> <r_lp_tautomer_probability>
1

> <r_epik_Ionization_Penalty>
0.628884

> <r_epik_Ionization_Penalty_Charging>
0.628884

> <r_epik_Ionization_Penalty_Neutral>
2.35084e-08

> <r_epik_State_Penalty>
0.64556

> <r_epik_Charging_Adjusted_Penalty>
1.27444

> <i_epik_Tot_Q>
0

> <i_epik_Tot_abs_Q>
0

> <r_epik_Metal_State_Penalty>
0.308736

> <b_epik_Metal_Only>
0

> <s_lp_Force_Field>
OPLS_2005

> <r_lp_Energy>
13.4006

> <b_lp_Chiralities_Consistent>
1

> <s_lp_Variant>
AV-unprocessed.smi:3253-5

> <Gold.Version>
5.8.1

> <Gold.Id.Protein>
6NUR|6NUR_protein|mol2

> <Gold.PLP.Fitness>
37.5645

> <Gold.PLP.PLP>
-29.9161

> <Gold.PLP.part.hbond>
-2.0000

> <Gold.PLP.part.metal>
0.0000

> <Gold.PLP.part.buried>
2.4111

> <Gold.PLP.part.nonpolar>
-29.1321

> <Gold.PLP.part.repulsive>
0.1744

> <Gold.PLP.ligand.clash>
0.0000

> <Gold.PLP.ligand.torsion>
0.8105

> <Gold.PLP.Chemscore.Hbond>
1.2624

> <Gold.PLP.Chemscore.CHOScore>
1.8140

> <Gold.PLP.Chemscore.Metal>
0.0000

> <Gold.Chemscore.Hbonds>
donor molecule, donor type, donor heavy atom, donor atom, acceptor molecule, acceptor atom, score
      L1  H     9    28       P1  7948  0.50
      P1  H  7997  8008       L1    15  0.98
      L1  C     5    25       P1 10747  1.00
      L1  C     6    26       P1  7921  1.00

> <Gold.PLP.Chemscore.Internal.Correction>
0.0403

> <Gold.Rescore>
     Score         DG    S(hbond)    S(metal)    S(lipo)     H(rot)  DE(clash)    DE(int)     intcor
      9.29     -10.29       0.98        0.00      56.11       1.97       0.14       0.86       ----

> <Gold.Chemscore.Fitness>
9.2866

> <Gold.Chemscore.DG>
-10.2886

> <Gold.Chemscore.ZeroCoef>
-5.4800

> <Gold.Chemscore.Hbond>
0.9818

> <Gold.Chemscore.Metal>
0.0000

> <Gold.Chemscore.Lipo>
56.1070

> <Gold.Chemscore.Internal_Hbond>
0.0000

> <Gold.Chemscore.DEClash>
0.1422

> <Gold.Chemscore.DEInternal>
0.8598

> <Gold.Chemscore.Rot>
1.9669

> <Gold.Chemscore.Internal.Correction>
   9.000000E+99

> <Gold.Chemscore.Hbonds>
donor molecule, donor type, donor heavy atom, donor atom, acceptor molecule, acceptor atom, score
      L1  H     9    28       P1  7948  0.06
      P1  H  7997  8008       L1    15  0.91

> <Gold.Chemscore.Hbond.Weighted>
-3.2793

> <Gold.Chemscore.Metal.Weighted>
-0.0000

> <Gold.Chemscore.Lipo.Weighted>
-6.5645

> <Gold.Chemscore.Internal_Hbond.Weighted>
0.0000

> <Gold.Chemscore.DEClash.Weighted>
0.1422

> <Gold.Chemscore.DEInternal.Weighted>
0.8598

> <Gold.Chemscore.Rot.Weighted>
5.0352

> <Gold.Chemscore.Internal.Correction.Weighted>
   9.000000E+99

> <Gold.Protein.RotatedTorsions>
[ 6907 6896 6895 6894 ] final  111.05 input  -60.11 | X-H torsion
[ 7974 7965 7964 7962 ] final -132.53 input  175.53 | X-H torsion
[ 8008 7997 7996 7995 ] final  -33.65 input   59.86 | X-H torsion
[ 10167 10162 10161 10158 ] final -164.05 input  -65.29 | X-H torsion
[ 10718 10713 10712 10709 ] final    8.82 input   66.30 | X-H torsion
[ 10763 10752 10751 10750 ] final -129.99 input  -60.55 | X-H torsion
[ 11005 11000 10999 10996 ] final   65.84 input  -57.11 | X-H torsion

> <Gold.Protein.ActiveResidues>
 VAL166  LYS551  ARG553  GLY616  TRP617  ASP618  TYR619  PRO620  LYS621  CYS622 
 ASP623  PHE694  ASN695  SER759  ASP760  ASP761  ALA762  ILE779  LEU786  VAL792 
 PHE793  MET794  SER795  GLU796  ALA797  LYS798  CYS799  TRP800  GLU811  SER814 

> <Gold.Protein.RotatedAtoms>
  152.4989  133.8713  159.7299 H   0  0  0  0  0  0  0  0  0  0  0  0  # atno 6907 bound_to 6896
  150.9199  133.6884  159.2841 H   0  0  0  0  0  0  0  0  0  0  0  0  # atno 6908 bound_to 6896
  151.4265  135.1009  159.9682 H   0  0  0  0  0  0  0  0  0  0  0  0  # atno 6909 bound_to 6896
  144.9277  140.7091  143.4925 H   0  0  0  0  0  0  0  0  0  0  0  0  # atno 7974 bound_to 7965
  154.4143  140.1705  156.1923 H   0  0  0  0  0  0  0  0  0  0  0  0  # atno 8008 bound_to 7997
  155.9593  140.3395  155.6453 H   0  0  0  0  0  0  0  0  0  0  0  0  # atno 8009 bound_to 7997
  155.6769  140.0718  157.2490 H   0  0  0  0  0  0  0  0  0  0  0  0  # atno 8010 bound_to 7997
  139.6277  144.0499  152.1989 H   0  0  0  0  0  0  0  0  0  0  0  0  # atno 10167 bound_to 10162
  156.9573  130.5919  149.5660 H   0  0  0  0  0  0  0  0  0  0  0  0  # atno 10718 bound_to 10713
  154.8756  135.3877  154.4010 H   0  0  0  0  0  0  0  0  0  0  0  0  # atno 10763 bound_to 10752
  153.4735  135.7030  153.5985 H   0  0  0  0  0  0  0  0  0  0  0  0  # atno 10764 bound_to 10752
  153.4432  135.3851  155.2208 H   0  0  0  0  0  0  0  0  0  0  0  0  # atno 10765 bound_to 10752
  139.9869  134.6653  156.0160 H   0  0  0  0  0  0  0  0  0  0  0  0  # atno 11005 bound_to 11000
  145.3192  139.1794  143.4597 LP  0  0  0  0  0  0  0  0  0  0  0  0  # atno 17320 bound_to 7965
  146.3233  140.3207  142.8633 LP  0  0  0  0  0  0  0  0  0  0  0  0  # atno 17321 bound_to 7965
  140.0157  144.6190  150.7609 LP  0  0  0  0  0  0  0  0  0  0  0  0  # atno 17342 bound_to 10162
  140.7421  143.2827  151.3552 LP  0  0  0  0  0  0  0  0  0  0  0  0  # atno 17343 bound_to 10162
  156.0337  130.5426  150.8600 LP  0  0  0  0  0  0  0  0  0  0  0  0  # atno 17370 bound_to 10713
  157.5682  131.0946  150.9458 LP  0  0  0  0  0  0  0  0  0  0  0  0  # atno 17371 bound_to 10713
  141.1532  133.6546  156.4079 LP  0  0  0  0  0  0  0  0  0  0  0  0  # atno 17394 bound_to 11000
  140.4985  134.6508  157.5239 LP  0  0  0  0  0  0  0  0  0  0  0  0  # atno 17395 bound_to 11000

$$$$
