AV-unprocessed.smi:999|AV-procd|sdf|4351|dock5
  -GOLD-   22720 2253D 1   1.00000     0.00000
 Structure written by MMmdl.
 37 38  0  0  0  0  0  0  0  0  2 V2000
  145.6547  136.1448  151.4298 C   0  0  0  0  0  0  0  0  0  0  0  0
  145.1222  134.8388  152.0549 C   0  0  2  0  0  0  0  0  0  0  0  0
  145.8678  134.4439  153.3400 C   0  0  0  0  0  0  0  0  0  0  0  0
  145.2759  133.8905  154.2676 O   0  0  0  0  0  0  0  0  0  0  0  0
  147.1779  134.7354  153.3754 N   0  0  0  0  0  0  0  0  0  0  0  0
  148.0763  134.4710  154.4944 C   0  0  2  0  0  0  0  0  0  0  0  0
  148.9317  135.7200  154.7695 C   0  0  0  0  0  0  0  0  0  0  0  0
  149.9329  135.4786  155.9103 C   0  0  0  0  0  0  0  0  0  0  0  0
  150.8373  134.2556  155.6253 C   0  0  1  0  0  0  0  0  0  0  0  0
  151.8332  133.9885  156.7734 C   0  0  0  0  0  0  0  0  0  0  0  0
  152.6226  134.9032  157.0991 O   0  0  0  0  0  0  0  0  0  0  0  0
  151.8100  132.8535  157.2992 O   0  5  0  0  0  0  0  0  0  0  0  0
  149.9787  133.0031  155.3336 C   0  0  0  0  0  0  0  0  0  0  0  0
  148.9747  133.2546  154.1972 C   0  0  0  0  0  0  0  0  0  0  0  0
  145.1244  133.7310  151.1060 N   0  0  0  0  0  0  0  0  0  0  0  0
  144.0381  133.1313  150.5012 C   0  0  0  0  0  0  0  0  0  0  0  0
  144.5101  132.1138  149.7225 C   0  0  0  0  0  0  0  0  0  0  0  0
  145.9169  132.1579  149.9263 C   0  0  0  0  0  0  0  0  0  0  0  0
  146.2808  133.1183  150.7597 N   0  0  0  0  0  0  0  0  0  0  0  0
  145.5858  136.9740  152.1348 H   0  0  0  0  0  0  0  0  0  0  0  0
  145.0737  136.4177  150.5486 H   0  0  0  0  0  0  0  0  0  0  0  0
  146.6981  136.0589  151.1237 H   0  0  0  0  0  0  0  0  0  0  0  0
  144.0822  135.0197  152.3315 H   0  0  0  0  0  0  0  0  0  0  0  0
  147.5826  135.1874  152.5686 H   0  0  0  0  0  0  0  0  0  0  0  0
  147.4820  134.2630  155.3865 H   0  0  0  0  0  0  0  0  0  0  0  0
  149.4758  136.0029  153.8670 H   0  0  0  0  0  0  0  0  0  0  0  0
  148.2893  136.5649  155.0207 H   0  0  0  0  0  0  0  0  0  0  0  0
  150.5375  136.3766  156.0461 H   0  0  0  0  0  0  0  0  0  0  0  0
  149.3853  135.3284  156.8422 H   0  0  0  0  0  0  0  0  0  0  0  0
  151.4363  134.4738  154.7400 H   0  0  0  0  0  0  0  0  0  0  0  0
  150.6113  132.1567  155.0626 H   0  0  0  0  0  0  0  0  0  0  0  0
  149.4373  132.7081  156.2339 H   0  0  0  0  0  0  0  0  0  0  0  0
  148.3652  132.3624  154.0489 H   0  0  0  0  0  0  0  0  0  0  0  0
  149.5182  133.4154  153.2650 H   0  0  0  0  0  0  0  0  0  0  0  0
  143.0290  133.4755  150.6735 H   0  0  0  0  0  0  0  0  0  0  0  0
  143.9372  131.4379  149.1052 H   0  0  0  0  0  0  0  0  0  0  0  0
  146.6791  131.5227  149.4996 H   0  0  0  0  0  0  0  0  0  0  0  0
  1  2  1  0  0  0  0
  1 20  1  0  0  0  0
  1 21  1  0  0  0  0
  1 22  1  0  0  0  0
  2  3  1  0  0  0  0
  2 15  1  0  0  0  0
  2 23  1  0  0  0  0
  3  4  2  0  0  0  0
  3  5  1  0  0  0  0
  5  6  1  0  0  0  0
  5 24  1  0  0  0  0
  6 14  1  0  0  0  0
  6  7  1  0  0  0  0
  6 25  1  0  0  0  0
  7  8  1  0  0  0  0
  7 26  1  0  0  0  0
  7 27  1  0  0  0  0
  8  9  1  0  0  0  0
  8 28  1  0  0  0  0
  8 29  1  0  0  0  0
  9 10  1  0  0  0  0
  9 13  1  0  0  0  0
  9 30  1  0  0  0  0
 10 11  2  0  0  0  0
 10 12  1  0  0  0  0
 13 14  1  0  0  0  0
 13 31  1  0  0  0  0
 13 32  1  0  0  0  0
 14 33  1  0  0  0  0
 14 34  1  0  0  0  0
 15 19  1  0  0  0  0
 15 16  1  0  0  0  0
 16 17  2  0  0  0  0
 16 35  1  0  0  0  0
 17 18  1  0  0  0  0
 17 36  1  0  0  0  0
 18 19  2  0  0  0  0
 18 37  1  0  0  0  0
M  CHG  1  12  -1
M  END
> <s_m_source_file>
AV-unprocessed.smi

> <i_m_source_file_index>
999

> <i_lp_mmshare_version>
43012

> <i_f3d_flags>
0

> <s_epik_input>
bjFbY0hdW2NIXVtjSF1uMVtDQEhdKFtDSDNdKUMoPU8pW05IXVtDQEBIXTJbQ0gyXVtDSDJdW0NAQEhdKEMoPU8pW09IXSlbQ0gyXVtDSDJdMg==

> <s_epik_cmdline>
J2VwaWtfcHl0aG9uJywgJy1waCcsICc3LjAnLCAnLXRuJywgJzgnLCAnLW1hJywgJzIwMCcsICctbWV0YWxfYmluZGluZycsICctaW1hZScsICc8aW5maWxlLm1hZT4nLCAnLW9tYWUnLCAnPG91dGZpbGUubWFlPic=

> <r_lp_tautomer_probability>
1

> <r_epik_Ionization_Penalty>
0.00221712

> <r_epik_Ionization_Penalty_Charging>
0.00217268

> <r_epik_Ionization_Penalty_Neutral>
4.44343e-05

> <r_epik_State_Penalty>
0.0014925

> <r_epik_Charging_Adjusted_Penalty>
0.00366518

> <i_epik_Tot_Q>
-1

> <i_epik_Tot_abs_Q>
1

> <r_epik_Metal_State_Penalty>
-0

> <b_epik_Metal_Only>
0

> <s_lp_Force_Field>
OPLS_2005

> <r_lp_Energy>
14.6475

> <b_lp_Chiralities_Consistent>
1

> <s_lp_Variant>
AV-unprocessed.smi:999-1

> <Gold.Version>
5.8.1

> <Gold.Id.Protein>
6NUR|6NUR_protein|mol2

> <Gold.PLP.Fitness>
46.7537

> <Gold.PLP.PLP>
-28.3777

> <Gold.PLP.part.hbond>
-3.7646

> <Gold.PLP.part.metal>
0.0000

> <Gold.PLP.part.buried>
-2.2385

> <Gold.PLP.part.nonpolar>
-22.7984

> <Gold.PLP.part.repulsive>
0.2898

> <Gold.PLP.ligand.clash>
0.0000

> <Gold.PLP.ligand.torsion>
1.1107

> <Gold.PLP.Chemscore.Hbond>
4.8240

> <Gold.PLP.Chemscore.CHOScore>
2.0000

> <Gold.PLP.Chemscore.Metal>
0.0000

> <Gold.Chemscore.Hbonds>
donor molecule, donor type, donor heavy atom, donor atom, acceptor molecule, acceptor atom, score
      L1  H     5    24       P1  7948  0.98
      P1  H  6896  6909       L1    12  1.76
      P1  H 10752 10765       L1    11  1.95
      L1  C    16    35       P1 10186  1.00
      L1  C    18    37       P1 10747  1.00

> <Gold.PLP.Chemscore.Internal.Correction>
0.1253

> <Gold.Rescore>
     Score         DG    S(hbond)    S(metal)    S(lipo)     H(rot)  DE(clash)    DE(int)     intcor
     14.80     -16.94       2.60        0.00      67.10       1.98       0.24       1.91       ----

> <Gold.Chemscore.Fitness>
14.7970

> <Gold.Chemscore.DG>
-16.9440

> <Gold.Chemscore.ZeroCoef>
-5.4800

> <Gold.Chemscore.Hbond>
2.5974

> <Gold.Chemscore.Metal>
0.0000

> <Gold.Chemscore.Lipo>
67.1014

> <Gold.Chemscore.Internal_Hbond>
0.0000

> <Gold.Chemscore.DEClash>
0.2400

> <Gold.Chemscore.DEInternal>
1.9070

> <Gold.Chemscore.Rot>
1.9774

> <Gold.Chemscore.Internal.Correction>
   9.000000E+99

> <Gold.Chemscore.Hbonds>
donor molecule, donor type, donor heavy atom, donor atom, acceptor molecule, acceptor atom, score
      L1  H     5    24       P1  7948  0.93
      P1  H  6896  6909       L1    12  0.29
      P1  H 10752 10765       L1    11  0.36

> <Gold.Chemscore.Hbond.Weighted>
-8.6752

> <Gold.Chemscore.Metal.Weighted>
-0.0000

> <Gold.Chemscore.Lipo.Weighted>
-7.8509

> <Gold.Chemscore.Internal_Hbond.Weighted>
0.0000

> <Gold.Chemscore.DEClash.Weighted>
0.2400

> <Gold.Chemscore.DEInternal.Weighted>
1.9070

> <Gold.Chemscore.Rot.Weighted>
5.0620

> <Gold.Chemscore.Internal.Correction.Weighted>
   9.000000E+99

> <Gold.Protein.RotatedTorsions>
[ 6907 6896 6895 6894 ] final  -56.93 input  -60.11 | X-H torsion
[ 7974 7965 7964 7962 ] final  -36.14 input  175.53 | X-H torsion
[ 8008 7997 7996 7995 ] final -150.83 input   59.86 | X-H torsion
[ 10167 10162 10161 10158 ] final   46.55 input  -65.29 | X-H torsion
[ 10718 10713 10712 10709 ] final  -73.62 input   66.30 | X-H torsion
[ 10763 10752 10751 10750 ] final -117.65 input  -60.55 | X-H torsion
[ 11005 11000 10999 10996 ] final  171.26 input  -57.11 | X-H torsion

> <Gold.Protein.ActiveResidues>
 VAL166  LYS551  ARG553  GLY616  TRP617  ASP618  TYR619  PRO620  LYS621  CYS622 
 ASP623  PHE694  ASN695  SER759  ASP760  ASP761  ALA762  ILE779  LEU786  VAL792 
 PHE793  MET794  SER795  GLU796  ALA797  LYS798  CYS799  TRP800  GLU811  SER814 

> <Gold.Protein.RotatedAtoms>
  150.8127  134.7291  159.6701 H   0  0  0  0  0  0  0  0  0  0  0  0  # atno 6907 bound_to 6896
  152.4246  134.5888  159.9978 H   0  0  0  0  0  0  0  0  0  0  0  0  # atno 6908 bound_to 6896
  151.6094  133.3311  159.3100 H   0  0  0  0  0  0  0  0  0  0  0  0  # atno 6909 bound_to 6896
  146.0687  140.6242  142.8962 H   0  0  0  0  0  0  0  0  0  0  0  0  # atno 7974 bound_to 7965
  155.6298  140.0690  157.2652 H   0  0  0  0  0  0  0  0  0  0  0  0  # atno 8008 bound_to 7997
  154.4208  140.1769  156.1509 H   0  0  0  0  0  0  0  0  0  0  0  0  # atno 8009 bound_to 7997
  155.9942  140.3342  155.6785 H   0  0  0  0  0  0  0  0  0  0  0  0  # atno 8010 bound_to 7997
  140.3128  144.2800  150.6196 H   0  0  0  0  0  0  0  0  0  0  0  0  # atno 10167 bound_to 10162
  156.0273  130.4398  150.2769 H   0  0  0  0  0  0  0  0  0  0  0  0  # atno 10718 bound_to 10713
  154.8562  135.4302  154.2014 H   0  0  0  0  0  0  0  0  0  0  0  0  # atno 10763 bound_to 10752
  153.3059  135.6972  153.7165 H   0  0  0  0  0  0  0  0  0  0  0  0  # atno 10764 bound_to 10752
  153.6277  135.3490  155.3006 H   0  0  0  0  0  0  0  0  0  0  0  0  # atno 10765 bound_to 10752
  140.3171  134.7468  157.4036 H   0  0  0  0  0  0  0  0  0  0  0  0  # atno 11005 bound_to 11000
  144.7218  140.4398  143.7002 LP  0  0  0  0  0  0  0  0  0  0  0  0  # atno 17320 bound_to 7965
  145.6430  139.1553  143.2905 LP  0  0  0  0  0  0  0  0  0  0  0  0  # atno 17321 bound_to 7965
  140.5553  143.2200  151.7857 LP  0  0  0  0  0  0  0  0  0  0  0  0  # atno 17342 bound_to 10162
  139.4890  144.4421  151.9752 LP  0  0  0  0  0  0  0  0  0  0  0  0  # atno 17343 bound_to 10162
  157.0872  131.0160  151.3135 LP  0  0  0  0  0  0  0  0  0  0  0  0  # atno 17370 bound_to 10713
  157.4882  130.7806  149.7481 LP  0  0  0  0  0  0  0  0  0  0  0  0  # atno 17371 bound_to 10713
  140.0974  134.5519  155.8385 LP  0  0  0  0  0  0  0  0  0  0  0  0  # atno 17394 bound_to 11000
  141.2095  133.6684  156.6443 LP  0  0  0  0  0  0  0  0  0  0  0  0  # atno 17395 bound_to 11000

$$$$
