AV-unprocessed.smi:714|AV-procd|sdf|3483|dock6
  -GOLD-   22720 0473D 1   1.00000     0.00000
 Structure written by MMmdl.
 38 39  0  0  0  0  0  0  0  0  1 V2000
  143.7841  145.3657  154.9853 C   0  0  0  0  0  0  0  0  0  0  0  0
  143.7851  144.1552  155.1463 C   0  0  0  0  0  0  0  0  0  0  0  0
  143.7867  142.6932  155.3241 C   0  0  0  0  0  0  0  0  0  0  0  0
  145.1062  142.1041  155.1246 N   0  0  0  0  0  0  0  0  0  0  0  0
  146.1548  142.2285  155.9580 C   0  0  0  0  0  0  0  0  0  0  0  0
  146.0789  142.8733  157.0054 O   0  0  0  0  0  0  0  0  0  0  0  0
  147.3608  141.5369  155.4966 C   0  0  0  0  0  0  0  0  0  0  0  0
  147.3305  140.4076  154.5818 C   0  0  0  0  0  0  0  0  0  0  0  0
  148.4707  139.7833  154.2297 C   0  0  0  0  0  0  0  0  0  0  0  0
  149.7777  140.2129  154.7355 C   0  0  0  0  0  0  0  0  0  0  0  0
  150.8101  139.6124  154.4370 O   0  0  0  0  0  0  0  0  0  0  0  0
  149.7753  141.3168  155.5466 N   0  0  0  0  0  0  0  0  0  0  0  0
  151.0494  141.8162  156.1212 C   0  0  1  0  0  0  0  0  0  0  0  0
  150.8888  143.1129  156.9472 C   0  0  0  0  0  0  0  0  0  0  0  0
  151.1815  142.7477  158.4086 C   0  0  0  0  0  0  0  0  0  0  0  0
  151.7061  141.3951  158.3633 N   0  0  0  0  0  0  0  0  0  0  0  0
  152.1852  140.7442  159.5814 C   0  0  0  0  0  0  0  0  0  0  0  0
  153.2006  141.6092  160.3496 C   0  0  0  0  0  0  0  0  0  0  0  0
  152.5389  142.4850  161.1048 F   0  0  0  0  0  0  0  0  0  0  0  0
  153.9685  140.8630  161.1430 F   0  0  0  0  0  0  0  0  0  0  0  0
  153.9741  142.2823  159.4977 F   0  0  0  0  0  0  0  0  0  0  0  0
  151.6062  140.8352  157.1523 C   0  0  0  0  0  0  0  0  0  0  0  0
  151.9222  139.6809  156.8656 O   0  0  0  0  0  0  0  0  0  0  0  0
  148.5675  141.9398  155.9388 C   0  0  0  0  0  0  0  0  0  0  0  0
  143.7851  146.4228  154.8415 H   0  0  0  0  0  0  0  0  0  0  0  0
  143.3913  142.4598  156.3137 H   0  0  0  0  0  0  0  0  0  0  0  0
  143.0976  142.2663  154.5954 H   0  0  0  0  0  0  0  0  0  0  0  0
  145.2369  141.5616  154.2832 H   0  0  0  0  0  0  0  0  0  0  0  0
  146.4022  140.0427  154.1677 H   0  0  0  0  0  0  0  0  0  0  0  0
  148.4233  138.9436  153.5519 H   0  0  0  0  0  0  0  0  0  0  0  0
  151.8167  141.9860  155.3645 H   0  0  0  0  0  0  0  0  0  0  0  0
  151.6242  143.8437  156.6081 H   0  0  0  0  0  0  0  0  0  0  0  0
  149.9156  143.5920  156.8331 H   0  0  0  0  0  0  0  0  0  0  0  0
  151.8980  143.4342  158.8610 H   0  0  0  0  0  0  0  0  0  0  0  0
  150.2691  142.7645  159.0059 H   0  0  0  0  0  0  0  0  0  0  0  0
  151.3322  140.5241  160.2246 H   0  0  0  0  0  0  0  0  0  0  0  0
  152.6301  139.7801  159.3297 H   0  0  0  0  0  0  0  0  0  0  0  0
  148.6868  142.7550  156.6368 H   0  0  0  0  0  0  0  0  0  0  0  0
  1  2  3  0  0  0  0
  1 25  1  0  0  0  0
  2  3  1  0  0  0  0
  3  4  1  0  0  0  0
  3 26  1  0  0  0  0
  3 27  1  0  0  0  0
  4  5  1  0  0  0  0
  4 28  1  0  0  0  0
  5  6  2  0  0  0  0
  5  7  1  0  0  0  0
  7 24  2  0  0  0  0
  7  8  1  0  0  0  0
  8  9  2  0  0  0  0
  8 29  1  0  0  0  0
  9 10  1  0  0  0  0
  9 30  1  0  0  0  0
 10 11  2  0  0  0  0
 10 12  1  0  0  0  0
 12 13  1  0  0  0  0
 12 24  1  0  0  0  0
 13 22  1  0  0  0  0
 13 14  1  0  0  0  0
 13 31  1  0  0  0  0
 14 15  1  0  0  0  0
 14 32  1  0  0  0  0
 14 33  1  0  0  0  0
 15 16  1  0  0  0  0
 15 34  1  0  0  0  0
 15 35  1  0  0  0  0
 16 17  1  0  0  0  0
 16 22  1  0  0  0  0
 17 18  1  0  0  0  0
 17 36  1  0  0  0  0
 17 37  1  0  0  0  0
 18 19  1  0  0  0  0
 18 20  1  0  0  0  0
 18 21  1  0  0  0  0
 22 23  2  0  0  0  0
 24 38  1  0  0  0  0
M  END
> <s_m_source_file>
AV-unprocessed.smi

> <i_m_source_file_index>
714

> <i_lp_mmshare_version>
43012

> <i_f3d_flags>
0

> <s_epik_input>
W0NIXSNDW0NIMl1bTkhdQyg9TyljMVtjSF1bY0hdYyg9TyluKFtjSF0xKVtDQEBIXTJbQ0gyXVtDSDJdTihDMj1PKVtDSDJdQyhGKShGKUY=

> <s_epik_cmdline>
J2VwaWtfcHl0aG9uJywgJy1waCcsICc3LjAnLCAnLXRuJywgJzgnLCAnLW1hJywgJzIwMCcsICctbWV0YWxfYmluZGluZycsICctaW1hZScsICc8aW5maWxlLm1hZT4nLCAnLW9tYWUnLCAnPG91dGZpbGUubWFlPic=

> <r_lp_tautomer_probability>
1

> <r_epik_Ionization_Penalty>
2.95503e-06

> <r_epik_Ionization_Penalty_Charging>
5.74209e-08

> <r_epik_Ionization_Penalty_Neutral>
2.89761e-06

> <r_epik_State_Penalty>
-0

> <r_epik_Charging_Adjusted_Penalty>
5.74209e-08

> <i_epik_Tot_Q>
0

> <i_epik_Tot_abs_Q>
0

> <r_epik_Metal_State_Penalty>
-0

> <b_epik_Metal_Only>
0

> <s_lp_Force_Field>
OPLS_2005

> <r_lp_Energy>
33.0774

> <b_lp_Chiralities_Consistent>
1

> <s_lp_Variant>
AV-unprocessed.smi:714-2

> <Gold.Version>
5.8.1

> <Gold.Id.Protein>
6NUR|6NUR_protein|mol2

> <Gold.PLP.Fitness>
42.9494

> <Gold.PLP.PLP>
-39.5117

> <Gold.PLP.part.hbond>
-1.0000

> <Gold.PLP.part.metal>
0.0000

> <Gold.PLP.part.buried>
-1.6474

> <Gold.PLP.part.nonpolar>
-36.9404

> <Gold.PLP.part.repulsive>
0.2758

> <Gold.PLP.ligand.clash>
0.0000

> <Gold.PLP.ligand.torsion>
0.9222

> <Gold.PLP.Chemscore.Hbond>
1.0000

> <Gold.PLP.Chemscore.CHOScore>
0.6990

> <Gold.PLP.Chemscore.Metal>
0.0000

> <Gold.Chemscore.Hbonds>
donor molecule, donor type, donor heavy atom, donor atom, acceptor molecule, acceptor atom, score
      P1  H  7989  7998       L1    11  1.00
      L1  C    24    38       P1  8028  0.67

> <Gold.PLP.Chemscore.Internal.Correction>
0.1850

> <Gold.Rescore>
     Score         DG    S(hbond)    S(metal)    S(lipo)     H(rot)  DE(clash)    DE(int)     intcor
      7.96     -12.06       0.97        0.00      63.89       1.61       0.29       3.80       ----

> <Gold.Chemscore.Fitness>
7.9613

> <Gold.Chemscore.DG>
-12.0594

> <Gold.Chemscore.ZeroCoef>
-5.4800

> <Gold.Chemscore.Hbond>
0.9687

> <Gold.Chemscore.Metal>
0.0000

> <Gold.Chemscore.Lipo>
63.8873

> <Gold.Chemscore.Internal_Hbond>
0.0000

> <Gold.Chemscore.DEClash>
0.2934

> <Gold.Chemscore.DEInternal>
3.8047

> <Gold.Chemscore.Rot>
1.6136

> <Gold.Chemscore.Internal.Correction>
   9.000000E+99

> <Gold.Chemscore.Hbonds>
donor molecule, donor type, donor heavy atom, donor atom, acceptor molecule, acceptor atom, score
      P1  H  7989  7998       L1    11  0.26

> <Gold.Chemscore.Hbond.Weighted>
-3.2354

> <Gold.Chemscore.Metal.Weighted>
-0.0000

> <Gold.Chemscore.Lipo.Weighted>
-7.4748

> <Gold.Chemscore.Internal_Hbond.Weighted>
0.0000

> <Gold.Chemscore.DEClash.Weighted>
0.2934

> <Gold.Chemscore.DEInternal.Weighted>
3.8047

> <Gold.Chemscore.Rot.Weighted>
4.1308

> <Gold.Chemscore.Internal.Correction.Weighted>
   9.000000E+99

> <Gold.Protein.RotatedTorsions>
[ 6907 6896 6895 6894 ] final  -20.65 input  -60.11 | X-H torsion
[ 7974 7965 7964 7962 ] final  -31.11 input  175.53 | X-H torsion
[ 8008 7997 7996 7995 ] final  -20.97 input   59.86 | X-H torsion
[ 10167 10162 10161 10158 ] final   70.81 input  -65.29 | X-H torsion
[ 10718 10713 10712 10709 ] final  -58.64 input   66.30 | X-H torsion
[ 10763 10752 10751 10750 ] final  169.60 input  -60.55 | X-H torsion
[ 11005 11000 10999 10996 ] final   59.18 input  -57.11 | X-H torsion

> <Gold.Protein.ActiveResidues>
 VAL166  LYS551  ARG553  GLY616  TRP617  ASP618  TYR619  PRO620  LYS621  CYS622 
 ASP623  PHE694  ASN695  SER759  ASP760  ASP761  ALA762  ILE779  LEU786  VAL792 
 PHE793  MET794  SER795  GLU796  ALA797  LYS798  CYS799  TRP800  GLU811  SER814 

> <Gold.Protein.RotatedAtoms>
  151.2450  135.0602  159.9039 H   0  0  0  0  0  0  0  0  0  0  0  0  # atno 6907 bound_to 6896
  152.5388  134.0393  159.8070 H   0  0  0  0  0  0  0  0  0  0  0  0  # atno 6908 bound_to 6896
  151.0593  133.5509  159.2667 H   0  0  0  0  0  0  0  0  0  0  0  0  # atno 6909 bound_to 6896
  146.1093  140.5625  142.8785 H   0  0  0  0  0  0  0  0  0  0  0  0  # atno 7974 bound_to 7965
  154.4735  140.2047  155.9934 H   0  0  0  0  0  0  0  0  0  0  0  0  # atno 8008 bound_to 7997
  156.1051  140.3238  155.7965 H   0  0  0  0  0  0  0  0  0  0  0  0  # atno 8009 bound_to 7997
  155.4731  140.0533  157.2968 H   0  0  0  0  0  0  0  0  0  0  0  0  # atno 8010 bound_to 7997
  140.0529  144.5296  150.7350 H   0  0  0  0  0  0  0  0  0  0  0  0  # atno 10167 bound_to 10162
  156.1120  130.4174  150.0605 H   0  0  0  0  0  0  0  0  0  0  0  0  # atno 10718 bound_to 10713
  154.3855  135.2753  155.2186 H   0  0  0  0  0  0  0  0  0  0  0  0  # atno 10763 bound_to 10752
  154.4274  135.5985  153.6051 H   0  0  0  0  0  0  0  0  0  0  0  0  # atno 10764 bound_to 10752
  152.9833  135.5987  154.4103 H   0  0  0  0  0  0  0  0  0  0  0  0  # atno 10765 bound_to 10752
  140.0323  134.5994  155.9490 H   0  0  0  0  0  0  0  0  0  0  0  0  # atno 11005 bound_to 11000
  144.7497  140.5160  143.6810 LP  0  0  0  0  0  0  0  0  0  0  0  0  # atno 17320 bound_to 7965
  145.5697  139.1483  143.3295 LP  0  0  0  0  0  0  0  0  0  0  0  0  # atno 17321 bound_to 7965
  140.7208  143.2587  151.4285 LP  0  0  0  0  0  0  0  0  0  0  0  0  # atno 17342 bound_to 10162
  139.5941  144.1434  152.2123 LP  0  0  0  0  0  0  0  0  0  0  0  0  # atno 17343 bound_to 10162
  156.8566  130.9477  151.3621 LP  0  0  0  0  0  0  0  0  0  0  0  0  # atno 17370 bound_to 10713
  157.6302  130.8723  149.9260 LP  0  0  0  0  0  0  0  0  0  0  0  0  # atno 17371 bound_to 10713
  141.1838  133.6551  156.5130 LP  0  0  0  0  0  0  0  0  0  0  0  0  # atno 17394 bound_to 11000
  140.4205  134.7191  157.4887 LP  0  0  0  0  0  0  0  0  0  0  0  0  # atno 17395 bound_to 11000

$$$$
