AV-unprocessed.smi:3339|AV-procd|sdf|12877|dock1
  -GOLD-   2272019283D 1   1.00000     0.00000
 Structure written by MMmdl.
 39 40  0  0  0  0  0  0  0  0  1 V2000
  153.2603  138.7714  154.5910 C   0  0  0  0  0  0  0  0  0  0  0  0
  151.8276  138.8812  155.1258 C   0  0  0  0  0  0  0  0  0  0  0  0
  150.8730  137.9482  154.3621 C   0  0  0  0  0  0  0  0  0  0  0  0
  151.4323  140.2396  154.9809 O   0  0  0  0  0  0  0  0  0  0  0  0
  150.3743  140.6458  155.8381 C   0  0  0  0  0  0  0  0  0  0  0  0
  150.8693  140.6003  157.2938 C   0  0  2  0  0  0  0  0  0  0  0  0
  149.7455  140.8118  158.1255 O   0  0  0  0  0  0  0  0  0  0  0  0
  151.8923  141.7163  157.5894 C   0  0  0  0  0  0  0  0  0  0  0  0
  152.5433  141.5208  158.8835 N   0  0  0  0  0  0  0  0  0  0  0  0
  153.3622  140.4995  159.2290 C   0  0  0  0  0  0  0  0  0  0  0  0
  153.6923  139.5619  158.5032 O   0  0  0  0  0  0  0  0  0  0  0  0
  153.7671  140.7001  160.5047 N   0  0  0  0  0  0  0  0  0  0  0  0
  154.6697  139.8562  161.2785 C   0  0  0  0  0  0  0  0  0  0  0  0
  153.2110  141.8942  160.9815 C   0  0  0  0  0  0  0  0  0  0  0  0
  153.3404  142.5431  162.2213 C   0  0  0  0  0  0  0  0  0  0  0  0
  152.6436  143.7633  162.3871 C   0  0  0  0  0  0  0  0  0  0  0  0
  151.8534  144.2982  161.3363 C   0  0  0  0  0  0  0  0  0  0  0  0
  151.7415  143.6237  160.0978 C   0  0  0  0  0  0  0  0  0  0  0  0
  152.4415  142.4122  159.9613 C   0  0  0  0  0  0  0  0  0  0  0  0
  153.6425  137.7553  154.6937 H   0  0  0  0  0  0  0  0  0  0  0  0
  153.9318  139.4343  155.1374 H   0  0  0  0  0  0  0  0  0  0  0  0
  153.3104  139.0432  153.5361 H   0  0  0  0  0  0  0  0  0  0  0  0
  151.8405  138.6076  156.1821 H   0  0  0  0  0  0  0  0  0  0  0  0
  151.2212  136.9160  154.4058 H   0  0  0  0  0  0  0  0  0  0  0  0
  150.8036  138.2314  153.3114 H   0  0  0  0  0  0  0  0  0  0  0  0
  149.8669  137.9651  154.7798 H   0  0  0  0  0  0  0  0  0  0  0  0
  150.0923  141.6668  155.5820 H   0  0  0  0  0  0  0  0  0  0  0  0
  149.4870  140.0242  155.7037 H   0  0  0  0  0  0  0  0  0  0  0  0
  151.3086  139.6226  157.4977 H   0  0  0  0  0  0  0  0  0  0  0  0
  149.0970  140.1528  157.9289 H   0  0  0  0  0  0  0  0  0  0  0  0
  152.6776  141.7138  156.8329 H   0  0  0  0  0  0  0  0  0  0  0  0
  151.4298  142.7029  157.5255 H   0  0  0  0  0  0  0  0  0  0  0  0
  154.3027  139.7357  162.2981 H   0  0  0  0  0  0  0  0  0  0  0  0
  155.6602  140.3091  161.3218 H   0  0  0  0  0  0  0  0  0  0  0  0
  154.7691  138.8614  160.8418 H   0  0  0  0  0  0  0  0  0  0  0  0
  153.9469  142.1319  163.0147 H   0  0  0  0  0  0  0  0  0  0  0  0
  152.7160  144.2952  163.3243 H   0  0  0  0  0  0  0  0  0  0  0  0
  151.3326  145.2330  161.4833 H   0  0  0  0  0  0  0  0  0  0  0  0
  151.1454  144.0279  159.2928 H   0  0  0  0  0  0  0  0  0  0  0  0
  1  2  1  0  0  0  0
  1 20  1  0  0  0  0
  1 21  1  0  0  0  0
  1 22  1  0  0  0  0
  2  3  1  0  0  0  0
  2  4  1  0  0  0  0
  2 23  1  0  0  0  0
  3 24  1  0  0  0  0
  3 25  1  0  0  0  0
  3 26  1  0  0  0  0
  4  5  1  0  0  0  0
  5  6  1  0  0  0  0
  5 27  1  0  0  0  0
  5 28  1  0  0  0  0
  6  7  1  0  0  0  0
  6  8  1  0  0  0  0
  6 29  1  0  0  0  0
  7 30  1  0  0  0  0
  8  9  1  0  0  0  0
  8 31  1  0  0  0  0
  8 32  1  0  0  0  0
  9 19  1  0  0  0  0
  9 10  1  0  0  0  0
 10 11  2  0  0  0  0
 10 12  1  0  0  0  0
 12 13  1  0  0  0  0
 12 14  1  0  0  0  0
 13 33  1  0  0  0  0
 13 34  1  0  0  0  0
 13 35  1  0  0  0  0
 14 19  2  0  0  0  0
 14 15  1  0  0  0  0
 15 16  2  0  0  0  0
 15 36  1  0  0  0  0
 16 17  1  0  0  0  0
 16 37  1  0  0  0  0
 17 18  2  0  0  0  0
 17 38  1  0  0  0  0
 18 19  1  0  0  0  0
 18 39  1  0  0  0  0
M  END
> <s_m_source_file>
AV-unprocessed.smi

> <i_m_source_file_index>
3339

> <i_lp_mmshare_version>
43012

> <i_f3d_flags>
0

> <s_epik_input>
W0NIM11bQ0hdKFtDSDNdKU9bQ0gyXVtDQEhdKFtPSF0pW0NIMl1uKGMoPU8pbjFbQ0gzXSljKGMxMilbY0hdW2NIXVtjSF1bY0hdMg==

> <s_epik_cmdline>
J2VwaWtfcHl0aG9uJywgJy1waCcsICc3LjAnLCAnLXRuJywgJzgnLCAnLW1hJywgJzIwMCcsICctbWV0YWxfYmluZGluZycsICctaW1hZScsICc8aW5maWxlLm1hZT4nLCAnLW9tYWUnLCAnPG91dGZpbGUubWFlPic=

> <r_lp_tautomer_probability>
1

> <r_epik_Ionization_Penalty>
3.68683e-07

> <r_epik_Ionization_Penalty_Charging>
2.29158e-09

> <r_epik_Ionization_Penalty_Neutral>
3.66391e-07

> <r_epik_State_Penalty>
-0

> <r_epik_Charging_Adjusted_Penalty>
2.29158e-09

> <i_epik_Tot_Q>
0

> <i_epik_Tot_abs_Q>
0

> <r_epik_Metal_State_Penalty>
-0

> <b_epik_Metal_Only>
0

> <s_lp_Force_Field>
OPLS_2005

> <r_lp_Energy>
41.4945

> <b_lp_Chiralities_Consistent>
1

> <s_lp_Variant>
AV-unprocessed.smi:3339-1

> <Gold.Version>
5.8.1

> <Gold.Id.Protein>
6NUR|6NUR_protein|mol2

> <Gold.PLP.Fitness>
52.8578

> <Gold.PLP.PLP>
-47.4813

> <Gold.PLP.part.hbond>
-2.0000

> <Gold.PLP.part.metal>
0.0000

> <Gold.PLP.part.buried>
-5.4595

> <Gold.PLP.part.nonpolar>
-39.2547

> <Gold.PLP.part.repulsive>
0.0505

> <Gold.PLP.ligand.clash>
0.0000

> <Gold.PLP.ligand.torsion>
0.3553

> <Gold.PLP.Chemscore.Hbond>
2.0000

> <Gold.PLP.Chemscore.CHOScore>
0.0000

> <Gold.PLP.Chemscore.Metal>
0.0000

> <Gold.Chemscore.Hbonds>
donor molecule, donor type, donor heavy atom, donor atom, acceptor molecule, acceptor atom, score
      P1  H  7989  7998       L1     4  1.00
      P1  H  7997  8008       L1    11  1.00

> <Gold.PLP.Chemscore.Internal.Correction>
0.0870

> <Gold.Rescore>
     Score         DG    S(hbond)    S(metal)    S(lipo)     H(rot)  DE(clash)    DE(int)     intcor
     19.99     -20.39       1.89        0.00     120.15       2.13       0.13       0.27       ----

> <Gold.Chemscore.Fitness>
19.9882

> <Gold.Chemscore.DG>
-20.3872

> <Gold.Chemscore.ZeroCoef>
-5.4800

> <Gold.Chemscore.Hbond>
1.8879

> <Gold.Chemscore.Metal>
0.0000

> <Gold.Chemscore.Lipo>
120.1540

> <Gold.Chemscore.Internal_Hbond>
0.0000

> <Gold.Chemscore.DEClash>
0.1301

> <Gold.Chemscore.DEInternal>
0.2688

> <Gold.Chemscore.Rot>
2.1314

> <Gold.Chemscore.Internal.Correction>
   9.000000E+99

> <Gold.Chemscore.Hbonds>
donor molecule, donor type, donor heavy atom, donor atom, acceptor molecule, acceptor atom, score
      P1  H  7989  7998       L1     4  0.88
      P1  H  7997  8008       L1    11  0.85

> <Gold.Chemscore.Hbond.Weighted>
-6.3056

> <Gold.Chemscore.Metal.Weighted>
-0.0000

> <Gold.Chemscore.Lipo.Weighted>
-14.0580

> <Gold.Chemscore.Internal_Hbond.Weighted>
0.0000

> <Gold.Chemscore.DEClash.Weighted>
0.1301

> <Gold.Chemscore.DEInternal.Weighted>
0.2688

> <Gold.Chemscore.Rot.Weighted>
5.4564

> <Gold.Chemscore.Internal.Correction.Weighted>
   9.000000E+99

> <Gold.Protein.RotatedTorsions>
[ 6907 6896 6895 6894 ] final  112.60 input  -60.11 | X-H torsion
[ 7974 7965 7964 7962 ] final  -61.25 input  175.53 | X-H torsion
[ 8008 7997 7996 7995 ] final -108.11 input   59.86 | X-H torsion
[ 10167 10162 10161 10158 ] final  157.13 input  -65.29 | X-H torsion
[ 10718 10713 10712 10709 ] final  -27.54 input   66.30 | X-H torsion
[ 10763 10752 10751 10750 ] final   93.02 input  -60.55 | X-H torsion
[ 11005 11000 10999 10996 ] final    8.56 input  -57.11 | X-H torsion

> <Gold.Protein.ActiveResidues>
 VAL166  LYS551  ARG553  GLY616  TRP617  ASP618  TYR619  PRO620  LYS621  CYS622 
 ASP623  PHE694  ASN695  SER759  ASP760  ASP761  ALA762  ILE779  LEU786  VAL792 
 PHE793  MET794  SER795  GLU796  ALA797  LYS798  CYS799  TRP800  GLU811  SER814 

> <Gold.Protein.RotatedAtoms>
  152.4907  133.8492  159.7192 H   0  0  0  0  0  0  0  0  0  0  0  0  # atno 6907 bound_to 6896
  150.9034  133.7080  159.2879 H   0  0  0  0  0  0  0  0  0  0  0  0  # atno 6908 bound_to 6896
  151.4513  135.1034  159.9751 H   0  0  0  0  0  0  0  0  0  0  0  0  # atno 6909 bound_to 6896
  145.8058  140.8628  143.0208 H   0  0  0  0  0  0  0  0  0  0  0  0  # atno 7974 bound_to 7965
  154.9393  140.0403  157.2088 H   0  0  0  0  0  0  0  0  0  0  0  0  # atno 8008 bound_to 7997
  154.8084  140.2864  155.5849 H   0  0  0  0  0  0  0  0  0  0  0  0  # atno 8009 bound_to 7997
  156.2969  140.2541  156.2968 H   0  0  0  0  0  0  0  0  0  0  0  0  # atno 8010 bound_to 7997
  139.4822  144.4945  151.8259 H   0  0  0  0  0  0  0  0  0  0  0  0  # atno 10167 bound_to 10162
  156.4369  130.4456  149.7079 H   0  0  0  0  0  0  0  0  0  0  0  0  # atno 10718 bound_to 10713
  153.2257  135.4340  155.0539 H   0  0  0  0  0  0  0  0  0  0  0  0  # atno 10763 bound_to 10752
  154.8272  135.3367  154.6862 H   0  0  0  0  0  0  0  0  0  0  0  0  # atno 10764 bound_to 10752
  153.7291  135.7012  153.5050 H   0  0  0  0  0  0  0  0  0  0  0  0  # atno 10765 bound_to 10752
  140.5356  134.0424  155.7887 H   0  0  0  0  0  0  0  0  0  0  0  0  # atno 11005 bound_to 11000
  144.6763  140.0324  143.7482 LP  0  0  0  0  0  0  0  0  0  0  0  0  # atno 17320 bound_to 7965
  145.9830  139.2956  143.1030 LP  0  0  0  0  0  0  0  0  0  0  0  0  # atno 17321 bound_to 7965
  140.4432  144.1957  150.5892 LP  0  0  0  0  0  0  0  0  0  0  0  0  # atno 17342 bound_to 10162
  140.4661  143.2430  151.9153 LP  0  0  0  0  0  0  0  0  0  0  0  0  # atno 17343 bound_to 10162
  156.3960  130.7651  151.2655 LP  0  0  0  0  0  0  0  0  0  0  0  0  # atno 17370 bound_to 10713
  157.7507  131.0254  150.3917 LP  0  0  0  0  0  0  0  0  0  0  0  0  # atno 17371 bound_to 10713
  141.1256  133.9388  157.2641 LP  0  0  0  0  0  0  0  0  0  0  0  0  # atno 17394 bound_to 11000
  139.9531  135.0171  156.9050 LP  0  0  0  0  0  0  0  0  0  0  0  0  # atno 17395 bound_to 11000

$$$$
