#       Name:                AV-unprocessed.smi:1322
#       Creating user name   scv26
#       Creation time:       Fri Mar 27 05:03:23 2020


#       File generated by GOLD software.
#

@<TRIPOS>MOLECULE
AV-unprocessed.smi:1322
    35    36     1
SMALL
NO_CHARGES


@<TRIPOS>ATOM
      1 ****        -0.0921  -1.5072  -1.5023 C.3            1 S1                 0.0000
      2 ****         0.3729  -0.8351  -0.1971 C.3            1 S1                 0.0000
      3 ****         1.8954  -0.9283   0.0259 C.3            1 S1                 0.0000
      4 ****         2.3741  -2.2985   0.0693 N.pl3          1 S1                 0.0000
      5 ****         2.2612  -3.2101   1.0978 C.2            1 S1                 0.0000
      6 ****         2.8588  -4.3660   0.6839 C.2            1 S1                 0.0000
      7 ****         3.3163  -4.0585  -0.6280 C.2            1 S1                 0.0000
      8 ****         3.0269  -2.8197  -0.9922 N.2            1 S1                 0.0000
      9 ****        -0.0256   0.5700  -0.1855 N.am           1 S1                 0.0000
     10 ****        -1.2229   1.0377   0.1998 C.2            1 S1                 0.0000
     11 ****        -2.1380   0.3118   0.5906 O.2            1 S1                 0.0000
     12 ****        -1.4036   2.5598   0.1291 C.3            1 S1                 0.0000
     13 ****        -1.9970   3.1957   1.3989 C.3            1 S1                 0.0000
     14 ****        -2.9113   4.0352   0.5017 C.3            1 S1                 0.0000
     15 ****        -2.6681   3.0190  -0.6180 C.3            1 S1                 0.0000
     16 ****         0.1318  -2.5739  -1.5044 H              1 S1                 0.0000
     17 ****         0.3949  -1.0631  -2.3711 H              1 S1                 0.0000
     18 ****        -1.1695  -1.4060  -1.6368 H              1 S1                 0.0000
     19 ****        -0.1140  -1.3423   0.6382 H              1 S1                 0.0000
     20 ****         2.4283  -0.3917  -0.7613 H              1 S1                 0.0000
     21 ****         2.1671  -0.4483   0.9672 H              1 S1                 0.0000
     22 ****         1.7686  -2.9628   2.0267 H              1 S1                 0.0000
     23 ****         2.9547  -5.2900   1.2344 H              1 S1                 0.0000
     24 ****         3.8469  -4.6942  -1.3215 H              1 S1                 0.0000
     25 ****         0.6644   1.2397  -0.4937 H              1 S1                 0.0000
     26 ****        -0.5122   3.0894  -0.2135 H              1 S1                 0.0000
     27 ****        -2.5521   2.5023   2.0332 H              1 S1                 0.0000
     28 ****        -1.2869   3.7834   1.9811 H              1 S1                 0.0000
     29 ****        -3.9457   4.1007   0.8402 H              1 S1                 0.0000
     30 ****        -2.4945   5.0182   0.2773 H              1 S1                 0.0000
     31 ****        -2.4754   3.4703  -1.5915 H              1 S1                 0.0000
     32 ****        -3.4540   2.2638  -0.6790 H              1 S1                 0.0000
     33 ****         3.2430  -2.3702  -1.8589 LP             1 S1                 0.0000
     34 ****        -2.0075  -0.6788   0.6321 LP             1 S1                 0.0000
     35 ****        -3.0115   0.7130   0.8664 LP             1 S1                 0.0000
@<TRIPOS>BOND
    1    1    2 1     
    2    1   16 1     
    3    1   17 1     
    4    1   18 1     
    5    2    3 1     
    6    2    9 1     
    7    2   19 1     
    8    3    4 1     
    9    3   20 1     
   10    3   21 1     
   11    4    8 1     
   12    4    5 1     
   13    5    6 2     
   14    5   22 1     
   15    6    7 1     
   16    6   23 1     
   17    7    8 2     
   18    7   24 1     
   19    9   10 am    
   20    9   25 1     
   21   10   11 2     
   22   10   12 1     
   23   12   15 1     
   24   12   13 1     
   25   12   26 1     
   26   13   14 1     
   27   13   27 1     
   28   13   28 1     
   29   14   15 1     
   30   14   29 1     
   31   14   30 1     
   32   15   31 1     
   33   15   32 1     
   34    8   33 1     
   35   11   34 1     
   36   11   35 1     
@<TRIPOS>SUBSTRUCTURE
      1 S1             1
@<TRIPOS>SET
LONE_PAIRS      STATIC     ATOMS    <user>   **** ""
3 33 34 35
DONOR_HYDROGENS      STATIC     ATOMS    <user>   **** ""
1 25
ATOM$BLUE        STATIC     ATOMS    COLORGROUP SYSTEM
3 33 34 35
ATOM$RED        STATIC     ATOMS    COLORGROUP SYSTEM
1 25
