AV-unprocessed.smi:1697|AV-procd|sdf|6807|dock6
  -GOLD-   22720 7583D 1   1.00000     0.00000
 Structure written by MMmdl.
 55 57  0  0  0  0  0  0  0  0  3 V2000
  147.1325  133.0509  151.8480 C   0  0  0  0  0  0  0  0  0  0  0  0
  146.3211  133.7453  152.9442 C   0  0  0  0  0  0  0  0  0  0  0  0
  146.7173  133.2226  154.2037 O   0  0  0  0  0  0  0  0  0  0  0  0
  147.7229  133.9768  154.8669 C   0  0  2  0  0  0  0  0  0  0  0  0
  147.3756  135.4768  154.8889 C   0  0  0  0  0  0  0  0  0  0  0  0
  148.5387  136.3081  155.4573 C   0  0  0  0  0  0  0  0  0  0  0  0
  149.7926  136.0748  154.6908 N   0  3  1  0  0  0  0  0  0  0  0  0
  150.9225  136.9387  155.1228 C   0  0  0  0  0  0  0  0  0  0  0  0
  150.5618  138.4381  155.1770 C   0  0  2  0  0  0  0  0  0  0  0  0
  150.9170  139.0495  153.9509 O   0  0  0  0  0  0  0  0  0  0  0  0
  151.3074  139.1524  156.3221 C   0  0  0  0  0  0  0  0  0  0  0  0
  150.8957  140.5528  156.4887 N   0  0  0  0  0  0  0  0  0  0  0  0
  150.0765  141.3217  155.7204 C   0  0  0  0  0  0  0  0  0  0  0  0
  150.0127  142.5547  156.2949 N   0  3  0  0  0  0  0  0  0  0  0  0
  150.8039  142.5740  157.4457 C   0  0  0  0  0  0  0  0  0  0  0  0
  151.0587  143.5897  158.3595 C   0  0  0  0  0  0  0  0  0  0  0  0
  151.9218  143.2865  159.4369 C   0  0  0  0  0  0  0  0  0  0  0  0
  152.2239  144.3755  160.4522 C   0  0  0  0  0  0  0  0  0  0  0  0
  152.4958  141.9956  159.5718 C   0  0  0  0  0  0  0  0  0  0  0  0
  153.4220  141.6810  160.7343 C   0  0  0  0  0  0  0  0  0  0  0  0
  152.2230  140.9754  158.6325 C   0  0  0  0  0  0  0  0  0  0  0  0
  151.3729  141.2923  157.5759 C   0  0  0  0  0  0  0  0  0  0  0  0
  150.1636  134.6360  154.6844 C   0  0  0  0  0  0  0  0  0  0  0  0
  149.0350  133.7742  154.0964 C   0  0  0  0  0  0  0  0  0  0  0  0
  146.8588  133.4284  150.8625 H   0  0  0  0  0  0  0  0  0  0  0  0
  146.9577  131.9747  151.8535 H   0  0  0  0  0  0  0  0  0  0  0  0
  148.2012  133.2176  151.9859 H   0  0  0  0  0  0  0  0  0  0  0  0
  146.4903  134.8212  152.8994 H   0  0  0  0  0  0  0  0  0  0  0  0
  145.2567  133.5703  152.7812 H   0  0  0  0  0  0  0  0  0  0  0  0
  147.8582  133.6082  155.8854 H   0  0  0  0  0  0  0  0  0  0  0  0
  147.1459  135.8157  153.8775 H   0  0  0  0  0  0  0  0  0  0  0  0
  146.4816  135.6563  155.4856 H   0  0  0  0  0  0  0  0  0  0  0  0
  148.2612  137.3608  155.4268 H   0  0  0  0  0  0  0  0  0  0  0  0
  148.7001  136.0559  156.5068 H   0  0  0  0  0  0  0  0  0  0  0  0
  151.2782  136.5979  156.0965 H   0  0  0  0  0  0  0  0  0  0  0  0
  151.7607  136.8144  154.4351 H   0  0  0  0  0  0  0  0  0  0  0  0
  149.4913  138.5711  155.3265 H   0  0  0  0  0  0  0  0  0  0  0  0
  150.5921  138.5217  153.2377 H   0  0  0  0  0  0  0  0  0  0  0  0
  151.1588  138.6340  157.2704 H   0  0  0  0  0  0  0  0  0  0  0  0
  152.3823  139.1496  156.1351 H   0  0  0  0  0  0  0  0  0  0  0  0
  149.5677  141.0100  154.8194 H   0  0  0  0  0  0  0  0  0  0  0  0
  150.6175  144.5698  158.2510 H   0  0  0  0  0  0  0  0  0  0  0  0
  153.2951  144.5737  160.4949 H   0  0  0  0  0  0  0  0  0  0  0  0
  151.8866  144.0773  161.4452 H   0  0  0  0  0  0  0  0  0  0  0  0
  151.7229  145.3097  160.1964 H   0  0  0  0  0  0  0  0  0  0  0  0
  153.7604  140.6449  160.7064 H   0  0  0  0  0  0  0  0  0  0  0  0
  152.9125  141.8389  161.6849 H   0  0  0  0  0  0  0  0  0  0  0  0
  154.3047  142.3201  160.7034 H   0  0  0  0  0  0  0  0  0  0  0  0
  152.6608  139.9936  158.7348 H   0  0  0  0  0  0  0  0  0  0  0  0
  151.0668  134.4894  154.0908 H   0  0  0  0  0  0  0  0  0  0  0  0
  150.3952  134.3128  155.7006 H   0  0  0  0  0  0  0  0  0  0  0  0
  149.3208  132.7219  154.1207 H   0  0  0  0  0  0  0  0  0  0  0  0
  148.8903  134.0305  153.0456 H   0  0  0  0  0  0  0  0  0  0  0  0
  149.6013  136.3158  153.7289 H   0  0  0  0  0  0  0  0  0  0  0  0
  149.4700  143.3248  155.9253 H   0  0  0  0  0  0  0  0  0  0  0  0
  1  2  1  0  0  0  0
  1 25  1  0  0  0  0
  1 26  1  0  0  0  0
  1 27  1  0  0  0  0
  2  3  1  0  0  0  0
  2 28  1  0  0  0  0
  2 29  1  0  0  0  0
  3  4  1  0  0  0  0
  4 24  1  0  0  0  0
  4  5  1  0  0  0  0
  4 30  1  0  0  0  0
  5  6  1  0  0  0  0
  5 31  1  0  0  0  0
  5 32  1  0  0  0  0
  6  7  1  0  0  0  0
  6 33  1  0  0  0  0
  6 34  1  0  0  0  0
  7  8  1  0  0  0  0
  7 23  1  0  0  0  0
  7 54  1  0  0  0  0
  8  9  1  0  0  0  0
  8 35  1  0  0  0  0
  8 36  1  0  0  0  0
  9 10  1  0  0  0  0
  9 11  1  0  0  0  0
  9 37  1  0  0  0  0
 10 38  1  0  0  0  0
 11 12  1  0  0  0  0
 11 39  1  0  0  0  0
 11 40  1  0  0  0  0
 12 22  1  0  0  0  0
 12 13  1  0  0  0  0
 13 14  2  0  0  0  0
 13 41  1  0  0  0  0
 14 15  1  0  0  0  0
 14 55  1  0  0  0  0
 15 22  2  0  0  0  0
 15 16  1  0  0  0  0
 16 17  2  0  0  0  0
 16 42  1  0  0  0  0
 17 18  1  0  0  0  0
 17 19  1  0  0  0  0
 18 43  1  0  0  0  0
 18 44  1  0  0  0  0
 18 45  1  0  0  0  0
 19 20  1  0  0  0  0
 19 21  2  0  0  0  0
 20 46  1  0  0  0  0
 20 47  1  0  0  0  0
 20 48  1  0  0  0  0
 21 22  1  0  0  0  0
 21 49  1  0  0  0  0
 23 24  1  0  0  0  0
 23 50  1  0  0  0  0
 23 51  1  0  0  0  0
 24 52  1  0  0  0  0
 24 53  1  0  0  0  0
M  CHG  1   7   1
M  CHG  1  14   1
M  END
> <s_m_source_file>
AV-unprocessed.smi

> <i_m_source_file_index>
1697

> <i_lp_mmshare_version>
43012

> <i_f3d_flags>
0

> <s_epik_input>
W0NIM11bQ0gyXU9bQ0hdMVtDSDJdW0NIMl1OKFtDSDJdW0NIMl0xKVtDSDJdW0NASF0oW09IXSlbQ0gyXW4oW2NIXW4yKWMoYzIzKVtjSF1jKFtDSDNdKWMoW2NIXTMpW0NIM10=

> <s_epik_cmdline>
J2VwaWtfcHl0aG9uJywgJy1waCcsICc3LjAnLCAnLXRuJywgJzgnLCAnLW1hJywgJzIwMCcsICctbWV0YWxfYmluZGluZycsICctaW1hZScsICc8aW5maWxlLm1hZT4nLCAnLW9tYWUnLCAnPG91dGZpbGUubWFlPic=

> <r_epik_Ionization_Penalty>
1.20016

> <r_epik_Ionization_Penalty_Charging>
1.20016

> <r_epik_Ionization_Penalty_Neutral>
1.70998e-06

> <r_epik_State_Penalty>
1.27959

> <r_epik_Charging_Adjusted_Penalty>
2.47975

> <i_epik_Tot_Q>
2

> <i_epik_Tot_abs_Q>
2

> <r_epik_Metal_State_Penalty>
5.29682

> <b_epik_Metal_Only>
0

> <s_lp_Force_Field>
OPLS_2005

> <r_lp_Energy>
32.2014

> <b_lp_Chiralities_Consistent>
1

> <s_lp_Variant>
AV-unprocessed.smi:1697-5

> <Gold.Version>
5.8.1

> <Gold.Id.Protein>
6NUR|6NUR_protein|mol2

> <Gold.PLP.Fitness>
58.3377

> <Gold.PLP.PLP>
-44.7600

> <Gold.PLP.part.hbond>
-3.2854

> <Gold.PLP.part.metal>
0.0000

> <Gold.PLP.part.buried>
-4.2956

> <Gold.PLP.part.nonpolar>
-38.9548

> <Gold.PLP.part.repulsive>
0.2226

> <Gold.PLP.ligand.clash>
0.0000

> <Gold.PLP.ligand.torsion>
0.8273

> <Gold.PLP.Chemscore.Hbond>
5.0000

> <Gold.PLP.Chemscore.CHOScore>
0.0000

> <Gold.PLP.Chemscore.Metal>
0.0000

> <Gold.Chemscore.Hbonds>
donor molecule, donor type, donor heavy atom, donor atom, acceptor molecule, acceptor atom, score
      L1  H     7    54       P1  7948  2.00
      L1  H    14    55       P1  8028  2.00
      P1  H  7989  7998       L1    10  1.00

> <Gold.PLP.Chemscore.Internal.Correction>
0.2324

> <Gold.Rescore>
     Score         DG    S(hbond)    S(metal)    S(lipo)     H(rot)  DE(clash)    DE(int)     intcor
     21.03     -22.79       2.76        0.00     120.41       2.35       0.92       0.85       ----

> <Gold.Chemscore.Fitness>
21.0263

> <Gold.Chemscore.DG>
-22.7931

> <Gold.Chemscore.ZeroCoef>
-5.4800

> <Gold.Chemscore.Hbond>
2.7642

> <Gold.Chemscore.Metal>
0.0000

> <Gold.Chemscore.Lipo>
120.4145

> <Gold.Chemscore.Internal_Hbond>
0.0000

> <Gold.Chemscore.DEClash>
0.9174

> <Gold.Chemscore.DEInternal>
0.8494

> <Gold.Chemscore.Rot>
2.3468

> <Gold.Chemscore.Internal.Correction>
   9.000000E+99

> <Gold.Chemscore.Hbonds>
donor molecule, donor type, donor heavy atom, donor atom, acceptor molecule, acceptor atom, score
      L1  H     7    54       P1  7948  0.55
      L1  H    14    55       P1  8028  0.93
      P1  H  7989  7998       L1    10  0.87

> <Gold.Chemscore.Hbond.Weighted>
-9.2323

> <Gold.Chemscore.Metal.Weighted>
-0.0000

> <Gold.Chemscore.Lipo.Weighted>
-14.0885

> <Gold.Chemscore.Internal_Hbond.Weighted>
0.0000

> <Gold.Chemscore.DEClash.Weighted>
0.9174

> <Gold.Chemscore.DEInternal.Weighted>
0.8494

> <Gold.Chemscore.Rot.Weighted>
6.0077

> <Gold.Chemscore.Internal.Correction.Weighted>
   9.000000E+99

> <Gold.Protein.RotatedTorsions>
[ 6907 6896 6895 6894 ] final  141.31 input  -60.11 | X-H torsion
[ 7974 7965 7964 7962 ] final  113.24 input  175.53 | X-H torsion
[ 8008 7997 7996 7995 ] final  109.34 input   59.86 | X-H torsion
[ 10167 10162 10161 10158 ] final  -59.19 input  -65.29 | X-H torsion
[ 10718 10713 10712 10709 ] final -153.47 input   66.30 | X-H torsion
[ 10763 10752 10751 10750 ] final   18.54 input  -60.55 | X-H torsion
[ 11005 11000 10999 10996 ] final  132.42 input  -57.11 | X-H torsion

> <Gold.Protein.ActiveResidues>
 VAL166  LYS551  ARG553  GLY616  TRP617  ASP618  TYR619  PRO620  LYS621  CYS622 
 ASP623  PHE694  ASN695  SER759  ASP760  ASP761  ALA762  ILE779  LEU786  VAL792 
 PHE793  MET794  SER795  GLU796  ALA797  LYS798  CYS799  TRP800  GLU811  SER814 

> <Gold.Protein.RotatedAtoms>
  152.2325  133.5069  159.5223 H   0  0  0  0  0  0  0  0  0  0  0  0  # atno 6907 bound_to 6896
  150.7041  134.1197  159.4039 H   0  0  0  0  0  0  0  0  0  0  0  0  # atno 6908 bound_to 6896
  151.9119  135.0335  160.0566 H   0  0  0  0  0  0  0  0  0  0  0  0  # atno 6909 bound_to 6896
  145.2195  139.2869  143.4226 H   0  0  0  0  0  0  0  0  0  0  0  0  # atno 7974 bound_to 7965
  156.1971  140.3059  155.9450 H   0  0  0  0  0  0  0  0  0  0  0  0  # atno 8008 bound_to 7997
  155.3039  140.0448  157.3048 H   0  0  0  0  0  0  0  0  0  0  0  0  # atno 8009 bound_to 7997
  154.5524  140.2295  155.8473 H   0  0  0  0  0  0  0  0  0  0  0  0  # atno 8010 bound_to 7997
  140.6150  143.2399  151.5618 H   0  0  0  0  0  0  0  0  0  0  0  0  # atno 10167 bound_to 10162
  156.4863  130.8326  151.2551 H   0  0  0  0  0  0  0  0  0  0  0  0  # atno 10718 bound_to 10713
  153.1240  135.6725  153.9288 H   0  0  0  0  0  0  0  0  0  0  0  0  # atno 10763 bound_to 10752
  153.8795  135.3060  155.3446 H   0  0  0  0  0  0  0  0  0  0  0  0  # atno 10764 bound_to 10752
  154.7648  135.4970  153.9612 H   0  0  0  0  0  0  0  0  0  0  0  0  # atno 10765 bound_to 10752
  139.9789  134.9554  156.9579 H   0  0  0  0  0  0  0  0  0  0  0  0  # atno 11005 bound_to 11000
  146.3379  140.2496  142.8598 LP  0  0  0  0  0  0  0  0  0  0  0  0  # atno 17320 bound_to 7965
  144.9779  140.8431  143.5415 LP  0  0  0  0  0  0  0  0  0  0  0  0  # atno 17321 bound_to 7965
  139.5391  144.2697  152.1314 LP  0  0  0  0  0  0  0  0  0  0  0  0  # atno 17342 bound_to 10162
  140.1904  144.4757  150.6482 LP  0  0  0  0  0  0  0  0  0  0  0  0  # atno 17343 bound_to 10162
  157.7478  131.0028  150.3015 LP  0  0  0  0  0  0  0  0  0  0  0  0  # atno 17370 bound_to 10713
  156.3471  130.3825  149.7360 LP  0  0  0  0  0  0  0  0  0  0  0  0  # atno 17371 bound_to 10713
  140.5137  134.0976  155.7276 LP  0  0  0  0  0  0  0  0  0  0  0  0  # atno 17394 bound_to 11000
  141.1463  133.9048  157.2206 LP  0  0  0  0  0  0  0  0  0  0  0  0  # atno 17395 bound_to 11000

$$$$
