AV-unprocessed.smi:101|AV-procd|sdf|920|dock3
  -GOLD-   2262017423D 1   1.00000     0.00000
 Structure written by MMmdl.
 44 46  0  0  0  0  0  0  0  0  1 V2000
  144.7321  142.5553  158.6424 C   0  0  0  0  0  0  0  0  0  0  0  0
  144.9906  142.8050  157.1654 C   0  0  0  0  0  0  0  0  0  0  0  0
  146.0395  142.2485  156.5068 C   0  0  0  0  0  0  0  0  0  0  0  0
  146.3044  142.4606  155.1585 N   0  0  0  0  0  0  0  0  0  0  0  0
  147.4955  141.8392  154.4487 C   0  0  1  0  0  0  0  0  0  0  0  0
  148.5048  141.5656  155.3750 O   0  0  0  0  0  0  0  0  0  0  0  0
  148.5591  140.1661  155.6273 C   0  0  2  0  0  0  0  0  0  0  0  0
  149.9028  139.7691  156.2515 C   0  0  0  0  0  0  0  0  0  0  0  0
  150.3092  140.8191  157.1130 O   0  0  0  0  0  0  0  0  0  0  0  0
  151.6116  141.0127  157.3879 C   0  0  0  0  0  0  0  0  0  0  0  0
  152.5082  140.2486  157.0252 O   0  0  0  0  0  0  0  0  0  0  0  0
  151.8531  142.2555  158.1769 C   0  0  0  0  0  0  0  0  0  0  0  0
  151.1592  143.4402  157.8366 C   0  0  0  0  0  0  0  0  0  0  0  0
  151.3670  144.6273  158.5658 C   0  0  0  0  0  0  0  0  0  0  0  0
  152.2721  144.6446  159.6431 C   0  0  0  0  0  0  0  0  0  0  0  0
  152.9688  143.4730  159.9915 C   0  0  0  0  0  0  0  0  0  0  0  0
  152.7614  142.2847  159.2645 C   0  0  0  0  0  0  0  0  0  0  0  0
  148.2399  139.5630  154.2584 C   0  0  2  0  0  0  0  0  0  0  0  0
  149.3818  139.5810  153.4214 O   0  0  0  0  0  0  0  0  0  0  0  0
  147.1621  140.5040  153.7308 C   0  0  1  0  0  0  0  0  0  0  0  0
  145.8846  139.9810  154.0535 O   0  0  0  0  0  0  0  0  0  0  0  0
  145.4547  143.3062  154.4161 C   0  0  0  0  0  0  0  0  0  0  0  0
  145.6304  143.5402  153.2209 O   0  0  0  0  0  0  0  0  0  0  0  0
  144.3765  143.8755  155.0905 N   0  0  0  0  0  0  0  0  0  0  0  0
  144.0692  143.6837  156.4395 C   0  0  0  0  0  0  0  0  0  0  0  0
  143.0849  144.2401  156.9231 O   0  0  0  0  0  0  0  0  0  0  0  0
  143.7654  144.4789  154.5597 H   0  0  0  0  0  0  0  0  0  0  0  0
  145.4902  141.9076  159.0841 H   0  0  0  0  0  0  0  0  0  0  0  0
  143.7614  142.0788  158.7835 H   0  0  0  0  0  0  0  0  0  0  0  0
  144.7356  143.4959  159.1941 H   0  0  0  0  0  0  0  0  0  0  0  0
  146.6954  141.6128  157.0812 H   0  0  0  0  0  0  0  0  0  0  0  0
  147.8703  142.6116  153.7744 H   0  0  0  0  0  0  0  0  0  0  0  0
  147.7514  139.8946  156.3094 H   0  0  0  0  0  0  0  0  0  0  0  0
  149.7931  138.8539  156.8346 H   0  0  0  0  0  0  0  0  0  0  0  0
  150.6500  139.5861  155.4778 H   0  0  0  0  0  0  0  0  0  0  0  0
  150.4588  143.4509  157.0137 H   0  0  0  0  0  0  0  0  0  0  0  0
  150.8308  145.5256  158.2977 H   0  0  0  0  0  0  0  0  0  0  0  0
  152.4320  145.5554  160.2013 H   0  0  0  0  0  0  0  0  0  0  0  0
  153.6642  143.4847  160.8178 H   0  0  0  0  0  0  0  0  0  0  0  0
  153.3129  141.4038  159.5595 H   0  0  0  0  0  0  0  0  0  0  0  0
  147.8970  138.5302  154.3376 H   0  0  0  0  0  0  0  0  0  0  0  0
  149.1268  139.9051  152.5709 H   0  0  0  0  0  0  0  0  0  0  0  0
  147.2174  140.6393  152.6497 H   0  0  0  0  0  0  0  0  0  0  0  0
  145.2657  140.2902  153.4095 H   0  0  0  0  0  0  0  0  0  0  0  0
  1  2  1  0  0  0  0
  1 28  1  0  0  0  0
  1 29  1  0  0  0  0
  1 30  1  0  0  0  0
  2 25  1  0  0  0  0
  2  3  2  0  0  0  0
  3  4  1  0  0  0  0
  3 31  1  0  0  0  0
  4  5  1  0  0  0  0
  4 22  1  0  0  0  0
  5 20  1  0  0  0  0
  5  6  1  0  0  0  0
  5 32  1  0  0  0  0
  6  7  1  0  0  0  0
  7  8  1  0  0  0  0
  7 18  1  0  0  0  0
  7 33  1  0  0  0  0
  8  9  1  0  0  0  0
  8 34  1  0  0  0  0
  8 35  1  0  0  0  0
  9 10  1  0  0  0  0
 10 11  2  0  0  0  0
 10 12  1  0  0  0  0
 12 17  1  0  0  0  0
 12 13  2  0  0  0  0
 13 14  1  0  0  0  0
 13 36  1  0  0  0  0
 14 15  2  0  0  0  0
 14 37  1  0  0  0  0
 15 16  1  0  0  0  0
 15 38  1  0  0  0  0
 16 17  2  0  0  0  0
 16 39  1  0  0  0  0
 17 40  1  0  0  0  0
 18 19  1  0  0  0  0
 18 20  1  0  0  0  0
 18 41  1  0  0  0  0
 19 42  1  0  0  0  0
 20 21  1  0  0  0  0
 20 43  1  0  0  0  0
 21 44  1  0  0  0  0
 22 23  2  0  0  0  0
 22 24  1  0  0  0  0
 24 27  1  0  0  0  0
 24 25  1  0  0  0  0
 25 26  2  0  0  0  0
M  END
> <s_m_source_file>
AV-unprocessed.smi

> <i_m_source_file_index>
101

> <i_lp_mmshare_version>
43012

> <i_f3d_flags>
0

> <s_epik_input>
Tz1jMVtuSF1jKD1PKW4oW2NIXWMxW0NIM10pW0NAQEhdMk9bQ0BIXShbQ0BASF0oW09IXSlbQ0BIXTJbT0hdKVtDSDJdT0MoPU8pYzNbY0hdW2NIXVtjSF1bY0hdW2NIXTM=

> <s_epik_cmdline>
J2VwaWtfcHl0aG9uJywgJy1waCcsICc3LjAnLCAnLXRuJywgJzgnLCAnLW1hJywgJzIwMCcsICctbWV0YWxfYmluZGluZycsICctaW1hZScsICc8aW5maWxlLm1hZT4nLCAnLW9tYWUnLCAnPG91dGZpbGUubWFlPic=

> <r_lp_tautomer_probability>
0.999537

> <r_epik_Ionization_Penalty>
0.00263537

> <r_epik_Ionization_Penalty_Charging>
0.00263428

> <r_epik_Ionization_Penalty_Neutral>
1.09111e-06

> <r_epik_State_Penalty>
0.00183335

> <r_epik_Charging_Adjusted_Penalty>
0.00446763

> <i_epik_Tot_Q>
0

> <i_epik_Tot_abs_Q>
0

> <r_epik_Metal_State_Penalty>
1.00528

> <b_epik_Metal_Only>
0

> <s_epik_Chemistry_Notes>
This compound has an ester and may undergo hydrolysis at high or low pH. This compound contains an acetal/aminal-like group ( X-CH(R)-Y where X, Y are N, S, or O) that may be acid/base labile, releasing an aldehyde.

> <s_lp_Force_Field>
OPLS_2005

> <r_lp_Energy>
36.6069

> <b_lp_Chiralities_Consistent>
1

> <s_lp_Variant>
AV-unprocessed.smi:101-8

> <Gold.Version>
5.8.1

> <Gold.Id.Protein>
6NUR|6NUR_protein|mol2

> <Gold.PLP.Fitness>
47.9787

> <Gold.PLP.PLP>
-42.6847

> <Gold.PLP.part.hbond>
-3.2785

> <Gold.PLP.part.metal>
0.0000

> <Gold.PLP.part.buried>
-5.5281

> <Gold.PLP.part.nonpolar>
-34.2844

> <Gold.PLP.part.repulsive>
0.4435

> <Gold.PLP.ligand.clash>
0.0000

> <Gold.PLP.ligand.torsion>
1.8851

> <Gold.PLP.Chemscore.Hbond>
3.0000

> <Gold.PLP.Chemscore.CHOScore>
0.0000

> <Gold.PLP.Chemscore.Metal>
0.0000

> <Gold.Chemscore.Hbonds>
donor molecule, donor type, donor heavy atom, donor atom, acceptor molecule, acceptor atom, score
      L1  H    19    42       P1  7957  0.77
      L1  H    21    44       P1 10175  1.00
      P1  H  7997  8008       L1    11  1.00

> <Gold.PLP.Chemscore.Internal.Correction>
0.0643

> <Gold.Rescore>
     Score         DG    S(hbond)    S(metal)    S(lipo)     H(rot)  DE(clash)    DE(int)     intcor
     15.77     -17.44       2.83        0.00      94.02       3.32       0.11       1.57       ----

> <Gold.Chemscore.Fitness>
15.7654

> <Gold.Chemscore.DG>
-17.4437

> <Gold.Chemscore.ZeroCoef>
-5.4800

> <Gold.Chemscore.Hbond>
2.8311

> <Gold.Chemscore.Metal>
0.0000

> <Gold.Chemscore.Lipo>
94.0172

> <Gold.Chemscore.Internal_Hbond>
0.0000

> <Gold.Chemscore.DEClash>
0.1130

> <Gold.Chemscore.DEInternal>
1.5653

> <Gold.Chemscore.Rot>
3.3172

> <Gold.Chemscore.Internal.Correction>
   9.000000E+99

> <Gold.Chemscore.Hbonds>
donor molecule, donor type, donor heavy atom, donor atom, acceptor molecule, acceptor atom, score
      L1  H    19    42       P1  7957  0.75
      L1  H    21    44       P1 10175  0.99
      P1  H  7997  8008       L1    11  0.96

> <Gold.Chemscore.Hbond.Weighted>
-9.4558

> <Gold.Chemscore.Metal.Weighted>
-0.0000

> <Gold.Chemscore.Lipo.Weighted>
-11.0000

> <Gold.Chemscore.Internal_Hbond.Weighted>
0.0000

> <Gold.Chemscore.DEClash.Weighted>
0.1130

> <Gold.Chemscore.DEInternal.Weighted>
1.5653

> <Gold.Chemscore.Rot.Weighted>
8.4920

> <Gold.Chemscore.Internal.Correction.Weighted>
   9.000000E+99

> <Gold.Protein.RotatedTorsions>
[ 6907 6896 6895 6894 ] final   71.60 input  -60.11 | X-H torsion
[ 7974 7965 7964 7962 ] final -110.73 input  175.53 | X-H torsion
[ 8008 7997 7996 7995 ] final  -56.26 input   59.86 | X-H torsion
[ 10167 10162 10161 10158 ] final  -12.66 input  -65.29 | X-H torsion
[ 10718 10713 10712 10709 ] final -154.19 input   66.30 | X-H torsion
[ 10763 10752 10751 10750 ] final  -48.29 input  -60.55 | X-H torsion
[ 11005 11000 10999 10996 ] final  -67.85 input  -57.11 | X-H torsion

> <Gold.Protein.ActiveResidues>
 VAL166  LYS551  ARG553  GLY616  TRP617  ASP618  TYR619  PRO620  LYS621  CYS622 
 ASP623  PHE694  ASN695  SER759  ASP760  ASP761  ALA762  ILE779  LEU786  VAL792 
 PHE793  MET794  SER795  GLU796  ALA797  LYS798  CYS799  TRP800  GLU811  SER814 

> <Gold.Protein.RotatedAtoms>
  152.4819  134.4696  159.9630 H   0  0  0  0  0  0  0  0  0  0  0  0  # atno 6907 bound_to 6896
  151.4700  133.3565  159.2830 H   0  0  0  0  0  0  0  0  0  0  0  0  # atno 6908 bound_to 6896
  150.8899  134.8327  159.7346 H   0  0  0  0  0  0  0  0  0  0  0  0  # atno 6909 bound_to 6896
  145.1647  140.8896  143.3570 H   0  0  0  0  0  0  0  0  0  0  0  0  # atno 7974 bound_to 7965
  154.4224  140.1134  156.5609 H   0  0  0  0  0  0  0  0  0  0  0  0  # atno 8008 bound_to 7997
  155.6312  140.3495  155.4664 H   0  0  0  0  0  0  0  0  0  0  0  0  # atno 8009 bound_to 7997
  155.9946  140.1186  157.0595 H   0  0  0  0  0  0  0  0  0  0  0  0  # atno 8010 bound_to 7997
  140.7166  143.5509  150.9303 H   0  0  0  0  0  0  0  0  0  0  0  0  # atno 10167 bound_to 10162
  156.4960  130.8369  151.2590 H   0  0  0  0  0  0  0  0  0  0  0  0  # atno 10718 bound_to 10713
  154.0753  135.6599  153.4830 H   0  0  0  0  0  0  0  0  0  0  0  0  # atno 10763 bound_to 10752
  153.0375  135.5167  154.7526 H   0  0  0  0  0  0  0  0  0  0  0  0  # atno 10764 bound_to 10752
  154.6605  135.3014  154.9840 H   0  0  0  0  0  0  0  0  0  0  0  0  # atno 10765 bound_to 10752
  141.1518  133.6728  156.6355 H   0  0  0  0  0  0  0  0  0  0  0  0  # atno 11005 bound_to 11000
  145.0295  139.3353  143.6032 LP  0  0  0  0  0  0  0  0  0  0  0  0  # atno 17320 bound_to 7965
  146.3477  139.9626  142.8715 LP  0  0  0  0  0  0  0  0  0  0  0  0  # atno 17321 bound_to 7965
  139.9233  143.6580  152.3092 LP  0  0  0  0  0  0  0  0  0  0  0  0  # atno 17342 bound_to 10162
  139.7005  144.7635  151.1282 LP  0  0  0  0  0  0  0  0  0  0  0  0  # atno 17343 bound_to 10162
  157.7468  130.9998  150.2901 LP  0  0  0  0  0  0  0  0  0  0  0  0  # atno 17370 bound_to 10713
  156.3380  130.3811  149.7433 LP  0  0  0  0  0  0  0  0  0  0  0  0  # atno 17371 bound_to 10713
  140.3433  134.7830  157.4414 LP  0  0  0  0  0  0  0  0  0  0  0  0  # atno 17394 bound_to 11000
  140.0920  134.5588  155.8435 LP  0  0  0  0  0  0  0  0  0  0  0  0  # atno 17395 bound_to 11000

$$$$
