AV-unprocessed.smi:240|AV-procd|sdf|1836|dock1
  -GOLD-   2262020443D 1   1.00000     0.00000
 Structure written by MMmdl.
 55 59  0  0  0  0  0  0  0  0  1 V2000
  148.5380  137.5971  154.3933 O   0  0  0  0  0  0  0  0  0  0  0  0
  149.6005  138.1005  155.1760 C   0  0  2  0  0  0  0  0  0  0  0  0
  150.5167  138.9908  154.3388 C   0  0  0  0  0  0  0  0  0  0  0  0
  151.8214  139.0323  155.1352 C   0  0  0  0  0  0  0  0  0  0  0  0
  151.8991  137.6964  155.8906 C   0  0  0  0  0  0  0  0  0  0  0  0
  150.5401  136.9940  155.6914 C   0  0  1  0  0  0  0  0  0  0  0  0
  150.0536  136.1609  156.9212 C   0  0  1  0  0  0  0  0  0  0  0  0
  149.9224  137.0055  158.2157 C   0  0  0  0  0  0  0  0  0  0  0  0
  149.5132  136.1834  159.3012 O   0  0  0  0  0  0  0  0  0  0  0  0
  148.2263  135.6256  159.0751 C   0  0  0  0  0  0  0  0  0  0  0  0
  148.2880  134.7184  157.8396 C   0  0  0  0  0  0  0  0  0  0  0  0
  148.7863  135.4521  156.6797 N   0  0  0  0  0  0  0  0  0  0  0  0
  148.7044  134.6663  155.5796 C   0  0  0  0  0  0  0  0  0  0  0  0
  149.8236  134.3502  154.8744 N   0  0  0  0  0  0  0  0  0  0  0  0
  149.7335  133.5724  153.7914 C   0  0  0  0  0  0  0  0  0  0  0  0
  148.6478  133.0104  153.2547 N   0  0  0  0  0  0  0  0  0  0  0  0
  147.5273  133.3127  153.9720 C   0  0  0  0  0  0  0  0  0  0  0  0
  147.4692  134.1216  155.1404 C   0  0  0  0  0  0  0  0  0  0  0  0
  146.1611  134.2052  155.5992 N   0  0  0  0  0  0  0  0  0  0  0  0
  145.4812  133.4895  154.7454 C   0  0  0  0  0  0  0  0  0  0  0  0
  146.2231  132.9120  153.7391 N   0  0  0  0  0  0  0  0  0  0  0  0
  145.7251  132.0757  152.6578 C   0  0  0  0  0  0  0  0  0  0  0  0
  145.9711  132.6586  151.2427 C   0  0  2  0  0  0  0  0  0  0  0  0
  147.3654  132.7521  151.0153 O   0  0  0  0  0  0  0  0  0  0  0  0
  145.3311  134.0256  151.0092 C   0  0  0  0  0  0  0  0  0  0  0  0
  143.9672  133.6540  150.4489 C   0  0  0  0  0  0  0  0  0  0  0  0
  144.2734  132.5816  149.5731 O   0  0  0  0  0  0  0  0  0  0  0  0
  145.3094  131.7922  150.1520 C   0  0  0  0  0  0  0  0  0  0  0  0
  148.8985  137.0499  153.7125 H   0  0  0  0  0  0  0  0  0  0  0  0
  149.1937  138.6939  155.9931 H   0  0  0  0  0  0  0  0  0  0  0  0
  150.7022  138.5323  153.3660 H   0  0  0  0  0  0  0  0  0  0  0  0
  150.0976  139.9824  154.1653 H   0  0  0  0  0  0  0  0  0  0  0  0
  152.6871  139.1976  154.4933 H   0  0  0  0  0  0  0  0  0  0  0  0
  151.7845  139.8532  155.8526 H   0  0  0  0  0  0  0  0  0  0  0  0
  152.7050  137.0737  155.5002 H   0  0  0  0  0  0  0  0  0  0  0  0
  152.1303  137.8800  156.9385 H   0  0  0  0  0  0  0  0  0  0  0  0
  150.7100  136.3189  154.8524 H   0  0  0  0  0  0  0  0  0  0  0  0
  150.8092  135.3982  157.1151 H   0  0  0  0  0  0  0  0  0  0  0  0
  150.8714  137.4639  158.4877 H   0  0  0  0  0  0  0  0  0  0  0  0
  149.2024  137.8155  158.1016 H   0  0  0  0  0  0  0  0  0  0  0  0
  147.9299  135.0482  159.9508 H   0  0  0  0  0  0  0  0  0  0  0  0
  147.4848  136.4158  158.9462 H   0  0  0  0  0  0  0  0  0  0  0  0
  148.9423  133.8686  158.0399 H   0  0  0  0  0  0  0  0  0  0  0  0
  147.2947  134.3170  157.6334 H   0  0  0  0  0  0  0  0  0  0  0  0
  150.6645  133.3723  153.2817 H   0  0  0  0  0  0  0  0  0  0  0  0
  144.4116  133.3597  154.8277 H   0  0  0  0  0  0  0  0  0  0  0  0
  146.1942  131.0946  152.7457 H   0  0  0  0  0  0  0  0  0  0  0  0
  144.6584  131.9139  152.8179 H   0  0  0  0  0  0  0  0  0  0  0  0
  147.6775  131.9098  150.7212 H   0  0  0  0  0  0  0  0  0  0  0  0
  145.2715  134.6589  151.8931 H   0  0  0  0  0  0  0  0  0  0  0  0
  145.8805  134.5824  150.2480 H   0  0  0  0  0  0  0  0  0  0  0  0
  143.2982  133.3086  151.2389 H   0  0  0  0  0  0  0  0  0  0  0  0
  143.4864  134.4790  149.9230 H   0  0  0  0  0  0  0  0  0  0  0  0
  146.0085  131.5003  149.3670 H   0  0  0  0  0  0  0  0  0  0  0  0
  144.8844  130.8760  150.5642 H   0  0  0  0  0  0  0  0  0  0  0  0
  1  2  1  0  0  0  0
  1 29  1  0  0  0  0
  2  6  1  0  0  0  0
  2  3  1  0  0  0  0
  2 30  1  0  0  0  0
  3  4  1  0  0  0  0
  3 31  1  0  0  0  0
  3 32  1  0  0  0  0
  4  5  1  0  0  0  0
  4 33  1  0  0  0  0
  4 34  1  0  0  0  0
  5  6  1  0  0  0  0
  5 35  1  0  0  0  0
  5 36  1  0  0  0  0
  6  7  1  0  0  0  0
  6 37  1  0  0  0  0
  7 12  1  0  0  0  0
  7  8  1  0  0  0  0
  7 38  1  0  0  0  0
  8  9  1  0  0  0  0
  8 39  1  0  0  0  0
  8 40  1  0  0  0  0
  9 10  1  0  0  0  0
 10 11  1  0  0  0  0
 10 41  1  0  0  0  0
 10 42  1  0  0  0  0
 11 12  1  0  0  0  0
 11 43  1  0  0  0  0
 11 44  1  0  0  0  0
 12 13  1  0  0  0  0
 13 18  1  0  0  0  0
 13 14  2  0  0  0  0
 14 15  1  0  0  0  0
 15 16  2  0  0  0  0
 15 45  1  0  0  0  0
 16 17  1  0  0  0  0
 17 21  1  0  0  0  0
 17 18  2  0  0  0  0
 18 19  1  0  0  0  0
 19 20  2  0  0  0  0
 20 21  1  0  0  0  0
 20 46  1  0  0  0  0
 21 22  1  0  0  0  0
 22 23  1  0  0  0  0
 22 47  1  0  0  0  0
 22 48  1  0  0  0  0
 23 28  1  0  0  0  0
 23 24  1  0  0  0  0
 23 25  1  0  0  0  0
 24 49  1  0  0  0  0
 25 26  1  0  0  0  0
 25 50  1  0  0  0  0
 25 51  1  0  0  0  0
 26 27  1  0  0  0  0
 26 52  1  0  0  0  0
 26 53  1  0  0  0  0
 27 28  1  0  0  0  0
 28 54  1  0  0  0  0
 28 55  1  0  0  0  0
M  END
> <s_m_source_file>
AV-unprocessed.smi

> <i_m_source_file_index>
240

> <i_lp_mmshare_version>
43012

> <i_f3d_flags>
0

> <s_epik_input>
W09IXVtDQEBIXTFbQ0gyXVtDSDJdW0NIMl1bQ0BIXTFbQ0BASF0yW0NIMl1PW0NIMl1bQ0gyXU4yYyhuW2NIXW4zKWMoYzM0KW5bY0hdbjRbQ0gyXVtDQEBdNShbT0hdKVtDSDJdW0NIMl1PW0NIMl01

> <s_epik_cmdline>
J2VwaWtfcHl0aG9uJywgJy1waCcsICc3LjAnLCAnLXRuJywgJzgnLCAnLW1hJywgJzIwMCcsICctbWV0YWxfYmluZGluZycsICctaW1hZScsICc8aW5maWxlLm1hZT4nLCAnLW9tYWUnLCAnPG91dGZpbGUubWFlPic=

> <r_lp_tautomer_probability>
1

> <r_epik_Ionization_Penalty>
0.000130618

> <r_epik_Ionization_Penalty_Charging>
0

> <r_epik_Ionization_Penalty_Neutral>
0.000130618

> <r_epik_State_Penalty>
-0

> <r_epik_Charging_Adjusted_Penalty>
0

> <i_epik_Tot_Q>
0

> <i_epik_Tot_abs_Q>
0

> <r_epik_Metal_State_Penalty>
-0

> <b_epik_Metal_Only>
0

> <s_lp_Force_Field>
OPLS_2005

> <r_lp_Energy>
59.7423

> <b_lp_Chiralities_Consistent>
1

> <s_lp_Variant>
AV-unprocessed.smi:240-13

> <Gold.Version>
5.8.1

> <Gold.Id.Protein>
6NUR|6NUR_protein|mol2

> <Gold.PLP.Fitness>
46.3645

> <Gold.PLP.PLP>
-34.4779

> <Gold.PLP.part.hbond>
-2.9719

> <Gold.PLP.part.metal>
0.0000

> <Gold.PLP.part.buried>
-8.4922

> <Gold.PLP.part.nonpolar>
-23.6394

> <Gold.PLP.part.repulsive>
0.5178

> <Gold.PLP.ligand.clash>
0.0000

> <Gold.PLP.ligand.torsion>
0.1400

> <Gold.PLP.Chemscore.Hbond>
2.9920

> <Gold.PLP.Chemscore.CHOScore>
1.0000

> <Gold.PLP.Chemscore.Metal>
0.0000

> <Gold.Chemscore.Hbonds>
donor molecule, donor type, donor heavy atom, donor atom, acceptor molecule, acceptor atom, score
      L1  H     1    29       P1  7948  1.00
      L1  H    24    49       P1 10747  1.00
      P1  H  6896  6909       L1     9  1.00
      L1  C    20    46       P1 10957  1.00

> <Gold.PLP.Chemscore.Internal.Correction>
0.1906

> <Gold.Rescore>
     Score         DG    S(hbond)    S(metal)    S(lipo)     H(rot)  DE(clash)    DE(int)     intcor
     14.64     -16.20       2.64        0.00      81.86       3.00       0.04       1.52       ----

> <Gold.Chemscore.Fitness>
14.6371

> <Gold.Chemscore.DG>
-16.1982

> <Gold.Chemscore.ZeroCoef>
-5.4800

> <Gold.Chemscore.Hbond>
2.6437

> <Gold.Chemscore.Metal>
0.0000

> <Gold.Chemscore.Lipo>
81.8631

> <Gold.Chemscore.Internal_Hbond>
0.0000

> <Gold.Chemscore.DEClash>
0.0372

> <Gold.Chemscore.DEInternal>
1.5238

> <Gold.Chemscore.Rot>
3.0039

> <Gold.Chemscore.Internal.Correction>
   9.000000E+99

> <Gold.Chemscore.Hbonds>
donor molecule, donor type, donor heavy atom, donor atom, acceptor molecule, acceptor atom, score
      L1  H     1    29       P1  7948  0.93
      L1  H    24    49       P1 10747  0.94
      P1  H  6896  6909       L1     9  0.57

> <Gold.Chemscore.Hbond.Weighted>
-8.8301

> <Gold.Chemscore.Metal.Weighted>
-0.0000

> <Gold.Chemscore.Lipo.Weighted>
-9.5780

> <Gold.Chemscore.Internal_Hbond.Weighted>
0.0000

> <Gold.Chemscore.DEClash.Weighted>
0.0372

> <Gold.Chemscore.DEInternal.Weighted>
1.5238

> <Gold.Chemscore.Rot.Weighted>
7.6899

> <Gold.Chemscore.Internal.Correction.Weighted>
   9.000000E+99

> <Gold.Protein.RotatedTorsions>
[ 6907 6896 6895 6894 ] final   60.92 input  -60.11 | X-H torsion
[ 7974 7965 7964 7962 ] final  161.03 input  175.53 | X-H torsion
[ 8008 7997 7996 7995 ] final  -18.15 input   59.86 | X-H torsion
[ 10167 10162 10161 10158 ] final  175.89 input  -65.29 | X-H torsion
[ 10718 10713 10712 10709 ] final   16.91 input   66.30 | X-H torsion
[ 10763 10752 10751 10750 ] final  -72.89 input  -60.55 | X-H torsion
[ 11005 11000 10999 10996 ] final -147.37 input  -57.11 | X-H torsion

> <Gold.Protein.ActiveResidues>
 VAL166  LYS551  ARG553  GLY616  TRP617  ASP618  TYR619  PRO620  LYS621  CYS622 
 ASP623  PHE694  ASN695  SER759  ASP760  ASP761  ALA762  ILE779  LEU786  VAL792 
 PHE793  MET794  SER795  GLU796  ALA797  LYS798  CYS799  TRP800  GLU811  SER814 

> <Gold.Protein.RotatedAtoms>
  152.4044  134.6231  160.0055 H   0  0  0  0  0  0  0  0  0  0  0  0  # atno 6907 bound_to 6896
  151.6427  133.3319  159.3142 H   0  0  0  0  0  0  0  0  0  0  0  0  # atno 6908 bound_to 6896
  150.7941  134.7029  159.6605 H   0  0  0  0  0  0  0  0  0  0  0  0  # atno 6909 bound_to 6896
  144.7706  139.7841  143.6298 H   0  0  0  0  0  0  0  0  0  0  0  0  # atno 7974 bound_to 7965
  154.4927  140.2123  155.9514 H   0  0  0  0  0  0  0  0  0  0  0  0  # atno 8008 bound_to 7997
  156.1327  140.3194  155.8342 H   0  0  0  0  0  0  0  0  0  0  0  0  # atno 8009 bound_to 7997
  155.4266  140.0500  157.3012 H   0  0  0  0  0  0  0  0  0  0  0  0  # atno 8010 bound_to 7997
  139.5194  144.2979  152.0405 H   0  0  0  0  0  0  0  0  0  0  0  0  # atno 10167 bound_to 10162
  157.0745  130.6362  149.5813 H   0  0  0  0  0  0  0  0  0  0  0  0  # atno 10718 bound_to 10713
  154.4519  135.5915  153.6197 H   0  0  0  0  0  0  0  0  0  0  0  0  # atno 10763 bound_to 10752
  152.9814  135.6023  154.3594 H   0  0  0  0  0  0  0  0  0  0  0  0  # atno 10764 bound_to 10752
  154.3456  135.2841  155.2378 H   0  0  0  0  0  0  0  0  0  0  0  0  # atno 10765 bound_to 10752
  140.7724  134.3174  157.5071 H   0  0  0  0  0  0  0  0  0  0  0  0  # atno 11005 bound_to 11000
  146.1849  139.5060  142.9842 LP  0  0  0  0  0  0  0  0  0  0  0  0  # atno 17320 bound_to 7965
  145.6335  141.0299  143.1850 LP  0  0  0  0  0  0  0  0  0  0  0  0  # atno 17321 bound_to 7965
  140.2427  144.4252  150.6253 LP  0  0  0  0  0  0  0  0  0  0  0  0  # atno 17342 bound_to 10162
  140.6279  143.2183  151.6557 LP  0  0  0  0  0  0  0  0  0  0  0  0  # atno 17343 bound_to 10162
  155.9941  130.5004  150.7406 LP  0  0  0  0  0  0  0  0  0  0  0  0  # atno 17370 bound_to 10713
  157.4850  131.0906  151.0492 LP  0  0  0  0  0  0  0  0  0  0  0  0  # atno 17371 bound_to 10713
  139.8754  134.9269  156.3411 LP  0  0  0  0  0  0  0  0  0  0  0  0  # atno 17394 bound_to 11000
  140.9561  133.7419  156.0337 LP  0  0  0  0  0  0  0  0  0  0  0  0  # atno 17395 bound_to 11000

$$$$
