AV-unprocessed.smi:916|AV-procd|sdf|4161|dock3
  -GOLD-   22720 2 63D 1   1.00000     0.00000
 Structure written by MMmdl.
 43 44  0  0  0  0  0  0  0  0  1 V2000
  145.9072  131.7885  149.2911 C   0  0  0  0  0  0  0  0  0  0  0  0
  144.9814  131.7996  150.5126 C   0  0  0  0  0  0  0  0  0  0  0  0
  144.8693  133.1602  151.1302 C   0  0  0  0  0  0  0  0  0  0  0  0
  143.7371  133.9326  151.2239 C   0  0  0  0  0  0  0  0  0  0  0  0
  144.0463  135.4530  152.0186 S   0  0  0  0  0  0  0  0  0  0  0  0
  145.7279  134.9760  152.1918 C   0  0  0  0  0  0  0  0  0  0  0  0
  146.6865  135.8146  152.8183 N   0  0  0  0  0  0  0  0  0  0  0  0
  146.4723  136.8021  153.7055 C   0  0  0  0  0  0  0  0  0  0  0  0
  145.3718  137.1362  154.1460 O   0  0  0  0  0  0  0  0  0  0  0  0
  147.6225  137.3936  154.0595 N   0  0  0  0  0  0  0  0  0  0  0  0
  147.7494  138.5028  155.0001 C   0  0  0  0  0  0  0  0  0  0  0  0
  149.2231  138.8123  155.3317 C   0  0  1  0  0  0  0  0  0  0  0  0
  150.1782  137.6510  155.1273 C   0  0  0  0  0  0  0  0  0  0  0  0
  151.5257  138.3595  155.0508 C   0  0  0  0  0  0  0  0  0  0  0  0
  151.2625  139.6198  154.4432 O   0  0  0  0  0  0  0  0  0  0  0  0
  149.8582  139.8696  154.4147 C   0  0  2  0  0  0  0  0  0  0  0  0
  149.5474  141.3457  154.7548 C   0  0  0  0  0  0  0  0  0  0  0  0
  150.1192  141.7217  156.1308 C   0  0  0  0  0  0  0  0  0  0  0  0
  148.0488  141.6900  154.6808 C   0  0  0  0  0  0  0  0  0  0  0  0
  145.9991  133.7673  151.6871 N   0  0  0  0  0  0  0  0  0  0  0  0
  145.9691  130.7893  148.8595 H   0  0  0  0  0  0  0  0  0  0  0  0
  146.9180  132.0981  149.5591 H   0  0  0  0  0  0  0  0  0  0  0  0
  145.5437  132.4646  148.5167 H   0  0  0  0  0  0  0  0  0  0  0  0
  143.9947  131.4415  150.2163 H   0  0  0  0  0  0  0  0  0  0  0  0
  145.3494  131.0850  151.2499 H   0  0  0  0  0  0  0  0  0  0  0  0
  142.7425  133.6986  150.8747 H   0  0  0  0  0  0  0  0  0  0  0  0
  147.6466  135.6450  152.5573 H   0  0  0  0  0  0  0  0  0  0  0  0
  148.4778  137.0518  153.6460 H   0  0  0  0  0  0  0  0  0  0  0  0
  147.2432  139.3933  154.6232 H   0  0  0  0  0  0  0  0  0  0  0  0
  147.2218  138.2189  155.9107 H   0  0  0  0  0  0  0  0  0  0  0  0
  149.2976  139.1263  156.3724 H   0  0  0  0  0  0  0  0  0  0  0  0
  150.1360  136.9113  155.9273 H   0  0  0  0  0  0  0  0  0  0  0  0
  149.9687  137.1455  154.1835 H   0  0  0  0  0  0  0  0  0  0  0  0
  151.9204  138.5340  156.0526 H   0  0  0  0  0  0  0  0  0  0  0  0
  152.2660  137.7908  154.4880 H   0  0  0  0  0  0  0  0  0  0  0  0
  149.5314  139.6649  153.3936 H   0  0  0  0  0  0  0  0  0  0  0  0
  150.0613  141.9684  154.0219 H   0  0  0  0  0  0  0  0  0  0  0  0
  149.6503  141.1424  156.9269 H   0  0  0  0  0  0  0  0  0  0  0  0
  149.9576  142.7778  156.3486 H   0  0  0  0  0  0  0  0  0  0  0  0
  151.1933  141.5395  156.1757 H   0  0  0  0  0  0  0  0  0  0  0  0
  147.4644  141.0770  155.3675 H   0  0  0  0  0  0  0  0  0  0  0  0
  147.6451  141.5477  153.6792 H   0  0  0  0  0  0  0  0  0  0  0  0
  147.8770  142.7336  154.9458 H   0  0  0  0  0  0  0  0  0  0  0  0
  1  2  1  0  0  0  0
  1 21  1  0  0  0  0
  1 22  1  0  0  0  0
  1 23  1  0  0  0  0
  2  3  1  0  0  0  0
  2 24  1  0  0  0  0
  2 25  1  0  0  0  0
  3 20  1  0  0  0  0
  3  4  2  0  0  0  0
  4  5  1  0  0  0  0
  4 26  1  0  0  0  0
  5  6  1  0  0  0  0
  6  7  1  0  0  0  0
  6 20  2  0  0  0  0
  7  8  1  0  0  0  0
  7 27  1  0  0  0  0
  8  9  2  0  0  0  0
  8 10  1  0  0  0  0
 10 11  1  0  0  0  0
 10 28  1  0  0  0  0
 11 12  1  0  0  0  0
 11 29  1  0  0  0  0
 11 30  1  0  0  0  0
 12 16  1  0  0  0  0
 12 13  1  0  0  0  0
 12 31  1  0  0  0  0
 13 14  1  0  0  0  0
 13 32  1  0  0  0  0
 13 33  1  0  0  0  0
 14 15  1  0  0  0  0
 14 34  1  0  0  0  0
 14 35  1  0  0  0  0
 15 16  1  0  0  0  0
 16 17  1  0  0  0  0
 16 36  1  0  0  0  0
 17 18  1  0  0  0  0
 17 19  1  0  0  0  0
 17 37  1  0  0  0  0
 18 38  1  0  0  0  0
 18 39  1  0  0  0  0
 18 40  1  0  0  0  0
 19 41  1  0  0  0  0
 19 42  1  0  0  0  0
 19 43  1  0  0  0  0
M  END
> <s_m_source_file>
AV-unprocessed.smi

> <i_m_source_file_index>
916

> <i_lp_mmshare_version>
43012

> <i_f3d_flags>
0

> <s_epik_input>
W0NIM11bQ0gyXWMxW2NIXXNjKG4xKVtOSF1DKD1PKVtOSF1bQ0gyXVtDQEBIXTJbQ0gyXVtDSDJdT1tDQEhdMltDSF0oW0NIM10pW0NIM10=

> <s_epik_cmdline>
J2VwaWtfcHl0aG9uJywgJy1waCcsICc3LjAnLCAnLXRuJywgJzgnLCAnLW1hJywgJzIwMCcsICctbWV0YWxfYmluZGluZycsICctaW1hZScsICc8aW5maWxlLm1hZT4nLCAnLW9tYWUnLCAnPG91dGZpbGUubWFlPic=

> <r_lp_tautomer_probability>
0.999

> <r_epik_Ionization_Penalty>
0.000518907

> <r_epik_Ionization_Penalty_Charging>
0

> <r_epik_Ionization_Penalty_Neutral>
0.000518907

> <r_epik_State_Penalty>
0.000177984

> <r_epik_Charging_Adjusted_Penalty>
0.000177984

> <i_epik_Tot_Q>
0

> <i_epik_Tot_abs_Q>
0

> <r_epik_Metal_State_Penalty>
-0

> <b_epik_Metal_Only>
0

> <s_lp_Force_Field>
OPLS_2005

> <r_lp_Energy>
16.7847

> <b_lp_Chiralities_Consistent>
1

> <s_lp_Variant>
AV-unprocessed.smi:916-4

> <Gold.Version>
5.8.1

> <Gold.Id.Protein>
6NUR|6NUR_protein|mol2

> <Gold.PLP.Fitness>
44.2930

> <Gold.PLP.PLP>
-34.2712

> <Gold.PLP.part.hbond>
-2.9026

> <Gold.PLP.part.metal>
0.0000

> <Gold.PLP.part.buried>
-3.4166

> <Gold.PLP.part.nonpolar>
-27.7024

> <Gold.PLP.part.repulsive>
0.3200

> <Gold.PLP.ligand.clash>
0.0000

> <Gold.PLP.ligand.torsion>
0.6167

> <Gold.PLP.Chemscore.Hbond>
2.7280

> <Gold.PLP.Chemscore.CHOScore>
1.0000

> <Gold.PLP.Chemscore.Metal>
0.0000

> <Gold.Chemscore.Hbonds>
donor molecule, donor type, donor heavy atom, donor atom, acceptor molecule, acceptor atom, score
      L1  H     7    27       P1  7948  0.94
      L1  H    10    28       P1  7948  0.70
      P1  H  7989  7998       L1    15  0.75
      L1  C     4    26       P1 10186  1.00

> <Gold.PLP.Chemscore.Internal.Correction>
0.0712

> <Gold.Rescore>
     Score         DG    S(hbond)    S(metal)    S(lipo)     H(rot)  DE(clash)    DE(int)     intcor
     19.76     -21.34       2.91        0.00      85.73       1.52       0.09       1.49       ----

> <Gold.Chemscore.Fitness>
19.7586

> <Gold.Chemscore.DG>
-21.3419

> <Gold.Chemscore.ZeroCoef>
-5.4800

> <Gold.Chemscore.Hbond>
2.9138

> <Gold.Chemscore.Metal>
0.0000

> <Gold.Chemscore.Lipo>
85.7304

> <Gold.Chemscore.Internal_Hbond>
0.0000

> <Gold.Chemscore.DEClash>
0.0916

> <Gold.Chemscore.DEInternal>
1.4917

> <Gold.Chemscore.Rot>
1.5238

> <Gold.Chemscore.Internal.Correction>
   9.000000E+99

> <Gold.Chemscore.Hbonds>
donor molecule, donor type, donor heavy atom, donor atom, acceptor molecule, acceptor atom, score
      L1  H     7    27       P1  7948  0.89
      L1  H    10    28       P1  7948  0.67
      P1  H  7989  7998       L1    15  0.09

> <Gold.Chemscore.Hbond.Weighted>
-9.7322

> <Gold.Chemscore.Metal.Weighted>
-0.0000

> <Gold.Chemscore.Lipo.Weighted>
-10.0305

> <Gold.Chemscore.Internal_Hbond.Weighted>
0.0000

> <Gold.Chemscore.DEClash.Weighted>
0.0916

> <Gold.Chemscore.DEInternal.Weighted>
1.4917

> <Gold.Chemscore.Rot.Weighted>
3.9008

> <Gold.Chemscore.Internal.Correction.Weighted>
   9.000000E+99

> <Gold.Protein.RotatedTorsions>
[ 6907 6896 6895 6894 ] final   42.31 input  -60.11 | X-H torsion
[ 7974 7965 7964 7962 ] final   -4.40 input  175.53 | X-H torsion
[ 8008 7997 7996 7995 ] final  105.91 input   59.86 | X-H torsion
[ 10167 10162 10161 10158 ] final -122.61 input  -65.29 | X-H torsion
[ 10718 10713 10712 10709 ] final -122.34 input   66.30 | X-H torsion
[ 10763 10752 10751 10750 ] final -121.19 input  -60.55 | X-H torsion
[ 11005 11000 10999 10996 ] final -116.37 input  -57.11 | X-H torsion

> <Gold.Protein.ActiveResidues>
 VAL166  LYS551  ARG553  GLY616  TRP617  ASP618  TYR619  PRO620  LYS621  CYS622 
 ASP623  PHE694  ASN695  SER759  ASP760  ASP761  ALA762  ILE779  LEU786  VAL792 
 PHE793  MET794  SER795  GLU796  ALA797  LYS798  CYS799  TRP800  GLU811  SER814 

> <Gold.Protein.RotatedAtoms>
  152.2062  134.8543  160.0502 H   0  0  0  0  0  0  0  0  0  0  0  0  # atno 6907 bound_to 6896
  151.9378  133.3624  159.3962 H   0  0  0  0  0  0  0  0  0  0  0  0  # atno 6908 bound_to 6896
  150.6966  134.4395  159.5329 H   0  0  0  0  0  0  0  0  0  0  0  0  # atno 6909 bound_to 6896
  146.2373  140.1865  142.8332 H   0  0  0  0  0  0  0  0  0  0  0  0  # atno 7974 bound_to 7965
  156.1698  140.3122  155.8954 H   0  0  0  0  0  0  0  0  0  0  0  0  # atno 8008 bound_to 7997
  155.3609  140.0476  157.3063 H   0  0  0  0  0  0  0  0  0  0  0  0  # atno 8009 bound_to 7997
  154.5230  140.2204  155.8952 H   0  0  0  0  0  0  0  0  0  0  0  0  # atno 8010 bound_to 7997
  140.0124  143.5428  152.2257 H   0  0  0  0  0  0  0  0  0  0  0  0  # atno 10167 bound_to 10162
  156.1411  130.6466  150.9772 H   0  0  0  0  0  0  0  0  0  0  0  0  # atno 10718 bound_to 10713
  154.8662  135.4176  154.2580 H   0  0  0  0  0  0  0  0  0  0  0  0  # atno 10763 bound_to 10752
  153.3514  135.6999  153.6791 H   0  0  0  0  0  0  0  0  0  0  0  0  # atno 10764 bound_to 10752
  153.5730  135.3587  155.2818 H   0  0  0  0  0  0  0  0  0  0  0  0  # atno 10765 bound_to 10752
  141.0426  133.9812  157.2970 H   0  0  0  0  0  0  0  0  0  0  0  0  # atno 11005 bound_to 11000
  144.9892  140.8531  143.5350 LP  0  0  0  0  0  0  0  0  0  0  0  0  # atno 17320 bound_to 7965
  145.1869  139.2322  143.5263 LP  0  0  0  0  0  0  0  0  0  0  0  0  # atno 17321 bound_to 7965
  139.6196  144.7626  151.2770 LP  0  0  0  0  0  0  0  0  0  0  0  0  # atno 17342 bound_to 10162
  140.7376  143.6673  150.8112 LP  0  0  0  0  0  0  0  0  0  0  0  0  # atno 17343 bound_to 10162
  157.6576  131.0886  150.7912 LP  0  0  0  0  0  0  0  0  0  0  0  0  # atno 17370 bound_to 10713
  156.7987  130.4914  149.5373 LP  0  0  0  0  0  0  0  0  0  0  0  0  # atno 17371 bound_to 10713
  139.9287  135.0201  156.8326 LP  0  0  0  0  0  0  0  0  0  0  0  0  # atno 17394 bound_to 11000
  140.6206  133.9997  155.7617 LP  0  0  0  0  0  0  0  0  0  0  0  0  # atno 17395 bound_to 11000

$$$$
