AV-unprocessed.smi:109|AV-procd|sdf|1042|dock1
  -GOLD-   2262018 73D 1   1.00000     0.00000
 Structure written by MMmdl.
 58 61  0  0  0  0  0  0  0  0  1 V2000
  149.7795  140.9613  153.5132 O   0  0  0  0  0  0  0  0  0  0  0  0
  149.0744  140.9577  154.7358 C   0  0  0  0  0  0  0  0  0  0  0  0
  149.7546  141.9108  155.7313 C   0  0  0  0  0  0  0  0  0  0  0  0
  150.1798  141.2131  157.0426 C   0  0  1  0  0  0  0  0  0  0  0  0
  151.0364  140.0672  156.7375 N   0  0  0  0  0  0  0  0  0  0  0  0
  150.7701  138.8352  157.2252 C   0  0  0  0  0  0  0  0  0  0  0  0
  150.9574  138.5384  158.5375 N   0  0  0  0  0  0  0  0  0  0  0  0
  150.6862  137.3110  158.9896 C   0  0  0  0  0  0  0  0  0  0  0  0
  150.2281  136.2561  158.3129 N   0  0  0  0  0  0  0  0  0  0  0  0
  150.0363  136.5465  156.9936 C   0  0  0  0  0  0  0  0  0  0  0  0
  150.2804  137.8069  156.3793 C   0  0  0  0  0  0  0  0  0  0  0  0
  149.9711  137.7409  155.0276 N   0  0  0  0  0  0  0  0  0  0  0  0
  149.5701  136.5103  154.8563 C   0  0  0  0  0  0  0  0  0  0  0  0
  149.5756  135.7209  155.9850 N   0  0  0  0  0  0  0  0  0  0  0  0
  149.1680  134.2798  156.0784 C   0  0  1  0  0  0  0  0  0  0  0  0
  148.7634  133.8223  154.8219 O   0  0  0  0  0  0  0  0  0  0  0  0
  149.5966  132.7492  154.3855 C   0  0  2  0  0  0  0  0  0  0  0  0
  148.8242  131.7868  153.4663 C   0  0  0  0  0  0  0  0  0  0  0  0
  148.3144  132.4846  152.3502 O   0  0  0  0  0  0  0  0  0  0  0  0
  150.1276  132.1380  155.6899 C   0  0  2  0  0  0  0  0  0  0  0  0
  149.1925  131.2371  156.2565 O   0  0  0  0  0  0  0  0  0  0  0  0
  150.2969  133.3576  156.5817 C   0  0  1  0  0  0  0  0  0  0  0  0
  151.5957  133.9053  156.4364 O   0  0  0  0  0  0  0  0  0  0  0  0
  150.8669  142.1585  158.0675 C   0  0  0  0  0  0  0  0  0  0  0  0
  151.5622  143.3645  157.3993 C   0  0  0  0  0  0  0  0  0  0  0  0
  152.1345  144.3329  158.4476 C   0  0  0  0  0  0  0  0  0  0  0  0
  153.0990  143.6122  159.4028 C   0  0  0  0  0  0  0  0  0  0  0  0
  152.4209  142.4057  160.0703 C   0  0  0  0  0  0  0  0  0  0  0  0
  151.8458  141.4383  159.0227 C   0  0  0  0  0  0  0  0  0  0  0  0
  148.3021  134.2829  156.7417 H   0  0  0  0  0  0  0  0  0  0  0  0
  150.4502  133.1643  153.8478 H   0  0  0  0  0  0  0  0  0  0  0  0
  151.0636  131.5989  155.5358 H   0  0  0  0  0  0  0  0  0  0  0  0
  150.1423  133.1302  157.6375 H   0  0  0  0  0  0  0  0  0  0  0  0
  149.3393  140.3820  152.9101 H   0  0  0  0  0  0  0  0  0  0  0  0
  148.0442  141.2644  154.5523 H   0  0  0  0  0  0  0  0  0  0  0  0
  149.0482  139.9388  155.1229 H   0  0  0  0  0  0  0  0  0  0  0  0
  150.6197  142.3746  155.2555 H   0  0  0  0  0  0  0  0  0  0  0  0
  149.0579  142.7194  155.9490 H   0  0  0  0  0  0  0  0  0  0  0  0
  149.2644  140.8402  157.5036 H   0  0  0  0  0  0  0  0  0  0  0  0
  151.8971  140.2852  156.2563 H   0  0  0  0  0  0  0  0  0  0  0  0
  150.8617  137.1506  160.0431 H   0  0  0  0  0  0  0  0  0  0  0  0
  149.2545  136.1409  153.8912 H   0  0  0  0  0  0  0  0  0  0  0  0
  149.4921  131.0128  153.0870 H   0  0  0  0  0  0  0  0  0  0  0  0
  148.0158  131.2879  154.0014 H   0  0  0  0  0  0  0  0  0  0  0  0
  148.4143  131.9412  151.5837 H   0  0  0  0  0  0  0  0  0  0  0  0
  149.6657  130.5117  156.6346 H   0  0  0  0  0  0  0  0  0  0  0  0
  152.0330  133.8626  157.2730 H   0  0  0  0  0  0  0  0  0  0  0  0
  150.0765  142.5816  158.6892 H   0  0  0  0  0  0  0  0  0  0  0  0
  152.3722  143.0305  156.7515 H   0  0  0  0  0  0  0  0  0  0  0  0
  150.8551  143.8961  156.7618 H   0  0  0  0  0  0  0  0  0  0  0  0
  152.6491  145.1559  157.9511 H   0  0  0  0  0  0  0  0  0  0  0  0
  151.3184  144.7779  159.0184 H   0  0  0  0  0  0  0  0  0  0  0  0
  153.9780  143.2778  158.8505 H   0  0  0  0  0  0  0  0  0  0  0  0
  153.4567  144.3059  160.1638 H   0  0  0  0  0  0  0  0  0  0  0  0
  153.1357  141.8826  160.7060 H   0  0  0  0  0  0  0  0  0  0  0  0
  151.6206  142.7522  160.7254 H   0  0  0  0  0  0  0  0  0  0  0  0
  151.3424  140.6153  159.5312 H   0  0  0  0  0  0  0  0  0  0  0  0
  152.6684  140.9977  158.4587 H   0  0  0  0  0  0  0  0  0  0  0  0
  1  2  1  0  0  0  0
  1 34  1  0  0  0  0
  2  3  1  0  0  0  0
  2 35  1  0  0  0  0
  2 36  1  0  0  0  0
  3  4  1  0  0  0  0
  3 37  1  0  0  0  0
  3 38  1  0  0  0  0
  4  5  1  0  0  0  0
  4 24  1  0  0  0  0
  4 39  1  0  0  0  0
  5  6  1  0  0  0  0
  5 40  1  0  0  0  0
  6 11  1  0  0  0  0
  6  7  2  0  0  0  0
  7  8  1  0  0  0  0
  8  9  2  0  0  0  0
  8 41  1  0  0  0  0
  9 10  1  0  0  0  0
 10 14  1  0  0  0  0
 10 11  2  0  0  0  0
 11 12  1  0  0  0  0
 12 13  2  0  0  0  0
 13 14  1  0  0  0  0
 13 42  1  0  0  0  0
 14 15  1  0  0  0  0
 15 30  1  0  0  0  0
 15 22  1  0  0  0  0
 15 16  1  0  0  0  0
 16 17  1  0  0  0  0
 17 31  1  0  0  0  0
 17 18  1  0  0  0  0
 17 20  1  0  0  0  0
 18 19  1  0  0  0  0
 18 43  1  0  0  0  0
 18 44  1  0  0  0  0
 19 45  1  0  0  0  0
 20 32  1  0  0  0  0
 20 21  1  0  0  0  0
 20 22  1  0  0  0  0
 21 46  1  0  0  0  0
 22 33  1  0  0  0  0
 22 23  1  0  0  0  0
 23 47  1  0  0  0  0
 24 29  1  0  0  0  0
 24 25  1  0  0  0  0
 24 48  1  0  0  0  0
 25 26  1  0  0  0  0
 25 49  1  0  0  0  0
 25 50  1  0  0  0  0
 26 27  1  0  0  0  0
 26 51  1  0  0  0  0
 26 52  1  0  0  0  0
 27 28  1  0  0  0  0
 27 53  1  0  0  0  0
 27 54  1  0  0  0  0
 28 29  1  0  0  0  0
 28 55  1  0  0  0  0
 28 56  1  0  0  0  0
 29 57  1  0  0  0  0
 29 58  1  0  0  0  0
M  END
> <s_m_source_file>
AV-unprocessed.smi

> <i_m_source_file_index>
109

> <i_lp_mmshare_version>
43012

> <i_f3d_flags>
0

> <s_epik_input>
W0NIMl0xW0NIMl1bQ0gyXVtDSDJdW0NIMl1bQ0hdMVtDQEhdKFtDSDJdW0NIMl1bT0hdKVtOSF1jKG5bY0hdbjIpYyhjMjMpbltjSF1uM1tDQEBIXTRPW0NASF0oW0NIMl1bT0hdKVtDQEBIXShbT0hdKVtDQEhdNFtPSF0=

> <s_epik_cmdline>
J2VwaWtfcHl0aG9uJywgJy1waCcsICc3LjAnLCAnLXRuJywgJzgnLCAnLW1hJywgJzIwMCcsICctbWV0YWxfYmluZGluZycsICctaW1hZScsICc8aW5maWxlLm1hZT4nLCAnLW9tYWUnLCAnPG91dGZpbGUubWFlPic=

> <r_lp_tautomer_probability>
1

> <r_epik_Ionization_Penalty>
0.000793976

> <r_epik_Ionization_Penalty_Charging>
0

> <r_epik_Ionization_Penalty_Neutral>
0.000793976

> <r_epik_State_Penalty>
-0

> <r_epik_Charging_Adjusted_Penalty>
0

> <i_epik_Tot_Q>
0

> <i_epik_Tot_abs_Q>
0

> <r_epik_Metal_State_Penalty>
-0

> <b_epik_Metal_Only>
0

> <s_epik_Chemistry_Notes>
This compound contains an acetal/aminal-like group ( X-CH(R)-Y where X, Y are N, S, or O) that may be acid/base labile, releasing an aldehyde.

> <s_lp_Force_Field>
OPLS_2005

> <r_lp_Energy>
56.1563

> <b_lp_Chiralities_Consistent>
1

> <s_lp_Variant>
AV-unprocessed.smi:109-12

> <Gold.Version>
5.8.1

> <Gold.Id.Protein>
6NUR|6NUR_protein|mol2

> <Gold.PLP.Fitness>
55.2137

> <Gold.PLP.PLP>
-44.1722

> <Gold.PLP.part.hbond>
-4.8606

> <Gold.PLP.part.metal>
0.0000

> <Gold.PLP.part.buried>
-2.7279

> <Gold.PLP.part.nonpolar>
-35.4700

> <Gold.PLP.part.repulsive>
0.2601

> <Gold.PLP.ligand.clash>
0.0000

> <Gold.PLP.ligand.torsion>
2.0196

> <Gold.PLP.Chemscore.Hbond>
3.8720

> <Gold.PLP.Chemscore.CHOScore>
1.0000

> <Gold.PLP.Chemscore.Metal>
0.0000

> <Gold.Chemscore.Hbonds>
donor molecule, donor type, donor heavy atom, donor atom, acceptor molecule, acceptor atom, score
      L1  H     1    34       P1  7957  0.62
      L1  H    19    45       P1 10747  1.00
      P1  H  6896  6908       L1     9  0.64
      P1  H  7989  7998       L1     1  0.29
      P1  H  8011  8017       L1     1  0.75
      L1  C    13    42       P1  7948  1.00

> <Gold.PLP.Chemscore.Internal.Correction>
0.4646

> <Gold.Rescore>
     Score         DG    S(hbond)    S(metal)    S(lipo)     H(rot)  DE(clash)    DE(int)     intcor
     11.93     -14.61       3.05        0.00     110.61       5.47       0.50       2.18       ----

> <Gold.Chemscore.Fitness>
11.9260

> <Gold.Chemscore.DG>
-14.6096

> <Gold.Chemscore.ZeroCoef>
-5.4800

> <Gold.Chemscore.Hbond>
3.0485

> <Gold.Chemscore.Metal>
0.0000

> <Gold.Chemscore.Lipo>
110.6071

> <Gold.Chemscore.Internal_Hbond>
0.0000

> <Gold.Chemscore.DEClash>
0.5017

> <Gold.Chemscore.DEInternal>
2.1819

> <Gold.Chemscore.Rot>
5.4662

> <Gold.Chemscore.Internal.Correction>
   9.000000E+99

> <Gold.Chemscore.Hbonds>
donor molecule, donor type, donor heavy atom, donor atom, acceptor molecule, acceptor atom, score
      L1  H     1    34       P1  7957  0.62
      L1  H    19    45       P1 10747  1.00
      P1  H  6896  6908       L1     9  0.06
      P1  H  7989  7998       L1     1  0.25
      P1  H  8011  8017       L1     1  0.09

> <Gold.Chemscore.Hbond.Weighted>
-10.1821

> <Gold.Chemscore.Metal.Weighted>
-0.0000

> <Gold.Chemscore.Lipo.Weighted>
-12.9410

> <Gold.Chemscore.Internal_Hbond.Weighted>
0.0000

> <Gold.Chemscore.DEClash.Weighted>
0.5017

> <Gold.Chemscore.DEInternal.Weighted>
2.1819

> <Gold.Chemscore.Rot.Weighted>
13.9935

> <Gold.Chemscore.Internal.Correction.Weighted>
   9.000000E+99

> <Gold.Protein.RotatedTorsions>
[ 6907 6896 6895 6894 ] final -167.32 input  -60.11 | X-H torsion
[ 7974 7965 7964 7962 ] final  -58.76 input  175.53 | X-H torsion
[ 8008 7997 7996 7995 ] final   75.11 input   59.86 | X-H torsion
[ 10167 10162 10161 10158 ] final   58.31 input  -65.29 | X-H torsion
[ 10718 10713 10712 10709 ] final  -53.29 input   66.30 | X-H torsion
[ 10763 10752 10751 10750 ] final   34.65 input  -60.55 | X-H torsion
[ 11005 11000 10999 10996 ] final -152.12 input  -57.11 | X-H torsion

> <Gold.Protein.ActiveResidues>
 VAL166  LYS551  ARG553  GLY616  TRP617  ASP618  TYR619  PRO620  LYS621  CYS622 
 ASP623  PHE694  ASN695  SER759  ASP760  ASP761  ALA762  ILE779  LEU786  VAL792 
 PHE793  MET794  SER795  GLU796  ALA797  LYS798  CYS799  TRP800  GLU811  SER814 

> <Gold.Protein.RotatedAtoms>
  151.4576  133.3601  159.2804 H   0  0  0  0  0  0  0  0  0  0  0  0  # atno 6907 bound_to 6896
  150.9048  134.8463  159.7395 H   0  0  0  0  0  0  0  0  0  0  0  0  # atno 6908 bound_to 6896
  152.4899  134.4500  159.9623 H   0  0  0  0  0  0  0  0  0  0  0  0  # atno 6909 bound_to 6896
  145.8355  140.8451  143.0061 H   0  0  0  0  0  0  0  0  0  0  0  0  # atno 7974 bound_to 7965
  155.8082  140.3474  155.5442 H   0  0  0  0  0  0  0  0  0  0  0  0  # atno 8008 bound_to 7997
  155.8468  140.0950  157.1720 H   0  0  0  0  0  0  0  0  0  0  0  0  # atno 8009 bound_to 7997
  154.4006  140.1384  156.3783 H   0  0  0  0  0  0  0  0  0  0  0  0  # atno 8010 bound_to 7997
  140.1886  144.4109  150.6582 H   0  0  0  0  0  0  0  0  0  0  0  0  # atno 10167 bound_to 10162
  156.1548  130.4150  149.9887 H   0  0  0  0  0  0  0  0  0  0  0  0  # atno 10718 bound_to 10713
  153.0154  135.6354  154.1703 H   0  0  0  0  0  0  0  0  0  0  0  0  # atno 10763 bound_to 10752
  154.1442  135.2833  155.3154 H   0  0  0  0  0  0  0  0  0  0  0  0  # atno 10764 bound_to 10752
  154.6101  135.5559  153.7526 H   0  0  0  0  0  0  0  0  0  0  0  0  # atno 10765 bound_to 10752
  140.7222  134.3714  157.5181 H   0  0  0  0  0  0  0  0  0  0  0  0  # atno 11005 bound_to 11000
  144.6737  140.0735  143.7472 LP  0  0  0  0  0  0  0  0  0  0  0  0  # atno 17320 bound_to 7965
  145.9523  139.2742  143.1205 LP  0  0  0  0  0  0  0  0  0  0  0  0  # atno 17321 bound_to 7965
  140.6471  143.2216  151.6161 LP  0  0  0  0  0  0  0  0  0  0  0  0  # atno 17342 bound_to 10162
  139.5265  144.3042  152.1047 LP  0  0  0  0  0  0  0  0  0  0  0  0  # atno 17343 bound_to 10162
  156.7734  130.9194  151.3645 LP  0  0  0  0  0  0  0  0  0  0  0  0  # atno 17370 bound_to 10713
  157.6686  130.9030  149.9988 LP  0  0  0  0  0  0  0  0  0  0  0  0  # atno 17371 bound_to 10713
  139.8845  134.8963  156.2698 LP  0  0  0  0  0  0  0  0  0  0  0  0  # atno 17394 bound_to 11000
  140.9993  133.7161  156.0935 LP  0  0  0  0  0  0  0  0  0  0  0  0  # atno 17395 bound_to 11000

$$$$
