#       Name:                AV-unprocessed.smi:2355
#       Creating user name   scv26
#       Creation time:       Fri Mar 27 13:01:54 2020


#       File generated by GOLD software.
#

@<TRIPOS>MOLECULE
AV-unprocessed.smi:2355
    54    55     1
SMALL
NO_CHARGES


@<TRIPOS>ATOM
      1 ****        -6.8063   1.0967   1.2485 C.3            1 S1                 0.0000
      2 ****        -5.4117   1.5348   0.8541 C.ar           1 S1                 0.0000
      3 ****        -5.1970   2.7750   0.2232 C.ar           1 S1                 0.0000
      4 ****        -3.8772   3.1253  -0.1221 C.ar           1 S1                 0.0000
      5 ****        -3.5726   4.4439  -0.8017 C.3            1 S1                 0.0000
      6 ****        -2.8159   2.3273   0.1212 N.ar           1 S1                 0.0000
      7 ****        -3.0104   1.1298   0.7272 C.ar           1 S1                 0.0000
      8 ****        -1.9613   0.2210   1.0291 N.am           1 S1                 0.0000
      9 ****        -0.6512   0.3460   0.7530 C.2            1 S1                 0.0000
     10 ****        -0.1353   1.2944   0.1602 O.2            1 S1                 0.0000
     11 ****         0.0438  -0.7106   1.2012 N.am           1 S1                 0.0000
     12 ****         1.4861  -0.8985   1.0460 C.3            1 S1                 0.0000
     13 ****         1.9894  -1.8526   2.1434 C.3            1 S1                 0.0000
     14 ****         1.8561  -1.3633  -0.4007 C.3            1 S1                 0.0000
     15 ****         1.1352  -2.6974  -0.7268 C.3            1 S1                 0.0000
     16 ****         3.3131  -1.4134  -0.6686 N.3            1 S1                 0.0000
     17 ****         3.6144  -1.8271  -2.0439 C.3            1 S1                 0.0000
     18 ****         5.1230  -1.8593  -2.3417 C.3            1 S1                 0.0000
     19 ****         5.6872  -0.5809  -2.0855 O.3            1 S1                 0.0000
     20 ****         5.4870  -0.1700  -0.7403 C.3            1 S1                 0.0000
     21 ****         3.9814  -0.1294  -0.4261 C.3            1 S1                 0.0000
     22 ****        -4.3024   0.7030   1.1083 C.ar           1 S1                 0.0000
     23 ****        -7.4954   1.9416   1.2590 H              1 S1                 0.0000
     24 ****        -6.8008   0.6514   2.2438 H              1 S1                 0.0000
     25 ****        -7.1815   0.3562   0.5420 H              1 S1                 0.0000
     26 ****        -6.0217   3.4394   0.0094 H              1 S1                 0.0000
     27 ****        -4.4547   5.0838  -0.8368 H              1 S1                 0.0000
     28 ****        -3.2336   4.2724  -1.8237 H              1 S1                 0.0000
     29 ****        -2.7882   4.9774  -0.2641 H              1 S1                 0.0000
     30 ****        -2.2412  -0.6211   1.5095 H              1 S1                 0.0000
     31 ****        -0.4599  -1.4449   1.6768 H              1 S1                 0.0000
     32 ****         1.9245   0.0779   1.2474 H              1 S1                 0.0000
     33 ****         3.0693  -1.9893   2.0835 H              1 S1                 0.0000
     34 ****         1.5246  -2.8360   2.0717 H              1 S1                 0.0000
     35 ****         1.7674  -1.4572   3.1349 H              1 S1                 0.0000
     36 ****         1.4334  -0.6197  -1.0783 H              1 S1                 0.0000
     37 ****         0.0879  -2.6920  -0.4273 H              1 S1                 0.0000
     38 ****         1.6137  -3.5415  -0.2293 H              1 S1                 0.0000
     39 ****         1.1280  -2.9029  -1.7967 H              1 S1                 0.0000
     40 ****         3.2279  -2.8264  -2.2374 H              1 S1                 0.0000
     41 ****         3.1217  -1.1551  -2.7483 H              1 S1                 0.0000
     42 ****         5.6216  -2.6158  -1.7336 H              1 S1                 0.0000
     43 ****         5.2972  -2.1218  -3.3853 H              1 S1                 0.0000
     44 ****         6.0041  -0.8507  -0.0621 H              1 S1                 0.0000
     45 ****         5.9287   0.8167  -0.6011 H              1 S1                 0.0000
     46 ****         3.5077   0.6532  -1.0209 H              1 S1                 0.0000
     47 ****         3.8880   0.1636   0.6175 H              1 S1                 0.0000
     48 ****        -4.4444  -0.2540   1.5896 H              1 S1                 0.0000
     49 ****        -1.8957   2.6163  -0.1427 LP             1 S1                 0.0000
     50 ****        -0.7030   2.0536  -0.1580 LP             1 S1                 0.0000
     51 ****         0.8513   1.3052  -0.0028 LP             1 S1                 0.0000
     52 ****         3.6634  -2.0947  -0.0258 LP             1 S1                 0.0000
     53 ****         5.2606   0.0880  -2.6942 LP             1 S1                 0.0000
     54 ****         6.6696  -0.6191  -2.2684 LP             1 S1                 0.0000
@<TRIPOS>BOND
    1    1    2 1     
    2    1   23 1     
    3    1   24 1     
    4    1   25 1     
    5    2   22 ar    
    6    2    3 ar    
    7    3    4 ar    
    8    3   26 1     
    9    4    5 1     
   10    4    6 ar    
   11    5   27 1     
   12    5   28 1     
   13    5   29 1     
   14    6    7 ar    
   15    7    8 1     
   16    7   22 ar    
   17    8    9 am    
   18    8   30 1     
   19    9   10 2     
   20    9   11 am    
   21   11   12 1     
   22   11   31 1     
   23   12   13 1     
   24   12   14 1     
   25   12   32 1     
   26   13   33 1     
   27   13   34 1     
   28   13   35 1     
   29   14   15 1     
   30   14   16 1     
   31   14   36 1     
   32   15   37 1     
   33   15   38 1     
   34   15   39 1     
   35   16   21 1     
   36   16   17 1     
   37   17   18 1     
   38   17   40 1     
   39   17   41 1     
   40   18   19 1     
   41   18   42 1     
   42   18   43 1     
   43   19   20 1     
   44   20   21 1     
   45   20   44 1     
   46   20   45 1     
   47   21   46 1     
   48   21   47 1     
   49   22   48 1     
   50    6   49 1     
   51   10   50 1     
   52   10   51 1     
   53   16   52 1     
   54   19   53 1     
   55   19   54 1     
@<TRIPOS>SUBSTRUCTURE
      1 S1             1
@<TRIPOS>SET
LONE_PAIRS      STATIC     ATOMS    <user>   **** ""
6 49 50 51 52 53 54
DONOR_HYDROGENS      STATIC     ATOMS    <user>   **** ""
2 30 31
ATOM$BLUE        STATIC     ATOMS    COLORGROUP SYSTEM
6 49 50 51 52 53 54
ATOM$RED        STATIC     ATOMS    COLORGROUP SYSTEM
2 30 31
