AV-unprocessed.smi:2787|AV-procd|sdf|10757|dock4
  -GOLD-   2272015193D 1   1.00000     0.00000
 Structure written by MMmdl.
 35 36  0  0  0  0  0  0  0  0  1 V2000
  151.7690  136.6658  154.0816 O   0  0  0  0  0  0  0  0  0  0  0  0
  150.7838  136.6700  155.0935 C   0  0  0  0  0  0  0  0  0  0  0  0
  151.1205  137.7128  156.1694 C   0  0  0  0  0  0  0  0  0  0  0  0
  151.7063  139.0131  155.5917 C   0  0  0  0  0  0  0  0  0  0  0  0
  151.8397  140.1001  156.6204 C   0  0  0  0  0  0  0  0  0  0  0  0
  152.6629  139.9546  157.6603 N   0  0  0  0  0  0  0  0  0  0  0  0
  152.5075  141.1412  158.3474 C   0  0  0  0  0  0  0  0  0  0  0  0
  153.1177  141.6014  159.5364 C   0  0  0  0  0  0  0  0  0  0  0  0
  152.7953  142.8714  160.0584 C   0  0  0  0  0  0  0  0  0  0  0  0
  151.8602  143.6965  159.4008 C   0  0  0  0  0  0  0  0  0  0  0  0
  151.2413  143.2563  158.2150 C   0  0  0  0  0  0  0  0  0  0  0  0
  151.5672  141.9879  157.6975 C   0  0  0  0  0  0  0  0  0  0  0  0
  151.1485  141.2722  156.5791 N   0  0  0  0  0  0  0  0  0  0  0  0
  150.1629  141.7423  155.6108 C   0  0  0  0  0  0  0  0  0  0  0  0
  148.7227  141.3319  155.9787 C   0  0  1  0  0  0  0  0  0  0  0  0
  148.1225  142.3423  156.7640 O   0  0  0  0  0  0  0  0  0  0  0  0
  147.8427  141.0608  154.7433 C   0  0  0  0  0  0  0  0  0  0  0  0
  147.6928  142.1783  154.0319 F   0  0  0  0  0  0  0  0  0  0  0  0
  148.3757  140.1100  153.9753 F   0  0  0  0  0  0  0  0  0  0  0  0
  146.6341  140.6608  155.1390 F   0  0  0  0  0  0  0  0  0  0  0  0
  151.3435  136.5408  153.2470 H   0  0  0  0  0  0  0  0  0  0  0  0
  149.8068  136.8677  154.6511 H   0  0  0  0  0  0  0  0  0  0  0  0
  150.7416  135.6750  155.5374 H   0  0  0  0  0  0  0  0  0  0  0  0
  150.2095  137.9501  156.7202 H   0  0  0  0  0  0  0  0  0  0  0  0
  151.8057  137.2778  156.8968 H   0  0  0  0  0  0  0  0  0  0  0  0
  152.6620  138.8039  155.1186 H   0  0  0  0  0  0  0  0  0  0  0  0
  151.0585  139.3805  154.7948 H   0  0  0  0  0  0  0  0  0  0  0  0
  153.8348  140.9762  160.0473 H   0  0  0  0  0  0  0  0  0  0  0  0
  153.2673  143.2140  160.9676 H   0  0  0  0  0  0  0  0  0  0  0  0
  151.6181  144.6675  159.8075 H   0  0  0  0  0  0  0  0  0  0  0  0
  150.5250  143.8867  157.7097 H   0  0  0  0  0  0  0  0  0  0  0  0
  150.2436  142.8188  155.4762 H   0  0  0  0  0  0  0  0  0  0  0  0
  150.4240  141.3158  154.6418 H   0  0  0  0  0  0  0  0  0  0  0  0
  148.7575  140.4265  156.5859 H   0  0  0  0  0  0  0  0  0  0  0  0
  148.1186  143.1454  156.2662 H   0  0  0  0  0  0  0  0  0  0  0  0
  1  2  1  0  0  0  0
  1 21  1  0  0  0  0
  2  3  1  0  0  0  0
  2 22  1  0  0  0  0
  2 23  1  0  0  0  0
  3  4  1  0  0  0  0
  3 24  1  0  0  0  0
  3 25  1  0  0  0  0
  4  5  1  0  0  0  0
  4 26  1  0  0  0  0
  4 27  1  0  0  0  0
  5 13  1  0  0  0  0
  5  6  2  0  0  0  0
  6  7  1  0  0  0  0
  7 12  2  0  0  0  0
  7  8  1  0  0  0  0
  8  9  2  0  0  0  0
  8 28  1  0  0  0  0
  9 10  1  0  0  0  0
  9 29  1  0  0  0  0
 10 11  2  0  0  0  0
 10 30  1  0  0  0  0
 11 12  1  0  0  0  0
 11 31  1  0  0  0  0
 12 13  1  0  0  0  0
 13 14  1  0  0  0  0
 14 15  1  0  0  0  0
 14 32  1  0  0  0  0
 14 33  1  0  0  0  0
 15 16  1  0  0  0  0
 15 17  1  0  0  0  0
 15 34  1  0  0  0  0
 16 35  1  0  0  0  0
 17 18  1  0  0  0  0
 17 19  1  0  0  0  0
 17 20  1  0  0  0  0
M  END
> <s_m_source_file>
AV-unprocessed.smi

> <i_m_source_file_index>
2787

> <i_lp_mmshare_version>
43012

> <i_f3d_flags>
0

> <s_epik_input>
W09IXVtDSDJdW0NIMl1bQ0gyXWMobjEpbihbQ0gyXVtDQEhdKFtPSF0pQyhGKShGKUYpYyhjMTIpW2NIXVtjSF1bY0hdW2NIXTI=

> <s_epik_cmdline>
J2VwaWtfcHl0aG9uJywgJy1waCcsICc3LjAnLCAnLXRuJywgJzgnLCAnLW1hJywgJzIwMCcsICctbWV0YWxfYmluZGluZycsICctaW1hZScsICc8aW5maWxlLm1hZT4nLCAnLW9tYWUnLCAnPG91dGZpbGUubWFlPic=

> <r_epik_Ionization_Penalty>
0.137914

> <r_epik_Ionization_Penalty_Charging>
0

> <r_epik_Ionization_Penalty_Neutral>
0.137914

> <r_epik_State_Penalty>
0.107668

> <r_epik_Charging_Adjusted_Penalty>
0.107668

> <i_epik_Tot_Q>
0

> <i_epik_Tot_abs_Q>
0

> <r_epik_Metal_State_Penalty>
0.000111872

> <b_epik_Metal_Only>
0

> <s_lp_Force_Field>
OPLS_2005

> <r_lp_Energy>
11.7706

> <b_lp_Chiralities_Consistent>
1

> <s_lp_Variant>
AV-unprocessed.smi:2787-2

> <Gold.Version>
5.8.1

> <Gold.Id.Protein>
6NUR|6NUR_protein|mol2

> <Gold.PLP.Fitness>
50.7180

> <Gold.PLP.PLP>
-40.4865

> <Gold.PLP.part.hbond>
-4.0000

> <Gold.PLP.part.metal>
0.0000

> <Gold.PLP.part.buried>
-4.7124

> <Gold.PLP.part.nonpolar>
-32.2150

> <Gold.PLP.part.repulsive>
0.0000

> <Gold.PLP.ligand.clash>
0.0000

> <Gold.PLP.ligand.torsion>
0.9402

> <Gold.PLP.Chemscore.Hbond>
4.0000

> <Gold.PLP.Chemscore.CHOScore>
0.0000

> <Gold.PLP.Chemscore.Metal>
0.0000

> <Gold.Chemscore.Hbonds>
donor molecule, donor type, donor heavy atom, donor atom, acceptor molecule, acceptor atom, score
      L1  H     1    21       P1  7949  1.00
      L1  H    16    35       P1  8028  1.00
      P1  H  7997  8010       L1     6  1.00
      P1  H 10752 10765       L1     1  1.00

> <Gold.PLP.Chemscore.Internal.Correction>
0.1119

> <Gold.Rescore>
     Score         DG    S(hbond)    S(metal)    S(lipo)     H(rot)  DE(clash)    DE(int)     intcor
     14.80     -16.13       2.46        0.00      96.11       3.44       0.41       0.91       ----

> <Gold.Chemscore.Fitness>
14.8041

> <Gold.Chemscore.DG>
-16.1277

> <Gold.Chemscore.ZeroCoef>
-5.4800

> <Gold.Chemscore.Hbond>
2.4555

> <Gold.Chemscore.Metal>
0.0000

> <Gold.Chemscore.Lipo>
96.1089

> <Gold.Chemscore.Internal_Hbond>
0.0000

> <Gold.Chemscore.DEClash>
0.4089

> <Gold.Chemscore.DEInternal>
0.9147

> <Gold.Chemscore.Rot>
3.4369

> <Gold.Chemscore.Internal.Correction>
   9.000000E+99

> <Gold.Chemscore.Hbonds>
donor molecule, donor type, donor heavy atom, donor atom, acceptor molecule, acceptor atom, score
      L1  H     1    21       P1  7949  0.74
      L1  H    16    35       P1  8028  0.49
      P1  H  7997  8010       L1     6  0.22
      P1  H 10752 10765       L1     1  0.38

> <Gold.Chemscore.Hbond.Weighted>
-8.2013

> <Gold.Chemscore.Metal.Weighted>
-0.0000

> <Gold.Chemscore.Lipo.Weighted>
-11.2447

> <Gold.Chemscore.Internal_Hbond.Weighted>
0.0000

> <Gold.Chemscore.DEClash.Weighted>
0.4089

> <Gold.Chemscore.DEInternal.Weighted>
0.9147

> <Gold.Chemscore.Rot.Weighted>
8.7984

> <Gold.Chemscore.Internal.Correction.Weighted>
   9.000000E+99

> <Gold.Protein.RotatedTorsions>
[ 6907 6896 6895 6894 ] final  146.77 input  -60.11 | X-H torsion
[ 7974 7965 7964 7962 ] final  -73.91 input  175.53 | X-H torsion
[ 8008 7997 7996 7995 ] final   46.73 input   59.86 | X-H torsion
[ 10167 10162 10161 10158 ] final   65.99 input  -65.29 | X-H torsion
[ 10718 10713 10712 10709 ] final   74.01 input   66.30 | X-H torsion
[ 10763 10752 10751 10750 ] final  140.82 input  -60.55 | X-H torsion
[ 11005 11000 10999 10996 ] final  -63.82 input  -57.11 | X-H torsion

> <Gold.Protein.ActiveResidues>
 VAL166  LYS551  ARG553  GLY616  TRP617  ASP618  TYR619  PRO620  LYS621  CYS622 
 ASP623  PHE694  ASN695  SER759  ASP760  ASP761  ALA762  ILE779  LEU786  VAL792 
 PHE793  MET794  SER795  GLU796  ALA797  LYS798  CYS799  TRP800  GLU811  SER814 

> <Gold.Protein.RotatedAtoms>
  152.1636  133.4597  159.4873 H   0  0  0  0  0  0  0  0  0  0  0  0  # atno 6907 bound_to 6896
  150.6910  134.2041  159.4342 H   0  0  0  0  0  0  0  0  0  0  0  0  # atno 6908 bound_to 6896
  151.9944  134.9961  160.0613 H   0  0  0  0  0  0  0  0  0  0  0  0  # atno 6909 bound_to 6896
  145.6459  140.9297  143.1010 H   0  0  0  0  0  0  0  0  0  0  0  0  # atno 7974 bound_to 7965
  155.3572  140.3417  155.4240 H   0  0  0  0  0  0  0  0  0  0  0  0  # atno 8008 bound_to 7997
  156.1732  140.1639  156.8444 H   0  0  0  0  0  0  0  0  0  0  0  0  # atno 8009 bound_to 7997
  154.5255  140.0757  156.8233 H   0  0  0  0  0  0  0  0  0  0  0  0  # atno 8010 bound_to 7997
  140.1053  144.4867  150.7012 H   0  0  0  0  0  0  0  0  0  0  0  0  # atno 10167 bound_to 10162
  157.6573  130.9657  150.1150 H   0  0  0  0  0  0  0  0  0  0  0  0  # atno 10718 bound_to 10713
  153.9291  135.2992  155.3446 H   0  0  0  0  0  0  0  0  0  0  0  0  # atno 10763 bound_to 10752
  154.7536  135.4968  153.9337 H   0  0  0  0  0  0  0  0  0  0  0  0  # atno 10764 bound_to 10752
  153.1101  135.6757  153.9620 H   0  0  0  0  0  0  0  0  0  0  0  0  # atno 10765 bound_to 10752
  141.1405  133.6657  156.5739 H   0  0  0  0  0  0  0  0  0  0  0  0  # atno 11005 bound_to 11000
  144.7140  139.8265  143.7405 LP  0  0  0  0  0  0  0  0  0  0  0  0  # atno 17320 bound_to 7965
  146.1243  139.4266  143.0209 LP  0  0  0  0  0  0  0  0  0  0  0  0  # atno 17321 bound_to 7965
  140.6955  143.2401  151.5011 LP  0  0  0  0  0  0  0  0  0  0  0  0  # atno 17342 bound_to 10162
  139.5649  144.2067  152.1749 LP  0  0  0  0  0  0  0  0  0  0  0  0  # atno 17343 bound_to 10162
  156.2037  130.3662  149.8756 LP  0  0  0  0  0  0  0  0  0  0  0  0  # atno 17370 bound_to 10713
  156.6654  130.8799  151.3554 LP  0  0  0  0  0  0  0  0  0  0  0  0  # atno 17371 bound_to 10713
  140.3891  134.7456  157.4710 LP  0  0  0  0  0  0  0  0  0  0  0  0  # atno 17394 bound_to 11000
  140.0580  134.6036  155.8782 LP  0  0  0  0  0  0  0  0  0  0  0  0  # atno 17395 bound_to 11000

$$$$
