#       Name:                AV-unprocessed.smi:2670
#       Creating user name   scv26
#       Creation time:       Fri Mar 27 14:37:01 2020


#       File generated by GOLD software.
#

@<TRIPOS>MOLECULE
AV-unprocessed.smi:2670
    47    48     1
SMALL
NO_CHARGES


@<TRIPOS>ATOM
      1 ****        -5.6831  -0.1208   1.8281 C.3            1 S1                 0.0000
      2 ****        -4.3240  -0.5975   1.4087 C.2            1 S1                 0.0000
      3 ****        -3.9979  -1.6555   0.5152 C.2            1 S1                 0.0000
      4 ****        -2.6317  -1.6675   0.4892 C.2            1 S1                 0.0000
      5 ****        -1.6967  -2.5539  -0.2682 C.3            1 S1                 0.0000
      6 ****        -2.2051  -0.6529   1.3309 N.pl3          1 S1                 0.0000
      7 ****        -0.8502  -0.2430   1.6720 C.3            1 S1                 0.0000
      8 ****        -0.1491   0.4267   0.4881 C.2            1 S1                 0.0000
      9 ****        -0.5838   1.4916   0.0530 O.2            1 S1                 0.0000
     10 ****         0.9068  -0.2442  -0.0083 N.am           1 S1                 0.0000
     11 ****         1.8320   0.0329  -1.1203 C.3            1 S1                 0.0000
     12 ****         1.5172  -1.0531  -2.1796 C.2            1 S1                 0.0000
     13 ****         0.7868  -0.7393  -3.1461 O.co2          1 S1                 0.0000
     14 ****         1.9699  -2.2045  -1.9871 O.co2          1 S1                -1.0000
     15 ****         1.7347   1.4541  -1.7676 C.3            1 S1                 0.0000
     16 ****         2.2914   2.5903  -0.8858 C.3            1 S1                 0.0000
     17 ****         3.7238   2.2978  -0.4279 C.3            1 S1                 0.0000
     18 ****         3.7894   0.9507   0.2991 C.3            1 S1                 0.0000
     19 ****         3.2819  -0.1896  -0.5994 C.3            1 S1                 0.0000
     20 ****        -3.2472  -0.0052   1.8971 N.2            1 S1                 0.0000
     21 ****        -6.4694  -0.6396   1.2795 H              1 S1                 0.0000
     22 ****        -5.7999   0.9474   1.6434 H              1 S1                 0.0000
     23 ****        -5.8492  -0.2970   2.8910 H              1 S1                 0.0000
     24 ****        -4.6667  -2.3084  -0.0257 H              1 S1                 0.0000
     25 ****        -2.2141  -3.4393  -0.6382 H              1 S1                 0.0000
     26 ****        -0.8710  -2.8885   0.3598 H              1 S1                 0.0000
     27 ****        -1.2790  -2.0290  -1.1275 H              1 S1                 0.0000
     28 ****        -0.8778   0.4554   2.5100 H              1 S1                 0.0000
     29 ****        -0.2959  -1.1195   2.0106 H              1 S1                 0.0000
     30 ****         1.1039  -1.1174   0.4582 H              1 S1                 0.0000
     31 ****         2.3129   1.4562  -2.6933 H              1 S1                 0.0000
     32 ****         0.7157   1.6869  -2.0768 H              1 S1                 0.0000
     33 ****         2.2659   3.5290  -1.4394 H              1 S1                 0.0000
     34 ****         1.6616   2.7400  -0.0101 H              1 S1                 0.0000
     35 ****         4.3921   2.2856  -1.2898 H              1 S1                 0.0000
     36 ****         4.0753   3.0945   0.2283 H              1 S1                 0.0000
     37 ****         4.8151   0.7478   0.6081 H              1 S1                 0.0000
     38 ****         3.1953   0.9953   1.2127 H              1 S1                 0.0000
     39 ****         3.3545  -1.1283  -0.0471 H              1 S1                 0.0000
     40 ****         3.9657  -0.2872  -1.4448 H              1 S1                 0.0000
     41 ****        -1.3884   1.9119   0.4725 LP             1 S1                 0.0000
     42 ****        -0.1327   1.9371  -0.7203 LP             1 S1                 0.0000
     43 ****         0.5311  -1.4286  -3.8240 LP             1 S1                 0.0000
     44 ****         0.4589   0.2007  -3.2405 LP             1 S1                 0.0000
     45 ****         1.7522  -2.9409  -2.6277 LP             1 S1                 0.0000
     46 ****         2.5491  -2.3877  -1.1928 LP             1 S1                 0.0000
     47 ****        -3.2118   0.7562   2.5444 LP             1 S1                 0.0000
@<TRIPOS>BOND
    1    1    2 1     
    2    1   21 1     
    3    1   22 1     
    4    1   23 1     
    5    2   20 2     
    6    2    3 1     
    7    3    4 2     
    8    3   24 1     
    9    4    5 1     
   10    4    6 1     
   11    5   25 1     
   12    5   26 1     
   13    5   27 1     
   14    6    7 1     
   15    6   20 1     
   16    7    8 1     
   17    7   28 1     
   18    7   29 1     
   19    8    9 2     
   20    8   10 am    
   21   10   11 1     
   22   10   30 1     
   23   11   19 1     
   24   11   12 1     
   25   11   15 1     
   26   12   13 ar    
   27   12   14 ar    
   28   15   16 1     
   29   15   31 1     
   30   15   32 1     
   31   16   17 1     
   32   16   33 1     
   33   16   34 1     
   34   17   18 1     
   35   17   35 1     
   36   17   36 1     
   37   18   19 1     
   38   18   37 1     
   39   18   38 1     
   40   19   39 1     
   41   19   40 1     
   42    9   41 1     
   43    9   42 1     
   44   13   43 1     
   45   13   44 1     
   46   14   45 1     
   47   14   46 1     
   48   20   47 1     
@<TRIPOS>SUBSTRUCTURE
      1 S1             1
@<TRIPOS>SET
LONE_PAIRS      STATIC     ATOMS    <user>   **** ""
7 41 42 43 44 45 46 47
DONOR_HYDROGENS      STATIC     ATOMS    <user>   **** ""
1 30
ATOM$BLUE        STATIC     ATOMS    COLORGROUP SYSTEM
7 41 42 43 44 45 46 47
ATOM$RED        STATIC     ATOMS    COLORGROUP SYSTEM
1 30
