AV-unprocessed.smi:2867|AV-procd|sdf|11026|dock2
  -GOLD-   2272015483D 1   1.00000     0.00000
 Structure written by MMmdl.
 40 42  0  0  0  0  0  0  0  0  3 V2000
  148.0036  133.5817  159.2344 C   0  0  0  0  0  0  0  0  0  0  0  0
  149.0949  133.5788  158.3320 O   0  0  0  0  0  0  0  0  0  0  0  0
  149.1949  132.3688  157.5977 C   0  0  0  0  0  0  0  0  0  0  0  0
  150.2602  132.5228  156.5037 C   0  0  0  0  0  0  0  0  0  0  0  0
  149.9808  133.6652  155.6189 N   0  0  0  0  0  0  0  0  0  0  0  0
  149.2211  133.7670  154.4912 C   0  0  0  0  0  0  0  0  0  0  0  0
  148.4406  132.6947  153.8560 C   0  0  0  0  0  0  0  0  0  0  0  0
  148.6123  131.3541  154.2650 C   0  0  0  0  0  0  0  0  0  0  0  0
  147.8681  130.3183  153.6678 C   0  0  0  0  0  0  0  0  0  0  0  0
  146.9451  130.6135  152.6476 C   0  0  0  0  0  0  0  0  0  0  0  0
  146.7701  131.9447  152.2264 C   0  0  0  0  0  0  0  0  0  0  0  0
  145.8850  132.2335  151.2433 F   0  0  0  0  0  0  0  0  0  0  0  0
  147.5163  132.9770  152.8266 C   0  0  0  0  0  0  0  0  0  0  0  0
  149.3300  135.0324  154.0061 N   0  3  0  0  0  0  0  0  0  0  0  0
  150.1732  135.7660  154.8423 C   0  0  0  0  0  0  0  0  0  0  0  0
  150.5905  137.0902  154.7707 C   0  0  0  0  0  0  0  0  0  0  0  0
  151.4703  137.5261  155.7834 C   0  0  0  0  0  0  0  0  0  0  0  0
  152.0535  139.2181  155.7505 S   0  0  0  0  0  0  0  0  0  0  0  0
  153.5707  138.8954  155.3102 N   0  5  0  0  0  0  0  0  0  0  0  0
  151.2859  139.9063  154.7013 O   0  0  0  0  0  0  0  0  0  0  0  0
  151.9531  139.7195  157.1299 O   0  0  0  0  0  0  0  0  0  0  0  0
  151.9042  136.6648  156.8137 C   0  0  0  0  0  0  0  0  0  0  0  0
  151.4717  135.3237  156.8746 C   0  0  0  0  0  0  0  0  0  0  0  0
  150.5987  134.8966  155.8735 C   0  0  0  0  0  0  0  0  0  0  0  0
  147.9757  134.5306  159.7699 H   0  0  0  0  0  0  0  0  0  0  0  0
  148.0975  132.7820  159.9703 H   0  0  0  0  0  0  0  0  0  0  0  0
  147.0562  133.4641  158.7067 H   0  0  0  0  0  0  0  0  0  0  0  0
  149.4648  131.5481  158.2639 H   0  0  0  0  0  0  0  0  0  0  0  0
  148.2312  132.1228  157.1483 H   0  0  0  0  0  0  0  0  0  0  0  0
  151.2383  132.6726  156.9575 H   0  0  0  0  0  0  0  0  0  0  0  0
  150.3412  131.6155  155.9049 H   0  0  0  0  0  0  0  0  0  0  0  0
  149.3150  131.1168  155.0507 H   0  0  0  0  0  0  0  0  0  0  0  0
  148.0050  129.2975  153.9931 H   0  0  0  0  0  0  0  0  0  0  0  0
  146.3736  129.8205  152.1879 H   0  0  0  0  0  0  0  0  0  0  0  0
  147.3785  133.9938  152.4891 H   0  0  0  0  0  0  0  0  0  0  0  0
  150.2635  137.7560  153.9858 H   0  0  0  0  0  0  0  0  0  0  0  0
  153.5410  138.1373  154.6182 H   0  0  0  0  0  0  0  0  0  0  0  0
  152.5769  137.0368  157.5726 H   0  0  0  0  0  0  0  0  0  0  0  0
  151.8103  134.6714  157.6655 H   0  0  0  0  0  0  0  0  0  0  0  0
  148.8667  135.3652  153.1704 H   0  0  0  0  0  0  0  0  0  0  0  0
  1  2  1  0  0  0  0
  1 25  1  0  0  0  0
  1 26  1  0  0  0  0
  1 27  1  0  0  0  0
  2  3  1  0  0  0  0
  3  4  1  0  0  0  0
  3 28  1  0  0  0  0
  3 29  1  0  0  0  0
  4  5  1  0  0  0  0
  4 30  1  0  0  0  0
  4 31  1  0  0  0  0
  5 24  1  0  0  0  0
  5  6  1  0  0  0  0
  6  7  1  0  0  0  0
  6 14  2  0  0  0  0
  7 13  1  0  0  0  0
  7  8  2  0  0  0  0
  8  9  1  0  0  0  0
  8 32  1  0  0  0  0
  9 10  2  0  0  0  0
  9 33  1  0  0  0  0
 10 11  1  0  0  0  0
 10 34  1  0  0  0  0
 11 12  1  0  0  0  0
 11 13  2  0  0  0  0
 13 35  1  0  0  0  0
 14 15  1  0  0  0  0
 14 40  1  0  0  0  0
 15 24  2  0  0  0  0
 15 16  1  0  0  0  0
 16 17  2  0  0  0  0
 16 36  1  0  0  0  0
 17 18  1  0  0  0  0
 17 22  1  0  0  0  0
 18 19  1  0  0  0  0
 18 20  2  0  0  0  0
 18 21  2  0  0  0  0
 19 37  1  0  0  0  0
 22 23  2  0  0  0  0
 22 38  1  0  0  0  0
 23 24  1  0  0  0  0
 23 39  1  0  0  0  0
M  CHG  1  14   1
M  CHG  1  19  -1
M  END
> <s_m_source_file>
AV-unprocessed.smi

> <i_m_source_file_index>
2867

> <i_lp_mmshare_version>
43012

> <i_f3d_flags>
0

> <s_epik_input>
W05IMl1TKD1PKSg9TyljKFtjSF0xKVtjSF1bY0hdYyhjMTIpbihbQ0gyXVtDSDJdT1tDSDNdKWMobjIpLWMzW2NIXVtjSF1bY0hdYyhGKVtjSF0z

> <s_epik_cmdline>
J2VwaWtfcHl0aG9uJywgJy1waCcsICc3LjAnLCAnLXRuJywgJzgnLCAnLW1hJywgJzIwMCcsICctbWV0YWxfYmluZGluZycsICctaW1hZScsICc8aW5maWxlLm1hZT4nLCAnLW9tYWUnLCAnPG91dGZpbGUubWFlPic=

> <r_epik_Ionization_Penalty>
2.60795

> <r_epik_Ionization_Penalty_Charging>
2.60795

> <r_epik_Ionization_Penalty_Neutral>
2.51e-12

> <r_epik_State_Penalty>
3.58678

> <r_epik_Charging_Adjusted_Penalty>
6.19473

> <i_epik_Tot_Q>
0

> <i_epik_Tot_abs_Q>
2

> <r_epik_Metal_State_Penalty>
1.73828

> <b_epik_Metal_Only>
1

> <s_lp_Force_Field>
OPLS_2005

> <r_lp_Energy>
13.6429

> <b_lp_Chiralities_Consistent>
1

> <s_lp_Variant>
AV-unprocessed.smi:2867-4

> <Gold.Version>
5.8.1

> <Gold.Id.Protein>
6NUR|6NUR_protein|mol2

> <Gold.PLP.Fitness>
51.8705

> <Gold.PLP.PLP>
-35.8013

> <Gold.PLP.part.hbond>
-4.0608

> <Gold.PLP.part.metal>
0.0000

> <Gold.PLP.part.buried>
-1.5139

> <Gold.PLP.part.nonpolar>
-30.9374

> <Gold.PLP.part.repulsive>
0.0928

> <Gold.PLP.ligand.clash>
0.0000

> <Gold.PLP.ligand.torsion>
1.5058

> <Gold.PLP.Chemscore.Hbond>
5.6480

> <Gold.PLP.Chemscore.CHOScore>
0.0000

> <Gold.PLP.Chemscore.Metal>
0.0000

> <Gold.Chemscore.Hbonds>
donor molecule, donor type, donor heavy atom, donor atom, acceptor molecule, acceptor atom, score
      L1  H    14    40       P1  7948  1.86
      P1  H  6896  6907       L1     2  0.96
      P1  H  7989  7998       L1    20  1.00
      P1  H  7997  8009       L1    19  1.89

> <Gold.PLP.Chemscore.Internal.Correction>
2.1367

> <Gold.Rescore>
     Score         DG    S(hbond)    S(metal)    S(lipo)     H(rot)  DE(clash)    DE(int)     intcor
     19.26     -21.92       3.52        0.00      71.91       1.45       0.05       2.61       ----

> <Gold.Chemscore.Fitness>
19.2643

> <Gold.Chemscore.DG>
-21.9228

> <Gold.Chemscore.ZeroCoef>
-5.4800

> <Gold.Chemscore.Hbond>
3.5175

> <Gold.Chemscore.Metal>
0.0000

> <Gold.Chemscore.Lipo>
71.9149

> <Gold.Chemscore.Internal_Hbond>
0.0000

> <Gold.Chemscore.DEClash>
0.0460

> <Gold.Chemscore.DEInternal>
2.6125

> <Gold.Chemscore.Rot>
1.4530

> <Gold.Chemscore.Internal.Correction>
   9.000000E+99

> <Gold.Chemscore.Hbonds>
donor molecule, donor type, donor heavy atom, donor atom, acceptor molecule, acceptor atom, score
      L1  H    14    40       P1  7948  0.56
      P1  H  6896  6907       L1     2  0.26
      P1  H  7989  7998       L1    20  0.97
      P1  H  7997  8009       L1    19  0.32

> <Gold.Chemscore.Hbond.Weighted>
-11.7484

> <Gold.Chemscore.Metal.Weighted>
-0.0000

> <Gold.Chemscore.Lipo.Weighted>
-8.4140

> <Gold.Chemscore.Internal_Hbond.Weighted>
0.0000

> <Gold.Chemscore.DEClash.Weighted>
0.0460

> <Gold.Chemscore.DEInternal.Weighted>
2.6125

> <Gold.Chemscore.Rot.Weighted>
3.7196

> <Gold.Chemscore.Internal.Correction.Weighted>
   9.000000E+99

> <Gold.Protein.RotatedTorsions>
[ 6907 6896 6895 6894 ] final -131.35 input  -60.11 | X-H torsion
[ 7974 7965 7964 7962 ] final -108.89 input  175.53 | X-H torsion
[ 8008 7997 7996 7995 ] final -145.38 input   59.86 | X-H torsion
[ 10167 10162 10161 10158 ] final  -13.34 input  -65.29 | X-H torsion
[ 10718 10713 10712 10709 ] final   27.31 input   66.30 | X-H torsion
[ 10763 10752 10751 10750 ] final  158.66 input  -60.55 | X-H torsion
[ 11005 11000 10999 10996 ] final  -20.69 input  -57.11 | X-H torsion

> <Gold.Protein.ActiveResidues>
 VAL166  LYS551  ARG553  GLY616  TRP617  ASP618  TYR619  PRO620  LYS621  CYS622 
 ASP623  PHE694  ASN695  SER759  ASP760  ASP761  ALA762  ILE779  LEU786  VAL792 
 PHE793  MET794  SER795  GLU796  ALA797  LYS798  CYS799  TRP800  GLU811  SER814 

> <Gold.Protein.RotatedAtoms>
  150.9500  133.6560  159.2773 H   0  0  0  0  0  0  0  0  0  0  0  0  # atno 6907 bound_to 6896
  151.3919  135.0956  159.9538 H   0  0  0  0  0  0  0  0  0  0  0  0  # atno 6908 bound_to 6896
  152.5106  133.9013  159.7497 H   0  0  0  0  0  0  0  0  0  0  0  0  # atno 6909 bound_to 6896
  145.1873  140.8998  143.3445 H   0  0  0  0  0  0  0  0  0  0  0  0  # atno 7974 bound_to 7965
  155.5422  140.0609  157.2867 H   0  0  0  0  0  0  0  0  0  0  0  0  # atno 8008 bound_to 7997
  154.4448  140.1917  156.0647 H   0  0  0  0  0  0  0  0  0  0  0  0  # atno 8009 bound_to 7997
  156.0576  140.3276  155.7428 H   0  0  0  0  0  0  0  0  0  0  0  0  # atno 8010 bound_to 7997
  140.7180  143.5436  150.9380 H   0  0  0  0  0  0  0  0  0  0  0  0  # atno 10167 bound_to 10162
  157.2185  130.6967  149.6259 H   0  0  0  0  0  0  0  0  0  0  0  0  # atno 10718 bound_to 10713
  154.2196  135.2782  155.2929 H   0  0  0  0  0  0  0  0  0  0  0  0  # atno 10763 bound_to 10752
  154.5712  135.5618  153.7100 H   0  0  0  0  0  0  0  0  0  0  0  0  # atno 10764 bound_to 10752
  153.0045  135.6322  154.2336 H   0  0  0  0  0  0  0  0  0  0  0  0  # atno 10765 bound_to 10752
  140.8489  133.7871  155.9943 H   0  0  0  0  0  0  0  0  0  0  0  0  # atno 11005 bound_to 11000
  145.0076  139.3539  143.6136 LP  0  0  0  0  0  0  0  0  0  0  0  0  # atno 17320 bound_to 7965
  146.3442  139.9326  142.8751 LP  0  0  0  0  0  0  0  0  0  0  0  0  # atno 17321 bound_to 7965
  139.9160  143.6663  152.3106 LP  0  0  0  0  0  0  0  0  0  0  0  0  # atno 17342 bound_to 10162
  139.7063  144.7627  151.1187 LP  0  0  0  0  0  0  0  0  0  0  0  0  # atno 17343 bound_to 10162
  155.9684  130.4528  150.5787 LP  0  0  0  0  0  0  0  0  0  0  0  0  # atno 17370 bound_to 10713
  157.3600  131.0748  151.1644 LP  0  0  0  0  0  0  0  0  0  0  0  0  # atno 17371 bound_to 10713
  140.8813  134.2608  157.5143 LP  0  0  0  0  0  0  0  0  0  0  0  0  # atno 17394 bound_to 11000
  139.8704  134.9616  156.4402 LP  0  0  0  0  0  0  0  0  0  0  0  0  # atno 17395 bound_to 11000

$$$$
