AV-unprocessed.smi:79|AV-procd|sdf|780|dock1
  -GOLD-   2262017143D 1   1.00000     0.00000
 Structure written by MMmdl.
 56 59  0  0  0  0  0  0  0  0  2 V2000
  145.6421  132.0448  149.5907 C   0  0  0  0  0  0  0  0  0  0  0  0
  144.8455  133.1633  150.2785 C   0  0  1  0  0  0  0  0  0  0  0  0
  144.0437  133.7962  149.3038 O   0  0  0  0  0  0  0  0  0  0  0  0
  143.9267  132.6473  151.4041 C   0  0  0  0  0  0  0  0  0  0  0  0
  144.0204  133.4592  152.6443 N   0  3  1  0  0  0  0  0  0  0  0  0
  145.4164  133.6417  153.1277 C   0  0  0  0  0  0  0  0  0  0  0  0
  145.4541  134.4433  154.4426 C   0  0  0  0  0  0  0  0  0  0  0  0
  144.7535  135.7147  154.2964 N   0  0  0  0  0  0  0  0  0  0  0  0
  145.5505  136.7013  153.8113 C   0  0  0  0  0  0  0  0  0  0  0  0
  145.3940  137.1601  152.5418 N   0  0  0  0  0  0  0  0  0  0  0  0
  146.1996  138.1147  152.0667 C   0  0  0  0  0  0  0  0  0  0  0  0
  147.2115  138.7325  152.6789 N   0  0  0  0  0  0  0  0  0  0  0  0
  147.3780  138.2694  153.9510 C   0  0  0  0  0  0  0  0  0  0  0  0
  146.6019  137.2607  154.5866 C   0  0  0  0  0  0  0  0  0  0  0  0
  147.0668  137.0441  155.8770 N   0  0  0  0  0  0  0  0  0  0  0  0
  148.0591  137.8834  156.0007 C   0  0  0  0  0  0  0  0  0  0  0  0
  148.3078  138.6680  154.8963 N   0  0  0  0  0  0  0  0  0  0  0  0
  149.3422  139.6816  154.7577 C   0  0  0  0  0  0  0  0  0  0  0  0
  149.3538  140.7549  155.8684 C   0  0  0  0  0  0  0  0  0  0  0  0
  148.0584  141.5872  155.8322 C   0  0  0  0  0  0  0  0  0  0  0  0
  147.9220  142.3109  154.6252 O   0  0  0  0  0  0  0  0  0  0  0  0
  149.8310  140.2997  157.2566 C   0  0  0  0  0  0  0  0  0  0  0  0
  151.1394  140.8769  157.0649 O   0  0  0  0  0  0  0  0  0  0  0  0
  150.6502  141.5785  155.9031 C   0  0  0  0  0  0  0  0  0  0  0  0
  143.3683  135.5634  153.8356 C   0  0  1  0  0  0  0  0  0  0  0  0
  142.5752  136.8835  153.7865 C   0  0  0  0  0  0  0  0  0  0  0  0
  143.2913  134.7496  152.5248 C   0  0  0  0  0  0  0  0  0  0  0  0
  146.3111  131.5465  150.2924 H   0  0  0  0  0  0  0  0  0  0  0  0
  146.2566  132.4417  148.7818 H   0  0  0  0  0  0  0  0  0  0  0  0
  144.9816  131.2882  149.1655 H   0  0  0  0  0  0  0  0  0  0  0  0
  145.5329  133.9181  150.6588 H   0  0  0  0  0  0  0  0  0  0  0  0
  144.5980  134.3182  148.7435 H   0  0  0  0  0  0  0  0  0  0  0  0
  142.8871  132.6228  151.0722 H   0  0  0  0  0  0  0  0  0  0  0  0
  144.1992  131.6136  151.6232 H   0  0  0  0  0  0  0  0  0  0  0  0
  145.8930  132.6763  153.2909 H   0  0  0  0  0  0  0  0  0  0  0  0
  146.0005  134.1545  152.3618 H   0  0  0  0  0  0  0  0  0  0  0  0
  144.9737  133.8738  155.2388 H   0  0  0  0  0  0  0  0  0  0  0  0
  146.4870  134.5968  154.7589 H   0  0  0  0  0  0  0  0  0  0  0  0
  146.0059  138.4279  151.0513 H   0  0  0  0  0  0  0  0  0  0  0  0
  148.6395  137.9510  156.9088 H   0  0  0  0  0  0  0  0  0  0  0  0
  150.3022  139.1650  154.7223 H   0  0  0  0  0  0  0  0  0  0  0  0
  149.2301  140.1524  153.7804 H   0  0  0  0  0  0  0  0  0  0  0  0
  147.1816  140.9449  155.9191 H   0  0  0  0  0  0  0  0  0  0  0  0
  148.0119  142.2818  156.6714 H   0  0  0  0  0  0  0  0  0  0  0  0
  148.4295  143.1053  154.6931 H   0  0  0  0  0  0  0  0  0  0  0  0
  149.3008  140.7716  158.0853 H   0  0  0  0  0  0  0  0  0  0  0  0
  149.8703  139.2193  157.3890 H   0  0  0  0  0  0  0  0  0  0  0  0
  151.2904  141.4381  155.0314 H   0  0  0  0  0  0  0  0  0  0  0  0
  150.5048  142.6407  156.1060 H   0  0  0  0  0  0  0  0  0  0  0  0
  142.8831  134.9607  154.6045 H   0  0  0  0  0  0  0  0  0  0  0  0
  141.5189  136.6894  153.5992 H   0  0  0  0  0  0  0  0  0  0  0  0
  142.9214  137.5522  152.9993 H   0  0  0  0  0  0  0  0  0  0  0  0
  142.6456  137.4176  154.7347 H   0  0  0  0  0  0  0  0  0  0  0  0
  143.6947  135.3170  151.6856 H   0  0  0  0  0  0  0  0  0  0  0  0
  142.2454  134.5494  152.2883 H   0  0  0  0  0  0  0  0  0  0  0  0
  143.5350  132.9392  153.3611 H   0  0  0  0  0  0  0  0  0  0  0  0
  1  2  1  0  0  0  0
  1 28  1  0  0  0  0
  1 29  1  0  0  0  0
  1 30  1  0  0  0  0
  2  3  1  0  0  0  0
  2  4  1  0  0  0  0
  2 31  1  0  0  0  0
  3 32  1  0  0  0  0
  4  5  1  0  0  0  0
  4 33  1  0  0  0  0
  4 34  1  0  0  0  0
  5 27  1  0  0  0  0
  5  6  1  0  0  0  0
  5 56  1  0  0  0  0
  6  7  1  0  0  0  0
  6 35  1  0  0  0  0
  6 36  1  0  0  0  0
  7  8  1  0  0  0  0
  7 37  1  0  0  0  0
  7 38  1  0  0  0  0
  8  9  1  0  0  0  0
  8 25  1  0  0  0  0
  9 14  1  0  0  0  0
  9 10  2  0  0  0  0
 10 11  1  0  0  0  0
 11 12  2  0  0  0  0
 11 39  1  0  0  0  0
 12 13  1  0  0  0  0
 13 17  1  0  0  0  0
 13 14  2  0  0  0  0
 14 15  1  0  0  0  0
 15 16  2  0  0  0  0
 16 17  1  0  0  0  0
 16 40  1  0  0  0  0
 17 18  1  0  0  0  0
 18 19  1  0  0  0  0
 18 41  1  0  0  0  0
 18 42  1  0  0  0  0
 19 24  1  0  0  0  0
 19 20  1  0  0  0  0
 19 22  1  0  0  0  0
 20 21  1  0  0  0  0
 20 43  1  0  0  0  0
 20 44  1  0  0  0  0
 21 45  1  0  0  0  0
 22 23  1  0  0  0  0
 22 46  1  0  0  0  0
 22 47  1  0  0  0  0
 23 24  1  0  0  0  0
 24 48  1  0  0  0  0
 24 49  1  0  0  0  0
 25 26  1  0  0  0  0
 25 27  1  0  0  0  0
 25 50  1  0  0  0  0
 26 51  1  0  0  0  0
 26 52  1  0  0  0  0
 26 53  1  0  0  0  0
 27 54  1  0  0  0  0
 27 55  1  0  0  0  0
M  CHG  1   5   1
M  END
> <s_m_source_file>
AV-unprocessed.smi

> <i_m_source_file_index>
79

> <i_lp_mmshare_version>
43012

> <i_f3d_flags>
0

> <s_epik_input>
W0NIM11bQ0BIXShbT0hdKVtDSDJdTjFbQ0gyXVtDSDJdTihbQ0BASF0oW0NIM10pW0NIMl0xKWMobltjSF1uMiljKGMyMyluW2NIXW4zW0NIMl1DNChbQ0gyXVtPSF0pW0NIMl1PW0NIMl00

> <s_epik_cmdline>
J2VwaWtfcHl0aG9uJywgJy1waCcsICc3LjAnLCAnLXRuJywgJzgnLCAnLW1hJywgJzIwMCcsICctbWV0YWxfYmluZGluZycsICctaW1hZScsICc8aW5maWxlLm1hZT4nLCAnLW9tYWUnLCAnPG91dGZpbGUubWFlPic=

> <r_lp_tautomer_probability>
1

> <r_epik_Ionization_Penalty>
0.00515943

> <r_epik_Ionization_Penalty_Charging>
0.00509693

> <r_epik_Ionization_Penalty_Neutral>
6.25007e-05

> <r_epik_State_Penalty>
-0

> <r_epik_Charging_Adjusted_Penalty>
0.00509693

> <i_epik_Tot_Q>
1

> <i_epik_Tot_abs_Q>
1

> <r_epik_Metal_State_Penalty>
-0

> <b_epik_Metal_Only>
0

> <s_lp_Force_Field>
OPLS_2005

> <r_lp_Energy>
48.5729

> <b_lp_Chiralities_Consistent>
1

> <s_lp_Variant>
AV-unprocessed.smi:79-4

> <Gold.Version>
5.8.1

> <Gold.Id.Protein>
6NUR|6NUR_protein|mol2

> <Gold.PLP.Fitness>
46.5406

> <Gold.PLP.PLP>
-33.5420

> <Gold.PLP.part.hbond>
-3.7625

> <Gold.PLP.part.metal>
0.0000

> <Gold.PLP.part.buried>
-8.7159

> <Gold.PLP.part.nonpolar>
-23.4521

> <Gold.PLP.part.repulsive>
0.7417

> <Gold.PLP.ligand.clash>
0.0000

> <Gold.PLP.ligand.torsion>
1.4585

> <Gold.PLP.Chemscore.Hbond>
4.0000

> <Gold.PLP.Chemscore.CHOScore>
1.0000

> <Gold.PLP.Chemscore.Metal>
0.0000

> <Gold.Chemscore.Hbonds>
donor molecule, donor type, donor heavy atom, donor atom, acceptor molecule, acceptor atom, score
      L1  H     3    32       P1  7921  1.00
      L1  H     5    56       P1 10957  1.98
      L1  H    21    45       P1  8028  0.99
      L1  C    11    39       P1 10171  1.00

> <Gold.PLP.Chemscore.Internal.Correction>
0.9156

> <Gold.Rescore>
     Score         DG    S(hbond)    S(metal)    S(lipo)     H(rot)  DE(clash)    DE(int)     intcor
     11.81     -13.40       2.77        0.00      69.98       3.72       0.08       1.51       ----

> <Gold.Chemscore.Fitness>
11.8137

> <Gold.Chemscore.DG>
-13.4019

> <Gold.Chemscore.ZeroCoef>
-5.4800

> <Gold.Chemscore.Hbond>
2.7735

> <Gold.Chemscore.Metal>
0.0000

> <Gold.Chemscore.Lipo>
69.9836

> <Gold.Chemscore.Internal_Hbond>
0.0000

> <Gold.Chemscore.DEClash>
0.0757

> <Gold.Chemscore.DEInternal>
1.5125

> <Gold.Chemscore.Rot>
3.7226

> <Gold.Chemscore.Internal.Correction>
   9.000000E+99

> <Gold.Chemscore.Hbonds>
donor molecule, donor type, donor heavy atom, donor atom, acceptor molecule, acceptor atom, score
      L1  H     3    32       P1  7921  0.98
      L1  H     5    56       P1 10957  0.70
      L1  H    21    45       P1  8028  0.94

> <Gold.Chemscore.Hbond.Weighted>
-9.2636

> <Gold.Chemscore.Metal.Weighted>
-0.0000

> <Gold.Chemscore.Lipo.Weighted>
-8.1881

> <Gold.Chemscore.Internal_Hbond.Weighted>
0.0000

> <Gold.Chemscore.DEClash.Weighted>
0.0757

> <Gold.Chemscore.DEInternal.Weighted>
1.5125

> <Gold.Chemscore.Rot.Weighted>
9.5298

> <Gold.Chemscore.Internal.Correction.Weighted>
   9.000000E+99

> <Gold.Protein.RotatedTorsions>
[ 6907 6896 6895 6894 ] final   25.82 input  -60.11 | X-H torsion
[ 7974 7965 7964 7962 ] final  112.81 input  175.53 | X-H torsion
[ 8008 7997 7996 7995 ] final  153.39 input   59.86 | X-H torsion
[ 10167 10162 10161 10158 ] final  -95.22 input  -65.29 | X-H torsion
[ 10718 10713 10712 10709 ] final -174.95 input   66.30 | X-H torsion
[ 10763 10752 10751 10750 ] final   85.93 input  -60.55 | X-H torsion
[ 11005 11000 10999 10996 ] final  -21.78 input  -57.11 | X-H torsion

> <Gold.Protein.ActiveResidues>
 VAL166  LYS551  ARG553  GLY616  TRP617  ASP618  TYR619  PRO620  LYS621  CYS622 
 ASP623  PHE694  ASN695  SER759  ASP760  ASP761  ALA762  ILE779  LEU786  VAL792 
 PHE793  MET794  SER795  GLU796  ALA797  LYS798  CYS799  TRP800  GLU811  SER814 

> <Gold.Protein.RotatedAtoms>
  151.9783  135.0042  160.0555 H   0  0  0  0  0  0  0  0  0  0  0  0  # atno 6907 bound_to 6896
  152.1720  133.4645  159.4922 H   0  0  0  0  0  0  0  0  0  0  0  0  # atno 6908 bound_to 6896
  150.6903  134.1858  159.4309 H   0  0  0  0  0  0  0  0  0  0  0  0  # atno 6909 bound_to 6896
  145.2248  139.2846  143.4199 H   0  0  0  0  0  0  0  0  0  0  0  0  # atno 7974 bound_to 7965
  156.2583  140.1995  156.6483 H   0  0  0  0  0  0  0  0  0  0  0  0  # atno 8008 bound_to 7997
  154.6556  140.0567  157.0030 H   0  0  0  0  0  0  0  0  0  0  0  0  # atno 8009 bound_to 7997
  155.1352  140.3237  155.4467 H   0  0  0  0  0  0  0  0  0  0  0  0  # atno 8010 bound_to 7997
  140.3064  143.3131  152.0194 H   0  0  0  0  0  0  0  0  0  0  0  0  # atno 10167 bound_to 10162
  156.7927  130.9524  151.3120 H   0  0  0  0  0  0  0  0  0  0  0  0  # atno 10718 bound_to 10713
  153.1522  135.4599  154.9652 H   0  0  0  0  0  0  0  0  0  0  0  0  # atno 10763 bound_to 10752
  154.7833  135.3195  154.7944 H   0  0  0  0  0  0  0  0  0  0  0  0  # atno 10764 bound_to 10752
  153.8447  135.6927  153.4853 H   0  0  0  0  0  0  0  0  0  0  0  0  # atno 10765 bound_to 10752
  140.8594  133.7799  156.0057 H   0  0  0  0  0  0  0  0  0  0  0  0  # atno 11005 bound_to 11000
  146.3367  140.2565  142.8600 LP  0  0  0  0  0  0  0  0  0  0  0  0  # atno 17320 bound_to 7965
  144.9731  140.8388  143.5443 LP  0  0  0  0  0  0  0  0  0  0  0  0  # atno 17321 bound_to 7965
  139.4903  144.6417  151.6863 LP  0  0  0  0  0  0  0  0  0  0  0  0  # atno 17342 bound_to 10162
  140.5606  144.0275  150.6168 LP  0  0  0  0  0  0  0  0  0  0  0  0  # atno 17343 bound_to 10162
  157.6592  130.8951  149.9794 LP  0  0  0  0  0  0  0  0  0  0  0  0  # atno 17370 bound_to 10713
  156.1149  130.3648  149.9985 LP  0  0  0  0  0  0  0  0  0  0  0  0  # atno 17371 bound_to 10713
  140.8700  134.2738  157.5195 LP  0  0  0  0  0  0  0  0  0  0  0  0  # atno 17394 bound_to 11000
  139.8706  134.9562  156.4230 LP  0  0  0  0  0  0  0  0  0  0  0  0  # atno 17395 bound_to 11000

$$$$
