AV-unprocessed.smi:1749|AV-procd|sdf|7047|dock2
  -GOLD-   22720 8263D 1   1.00000     0.00000
 Structure written by MMmdl.
 32 33  0  0  0  0  0  0  0  0  1 V2000
  146.1338  132.1058  152.2008 C   0  0  0  0  0  0  0  0  0  0  0  0
  145.8790  133.6008  151.9633 C   0  0  1  0  0  0  0  0  0  0  0  0
  144.9583  133.8296  150.7494 C   0  0  0  0  0  0  0  0  0  0  0  0
  144.6970  135.3252  150.5108 C   0  0  0  0  0  0  0  0  0  0  0  0
  144.1216  136.0012  151.7677 C   0  0  0  0  0  0  0  0  0  0  0  0
  145.0143  135.7819  153.0040 C   0  0  2  0  0  0  0  0  0  0  0  0
  146.2603  136.5309  152.8611 N   0  0  0  0  0  0  0  0  0  0  0  0
  146.6028  137.6357  153.5434 C   0  0  0  0  0  0  0  0  0  0  0  0
  145.8523  138.1801  154.3513 O   0  0  0  0  0  0  0  0  0  0  0  0
  147.8316  138.1331  153.2878 N   0  0  0  0  0  0  0  0  0  0  0  0
  148.5145  139.2678  153.8153 C   0  0  0  0  0  0  0  0  0  0  0  0
  149.7950  139.2616  154.2219 N   0  0  0  0  0  0  0  0  0  0  0  0
  150.1945  140.4973  154.7117 N   0  0  0  0  0  0  0  0  0  0  0  0
  149.1982  141.3858  154.6691 C   0  0  0  0  0  0  0  0  0  0  0  0
  147.6744  140.7978  154.0269 S   0  0  0  0  0  0  0  0  0  0  0  0
  145.2928  134.2786  153.2201 C   0  0  0  0  0  0  0  0  0  0  0  0
  145.2079  131.5757  152.4251 H   0  0  0  0  0  0  0  0  0  0  0  0
  146.8163  131.9528  153.0372 H   0  0  0  0  0  0  0  0  0  0  0  0
  146.5804  131.6396  151.3222 H   0  0  0  0  0  0  0  0  0  0  0  0
  146.8434  134.0622  151.7452 H   0  0  0  0  0  0  0  0  0  0  0  0
  145.4030  133.3907  149.8556 H   0  0  0  0  0  0  0  0  0  0  0  0
  144.0085  133.3162  150.9050 H   0  0  0  0  0  0  0  0  0  0  0  0
  145.6256  135.8166  150.2176 H   0  0  0  0  0  0  0  0  0  0  0  0
  144.0078  135.4516  149.6755 H   0  0  0  0  0  0  0  0  0  0  0  0
  143.9800  137.0676  151.5875 H   0  0  0  0  0  0  0  0  0  0  0  0
  143.1296  135.5937  151.9671 H   0  0  0  0  0  0  0  0  0  0  0  0
  144.4810  136.1680  153.8746 H   0  0  0  0  0  0  0  0  0  0  0  0
  146.9377  136.1549  152.2127 H   0  0  0  0  0  0  0  0  0  0  0  0
  148.3316  137.6526  152.5539 H   0  0  0  0  0  0  0  0  0  0  0  0
  149.3603  142.3935  155.0216 H   0  0  0  0  0  0  0  0  0  0  0  0
  144.3605  133.7826  153.4932 H   0  0  0  0  0  0  0  0  0  0  0  0
  145.9646  134.1402  154.0682 H   0  0  0  0  0  0  0  0  0  0  0  0
  1  2  1  0  0  0  0
  1 17  1  0  0  0  0
  1 18  1  0  0  0  0
  1 19  1  0  0  0  0
  2 16  1  0  0  0  0
  2  3  1  0  0  0  0
  2 20  1  0  0  0  0
  3  4  1  0  0  0  0
  3 21  1  0  0  0  0
  3 22  1  0  0  0  0
  4  5  1  0  0  0  0
  4 23  1  0  0  0  0
  4 24  1  0  0  0  0
  5  6  1  0  0  0  0
  5 25  1  0  0  0  0
  5 26  1  0  0  0  0
  6  7  1  0  0  0  0
  6 16  1  0  0  0  0
  6 27  1  0  0  0  0
  7  8  1  0  0  0  0
  7 28  1  0  0  0  0
  8  9  2  0  0  0  0
  8 10  1  0  0  0  0
 10 11  1  0  0  0  0
 10 29  1  0  0  0  0
 11 15  1  0  0  0  0
 11 12  2  0  0  0  0
 12 13  1  0  0  0  0
 13 14  2  0  0  0  0
 14 15  1  0  0  0  0
 14 30  1  0  0  0  0
 16 31  1  0  0  0  0
 16 32  1  0  0  0  0
M  END
> <s_m_source_file>
AV-unprocessed.smi

> <i_m_source_file_index>
1749

> <i_lp_mmshare_version>
43012

> <i_f3d_flags>
0

> <s_epik_input>
W0NIM11bQ0BASF0xW0NIMl1bQ0gyXVtDSDJdW0NASF0oW0NIMl0xKVtOSF1DKD1PKVtOSF1jMm5uW2NIXXMy

> <s_epik_cmdline>
J2VwaWtfcHl0aG9uJywgJy1waCcsICc3LjAnLCAnLXRuJywgJzgnLCAnLW1hJywgJzIwMCcsICctbWV0YWxfYmluZGluZycsICctaW1hZScsICc8aW5maWxlLm1hZT4nLCAnLW9tYWUnLCAnPG91dGZpbGUubWFlPic=

> <r_lp_tautomer_probability>
1

> <r_epik_Ionization_Penalty>
0.000318591

> <r_epik_Ionization_Penalty_Charging>
0

> <r_epik_Ionization_Penalty_Neutral>
0.000318591

> <r_epik_State_Penalty>
-0

> <r_epik_Charging_Adjusted_Penalty>
0

> <i_epik_Tot_Q>
0

> <i_epik_Tot_abs_Q>
0

> <r_epik_Metal_State_Penalty>
0.169791

> <b_epik_Metal_Only>
0

> <s_lp_Force_Field>
OPLS_2005

> <r_lp_Energy>
10.2473

> <b_lp_Chiralities_Consistent>
1

> <s_lp_Variant>
AV-unprocessed.smi:1749-4

> <Gold.Version>
5.8.1

> <Gold.Id.Protein>
6NUR|6NUR_protein|mol2

> <Gold.PLP.Fitness>
33.7757

> <Gold.PLP.PLP>
-23.4215

> <Gold.PLP.part.hbond>
-3.0000

> <Gold.PLP.part.metal>
0.0000

> <Gold.PLP.part.buried>
-2.7639

> <Gold.PLP.part.nonpolar>
-17.8991

> <Gold.PLP.part.repulsive>
0.4238

> <Gold.PLP.ligand.clash>
0.0000

> <Gold.PLP.ligand.torsion>
0.4659

> <Gold.PLP.Chemscore.Hbond>
2.7600

> <Gold.PLP.Chemscore.CHOScore>
1.0000

> <Gold.PLP.Chemscore.Metal>
0.0000

> <Gold.Chemscore.Hbonds>
donor molecule, donor type, donor heavy atom, donor atom, acceptor molecule, acceptor atom, score
      L1  H     7    28       P1  7948  0.80
      L1  H    10    29       P1  7948  1.00
      P1  H  7989  7998       L1    13  0.94
      L1  C    14    30       P1  8028  1.00

> <Gold.PLP.Chemscore.Internal.Correction>
0.0059

> <Gold.Rescore>
     Score         DG    S(hbond)    S(metal)    S(lipo)     H(rot)  DE(clash)    DE(int)     intcor
     14.25     -14.76       1.86        0.00      47.95       1.00       0.13       0.38       ----

> <Gold.Chemscore.Fitness>
14.2482

> <Gold.Chemscore.DG>
-14.7579

> <Gold.Chemscore.ZeroCoef>
-5.4800

> <Gold.Chemscore.Hbond>
1.8647

> <Gold.Chemscore.Metal>
0.0000

> <Gold.Chemscore.Lipo>
47.9479

> <Gold.Chemscore.Internal_Hbond>
0.0000

> <Gold.Chemscore.DEClash>
0.1332

> <Gold.Chemscore.DEInternal>
0.3765

> <Gold.Chemscore.Rot>
1.0000

> <Gold.Chemscore.Internal.Correction>
   9.000000E+99

> <Gold.Chemscore.Hbonds>
donor molecule, donor type, donor heavy atom, donor atom, acceptor molecule, acceptor atom, score
      L1  H     7    28       P1  7948  0.74
      L1  H    10    29       P1  7948  0.97
      P1  H  7989  7998       L1    13  0.20

> <Gold.Chemscore.Hbond.Weighted>
-6.2280

> <Gold.Chemscore.Metal.Weighted>
-0.0000

> <Gold.Chemscore.Lipo.Weighted>
-5.6099

> <Gold.Chemscore.Internal_Hbond.Weighted>
0.0000

> <Gold.Chemscore.DEClash.Weighted>
0.1332

> <Gold.Chemscore.DEInternal.Weighted>
0.3765

> <Gold.Chemscore.Rot.Weighted>
2.5600

> <Gold.Chemscore.Internal.Correction.Weighted>
   9.000000E+99

> <Gold.Protein.RotatedTorsions>
[ 6907 6896 6895 6894 ] final   64.14 input  -60.11 | X-H torsion
[ 7974 7965 7964 7962 ] final  -46.14 input  175.53 | X-H torsion
[ 8008 7997 7996 7995 ] final -137.19 input   59.86 | X-H torsion
[ 10167 10162 10161 10158 ] final  104.72 input  -65.29 | X-H torsion
[ 10718 10713 10712 10709 ] final  -84.59 input   66.30 | X-H torsion
[ 10763 10752 10751 10750 ] final  -85.49 input  -60.55 | X-H torsion
[ 11005 11000 10999 10996 ] final   54.43 input  -57.11 | X-H torsion

> <Gold.Protein.ActiveResidues>
 VAL166  LYS551  ARG553  GLY616  TRP617  ASP618  TYR619  PRO620  LYS621  CYS622 
 ASP623  PHE694  ASN695  SER759  ASP760  ASP761  ALA762  ILE779  LEU786  VAL792 
 PHE793  MET794  SER795  GLU796  ALA797  LYS798  CYS799  TRP800  GLU811  SER814 

> <Gold.Protein.RotatedAtoms>
  152.4308  134.5781  159.9939 H   0  0  0  0  0  0  0  0  0  0  0  0  # atno 6907 bound_to 6896
  151.5904  133.3361  159.3034 H   0  0  0  0  0  0  0  0  0  0  0  0  # atno 6908 bound_to 6896
  150.8201  134.7440  159.6829 H   0  0  0  0  0  0  0  0  0  0  0  0  # atno 6909 bound_to 6896
  145.9749  140.7344  142.9392 H   0  0  0  0  0  0  0  0  0  0  0  0  # atno 7974 bound_to 7965
  155.4077  140.0510  157.3033 H   0  0  0  0  0  0  0  0  0  0  0  0  # atno 8008 bound_to 7997
  154.4961  140.2139  155.9405 H   0  0  0  0  0  0  0  0  0  0  0  0  # atno 8009 bound_to 7997
  156.1407  140.3155  155.8496 H   0  0  0  0  0  0  0  0  0  0  0  0  # atno 8010 bound_to 7997
  139.7153  144.7069  151.0960 H   0  0  0  0  0  0  0  0  0  0  0  0  # atno 10167 bound_to 10162
  156.0005  130.4703  150.4433 H   0  0  0  0  0  0  0  0  0  0  0  0  # atno 10718 bound_to 10713
  154.6116  135.5483  153.7480 H   0  0  0  0  0  0  0  0  0  0  0  0  # atno 10763 bound_to 10752
  153.0198  135.6391  154.1569 H   0  0  0  0  0  0  0  0  0  0  0  0  # atno 10764 bound_to 10752
  154.1507  135.2903  155.3116 H   0  0  0  0  0  0  0  0  0  0  0  0  # atno 10765 bound_to 10752
  140.0687  134.5500  155.9070 H   0  0  0  0  0  0  0  0  0  0  0  0  # atno 11005 bound_to 11000
  144.6846  140.2811  143.7292 LP  0  0  0  0  0  0  0  0  0  0  0  0  # atno 17320 bound_to 7965
  145.7853  139.1906  143.2134 LP  0  0  0  0  0  0  0  0  0  0  0  0  # atno 17321 bound_to 7965
  140.7742  143.5238  150.9504 LP  0  0  0  0  0  0  0  0  0  0  0  0  # atno 17342 bound_to 10162
  139.8924  143.6937  152.3143 LP  0  0  0  0  0  0  0  0  0  0  0  0  # atno 17343 bound_to 10162
  157.2472  131.0538  151.2401 LP  0  0  0  0  0  0  0  0  0  0  0  0  # atno 17370 bound_to 10713
  157.3563  130.7108  149.6473 LP  0  0  0  0  0  0  0  0  0  0  0  0  # atno 17371 bound_to 10713
  141.2003  133.6612  156.5890 LP  0  0  0  0  0  0  0  0  0  0  0  0  # atno 17394 bound_to 11000
  140.3659  134.7647  157.4566 LP  0  0  0  0  0  0  0  0  0  0  0  0  # atno 17395 bound_to 11000

$$$$
