AV-unprocessed.smi:2000|AV-procd|sdf|8101|dock1
  -GOLD-   2272010323D 1   1.00000     0.00000
 Structure written by MMmdl.
 43 44  0  0  0  0  0  0  0  0  1 V2000
  149.4890  129.3194  153.8360 C   0  0  0  0  0  0  0  0  0  0  0  0
  150.0481  130.7194  154.1371 C   0  0  1  0  0  0  0  0  0  0  0  0
  148.9291  131.7635  154.2533 C   0  0  0  0  0  0  0  0  0  0  0  0
  148.6921  132.3084  155.3319 O   0  0  0  0  0  0  0  0  0  0  0  0
  148.2364  132.0259  153.1334 N   0  0  0  0  0  0  0  0  0  0  0  0
  147.1253  132.9689  153.0405 C   0  0  0  0  0  0  0  0  0  0  0  0
  145.9571  132.5160  152.1600 C   0  0  0  0  0  0  0  0  0  0  0  0
  145.8702  131.1857  151.6849 C   0  0  0  0  0  0  0  0  0  0  0  0
  144.7946  130.8141  150.8587 C   0  0  0  0  0  0  0  0  0  0  0  0
  143.8402  131.7912  150.5275 C   0  0  0  0  0  0  0  0  0  0  0  0
  143.9097  133.0653  150.9623 N   0  0  0  0  0  0  0  0  0  0  0  0
  144.9444  133.4286  151.7594 C   0  0  0  0  0  0  0  0  0  0  0  0
  144.9731  134.7612  152.2064 N   0  0  0  0  0  0  0  0  0  0  0  0
  143.7779  135.1293  152.9547 C   0  0  0  0  0  0  0  0  0  0  0  0
  143.9552  136.5258  153.5763 C   0  0  0  0  0  0  0  0  0  0  0  0
  144.2778  137.4696  152.5580 O   0  0  0  0  0  0  0  0  0  0  0  0
  145.4881  137.1374  151.8833 C   0  0  0  0  0  0  0  0  0  0  0  0
  145.3385  135.7625  151.2101 C   0  0  0  0  0  0  0  0  0  0  0  0
  151.0487  130.6777  155.6979 S   0  0  0  0  0  0  0  0  0  0  0  0
  152.4182  129.5174  155.2839 C   0  0  0  0  0  0  0  0  0  0  0  0
  151.6329  132.0080  155.9280 O   0  0  0  0  0  0  0  0  0  0  0  0
  150.2264  130.0606  156.7497 O   0  0  0  0  0  0  0  0  0  0  0  0
  148.8603  129.3258  152.9449 H   0  0  0  0  0  0  0  0  0  0  0  0
  148.8911  128.9401  154.6658 H   0  0  0  0  0  0  0  0  0  0  0  0
  150.2966  128.6081  153.6624 H   0  0  0  0  0  0  0  0  0  0  0  0
  150.7241  131.0039  153.3298 H   0  0  0  0  0  0  0  0  0  0  0  0
  148.4886  131.5343  152.2883 H   0  0  0  0  0  0  0  0  0  0  0  0
  146.7766  133.2002  154.0477 H   0  0  0  0  0  0  0  0  0  0  0  0
  147.5124  133.9025  152.6322 H   0  0  0  0  0  0  0  0  0  0  0  0
  146.6154  130.4469  151.9389 H   0  0  0  0  0  0  0  0  0  0  0  0
  144.7051  129.8044  150.4861 H   0  0  0  0  0  0  0  0  0  0  0  0
  143.0003  131.5447  149.8950 H   0  0  0  0  0  0  0  0  0  0  0  0
  142.9173  135.1259  152.2840 H   0  0  0  0  0  0  0  0  0  0  0  0
  143.5773  134.3950  153.7358 H   0  0  0  0  0  0  0  0  0  0  0  0
  143.0347  136.8373  154.0702 H   0  0  0  0  0  0  0  0  0  0  0  0
  144.7373  136.5146  154.3370 H   0  0  0  0  0  0  0  0  0  0  0  0
  145.6999  137.9014  151.1353 H   0  0  0  0  0  0  0  0  0  0  0  0
  146.3225  137.1387  152.5867 H   0  0  0  0  0  0  0  0  0  0  0  0
  146.2715  135.4765  150.7234 H   0  0  0  0  0  0  0  0  0  0  0  0
  144.5708  135.8176  150.4367 H   0  0  0  0  0  0  0  0  0  0  0  0
  153.0286  129.3526  156.1716 H   0  0  0  0  0  0  0  0  0  0  0  0
  153.0423  129.9432  154.4987 H   0  0  0  0  0  0  0  0  0  0  0  0
  152.0048  128.5663  154.9494 H   0  0  0  0  0  0  0  0  0  0  0  0
  1  2  1  0  0  0  0
  1 23  1  0  0  0  0
  1 24  1  0  0  0  0
  1 25  1  0  0  0  0
  2  3  1  0  0  0  0
  2 19  1  0  0  0  0
  2 26  1  0  0  0  0
  3  4  2  0  0  0  0
  3  5  1  0  0  0  0
  5  6  1  0  0  0  0
  5 27  1  0  0  0  0
  6  7  1  0  0  0  0
  6 28  1  0  0  0  0
  6 29  1  0  0  0  0
  7 12  1  0  0  0  0
  7  8  2  0  0  0  0
  8  9  1  0  0  0  0
  8 30  1  0  0  0  0
  9 10  2  0  0  0  0
  9 31  1  0  0  0  0
 10 11  1  0  0  0  0
 10 32  1  0  0  0  0
 11 12  2  0  0  0  0
 12 13  1  0  0  0  0
 13 18  1  0  0  0  0
 13 14  1  0  0  0  0
 14 15  1  0  0  0  0
 14 33  1  0  0  0  0
 14 34  1  0  0  0  0
 15 16  1  0  0  0  0
 15 35  1  0  0  0  0
 15 36  1  0  0  0  0
 16 17  1  0  0  0  0
 17 18  1  0  0  0  0
 17 37  1  0  0  0  0
 17 38  1  0  0  0  0
 18 39  1  0  0  0  0
 18 40  1  0  0  0  0
 19 20  1  0  0  0  0
 19 21  2  0  0  0  0
 19 22  2  0  0  0  0
 20 41  1  0  0  0  0
 20 42  1  0  0  0  0
 20 43  1  0  0  0  0
M  END
> <s_m_source_file>
AV-unprocessed.smi

> <i_m_source_file_index>
2000

> <i_lp_mmshare_version>
43012

> <i_f3d_flags>
0

> <s_epik_input>
W0NIM11TKD1PKSg9TylbQ0BIXShbQ0gzXSlDKD1PKVtOSF1bQ0gyXWMxW2NIXVtjSF1bY0hdbmMxTjJbQ0gyXVtDSDJdT1tDSDJdW0NIMl0y

> <s_epik_cmdline>
J2VwaWtfcHl0aG9uJywgJy1waCcsICc3LjAnLCAnLXRuJywgJzgnLCAnLW1hJywgJzIwMCcsICctbWV0YWxfYmluZGluZycsICctaW1hZScsICc8aW5maWxlLm1hZT4nLCAnLW9tYWUnLCAnPG91dGZpbGUubWFlPic=

> <r_lp_tautomer_probability>
1

> <r_epik_Ionization_Penalty>
0.00349769

> <r_epik_Ionization_Penalty_Charging>
0

> <r_epik_Ionization_Penalty_Neutral>
0.00349769

> <r_epik_State_Penalty>
0.00248024

> <r_epik_Charging_Adjusted_Penalty>
0.00248024

> <i_epik_Tot_Q>
0

> <i_epik_Tot_abs_Q>
0

> <r_epik_Metal_State_Penalty>
-0

> <b_epik_Metal_Only>
0

> <s_lp_Force_Field>
OPLS_2005

> <r_lp_Energy>
18.4728

> <b_lp_Chiralities_Consistent>
1

> <s_lp_Variant>
AV-unprocessed.smi:2000-2

> <Gold.Version>
5.8.1

> <Gold.Id.Protein>
6NUR|6NUR_protein|mol2

> <Gold.PLP.Fitness>
35.2530

> <Gold.PLP.PLP>
-30.7134

> <Gold.PLP.part.hbond>
-0.7697

> <Gold.PLP.part.metal>
0.0000

> <Gold.PLP.part.buried>
-5.4001

> <Gold.PLP.part.nonpolar>
-25.2978

> <Gold.PLP.part.repulsive>
1.2253

> <Gold.PLP.ligand.clash>
0.0000

> <Gold.PLP.ligand.torsion>
0.6538

> <Gold.PLP.Chemscore.Hbond>
0.8125

> <Gold.PLP.Chemscore.CHOScore>
0.9928

> <Gold.PLP.Chemscore.Metal>
0.0000

> <Gold.Chemscore.Hbonds>
donor molecule, donor type, donor heavy atom, donor atom, acceptor molecule, acceptor atom, score
      L1  H     5    27       P1 10747  0.67
      L1  C    10    32       P1 10952  1.00

> <Gold.PLP.Chemscore.Internal.Correction>
0.4311

> <Gold.Rescore>
     Score         DG    S(hbond)    S(metal)    S(lipo)     H(rot)  DE(clash)    DE(int)     intcor
      9.41     -12.16       0.98        0.00      74.53       2.08       0.79       1.96       ----

> <Gold.Chemscore.Fitness>
9.4089

> <Gold.Chemscore.DG>
-12.1551

> <Gold.Chemscore.ZeroCoef>
-5.4800

> <Gold.Chemscore.Hbond>
0.9792

> <Gold.Chemscore.Metal>
0.0000

> <Gold.Chemscore.Lipo>
74.5303

> <Gold.Chemscore.Internal_Hbond>
0.0000

> <Gold.Chemscore.DEClash>
0.7856

> <Gold.Chemscore.DEInternal>
1.9605

> <Gold.Chemscore.Rot>
2.0764

> <Gold.Chemscore.Internal.Correction>
   9.000000E+99

> <Gold.Chemscore.Hbonds>
donor molecule, donor type, donor heavy atom, donor atom, acceptor molecule, acceptor atom, score
      L1  H     5    27       P1 10747  0.66

> <Gold.Chemscore.Hbond.Weighted>
-3.2706

> <Gold.Chemscore.Metal.Weighted>
-0.0000

> <Gold.Chemscore.Lipo.Weighted>
-8.7200

> <Gold.Chemscore.Internal_Hbond.Weighted>
0.0000

> <Gold.Chemscore.DEClash.Weighted>
0.7856

> <Gold.Chemscore.DEInternal.Weighted>
1.9605

> <Gold.Chemscore.Rot.Weighted>
5.3155

> <Gold.Chemscore.Internal.Correction.Weighted>
   9.000000E+99

> <Gold.Protein.RotatedTorsions>
[ 6907 6896 6895 6894 ] final -143.54 input  -60.11 | X-H torsion
[ 7974 7965 7964 7962 ] final   95.61 input  175.53 | X-H torsion
[ 8008 7997 7996 7995 ] final  -12.19 input   59.86 | X-H torsion
[ 10167 10162 10161 10158 ] final  128.58 input  -65.29 | X-H torsion
[ 10718 10713 10712 10709 ] final -156.74 input   66.30 | X-H torsion
[ 10763 10752 10751 10750 ] final  -66.04 input  -60.55 | X-H torsion
[ 11005 11000 10999 10996 ] final  165.89 input  -57.11 | X-H torsion

> <Gold.Protein.ActiveResidues>
 VAL166  LYS551  ARG553  GLY616  TRP617  ASP618  TYR619  PRO620  LYS621  CYS622 
 ASP623  PHE694  ASN695  SER759  ASP760  ASP761  ALA762  ILE779  LEU786  VAL792 
 PHE793  MET794  SER795  GLU796  ALA797  LYS798  CYS799  TRP800  GLU811  SER814 

> <Gold.Protein.RotatedAtoms>
  151.1019  133.5237  159.2609 H   0  0  0  0  0  0  0  0  0  0  0  0  # atno 6907 bound_to 6896
  151.2065  135.0463  159.8903 H   0  0  0  0  0  0  0  0  0  0  0  0  # atno 6908 bound_to 6896
  152.5443  134.0840  159.8301 H   0  0  0  0  0  0  0  0  0  0  0  0  # atno 6909 bound_to 6896
  145.4499  139.2294  143.3045 H   0  0  0  0  0  0  0  0  0  0  0  0  # atno 7974 bound_to 7965
  154.5399  140.2282  155.8660 H   0  0  0  0  0  0  0  0  0  0  0  0  # atno 8008 bound_to 7997
  156.1848  140.3091  155.9179 H   0  0  0  0  0  0  0  0  0  0  0  0  # atno 8009 bound_to 7997
  155.3280  140.0444  157.3032 H   0  0  0  0  0  0  0  0  0  0  0  0  # atno 8010 bound_to 7997
  139.5520  144.6820  151.4296 H   0  0  0  0  0  0  0  0  0  0  0  0  # atno 10167 bound_to 10162
  156.5307  130.8519  151.2715 H   0  0  0  0  0  0  0  0  0  0  0  0  # atno 10718 bound_to 10713
  154.3539  135.6130  153.5656 H   0  0  0  0  0  0  0  0  0  0  0  0  # atno 10763 bound_to 10752
  152.9797  135.5799  154.4711 H   0  0  0  0  0  0  0  0  0  0  0  0  # atno 10764 bound_to 10752
  154.4437  135.2851  155.1807 H   0  0  0  0  0  0  0  0  0  0  0  0  # atno 10765 bound_to 10752
  140.2608  134.7904  157.3588 H   0  0  0  0  0  0  0  0  0  0  0  0  # atno 11005 bound_to 11000
  146.2510  140.5257  142.8893 LP  0  0  0  0  0  0  0  0  0  0  0  0  # atno 17320 bound_to 7965
  144.8068  140.6314  143.6441 LP  0  0  0  0  0  0  0  0  0  0  0  0  # atno 17321 bound_to 7965
  140.6784  143.8137  150.7089 LP  0  0  0  0  0  0  0  0  0  0  0  0  # atno 17342 bound_to 10162
  140.1583  143.4298  152.2085 LP  0  0  0  0  0  0  0  0  0  0  0  0  # atno 17343 bound_to 10162
  157.7422  130.9886  150.2500 LP  0  0  0  0  0  0  0  0  0  0  0  0  # atno 17370 bound_to 10713
  156.3062  130.3765  149.7704 LP  0  0  0  0  0  0  0  0  0  0  0  0  # atno 17371 bound_to 10713
  140.1467  134.4902  155.7991 LP  0  0  0  0  0  0  0  0  0  0  0  0  # atno 17394 bound_to 11000
  141.2190  133.6846  156.7306 LP  0  0  0  0  0  0  0  0  0  0  0  0  # atno 17395 bound_to 11000

$$$$
