#       Name:                AV-unprocessed.smi:2657
#       Creating user name   scv26
#       Creation time:       Fri Mar 27 14:32:24 2020


#       File generated by GOLD software.
#

@<TRIPOS>MOLECULE
AV-unprocessed.smi:2657
    56    58     1
SMALL
NO_CHARGES


@<TRIPOS>ATOM
      1 ****         2.3219  -0.2891  -0.5719 O.2            1 S1                 0.0000
      2 ****         1.8353  -1.4164  -0.6540 C.2            1 S1                 0.0000
      3 ****         2.5686  -2.5380  -0.6225 N.am           1 S1                 0.0000
      4 ****         4.0157  -2.5821  -0.4494 C.3            1 S1                 0.0000
      5 ****         4.4071  -2.7140   1.0370 C.3            1 S1                 0.0000
      6 ****         4.6590  -1.4112   1.6637 N.am           1 S1                 0.0000
      7 ****         3.7789  -0.7730   2.4484 C.2            1 S1                 0.0000
      8 ****         2.6614  -1.1762   2.7696 O.2            1 S1                 0.0000
      9 ****         4.3320   0.5669   2.9137 C.3            1 S1                 0.0000
     10 ****         5.7198   0.6118   2.2672 C.3            1 S1                 0.0000
     11 ****         5.7859  -0.7033   1.5030 C.2            1 S1                 0.0000
     12 ****         6.7633  -1.0335   0.8322 O.2            1 S1                 0.0000
     13 ****         0.5266  -1.6992  -0.7725 N.am           1 S1                 0.0000
     14 ****        -0.5917  -0.8199  -0.7895 C.ar           1 S1                 0.0000
     15 ****        -0.5168   0.5926  -0.8274 C.ar           1 S1                 0.0000
     16 ****        -1.7104   1.3392  -0.8421 C.ar           1 S1                 0.0000
     17 ****        -2.9534   0.6637  -0.8243 C.ar           1 S1                 0.0000
     18 ****        -4.1617   1.3944  -0.8392 N.3            1 S1                 0.0000
     19 ****        -5.4048   0.6715  -0.5757 C.3            1 S1                 0.0000
     20 ****        -6.5606   1.6586  -0.3406 C.3            1 S1                 0.0000
     21 ****        -6.6654   2.5466  -1.4482 O.3            1 S1                 0.0000
     22 ****        -5.4833   3.3216  -1.6179 C.3            1 S1                 0.0000
     23 ****        -4.2869   2.3953  -1.8961 C.3            1 S1                 0.0000
     24 ****        -3.0211  -0.6893  -0.7867 N.ar           1 S1                 0.0000
     25 ****        -1.8752  -1.4013  -0.7729 C.ar           1 S1                 0.0000
     26 ****         2.0906  -3.4241  -0.6972 H              1 S1                 0.0000
     27 ****         4.3596  -3.4698  -0.9807 H              1 S1                 0.0000
     28 ****         4.5090  -1.7376  -0.9342 H              1 S1                 0.0000
     29 ****         3.6606  -3.2888   1.5885 H              1 S1                 0.0000
     30 ****         5.3233  -3.3028   1.1073 H              1 S1                 0.0000
     31 ****         3.6960   1.3818   2.5662 H              1 S1                 0.0000
     32 ****         4.3876   0.6016   4.0021 H              1 S1                 0.0000
     33 ****         5.8241   1.4558   1.5849 H              1 S1                 0.0000
     34 ****         6.5142   0.6606   3.0127 H              1 S1                 0.0000
     35 ****         0.2953  -2.6811  -0.8149 H              1 S1                 0.0000
     36 ****         0.4190   1.1266  -0.8475 H              1 S1                 0.0000
     37 ****        -1.6564   2.4174  -0.8530 H              1 S1                 0.0000
     38 ****        -5.6333   0.0246  -1.4240 H              1 S1                 0.0000
     39 ****        -5.2925   0.0330   0.3015 H              1 S1                 0.0000
     40 ****        -7.4999   1.1167  -0.2293 H              1 S1                 0.0000
     41 ****        -6.4081   2.2238   0.5803 H              1 S1                 0.0000
     42 ****        -5.6266   4.0089  -2.4517 H              1 S1                 0.0000
     43 ****        -5.3049   3.9308  -0.7304 H              1 S1                 0.0000
     44 ****        -3.3865   3.0005  -1.9904 H              1 S1                 0.0000
     45 ****        -4.4259   1.8836  -2.8493 H              1 S1                 0.0000
     46 ****        -1.9900  -2.4750  -0.7450 H              1 S1                 0.0000
     47 ****         3.3110  -0.1773  -0.4763 LP             1 S1                 0.0000
     48 ****         1.7282   0.5150  -0.6008 LP             1 S1                 0.0000
     49 ****         2.3344  -2.0608   2.4371 LP             1 S1                 0.0000
     50 ****         2.0804  -0.6193   3.3631 LP             1 S1                 0.0000
     51 ****         6.7620  -1.9053   0.3422 LP             1 S1                 0.0000
     52 ****         7.5589  -0.4302   0.7771 LP             1 S1                 0.0000
     53 ****        -4.0342   1.9131   0.0062 LP             1 S1                 0.0000
     54 ****        -7.4379   3.1633  -1.2967 LP             1 S1                 0.0000
     55 ****        -6.8237   2.0116  -2.2781 LP             1 S1                 0.0000
     56 ****        -3.9070  -1.1530  -0.7694 LP             1 S1                 0.0000
@<TRIPOS>BOND
    1    1    2 2     
    2    2    3 am    
    3    2   13 am    
    4    3    4 1     
    5    3   26 1     
    6    4    5 1     
    7    4   27 1     
    8    4   28 1     
    9    5    6 1     
   10    5   29 1     
   11    5   30 1     
   12    6   11 am    
   13    6    7 am    
   14    7    8 2     
   15    7    9 1     
   16    9   10 1     
   17    9   31 1     
   18    9   32 1     
   19   10   11 1     
   20   10   33 1     
   21   10   34 1     
   22   11   12 2     
   23   13   14 1     
   24   13   35 1     
   25   14   25 ar    
   26   14   15 ar    
   27   15   16 ar    
   28   15   36 1     
   29   16   17 ar    
   30   16   37 1     
   31   17   18 1     
   32   17   24 ar    
   33   18   23 1     
   34   18   19 1     
   35   19   20 1     
   36   19   38 1     
   37   19   39 1     
   38   20   21 1     
   39   20   40 1     
   40   20   41 1     
   41   21   22 1     
   42   22   23 1     
   43   22   42 1     
   44   22   43 1     
   45   23   44 1     
   46   23   45 1     
   47   24   25 ar    
   48   25   46 1     
   49    1   47 1     
   50    1   48 1     
   51    8   49 1     
   52    8   50 1     
   53   12   51 1     
   54   12   52 1     
   55   18   53 1     
   56   21   54 1     
   57   21   55 1     
   58   24   56 1     
@<TRIPOS>SUBSTRUCTURE
      1 S1             1
@<TRIPOS>SET
LONE_PAIRS      STATIC     ATOMS    <user>   **** ""
10 47 48 49 50 51 52 53 54 55 56
DONOR_HYDROGENS      STATIC     ATOMS    <user>   **** ""
2 26 35
ATOM$BLUE        STATIC     ATOMS    COLORGROUP SYSTEM
10 47 48 49 50 51 52 53 54 55 56
ATOM$RED        STATIC     ATOMS    COLORGROUP SYSTEM
2 26 35
