AV-unprocessed.smi:1286|AV-procd|sdf|5376|dock1
  -GOLD-   22720 4523D 1   1.00000     0.00000
 Structure written by MMmdl.
 36 37  0  0  0  0  0  0  0  0  1 V2000
  151.3921  137.2841  156.8337 C   0  0  0  0  0  0  0  0  0  0  0  0
  151.8192  138.4568  155.9358 C   0  0  1  0  0  0  0  0  0  0  0  0
  151.1997  138.3996  154.5220 C   0  0  0  0  0  0  0  0  0  0  0  0
  150.0922  139.3237  154.3571 N   0  0  0  0  0  0  0  0  0  0  0  0
  148.7957  139.0428  153.9814 C   0  0  0  0  0  0  0  0  0  0  0  0
  148.1137  140.2254  153.9593 C   0  0  0  0  0  0  0  0  0  0  0  0
  149.0920  141.1865  154.3384 C   0  0  0  0  0  0  0  0  0  0  0  0
  150.2759  140.6443  154.5745 N   0  0  0  0  0  0  0  0  0  0  0  0
  151.4638  139.7132  156.5893 N   0  0  0  0  0  0  0  0  0  0  0  0
  152.0921  140.2426  157.6507 C   0  0  0  0  0  0  0  0  0  0  0  0
  153.0627  139.7150  158.1945 O   0  0  0  0  0  0  0  0  0  0  0  0
  151.5441  141.5762  158.1718 C   0  0  0  0  0  0  0  0  0  0  0  0
  152.5614  142.3861  159.0052 C   0  0  2  0  0  0  0  0  0  0  0  0
  153.0558  141.6588  160.2326 C   0  0  0  0  0  0  0  0  0  0  0  0
  152.9001  142.3676  161.3482 C   0  0  0  0  0  0  0  0  0  0  0  0
  152.2697  143.7088  161.0953 C   0  0  0  0  0  0  0  0  0  0  0  0
  151.9693  143.6989  159.5797 C   0  0  0  0  0  0  0  0  0  0  0  0
  151.7175  136.3273  156.4248 H   0  0  0  0  0  0  0  0  0  0  0  0
  150.3080  137.2461  156.9466 H   0  0  0  0  0  0  0  0  0  0  0  0
  151.8284  137.3742  157.8291 H   0  0  0  0  0  0  0  0  0  0  0  0
  152.9057  138.4114  155.8409 H   0  0  0  0  0  0  0  0  0  0  0  0
  151.9580  138.6158  153.7673 H   0  0  0  0  0  0  0  0  0  0  0  0
  150.8295  137.3959  154.3094 H   0  0  0  0  0  0  0  0  0  0  0  0
  148.4713  138.0353  153.7654 H   0  0  0  0  0  0  0  0  0  0  0  0
  147.0747  140.3804  153.7099 H   0  0  0  0  0  0  0  0  0  0  0  0
  148.9781  142.2549  154.4477 H   0  0  0  0  0  0  0  0  0  0  0  0
  150.6780  140.2179  156.2053 H   0  0  0  0  0  0  0  0  0  0  0  0
  151.2258  142.1660  157.3116 H   0  0  0  0  0  0  0  0  0  0  0  0
  150.6478  141.3924  158.7667 H   0  0  0  0  0  0  0  0  0  0  0  0
  153.4331  142.6245  158.3937 H   0  0  0  0  0  0  0  0  0  0  0  0
  153.5008  140.6758  160.1821 H   0  0  0  0  0  0  0  0  0  0  0  0
  153.1949  142.0467  162.3363 H   0  0  0  0  0  0  0  0  0  0  0  0
  151.3620  143.8242  161.6886 H   0  0  0  0  0  0  0  0  0  0  0  0
  152.9663  144.5035  161.3634 H   0  0  0  0  0  0  0  0  0  0  0  0
  152.4001  144.5715  159.0873 H   0  0  0  0  0  0  0  0  0  0  0  0
  150.8914  143.7450  159.4190 H   0  0  0  0  0  0  0  0  0  0  0  0
  1  2  1  0  0  0  0
  1 18  1  0  0  0  0
  1 19  1  0  0  0  0
  1 20  1  0  0  0  0
  2  3  1  0  0  0  0
  2  9  1  0  0  0  0
  2 21  1  0  0  0  0
  3  4  1  0  0  0  0
  3 22  1  0  0  0  0
  3 23  1  0  0  0  0
  4  8  1  0  0  0  0
  4  5  1  0  0  0  0
  5  6  2  0  0  0  0
  5 24  1  0  0  0  0
  6  7  1  0  0  0  0
  6 25  1  0  0  0  0
  7  8  2  0  0  0  0
  7 26  1  0  0  0  0
  9 10  1  0  0  0  0
  9 27  1  0  0  0  0
 10 11  2  0  0  0  0
 10 12  1  0  0  0  0
 12 13  1  0  0  0  0
 12 28  1  0  0  0  0
 12 29  1  0  0  0  0
 13 17  1  0  0  0  0
 13 14  1  0  0  0  0
 13 30  1  0  0  0  0
 14 15  2  0  0  0  0
 14 31  1  0  0  0  0
 15 16  1  0  0  0  0
 15 32  1  0  0  0  0
 16 17  1  0  0  0  0
 16 33  1  0  0  0  0
 16 34  1  0  0  0  0
 17 35  1  0  0  0  0
 17 36  1  0  0  0  0
M  END
> <s_m_source_file>
AV-unprocessed.smi

> <i_m_source_file_index>
1286

> <i_lp_mmshare_version>
43012

> <i_f3d_flags>
0

> <s_epik_input>
bjFbY0hdW2NIXVtjSF1uMVtDSDJdW0NAQEhdKFtDSDNdKVtOSF1DKD1PKVtDSDJdW0NAQEhdMltDSF09W0NIXVtDSDJdW0NIMl0y

> <s_epik_cmdline>
J2VwaWtfcHl0aG9uJywgJy1waCcsICc3LjAnLCAnLXRuJywgJzgnLCAnLW1hJywgJzIwMCcsICctbWV0YWxfYmluZGluZycsICctaW1hZScsICc8aW5maWxlLm1hZT4nLCAnLW9tYWUnLCAnPG91dGZpbGUubWFlPic=

> <r_lp_tautomer_probability>
1

> <r_epik_Ionization_Penalty>
0.000301761

> <r_epik_Ionization_Penalty_Charging>
0

> <r_epik_Ionization_Penalty_Neutral>
0.000301761

> <r_epik_State_Penalty>
-0

> <r_epik_Charging_Adjusted_Penalty>
0

> <i_epik_Tot_Q>
0

> <i_epik_Tot_abs_Q>
0

> <r_epik_Metal_State_Penalty>
-0

> <b_epik_Metal_Only>
0

> <s_lp_Force_Field>
OPLS_2005

> <r_lp_Energy>
16.2902

> <b_lp_Chiralities_Consistent>
1

> <s_lp_Variant>
AV-unprocessed.smi:1286-2

> <Gold.Version>
5.8.1

> <Gold.Id.Protein>
6NUR|6NUR_protein|mol2

> <Gold.PLP.Fitness>
47.0190

> <Gold.PLP.PLP>
-40.0720

> <Gold.PLP.part.hbond>
-2.0000

> <Gold.PLP.part.metal>
0.0000

> <Gold.PLP.part.buried>
-2.2442

> <Gold.PLP.part.nonpolar>
-35.3549

> <Gold.PLP.part.repulsive>
0.2122

> <Gold.PLP.ligand.clash>
0.0000

> <Gold.PLP.ligand.torsion>
1.1036

> <Gold.PLP.Chemscore.Hbond>
1.7888

> <Gold.PLP.Chemscore.CHOScore>
1.2203

> <Gold.PLP.Chemscore.Metal>
0.0000

> <Gold.Chemscore.Hbonds>
donor molecule, donor type, donor heavy atom, donor atom, acceptor molecule, acceptor atom, score
      P1  H  7989  7998       L1     8  0.78
      P1  H  7997  8008       L1    11  1.00
      L1  C     5    24       P1  7948  0.69
      L1  C     7    26       P1  8028  0.50

> <Gold.PLP.Chemscore.Internal.Correction>
0.1269

> <Gold.Rescore>
     Score         DG    S(hbond)    S(metal)    S(lipo)     H(rot)  DE(clash)    DE(int)     intcor
     16.57     -19.07       1.74        0.00     102.40       1.64       0.06       2.43       ----

> <Gold.Chemscore.Fitness>
16.5716

> <Gold.Chemscore.DG>
-19.0656

> <Gold.Chemscore.ZeroCoef>
-5.4800

> <Gold.Chemscore.Hbond>
1.7370

> <Gold.Chemscore.Metal>
0.0000

> <Gold.Chemscore.Lipo>
102.4003

> <Gold.Chemscore.Internal_Hbond>
0.0000

> <Gold.Chemscore.DEClash>
0.0626

> <Gold.Chemscore.DEInternal>
2.4314

> <Gold.Chemscore.Rot>
1.6394

> <Gold.Chemscore.Internal.Correction>
   9.000000E+99

> <Gold.Chemscore.Hbonds>
donor molecule, donor type, donor heavy atom, donor atom, acceptor molecule, acceptor atom, score
      P1  H  7989  7998       L1     8  0.15
      P1  H  7997  8008       L1    11  0.74

> <Gold.Chemscore.Hbond.Weighted>
-5.8017

> <Gold.Chemscore.Metal.Weighted>
-0.0000

> <Gold.Chemscore.Lipo.Weighted>
-11.9808

> <Gold.Chemscore.Internal_Hbond.Weighted>
0.0000

> <Gold.Chemscore.DEClash.Weighted>
0.0626

> <Gold.Chemscore.DEInternal.Weighted>
2.4314

> <Gold.Chemscore.Rot.Weighted>
4.1969

> <Gold.Chemscore.Internal.Correction.Weighted>
   9.000000E+99

> <Gold.Protein.RotatedTorsions>
[ 6907 6896 6895 6894 ] final  -53.49 input  -60.11 | X-H torsion
[ 7974 7965 7964 7962 ] final  143.43 input  175.53 | X-H torsion
[ 8008 7997 7996 7995 ] final  -99.96 input   59.86 | X-H torsion
[ 10167 10162 10161 10158 ] final   74.98 input  -65.29 | X-H torsion
[ 10718 10713 10712 10709 ] final  132.58 input   66.30 | X-H torsion
[ 10763 10752 10751 10750 ] final   20.79 input  -60.55 | X-H torsion
[ 11005 11000 10999 10996 ] final  169.34 input  -57.11 | X-H torsion

> <Gold.Protein.ActiveResidues>
 VAL166  LYS551  ARG553  GLY616  TRP617  ASP618  TYR619  PRO620  LYS621  CYS622 
 ASP623  PHE694  ASN695  SER759  ASP760  ASP761  ALA762  ILE779  LEU786  VAL792 
 PHE793  MET794  SER795  GLU796  ALA797  LYS798  CYS799  TRP800  GLU811  SER814 

> <Gold.Protein.RotatedAtoms>
  150.8422  134.7718  159.6941 H   0  0  0  0  0  0  0  0  0  0  0  0  # atno 6907 bound_to 6896
  152.4507  134.5396  159.9845 H   0  0  0  0  0  0  0  0  0  0  0  0  # atno 6908 bound_to 6896
  151.5534  133.3376  159.2993 H   0  0  0  0  0  0  0  0  0  0  0  0  # atno 6909 bound_to 6896
  144.8922  139.5542  143.5793 H   0  0  0  0  0  0  0  0  0  0  0  0  # atno 7974 bound_to 7965
  154.8220  140.0444  157.1417 H   0  0  0  0  0  0  0  0  0  0  0  0  # atno 8008 bound_to 7997
  154.9249  140.3032  155.5177 H   0  0  0  0  0  0  0  0  0  0  0  0  # atno 8009 bound_to 7997
  156.2981  140.2334  156.4303 H   0  0  0  0  0  0  0  0  0  0  0  0  # atno 8010 bound_to 7997
  140.0079  144.5637  150.7683 H   0  0  0  0  0  0  0  0  0  0  0  0  # atno 10167 bound_to 10162
  157.4857  131.1088  150.9623 H   0  0  0  0  0  0  0  0  0  0  0  0  # atno 10718 bound_to 10713
  153.1048  135.6682  153.9606 H   0  0  0  0  0  0  0  0  0  0  0  0  # atno 10763 bound_to 10752
  153.9166  135.3019  155.3449 H   0  0  0  0  0  0  0  0  0  0  0  0  # atno 10764 bound_to 10752
  154.7469  135.5053  153.9296 H   0  0  0  0  0  0  0  0  0  0  0  0  # atno 10765 bound_to 10752
  140.2967  134.7629  157.3883 H   0  0  0  0  0  0  0  0  0  0  0  0  # atno 11005 bound_to 11000
  146.3060  139.7582  142.9056 LP  0  0  0  0  0  0  0  0  0  0  0  0  # atno 17320 bound_to 7965
  145.3763  141.0351  143.3202 LP  0  0  0  0  0  0  0  0  0  0  0  0  # atno 17321 bound_to 7965
  140.7393  143.2789  151.3656 LP  0  0  0  0  0  0  0  0  0  0  0  0  # atno 17342 bound_to 10162
  139.6226  144.0878  152.2405 LP  0  0  0  0  0  0  0  0  0  0  0  0  # atno 17343 bound_to 10162
  157.0342  130.5723  149.5347 LP  0  0  0  0  0  0  0  0  0  0  0  0  # atno 17370 bound_to 10713
  156.0145  130.5239  150.8093 LP  0  0  0  0  0  0  0  0  0  0  0  0  # atno 17371 bound_to 10713
  140.1146  134.5300  155.8236 LP  0  0  0  0  0  0  0  0  0  0  0  0  # atno 17394 bound_to 11000
  141.2136  133.6736  156.6753 LP  0  0  0  0  0  0  0  0  0  0  0  0  # atno 17395 bound_to 11000

$$$$
