#       Name:                AV-unprocessed.smi:182
#       Creating user name   scv26
#       Creation time:       Thu Mar 26 19:25:58 2020


#       File generated by GOLD software.
#

@<TRIPOS>MOLECULE
AV-unprocessed.smi:182
    66    69     1
SMALL
NO_CHARGES


@<TRIPOS>ATOM
      1 ****        -3.4655  -2.2627   4.5345 N.am           1 S1                 0.0000
      2 ****        -4.3729  -1.8122   3.6649 C.2            1 S1                 0.0000
      3 ****        -5.5506  -1.6477   3.9778 O.2            1 S1                 0.0000
      4 ****        -3.8745  -1.5126   2.2472 C.3            1 S1                 0.0000
      5 ****        -4.7754  -0.5282   1.4727 C.3            1 S1                 0.0000
      6 ****        -4.3001  -0.2561   0.0316 C.3            1 S1                 0.0000
      7 ****        -5.3737   0.5001  -0.7759 C.3            1 S1                 0.0000
      8 ****        -4.8871   0.7700  -2.2082 C.3            1 S1                 0.0000
      9 ****        -3.5401   1.5095  -2.2045 C.3            1 S1                 0.0000
     10 ****        -2.5580   0.7923  -1.3904 N.3            1 S1                 0.0000
     11 ****        -1.2470   1.1120  -1.5431 C.ar           1 S1                 0.0000
     12 ****        -0.8994   2.3178  -2.0680 N.ar           1 S1                 0.0000
     13 ****         0.3874   2.6466  -2.2130 C.ar           1 S1                 0.0000
     14 ****         1.4707   1.9332  -1.9016 N.ar           1 S1                 0.0000
     15 ****         1.1314   0.7204  -1.3789 C.ar           1 S1                 0.0000
     16 ****        -0.1901   0.2312  -1.1746 C.ar           1 S1                 0.0000
     17 ****        -0.1399  -1.0572  -0.6544 N.2            1 S1                 0.0000
     18 ****         1.1359  -1.3104  -0.5499 C.2            1 S1                 0.0000
     19 ****         1.9711  -0.2855  -0.9327 N.pl3          1 S1                 0.0000
     20 ****         3.4045  -0.3106  -0.9555 C.3            1 S1                 0.0000
     21 ****         4.2003  -1.0995   0.0875 C.3            1 S1                 0.0000
     22 ****         5.3289  -0.0458   0.0127 C.3            1 S1                 0.0000
     23 ****         5.9535   0.3566   1.3592 C.3            1 S1                 0.0000
     24 ****         6.6323   1.5919   1.2594 O.3            1 S1                 0.0000
     25 ****         6.4547  -0.3564  -0.9943 C.3            1 S1                 0.0000
     26 ****         7.1788  -1.5104  -0.6189 O.3            1 S1                 0.0000
     27 ****         4.2252   0.9009  -0.5079 C.3            1 S1                 0.0000
     28 ****        -2.9720   0.5292  -0.0123 C.3            1 S1                 0.0000
     29 ****        -3.7428  -2.4761   5.4818 H              1 S1                 0.0000
     30 ****        -2.5070  -2.3895   4.2438 H              1 S1                 0.0000
     31 ****        -2.8612  -1.1174   2.3186 H              1 S1                 0.0000
     32 ****        -3.8059  -2.4560   1.7045 H              1 S1                 0.0000
     33 ****        -5.7864  -0.9366   1.4312 H              1 S1                 0.0000
     34 ****        -4.8518   0.4144   2.0168 H              1 S1                 0.0000
     35 ****        -4.1407  -1.2200  -0.4545 H              1 S1                 0.0000
     36 ****        -6.3000  -0.0747  -0.8059 H              1 S1                 0.0000
     37 ****        -5.6097   1.4456  -0.2857 H              1 S1                 0.0000
     38 ****        -4.7812  -0.1759  -2.7406 H              1 S1                 0.0000
     39 ****        -5.6306   1.3516  -2.7538 H              1 S1                 0.0000
     40 ****        -3.1800   1.6091  -3.2296 H              1 S1                 0.0000
     41 ****        -3.6691   2.5174  -1.8073 H              1 S1                 0.0000
     42 ****         0.5758   3.6223  -2.6361 H              1 S1                 0.0000
     43 ****         1.5036  -2.2577  -0.1830 H              1 S1                 0.0000
     44 ****         3.6841  -0.6147  -1.9656 H              1 S1                 0.0000
     45 ****         3.7037  -1.1226   1.0595 H              1 S1                 0.0000
     46 ****         4.4810  -2.1044  -0.2289 H              1 S1                 0.0000
     47 ****         5.1855   0.4619   2.1259 H              1 S1                 0.0000
     48 ****         6.6468  -0.4013   1.7246 H              1 S1                 0.0000
     49 ****         6.9887   1.8083   2.1074 H              1 S1                 0.0000
     50 ****         6.0549  -0.5261  -1.9941 H              1 S1                 0.0000
     51 ****         7.1497   0.4785  -1.0865 H              1 S1                 0.0000
     52 ****         6.5850  -2.2453  -0.6028 H              1 S1                 0.0000
     53 ****         4.5334   1.5624  -1.3181 H              1 S1                 0.0000
     54 ****         3.7354   1.4637   0.2892 H              1 S1                 0.0000
     55 ****        -3.0863   1.4836   0.5035 H              1 S1                 0.0000
     56 ****        -2.2008  -0.0187   0.5246 H              1 S1                 0.0000
     57 ****        -5.8542  -1.8530   4.9082 LP             1 S1                 0.0000
     58 ****        -6.2049  -1.3086   3.3018 LP             1 S1                 0.0000
     59 ****        -2.5765  -0.1016  -1.8383 LP             1 S1                 0.0000
     60 ****        -1.6115   2.9622  -2.3471 LP             1 S1                 0.0000
     61 ****         2.4107   2.2475  -2.0345 LP             1 S1                 0.0000
     62 ****        -0.9063  -1.6534  -0.4151 LP             1 S1                 0.0000
     63 ****         5.9937   2.3051   0.9700 LP             1 S1                 0.0000
     64 ****         7.3728   1.5167   0.5916 LP             1 S1                 0.0000
     65 ****         7.5766  -1.3783   0.2889 LP             1 S1                 0.0000
     66 ****         7.9085  -1.6809  -1.2811 LP             1 S1                 0.0000
@<TRIPOS>BOND
    1    1    2 am    
    2    1   29 1     
    3    1   30 1     
    4    2    3 2     
    5    2    4 1     
    6    4    5 1     
    7    4   31 1     
    8    4   32 1     
    9    5    6 1     
   10    5   33 1     
   11    5   34 1     
   12    6   28 1     
   13    6    7 1     
   14    6   35 1     
   15    7    8 1     
   16    7   36 1     
   17    7   37 1     
   18    8    9 1     
   19    8   38 1     
   20    8   39 1     
   21    9   10 1     
   22    9   40 1     
   23    9   41 1     
   24   10   11 1     
   25   10   28 1     
   26   11   16 ar    
   27   11   12 ar    
   28   12   13 ar    
   29   13   14 ar    
   30   13   42 1     
   31   14   15 ar    
   32   15   19 1     
   33   15   16 ar    
   34   16   17 1     
   35   17   18 2     
   36   18   19 1     
   37   18   43 1     
   38   19   20 1     
   39   20   27 1     
   40   20   21 1     
   41   20   44 1     
   42   21   22 1     
   43   21   45 1     
   44   21   46 1     
   45   22   23 1     
   46   22   25 1     
   47   22   27 1     
   48   23   24 1     
   49   23   47 1     
   50   23   48 1     
   51   24   49 1     
   52   25   26 1     
   53   25   50 1     
   54   25   51 1     
   55   26   52 1     
   56   27   53 1     
   57   27   54 1     
   58   28   55 1     
   59   28   56 1     
   60    3   57 1     
   61    3   58 1     
   62   10   59 1     
   63   12   60 1     
   64   14   61 1     
   65   17   62 1     
   66   24   63 1     
   67   24   64 1     
   68   26   65 1     
   69   26   66 1     
@<TRIPOS>SUBSTRUCTURE
      1 S1             1
@<TRIPOS>SET
LONE_PAIRS      STATIC     ATOMS    <user>   **** ""
10 57 58 59 60 61 62 63 64 65 66
DONOR_HYDROGENS      STATIC     ATOMS    <user>   **** ""
4 29 30 49 52
ATOM$BLUE        STATIC     ATOMS    COLORGROUP SYSTEM
10 57 58 59 60 61 62 63 64 65 66
ATOM$RED        STATIC     ATOMS    COLORGROUP SYSTEM
4 29 30 49 52
