AV-unprocessed.smi:2062|AV-procd|sdf|8402|dock5
  -GOLD-   2272011 83D 1   1.00000     0.00000
 Structure written by MMmdl.
 42 43  0  0  0  0  0  0  0  0  3 V2000
  143.5409  136.7526  152.4952 C   0  0  0  0  0  0  0  0  0  0  0  0
  145.0560  136.9337  152.3205 C   0  0  0  0  0  0  0  0  0  0  0  0
  145.5673  136.0804  151.1475 C   0  0  0  0  0  0  0  0  0  0  0  0
  145.7949  136.6077  153.6366 C   0  0  0  0  0  0  0  0  0  0  0  0
  147.1324  137.2468  153.7336 N   0  3  1  0  0  0  0  0  0  0  0  0
  147.0915  138.7276  153.6454 C   0  0  0  0  0  0  0  0  0  0  0  0
  148.5108  139.3104  153.7336 C   0  0  0  0  0  0  0  0  0  0  0  0
  149.1257  138.8687  154.9350 O   0  0  0  0  0  0  0  0  0  0  0  0
  149.2767  137.4536  154.9801 C   0  0  1  0  0  0  0  0  0  0  0  0
  150.0461  137.0702  156.2564 C   0  0  0  0  0  0  0  0  0  0  0  0
  149.3137  137.4530  157.4587 N   0  0  0  0  0  0  0  0  0  0  0  0
  149.0190  136.6496  158.4902 C   0  0  0  0  0  0  0  0  0  0  0  0
  149.4016  135.4773  158.4877 O   0  0  0  0  0  0  0  0  0  0  0  0
  148.2942  137.2542  159.4578 N   0  5  0  0  0  0  0  0  0  0  0  0
  147.8786  136.5505  160.5236 C   0  0  0  0  0  0  0  0  0  0  0  0
  147.5159  137.1220  161.6777 N   0  0  0  0  0  0  0  0  0  0  0  0
  147.1222  136.2033  162.6525 C   0  0  0  0  0  0  0  0  0  0  0  0
  147.1941  134.9013  162.2332 C   0  0  0  0  0  0  0  0  0  0  0  0
  147.7634  134.7896  160.5920 S   0  0  0  0  0  0  0  0  0  0  0  0
  147.8722  136.8204  154.9457 C   0  0  0  0  0  0  0  0  0  0  0  0
  143.2892  135.7205  152.7418 H   0  0  0  0  0  0  0  0  0  0  0  0
  143.0051  137.0167  151.5828 H   0  0  0  0  0  0  0  0  0  0  0  0
  143.1581  137.3880  153.2943 H   0  0  0  0  0  0  0  0  0  0  0  0
  145.2168  137.9811  152.0680 H   0  0  0  0  0  0  0  0  0  0  0  0
  145.4314  135.0160  151.3420 H   0  0  0  0  0  0  0  0  0  0  0  0
  146.6273  136.2526  150.9597 H   0  0  0  0  0  0  0  0  0  0  0  0
  145.0329  136.3196  150.2277 H   0  0  0  0  0  0  0  0  0  0  0  0
  145.1949  136.9057  154.4978 H   0  0  0  0  0  0  0  0  0  0  0  0
  145.9061  135.5243  153.7060 H   0  0  0  0  0  0  0  0  0  0  0  0
  146.6336  139.0452  152.7096 H   0  0  0  0  0  0  0  0  0  0  0  0
  146.4773  139.1262  154.4544 H   0  0  0  0  0  0  0  0  0  0  0  0
  149.1109  139.0165  152.8710 H   0  0  0  0  0  0  0  0  0  0  0  0
  148.4699  140.3997  153.7378 H   0  0  0  0  0  0  0  0  0  0  0  0
  149.8474  137.1196  154.1110 H   0  0  0  0  0  0  0  0  0  0  0  0
  150.2819  136.0048  156.2643 H   0  0  0  0  0  0  0  0  0  0  0  0
  151.0012  137.5956  156.2807 H   0  0  0  0  0  0  0  0  0  0  0  0
  148.9851  138.4062  157.5096 H   0  0  0  0  0  0  0  0  0  0  0  0
  146.8060  136.5651  163.6193 H   0  0  0  0  0  0  0  0  0  0  0  0
  146.9505  134.0062  162.7851 H   0  0  0  0  0  0  0  0  0  0  0  0
  147.3080  137.1043  155.8358 H   0  0  0  0  0  0  0  0  0  0  0  0
  147.9618  135.7333  154.9556 H   0  0  0  0  0  0  0  0  0  0  0  0
  147.6700  136.9169  152.9446 H   0  0  0  0  0  0  0  0  0  0  0  0
  1  2  1  0  0  0  0
  1 21  1  0  0  0  0
  1 22  1  0  0  0  0
  1 23  1  0  0  0  0
  2  3  1  0  0  0  0
  2  4  1  0  0  0  0
  2 24  1  0  0  0  0
  3 25  1  0  0  0  0
  3 26  1  0  0  0  0
  3 27  1  0  0  0  0
  4  5  1  0  0  0  0
  4 28  1  0  0  0  0
  4 29  1  0  0  0  0
  5 20  1  0  0  0  0
  5  6  1  0  0  0  0
  5 42  1  0  0  0  0
  6  7  1  0  0  0  0
  6 30  1  0  0  0  0
  6 31  1  0  0  0  0
  7  8  1  0  0  0  0
  7 32  1  0  0  0  0
  7 33  1  0  0  0  0
  8  9  1  0  0  0  0
  9 10  1  0  0  0  0
  9 20  1  0  0  0  0
  9 34  1  0  0  0  0
 10 11  1  0  0  0  0
 10 35  1  0  0  0  0
 10 36  1  0  0  0  0
 11 12  1  0  0  0  0
 11 37  1  0  0  0  0
 12 13  2  0  0  0  0
 12 14  1  0  0  0  0
 14 15  1  0  0  0  0
 15 19  1  0  0  0  0
 15 16  2  0  0  0  0
 16 17  1  0  0  0  0
 17 18  2  0  0  0  0
 17 38  1  0  0  0  0
 18 19  1  0  0  0  0
 18 39  1  0  0  0  0
 20 40  1  0  0  0  0
 20 41  1  0  0  0  0
M  CHG  1   5   1
M  CHG  1  14  -1
M  END
> <s_m_source_file>
AV-unprocessed.smi

> <i_m_source_file_index>
2062

> <i_lp_mmshare_version>
43012

> <i_f3d_flags>
0

> <s_epik_input>
W0NIM11bQ0hdKFtDSDNdKVtDSDJdTjFbQ0gyXVtDSDJdT1tDQEhdKFtDSDJdMSlbQ0gyXVtOSF1DKD1PKVtOSF1jMm5bY0hdW2NIXXMy

> <s_epik_cmdline>
J2VwaWtfcHl0aG9uJywgJy1waCcsICc3LjAnLCAnLXRuJywgJzgnLCAnLW1hJywgJzIwMCcsICctbWV0YWxfYmluZGluZycsICctaW1hZScsICc8aW5maWxlLm1hZT4nLCAnLW9tYWUnLCAnPG91dGZpbGUubWFlPic=

> <r_lp_tautomer_probability>
0.999

> <r_epik_Ionization_Penalty>
6.35835

> <r_epik_Ionization_Penalty_Charging>
5.49938

> <r_epik_Ionization_Penalty_Neutral>
0.858963

> <r_epik_State_Penalty>
5.49328

> <r_epik_Charging_Adjusted_Penalty>
10.9927

> <i_epik_Tot_Q>
0

> <i_epik_Tot_abs_Q>
2

> <r_epik_Metal_State_Penalty>
1.51523

> <b_epik_Metal_Only>
1

> <s_lp_Force_Field>
OPLS_2005

> <r_lp_Energy>
7.56536

> <b_lp_Chiralities_Consistent>
1

> <s_lp_Variant>
AV-unprocessed.smi:2062-7

> <Gold.Version>
5.8.1

> <Gold.Id.Protein>
6NUR|6NUR_protein|mol2

> <Gold.PLP.Fitness>
43.2355

> <Gold.PLP.PLP>
-30.0810

> <Gold.PLP.part.hbond>
-4.6556

> <Gold.PLP.part.metal>
0.0000

> <Gold.PLP.part.buried>
-2.0769

> <Gold.PLP.part.nonpolar>
-22.9178

> <Gold.PLP.part.repulsive>
0.1360

> <Gold.PLP.ligand.clash>
0.0000

> <Gold.PLP.ligand.torsion>
0.3345

> <Gold.PLP.Chemscore.Hbond>
4.5566

> <Gold.PLP.Chemscore.CHOScore>
0.0000

> <Gold.PLP.Chemscore.Metal>
0.0000

> <Gold.Chemscore.Hbonds>
donor molecule, donor type, donor heavy atom, donor atom, acceptor molecule, acceptor atom, score
      L1  H     5    42       P1  7948  2.00
      P1  H  6896  6907       L1    13  1.00
      P1  H  6931  6943       L1    16  0.94
      P1  H  6934  6947       L1    16  0.67

> <Gold.PLP.Chemscore.Internal.Correction>
0.1534

> <Gold.Rescore>
     Score         DG    S(hbond)    S(metal)    S(lipo)     H(rot)  DE(clash)    DE(int)     intcor
     14.95     -17.11       2.63        0.00      62.01       1.72       0.43       1.73       ----

> <Gold.Chemscore.Fitness>
14.9525

> <Gold.Chemscore.DG>
-17.1146

> <Gold.Chemscore.ZeroCoef>
-5.4800

> <Gold.Chemscore.Hbond>
2.6290

> <Gold.Chemscore.Metal>
0.0000

> <Gold.Chemscore.Lipo>
62.0134

> <Gold.Chemscore.Internal_Hbond>
0.0000

> <Gold.Chemscore.DEClash>
0.4337

> <Gold.Chemscore.DEInternal>
1.7283

> <Gold.Chemscore.Rot>
1.7194

> <Gold.Chemscore.Internal.Correction>
   9.000000E+99

> <Gold.Chemscore.Hbonds>
donor molecule, donor type, donor heavy atom, donor atom, acceptor molecule, acceptor atom, score
      L1  H     5    42       P1  7948  1.00
      P1  H  6896  6907       L1    13  0.99
      P1  H  6931  6943       L1    16  0.20
      P1  H  6934  6947       L1    16  0.13

> <Gold.Chemscore.Hbond.Weighted>
-8.7808

> <Gold.Chemscore.Metal.Weighted>
-0.0000

> <Gold.Chemscore.Lipo.Weighted>
-7.2556

> <Gold.Chemscore.Internal_Hbond.Weighted>
0.0000

> <Gold.Chemscore.DEClash.Weighted>
0.4337

> <Gold.Chemscore.DEInternal.Weighted>
1.7283

> <Gold.Chemscore.Rot.Weighted>
4.4017

> <Gold.Chemscore.Internal.Correction.Weighted>
   9.000000E+99

> <Gold.Protein.RotatedTorsions>
[ 6907 6896 6895 6894 ] final  -84.78 input  -60.11 | X-H torsion
[ 7974 7965 7964 7962 ] final  -70.12 input  175.53 | X-H torsion
[ 8008 7997 7996 7995 ] final -101.98 input   59.86 | X-H torsion
[ 10167 10162 10161 10158 ] final  -18.83 input  -65.29 | X-H torsion
[ 10718 10713 10712 10709 ] final   68.04 input   66.30 | X-H torsion
[ 10763 10752 10751 10750 ] final   95.31 input  -60.55 | X-H torsion
[ 11005 11000 10999 10996 ] final   42.05 input  -57.11 | X-H torsion

> <Gold.Protein.ActiveResidues>
 VAL166  LYS551  ARG553  GLY616  TRP617  ASP618  TYR619  PRO620  LYS621  CYS622 
 ASP623  PHE694  ASN695  SER759  ASP760  ASP761  ALA762  ILE779  LEU786  VAL792 
 PHE793  MET794  SER795  GLU796  ALA797  LYS798  CYS799  TRP800  GLU811  SER814 

> <Gold.Protein.RotatedAtoms>
  150.6874  134.3305  159.4824 H   0  0  0  0  0  0  0  0  0  0  0  0  # atno 6907 bound_to 6896
  152.1170  134.9230  160.0574 H   0  0  0  0  0  0  0  0  0  0  0  0  # atno 6908 bound_to 6896
  152.0451  133.3959  159.4390 H   0  0  0  0  0  0  0  0  0  0  0  0  # atno 6909 bound_to 6896
  145.6950  140.9138  143.0761 H   0  0  0  0  0  0  0  0  0  0  0  0  # atno 7974 bound_to 7965
  154.8501  140.0431  157.1599 H   0  0  0  0  0  0  0  0  0  0  0  0  # atno 8008 bound_to 7997
  154.8952  140.2992  155.5328 H   0  0  0  0  0  0  0  0  0  0  0  0  # atno 8009 bound_to 7997
  156.2996  140.2386  156.3972 H   0  0  0  0  0  0  0  0  0  0  0  0  # atno 8010 bound_to 7997
  140.7262  143.4877  151.0032 H   0  0  0  0  0  0  0  0  0  0  0  0  # atno 10167 bound_to 10162
  157.6266  130.9352  150.0323 H   0  0  0  0  0  0  0  0  0  0  0  0  # atno 10718 bound_to 10713
  153.2517  135.4258  155.0804 H   0  0  0  0  0  0  0  0  0  0  0  0  # atno 10763 bound_to 10752
  154.8384  135.3427  154.6503 H   0  0  0  0  0  0  0  0  0  0  0  0  # atno 10764 bound_to 10752
  153.6924  135.7033  153.5143 H   0  0  0  0  0  0  0  0  0  0  0  0  # atno 10765 bound_to 10752
  140.1776  134.4144  155.8219 H   0  0  0  0  0  0  0  0  0  0  0  0  # atno 11005 bound_to 11000
  144.6985  139.8872  143.7451 LP  0  0  0  0  0  0  0  0  0  0  0  0  # atno 17320 bound_to 7965
  146.0848  139.3836  143.0442 LP  0  0  0  0  0  0  0  0  0  0  0  0  # atno 17321 bound_to 7965
  139.8580  143.7352  152.3175 LP  0  0  0  0  0  0  0  0  0  0  0  0  # atno 17342 bound_to 10162
  139.7557  144.7521  151.0439 LP  0  0  0  0  0  0  0  0  0  0  0  0  # atno 17343 bound_to 10162
  156.1442  130.3642  149.9536 LP  0  0  0  0  0  0  0  0  0  0  0  0  # atno 17370 bound_to 10713
  156.7571  130.9137  151.3640 LP  0  0  0  0  0  0  0  0  0  0  0  0  # atno 17371 bound_to 10713
  141.2221  133.6985  156.7874 LP  0  0  0  0  0  0  0  0  0  0  0  0  # atno 17394 bound_to 11000
  140.2305  134.8689  157.3471 LP  0  0  0  0  0  0  0  0  0  0  0  0  # atno 17395 bound_to 11000

$$$$
