AV-unprocessed.smi:1397|AV-procd|sdf|5679|dock3
  -GOLD-   22720 5303D 1   1.00000     0.00000
 Structure written by MMmdl.
 37 38  0  0  0  0  0  0  0  0  1 V2000
  150.1164  140.9001  155.9224 C   0  0  0  0  0  0  0  0  0  0  0  0
  149.0208  141.1596  154.8858 C   0  0  0  0  0  0  0  0  0  0  0  0
  149.2058  142.0550  154.0616 O   0  0  0  0  0  0  0  0  0  0  0  0
  147.8968  140.4030  154.9055 N   0  0  0  0  0  0  0  0  0  0  0  0
  146.8266  140.5451  153.9108 C   0  0  0  0  0  0  0  0  0  0  0  0
  146.8050  139.2941  153.0140 C   0  0  0  0  0  0  0  0  0  0  0  0
  146.6517  138.0052  153.8531 C   0  0  0  0  0  0  0  0  0  0  0  0
  146.8159  136.8202  153.0163 N   0  0  0  0  0  0  0  0  0  0  0  0
  145.8175  136.0406  152.5751 C   0  0  0  0  0  0  0  0  0  0  0  0
  144.6304  136.2511  152.8262 O   0  0  0  0  0  0  0  0  0  0  0  0
  146.2872  135.0195  151.8366 N   0  0  0  0  0  0  0  0  0  0  0  0
  145.5523  133.9780  151.2090 C   0  0  0  0  0  0  0  0  0  0  0  0
  146.3342  133.0331  150.5065 C   0  0  0  0  0  0  0  0  0  0  0  0
  145.7006  131.9601  149.8500 C   0  0  0  0  0  0  0  0  0  0  0  0
  144.2994  131.8597  149.9127 C   0  0  0  0  0  0  0  0  0  0  0  0
  143.5955  132.8428  150.6326 C   0  0  0  0  0  0  0  0  0  0  0  0
  144.2008  133.8717  151.2626 N   0  0  0  0  0  0  0  0  0  0  0  0
  147.6690  137.9687  155.0131 C   0  0  0  0  0  0  0  0  0  0  0  0
  147.6431  139.2806  155.8179 C   0  0  0  0  0  0  0  0  0  0  0  0
  150.4829  139.8757  155.8505 H   0  0  0  0  0  0  0  0  0  0  0  0
  149.7423  141.0743  156.9315 H   0  0  0  0  0  0  0  0  0  0  0  0
  150.9632  141.5682  155.7623 H   0  0  0  0  0  0  0  0  0  0  0  0
  145.8696  140.6544  154.4231 H   0  0  0  0  0  0  0  0  0  0  0  0
  146.9366  141.4387  153.2950 H   0  0  0  0  0  0  0  0  0  0  0  0
  145.9925  139.3722  152.2905 H   0  0  0  0  0  0  0  0  0  0  0  0
  147.7302  139.2527  152.4368 H   0  0  0  0  0  0  0  0  0  0  0  0
  145.6519  137.9971  154.2921 H   0  0  0  0  0  0  0  0  0  0  0  0
  147.7607  136.5741  152.7593 H   0  0  0  0  0  0  0  0  0  0  0  0
  147.2879  134.9779  151.7143 H   0  0  0  0  0  0  0  0  0  0  0  0
  147.4102  133.1250  150.4685 H   0  0  0  0  0  0  0  0  0  0  0  0
  146.2804  131.2274  149.3081 H   0  0  0  0  0  0  0  0  0  0  0  0
  143.7779  131.0514  149.4218 H   0  0  0  0  0  0  0  0  0  0  0  0
  142.5186  132.8034  150.7038 H   0  0  0  0  0  0  0  0  0  0  0  0
  147.4560  137.1249  155.6704 H   0  0  0  0  0  0  0  0  0  0  0  0
  148.6750  137.8099  154.6210 H   0  0  0  0  0  0  0  0  0  0  0  0
  148.3486  139.2198  156.6450 H   0  0  0  0  0  0  0  0  0  0  0  0
  146.6643  139.4128  156.2813 H   0  0  0  0  0  0  0  0  0  0  0  0
  1  2  1  0  0  0  0
  1 20  1  0  0  0  0
  1 21  1  0  0  0  0
  1 22  1  0  0  0  0
  2  3  2  0  0  0  0
  2  4  1  0  0  0  0
  4 19  1  0  0  0  0
  4  5  1  0  0  0  0
  5  6  1  0  0  0  0
  5 23  1  0  0  0  0
  5 24  1  0  0  0  0
  6  7  1  0  0  0  0
  6 25  1  0  0  0  0
  6 26  1  0  0  0  0
  7  8  1  0  0  0  0
  7 18  1  0  0  0  0
  7 27  1  0  0  0  0
  8  9  1  0  0  0  0
  8 28  1  0  0  0  0
  9 10  2  0  0  0  0
  9 11  1  0  0  0  0
 11 12  1  0  0  0  0
 11 29  1  0  0  0  0
 12 17  1  0  0  0  0
 12 13  2  0  0  0  0
 13 14  1  0  0  0  0
 13 30  1  0  0  0  0
 14 15  2  0  0  0  0
 14 31  1  0  0  0  0
 15 16  1  0  0  0  0
 15 32  1  0  0  0  0
 16 17  2  0  0  0  0
 16 33  1  0  0  0  0
 18 19  1  0  0  0  0
 18 34  1  0  0  0  0
 18 35  1  0  0  0  0
 19 36  1  0  0  0  0
 19 37  1  0  0  0  0
M  END
> <s_m_source_file>
AV-unprocessed.smi

> <i_m_source_file_index>
1397

> <i_lp_mmshare_version>
43012

> <i_f3d_flags>
0

> <s_epik_input>
W0NIM11DKD1PKU4xW0NIMl1bQ0gyXVtDSF0oW0NIMl1bQ0gyXTEpW05IXUMoPU8pW05IXWMyW2NIXVtjSF1bY0hdW2NIXW4y

> <s_epik_cmdline>
J2VwaWtfcHl0aG9uJywgJy1waCcsICc3LjAnLCAnLXRuJywgJzgnLCAnLW1hJywgJzIwMCcsICctbWV0YWxfYmluZGluZycsICctaW1hZScsICc8aW5maWxlLm1hZT4nLCAnLW9tYWUnLCAnPG91dGZpbGUubWFlPic=

> <r_lp_tautomer_probability>
1

> <r_epik_Ionization_Penalty>
4.8787e-05

> <r_epik_Ionization_Penalty_Charging>
0

> <r_epik_Ionization_Penalty_Neutral>
4.8787e-05

> <r_epik_State_Penalty>
-0

> <r_epik_Charging_Adjusted_Penalty>
0

> <i_epik_Tot_Q>
0

> <i_epik_Tot_abs_Q>
0

> <r_epik_Metal_State_Penalty>
-0

> <b_epik_Metal_Only>
0

> <s_lp_Force_Field>
OPLS_2005

> <r_lp_Energy>
25.5882

> <b_lp_Chiralities_Consistent>
1

> <s_lp_Variant>
AV-unprocessed.smi:1397-1

> <Gold.Version>
5.8.1

> <Gold.Id.Protein>
6NUR|6NUR_protein|mol2

> <Gold.PLP.Fitness>
37.1674

> <Gold.PLP.PLP>
-28.3171

> <Gold.PLP.part.hbond>
-3.5802

> <Gold.PLP.part.metal>
0.0000

> <Gold.PLP.part.buried>
-2.1513

> <Gold.PLP.part.nonpolar>
-24.4845

> <Gold.PLP.part.repulsive>
0.6964

> <Gold.PLP.ligand.clash>
0.0000

> <Gold.PLP.ligand.torsion>
0.1929

> <Gold.PLP.Chemscore.Hbond>
2.1796

> <Gold.PLP.Chemscore.CHOScore>
0.8946

> <Gold.PLP.Chemscore.Metal>
0.0000

> <Gold.Chemscore.Hbonds>
donor molecule, donor type, donor heavy atom, donor atom, acceptor molecule, acceptor atom, score
      L1  H     8    28       P1  7948  0.99
      L1  H    11    29       P1  7948  0.80
      P1  H  8011  8017       L1     3  0.38
      L1  C    16    33       P1 10186  0.88

> <Gold.PLP.Chemscore.Internal.Correction>
0.0133

> <Gold.Rescore>
     Score         DG    S(hbond)    S(metal)    S(lipo)     H(rot)  DE(clash)    DE(int)     intcor
     15.58     -17.03       2.00        0.00      63.64       1.00       0.02       1.43       ----

> <Gold.Chemscore.Fitness>
15.5815

> <Gold.Chemscore.DG>
-17.0318

> <Gold.Chemscore.ZeroCoef>
-5.4800

> <Gold.Chemscore.Hbond>
1.9956

> <Gold.Chemscore.Metal>
0.0000

> <Gold.Chemscore.Lipo>
63.6440

> <Gold.Chemscore.Internal_Hbond>
0.0000

> <Gold.Chemscore.DEClash>
0.0243

> <Gold.Chemscore.DEInternal>
1.4259

> <Gold.Chemscore.Rot>
1.0000

> <Gold.Chemscore.Internal.Correction>
   9.000000E+99

> <Gold.Chemscore.Hbonds>
donor molecule, donor type, donor heavy atom, donor atom, acceptor molecule, acceptor atom, score
      L1  H     8    28       P1  7948  0.92
      L1  H    11    29       P1  7948  0.63
      P1  H  8011  8017       L1     3  0.38

> <Gold.Chemscore.Hbond.Weighted>
-6.6654

> <Gold.Chemscore.Metal.Weighted>
-0.0000

> <Gold.Chemscore.Lipo.Weighted>
-7.4463

> <Gold.Chemscore.Internal_Hbond.Weighted>
0.0000

> <Gold.Chemscore.DEClash.Weighted>
0.0243

> <Gold.Chemscore.DEInternal.Weighted>
1.4259

> <Gold.Chemscore.Rot.Weighted>
2.5600

> <Gold.Chemscore.Internal.Correction.Weighted>
   9.000000E+99

> <Gold.Protein.RotatedTorsions>
[ 6907 6896 6895 6894 ] final -171.05 input  -60.11 | X-H torsion
[ 7974 7965 7964 7962 ] final   77.82 input  175.53 | X-H torsion
[ 8008 7997 7996 7995 ] final   70.00 input   59.86 | X-H torsion
[ 10167 10162 10161 10158 ] final -125.71 input  -65.29 | X-H torsion
[ 10718 10713 10712 10709 ] final   68.47 input   66.30 | X-H torsion
[ 10763 10752 10751 10750 ] final -105.78 input  -60.55 | X-H torsion
[ 11005 11000 10999 10996 ] final  -85.09 input  -57.11 | X-H torsion

> <Gold.Protein.ActiveResidues>
 VAL166  LYS551  ARG553  GLY616  TRP617  ASP618  TYR619  PRO620  LYS621  CYS622 
 ASP623  PHE694  ASN695  SER759  ASP760  ASP761  ALA762  ILE779  LEU786  VAL792 
 PHE793  MET794  SER795  GLU796  ALA797  LYS798  CYS799  TRP800  GLU811  SER814 

> <Gold.Protein.RotatedAtoms>
  151.5175  133.3473  159.2895 H   0  0  0  0  0  0  0  0  0  0  0  0  # atno 6907 bound_to 6896
  150.8673  134.8041  159.7139 H   0  0  0  0  0  0  0  0  0  0  0  0  # atno 6908 bound_to 6896
  152.4673  134.5054  159.9789 H   0  0  0  0  0  0  0  0  0  0  0  0  # atno 6909 bound_to 6896
  145.6851  139.2535  143.1792 H   0  0  0  0  0  0  0  0  0  0  0  0  # atno 7974 bound_to 7965
  155.7322  140.3491  155.5065 H   0  0  0  0  0  0  0  0  0  0  0  0  # atno 8008 bound_to 7997
  155.9172  140.1061  157.1256 H   0  0  0  0  0  0  0  0  0  0  0  0  # atno 8009 bound_to 7997
  154.4064  140.1256  156.4619 H   0  0  0  0  0  0  0  0  0  0  0  0  # atno 8010 bound_to 7997
  139.9792  143.5761  152.2385 H   0  0  0  0  0  0  0  0  0  0  0  0  # atno 10167 bound_to 10162
  157.6291  130.9375  150.0382 H   0  0  0  0  0  0  0  0  0  0  0  0  # atno 10718 bound_to 10713
  154.7969  135.4736  154.0183 H   0  0  0  0  0  0  0  0  0  0  0  0  # atno 10763 bound_to 10752
  153.1718  135.6826  153.8604 H   0  0  0  0  0  0  0  0  0  0  0  0  # atno 10764 bound_to 10752
  153.8183  135.3207  155.3385 H   0  0  0  0  0  0  0  0  0  0  0  0  # atno 10765 bound_to 10752
  141.1644  133.7380  156.8963 H   0  0  0  0  0  0  0  0  0  0  0  0  # atno 11005 bound_to 11000
  146.0930  140.7633  142.9586 LP  0  0  0  0  0  0  0  0  0  0  0  0  # atno 17320 bound_to 7965
  144.7014  140.3667  143.7153 LP  0  0  0  0  0  0  0  0  0  0  0  0  # atno 17321 bound_to 7965
  139.6423  144.7655  151.2314 LP  0  0  0  0  0  0  0  0  0  0  0  0  # atno 17342 bound_to 10162
  140.7495  143.6297  150.8435 LP  0  0  0  0  0  0  0  0  0  0  0  0  # atno 17343 bound_to 10162
  156.1482  130.3642  149.9477 LP  0  0  0  0  0  0  0  0  0  0  0  0  # atno 17370 bound_to 10713
  156.7503  130.9113  151.3637 LP  0  0  0  0  0  0  0  0  0  0  0  0  # atno 17371 bound_to 10713
  140.1613  134.9163  157.2718 LP  0  0  0  0  0  0  0  0  0  0  0  0  # atno 17394 bound_to 11000
  140.2608  134.3574  155.7407 LP  0  0  0  0  0  0  0  0  0  0  0  0  # atno 17395 bound_to 11000

$$$$
