#       Name:                AV-unprocessed.smi:168
#       Creating user name   scv26
#       Creation time:       Thu Mar 26 19:14:02 2020


#       File generated by GOLD software.
#

@<TRIPOS>MOLECULE
AV-unprocessed.smi:168
    70    74     1
SMALL
NO_CHARGES


@<TRIPOS>ATOM
      1 ****        -1.9803   0.6259   3.3759 C.3            1 S1                 0.0000
      2 ****        -3.0791   0.0286   2.4795 C.3            1 S1                 0.0000
      3 ****        -3.6801  -1.2017   3.1801 C.3            1 S1                 0.0000
      4 ****        -2.5520  -0.3281   1.0796 C.3            1 S1                 0.0000
      5 ****        -2.2471   0.8358   0.2518 N.3            1 S1                 0.0000
      6 ****        -0.9069   1.3078   0.2905 C.ar           1 S1                 0.0000
      7 ****        -0.7456   2.6407   0.4866 N.ar           1 S1                 0.0000
      8 ****         0.4706   3.1887   0.5510 C.ar           1 S1                 0.0000
      9 ****         1.6583   2.5948   0.4386 N.ar           1 S1                 0.0000
     10 ****         1.5177   1.2556   0.2288 C.ar           1 S1                 0.0000
     11 ****         0.2884   0.5388   0.1477 C.ar           1 S1                 0.0000
     12 ****         0.5513  -0.8114  -0.0578 N.2            1 S1                 0.0000
     13 ****         1.8531  -0.8880  -0.0868 C.2            1 S1                 0.0000
     14 ****         2.5135   0.3115   0.0455 N.pl3          1 S1                 0.0000
     15 ****         3.9337   0.5084   0.0854 C.3            1 S1                 0.0000
     16 ****         4.5878   1.6993  -0.6251 C.3            1 S1                 0.0000
     17 ****         5.7894   0.8132  -1.0252 C.3            1 S1                 0.0000
     18 ****         6.2788   0.9442  -2.4798 C.3            1 S1                 0.0000
     19 ****         5.2317   0.8357  -3.4239 O.3            1 S1                 0.0000
     20 ****         7.0591   0.9561  -0.1598 C.3            1 S1                 0.0000
     21 ****         6.8099   0.8436   1.2267 O.3            1 S1                 0.0000
     22 ****         4.8803  -0.3975  -0.7119 C.3            1 S1                 0.0000
     23 ****        -2.5829   0.0983  -0.9556 C.3            1 S1                 0.0000
     24 ****        -3.4844  -0.7791  -0.0718 C.3            1 S1                 0.0000
     25 ****        -4.9671  -0.3435  -0.0202 C.3            1 S1                 0.0000
     26 ****        -5.7257  -0.6534  -1.3223 C.3            1 S1                 0.0000
     27 ****        -5.6456  -2.1457  -1.6688 C.3            1 S1                 0.0000
     28 ****        -4.1912  -2.6336  -1.6908 C.3            1 S1                 0.0000
     29 ****        -3.4665  -2.2847  -0.3801 C.3            1 S1                 0.0000
     30 ****        -1.1294  -0.0503   3.4641 H              1 S1                 0.0000
     31 ****        -2.3554   0.8217   4.3807 H              1 S1                 0.0000
     32 ****        -1.6130   1.5735   2.9841 H              1 S1                 0.0000
     33 ****        -3.8718   0.7722   2.3892 H              1 S1                 0.0000
     34 ****        -2.9260  -1.9747   3.3306 H              1 S1                 0.0000
     35 ****        -4.4915  -1.6468   2.6079 H              1 S1                 0.0000
     36 ****        -4.0836  -0.9382   4.1581 H              1 S1                 0.0000
     37 ****        -1.7008  -1.0065   1.1392 H              1 S1                 0.0000
     38 ****         0.4945   4.2560   0.7142 H              1 S1                 0.0000
     39 ****         2.3690  -1.8286  -0.2138 H              1 S1                 0.0000
     40 ****         4.2005   0.5031   1.1429 H              1 S1                 0.0000
     41 ****         3.9979   2.0462  -1.4745 H              1 S1                 0.0000
     42 ****         4.8331   2.5310   0.0361 H              1 S1                 0.0000
     43 ****         6.7693   1.9053  -2.6382 H              1 S1                 0.0000
     44 ****         7.0152   0.1739  -2.7117 H              1 S1                 0.0000
     45 ****         5.5955   0.9390  -4.2901 H              1 S1                 0.0000
     46 ****         7.7946   0.1958  -0.4247 H              1 S1                 0.0000
     47 ****         7.5348   1.9224  -0.3313 H              1 S1                 0.0000
     48 ****         7.6274   0.9500   1.6887 H              1 S1                 0.0000
     49 ****         5.3512  -1.1813  -0.1178 H              1 S1                 0.0000
     50 ****         4.4013  -0.8217  -1.5953 H              1 S1                 0.0000
     51 ****        -3.1112   0.6981  -1.6967 H              1 S1                 0.0000
     52 ****        -1.7465  -0.4456  -1.3964 H              1 S1                 0.0000
     53 ****        -5.4839  -0.8357   0.8020 H              1 S1                 0.0000
     54 ****        -5.0453   0.7250   0.1838 H              1 S1                 0.0000
     55 ****        -6.7687  -0.3508  -1.2264 H              1 S1                 0.0000
     56 ****        -5.3100  -0.0652  -2.1408 H              1 S1                 0.0000
     57 ****        -6.2081  -2.7186  -0.9306 H              1 S1                 0.0000
     58 ****        -6.1192  -2.3330  -2.6330 H              1 S1                 0.0000
     59 ****        -4.1638  -3.7111  -1.8557 H              1 S1                 0.0000
     60 ****        -3.6655  -2.1792  -2.5313 H              1 S1                 0.0000
     61 ****        -2.4390  -2.6451  -0.4402 H              1 S1                 0.0000
     62 ****        -3.9230  -2.8393   0.4406 H              1 S1                 0.0000
     63 ****        -2.6964   1.7039   0.4628 LP             1 S1                 0.0000
     64 ****        -1.5523   3.2234   0.5847 LP             1 S1                 0.0000
     65 ****         2.5366   3.0691   0.5000 LP             1 S1                 0.0000
     66 ****        -0.1087  -1.5556  -0.1602 LP             1 S1                 0.0000
     67 ****         4.5518   1.5496  -3.2566 LP             1 S1                 0.0000
     68 ****         4.7986  -0.0622  -3.3452 LP             1 S1                 0.0000
     69 ****         6.4237  -0.0566   1.4278 LP             1 S1                 0.0000
     70 ****         6.1664   1.5537   1.5122 LP             1 S1                 0.0000
@<TRIPOS>BOND
    1    1    2 1     
    2    1   30 1     
    3    1   31 1     
    4    1   32 1     
    5    2    3 1     
    6    2    4 1     
    7    2   33 1     
    8    3   34 1     
    9    3   35 1     
   10    3   36 1     
   11    4   24 1     
   12    4    5 1     
   13    4   37 1     
   14    5    6 1     
   15    5   23 1     
   16    6   11 ar    
   17    6    7 ar    
   18    7    8 ar    
   19    8    9 ar    
   20    8   38 1     
   21    9   10 ar    
   22   10   14 1     
   23   10   11 ar    
   24   11   12 1     
   25   12   13 2     
   26   13   14 1     
   27   13   39 1     
   28   14   15 1     
   29   15   22 1     
   30   15   16 1     
   31   15   40 1     
   32   16   17 1     
   33   16   41 1     
   34   16   42 1     
   35   17   18 1     
   36   17   20 1     
   37   17   22 1     
   38   18   19 1     
   39   18   43 1     
   40   18   44 1     
   41   19   45 1     
   42   20   21 1     
   43   20   46 1     
   44   20   47 1     
   45   21   48 1     
   46   22   49 1     
   47   22   50 1     
   48   23   24 1     
   49   23   51 1     
   50   23   52 1     
   51   24   29 1     
   52   24   25 1     
   53   25   26 1     
   54   25   53 1     
   55   25   54 1     
   56   26   27 1     
   57   26   55 1     
   58   26   56 1     
   59   27   28 1     
   60   27   57 1     
   61   27   58 1     
   62   28   29 1     
   63   28   59 1     
   64   28   60 1     
   65   29   61 1     
   66   29   62 1     
   67    5   63 1     
   68    7   64 1     
   69    9   65 1     
   70   12   66 1     
   71   19   67 1     
   72   19   68 1     
   73   21   69 1     
   74   21   70 1     
@<TRIPOS>SUBSTRUCTURE
      1 S1             1
@<TRIPOS>SET
LONE_PAIRS      STATIC     ATOMS    <user>   **** ""
8 63 64 65 66 67 68 69 70
DONOR_HYDROGENS      STATIC     ATOMS    <user>   **** ""
2 45 48
ATOM$BLUE        STATIC     ATOMS    COLORGROUP SYSTEM
8 63 64 65 66 67 68 69 70
ATOM$RED        STATIC     ATOMS    COLORGROUP SYSTEM
2 45 48
