#       Name:                AV-unprocessed.smi:1084
#       Creating user name   scv26
#       Creation time:       Fri Mar 27 03:24:30 2020


#       File generated by GOLD software.
#

@<TRIPOS>MOLECULE
AV-unprocessed.smi:1084
    61    63     1
SMALL
NO_CHARGES


@<TRIPOS>ATOM
      1 ****        -1.6810   1.2215   3.8046 C.3            1 S1                 0.0000
      2 ****        -1.0335  -0.1865   3.7703 C.3            1 S1                 0.0000
      3 ****         0.4905  -0.0308   3.4931 C.3            1 S1                 0.0000
      4 ****         0.7874   0.7220   2.2770 N.am           1 S1                 0.0000
      5 ****         0.6755   0.2442   1.0295 C.2            1 S1                 0.0000
      6 ****         0.3048  -0.9009   0.7725 O.2            1 S1                 0.0000
      7 ****         0.9964   1.1808   0.1206 N.am           1 S1                 0.0000
      8 ****         1.0219   1.0668  -1.2956 C.ar           1 S1                 0.0000
      9 ****         0.9734   2.2502  -2.0562 C.ar           1 S1                 0.0000
     10 ****         1.0165   2.1714  -3.4609 C.ar           1 S1                 0.0000
     11 ****         1.1198   0.9003  -4.0809 C.ar           1 S1                 0.0000
     12 ****         1.1571   0.7479  -5.4867 N.3            1 S1                 0.0000
     13 ****         2.1083  -0.2287  -6.0189 C.3            1 S1                 0.0000
     14 ****         1.7982  -0.5422  -7.4924 C.3            1 S1                 0.0000
     15 ****         1.7571   0.6650  -8.2444 O.3            1 S1                 0.0000
     16 ****         0.7246   1.5304  -7.7870 C.3            1 S1                 0.0000
     17 ****         0.9888   1.9322  -6.3259 C.3            1 S1                 0.0000
     18 ****         1.1804  -0.2351  -3.3434 N.ar           1 S1                 0.0000
     19 ****         1.1361  -0.1560  -1.9969 C.ar           1 S1                 0.0000
     20 ****        -1.3292  -0.9833   4.9840 N.3            1 S1                 0.0000
     21 ****        -2.7696  -1.1197   5.2307 C.3            1 S1                 0.0000
     22 ****        -3.0865  -1.9699   6.4732 C.3            1 S1                 0.0000
     23 ****        -2.4929  -3.2535   6.3386 O.3            1 S1                 0.0000
     24 ****        -1.0840  -3.1738   6.1752 C.3            1 S1                 0.0000
     25 ****        -0.7515  -2.3315   4.9312 C.3            1 S1                 0.0000
     26 ****        -1.4207   1.8213   2.9335 H              1 S1                 0.0000
     27 ****        -1.3694   1.7770   4.6895 H              1 S1                 0.0000
     28 ****        -2.7692   1.1761   3.8001 H              1 S1                 0.0000
     29 ****        -1.4638  -0.7117   2.9161 H              1 S1                 0.0000
     30 ****         0.9690   0.4772   4.3309 H              1 S1                 0.0000
     31 ****         0.9897  -0.9936   3.3927 H              1 S1                 0.0000
     32 ****         1.0928   1.6767   2.3968 H              1 S1                 0.0000
     33 ****         1.1999   2.1004   0.4837 H              1 S1                 0.0000
     34 ****         0.9005   3.2129  -1.5715 H              1 S1                 0.0000
     35 ****         0.9792   3.0889  -4.0280 H              1 S1                 0.0000
     36 ****         3.1161   0.1782  -5.9275 H              1 S1                 0.0000
     37 ****         2.0884  -1.1617  -5.4558 H              1 S1                 0.0000
     38 ****         2.5688  -1.1923  -7.9067 H              1 S1                 0.0000
     39 ****         0.8503  -1.0747  -7.5855 H              1 S1                 0.0000
     40 ****         0.6982   2.4175  -8.4198 H              1 S1                 0.0000
     41 ****        -0.2456   1.0411  -7.8859 H              1 S1                 0.0000
     42 ****         0.1483   2.5314  -5.9748 H              1 S1                 0.0000
     43 ****         1.8859   2.5492  -6.2618 H              1 S1                 0.0000
     44 ****         1.2171  -1.1035  -1.4878 H              1 S1                 0.0000
     45 ****        -3.2264  -0.1444   5.3887 H              1 S1                 0.0000
     46 ****        -3.2543  -1.5600   4.3580 H              1 S1                 0.0000
     47 ****        -2.7206  -1.4831   7.3785 H              1 S1                 0.0000
     48 ****        -4.1643  -2.0869   6.5870 H              1 S1                 0.0000
     49 ****        -0.6297  -2.7403   7.0677 H              1 S1                 0.0000
     50 ****        -0.6809  -4.1810   6.0686 H              1 S1                 0.0000
     51 ****        -1.1026  -2.8498   4.0376 H              1 S1                 0.0000
     52 ****         0.3334  -2.2856   4.8658 H              1 S1                 0.0000
     53 ****         0.0686  -1.5283   1.5144 LP             1 S1                 0.0000
     54 ****         0.2399  -1.2039  -0.1783 LP             1 S1                 0.0000
     55 ****         0.2647   0.3075  -5.5848 LP             1 S1                 0.0000
     56 ****         1.5931   0.4434  -9.2057 LP             1 S1                 0.0000
     57 ****         2.6363   1.1331  -8.1556 LP             1 S1                 0.0000
     58 ****         1.2574  -1.1247  -3.7936 LP             1 S1                 0.0000
     59 ****        -0.9074  -0.4686   5.7304 LP             1 S1                 0.0000
     60 ****        -2.8854  -3.7085   5.5392 LP             1 S1                 0.0000
     61 ****        -2.6930  -3.7894   7.1588 LP             1 S1                 0.0000
@<TRIPOS>BOND
    1    1    2 1     
    2    1   26 1     
    3    1   27 1     
    4    1   28 1     
    5    2    3 1     
    6    2   20 1     
    7    2   29 1     
    8    3    4 1     
    9    3   30 1     
   10    3   31 1     
   11    4    5 am    
   12    4   32 1     
   13    5    6 2     
   14    5    7 am    
   15    7    8 1     
   16    7   33 1     
   17    8   19 ar    
   18    8    9 ar    
   19    9   10 ar    
   20    9   34 1     
   21   10   11 ar    
   22   10   35 1     
   23   11   12 1     
   24   11   18 ar    
   25   12   17 1     
   26   12   13 1     
   27   13   14 1     
   28   13   36 1     
   29   13   37 1     
   30   14   15 1     
   31   14   38 1     
   32   14   39 1     
   33   15   16 1     
   34   16   17 1     
   35   16   40 1     
   36   16   41 1     
   37   17   42 1     
   38   17   43 1     
   39   18   19 ar    
   40   19   44 1     
   41   20   25 1     
   42   20   21 1     
   43   21   22 1     
   44   21   45 1     
   45   21   46 1     
   46   22   23 1     
   47   22   47 1     
   48   22   48 1     
   49   23   24 1     
   50   24   25 1     
   51   24   49 1     
   52   24   50 1     
   53   25   51 1     
   54   25   52 1     
   55    6   53 1     
   56    6   54 1     
   57   12   55 1     
   58   15   56 1     
   59   15   57 1     
   60   18   58 1     
   61   20   59 1     
   62   23   60 1     
   63   23   61 1     
@<TRIPOS>SUBSTRUCTURE
      1 S1             1
@<TRIPOS>SET
LONE_PAIRS      STATIC     ATOMS    <user>   **** ""
9 53 54 55 56 57 58 59 60 61
DONOR_HYDROGENS      STATIC     ATOMS    <user>   **** ""
2 32 33
ATOM$BLUE        STATIC     ATOMS    COLORGROUP SYSTEM
9 53 54 55 56 57 58 59 60 61
ATOM$RED        STATIC     ATOMS    COLORGROUP SYSTEM
2 32 33
