AV-unprocessed.smi:282|AV-procd|sdf|2120|dock3
  -GOLD-   2262021423D 1   1.00000     0.00000
 Structure written by MMmdl.
 65 69  0  0  0  0  0  0  0  0  2 V2000
  151.7532  138.6646  154.9781 C   0  0  0  0  0  0  0  0  0  0  0  0
  150.6478  139.7088  155.1875 C   0  0  0  0  0  0  0  0  0  0  0  0
  150.9605  140.7654  156.2811 C   0  0  1  0  0  0  0  0  0  0  0  0
  150.5753  142.1894  155.8007 C   0  0  0  0  0  0  0  0  0  0  0  0
  150.7527  143.2220  156.8518 N   0  3  2  0  0  0  0  0  0  0  0  0
  152.1758  143.5982  157.0699 C   0  0  0  0  0  0  0  0  0  0  0  0
  152.3004  144.7431  158.0867 C   0  0  0  0  0  0  0  0  0  0  0  0
  151.6302  144.3686  159.4137 C   0  0  0  0  0  0  0  0  0  0  0  0
  150.1667  143.9762  159.1677 C   0  0  0  0  0  0  0  0  0  0  0  0
  150.0276  142.8684  158.1032 C   0  0  2  0  0  0  0  0  0  0  0  0
  150.4495  141.4761  158.6063 C   0  0  0  0  0  0  0  0  0  0  0  0
  150.2917  140.4703  157.5581 N   0  0  0  0  0  0  0  0  0  0  0  0
  150.4882  139.2209  158.0364 C   0  0  0  0  0  0  0  0  0  0  0  0
  151.7507  138.7552  158.2258 N   0  0  0  0  0  0  0  0  0  0  0  0
  151.9382  137.5116  158.6786 C   0  0  0  0  0  0  0  0  0  0  0  0
  151.0240  136.5883  158.9858 N   0  0  0  0  0  0  0  0  0  0  0  0
  149.7573  137.0534  158.7862 C   0  0  0  0  0  0  0  0  0  0  0  0
  149.4050  138.3518  158.3256 C   0  0  0  0  0  0  0  0  0  0  0  0
  148.0247  138.4778  158.2511 N   0  0  0  0  0  0  0  0  0  0  0  0
  147.5832  137.3145  158.6453 C   0  0  0  0  0  0  0  0  0  0  0  0
  148.5546  136.3910  158.9658 N   0  0  0  0  0  0  0  0  0  0  0  0
  148.3390  135.0244  159.4219 C   0  0  0  0  0  0  0  0  0  0  0  0
  147.5428  134.8955  160.7554 C   0  0  0  0  0  0  0  0  0  0  0  0
  147.9219  133.5804  161.4952 C   0  0  0  0  0  0  0  0  0  0  0  0
  147.7146  132.4356  160.6927 O   0  0  0  0  0  0  0  0  0  0  0  0
  147.8439  136.1415  161.6264 C   0  0  0  0  0  0  0  0  0  0  0  0
  146.9082  136.2639  162.8418 C   0  0  0  0  0  0  0  0  0  0  0  0
  145.5561  136.2990  162.4046 O   0  0  0  0  0  0  0  0  0  0  0  0
  145.1643  135.1097  161.7325 C   0  0  0  0  0  0  0  0  0  0  0  0
  146.0191  134.9052  160.4673 C   0  0  0  0  0  0  0  0  0  0  0  0
  151.4216  137.8904  154.2860 H   0  0  0  0  0  0  0  0  0  0  0  0
  152.0179  138.1771  155.9167 H   0  0  0  0  0  0  0  0  0  0  0  0
  152.6559  139.1059  154.5565 H   0  0  0  0  0  0  0  0  0  0  0  0
  150.4356  140.2077  154.2411 H   0  0  0  0  0  0  0  0  0  0  0  0
  149.7440  139.1563  155.4456 H   0  0  0  0  0  0  0  0  0  0  0  0
  152.0352  140.7435  156.4667 H   0  0  0  0  0  0  0  0  0  0  0  0
  151.1498  142.4803  154.9213 H   0  0  0  0  0  0  0  0  0  0  0  0
  149.5272  142.1978  155.4979 H   0  0  0  0  0  0  0  0  0  0  0  0
  152.7490  142.7365  157.4129 H   0  0  0  0  0  0  0  0  0  0  0  0
  152.6172  143.9085  156.1221 H   0  0  0  0  0  0  0  0  0  0  0  0
  153.3514  144.9798  158.2544 H   0  0  0  0  0  0  0  0  0  0  0  0
  151.8400  145.6460  157.6832 H   0  0  0  0  0  0  0  0  0  0  0  0
  152.1674  143.5434  159.8823 H   0  0  0  0  0  0  0  0  0  0  0  0
  151.6815  145.2062  160.1100 H   0  0  0  0  0  0  0  0  0  0  0  0
  149.6994  143.6629  160.1019 H   0  0  0  0  0  0  0  0  0  0  0  0
  149.6168  144.8582  158.8362 H   0  0  0  0  0  0  0  0  0  0  0  0
  148.9687  142.8065  157.8462 H   0  0  0  0  0  0  0  0  0  0  0  0
  151.4860  141.4913  158.9451 H   0  0  0  0  0  0  0  0  0  0  0  0
  149.8413  141.1999  159.4693 H   0  0  0  0  0  0  0  0  0  0  0  0
  152.9671  137.2107  158.8103 H   0  0  0  0  0  0  0  0  0  0  0  0
  146.5272  137.0932  158.7030 H   0  0  0  0  0  0  0  0  0  0  0  0
  147.8397  134.4733  158.6242 H   0  0  0  0  0  0  0  0  0  0  0  0
  149.3199  134.5586  159.5267 H   0  0  0  0  0  0  0  0  0  0  0  0
  148.9662  133.5757  161.8020 H   0  0  0  0  0  0  0  0  0  0  0  0
  147.3424  133.4701  162.4118 H   0  0  0  0  0  0  0  0  0  0  0  0
  146.9091  132.5478  160.2112 H   0  0  0  0  0  0  0  0  0  0  0  0
  148.8829  136.1434  161.9564 H   0  0  0  0  0  0  0  0  0  0  0  0
  147.7251  137.0423  161.0226 H   0  0  0  0  0  0  0  0  0  0  0  0
  147.0586  135.4483  163.5498 H   0  0  0  0  0  0  0  0  0  0  0  0
  147.1220  137.1869  163.3809 H   0  0  0  0  0  0  0  0  0  0  0  0
  145.2333  134.2563  162.4074 H   0  0  0  0  0  0  0  0  0  0  0  0
  144.1137  135.1990  161.4566 H   0  0  0  0  0  0  0  0  0  0  0  0
  145.7880  135.7117  159.7700 H   0  0  0  0  0  0  0  0  0  0  0  0
  145.7135  133.9811  159.9758 H   0  0  0  0  0  0  0  0  0  0  0  0
  150.3091  144.0577  156.4986 H   0  0  0  0  0  0  0  0  0  0  0  0
  1  2  1  0  0  0  0
  1 31  1  0  0  0  0
  1 32  1  0  0  0  0
  1 33  1  0  0  0  0
  2  3  1  0  0  0  0
  2 34  1  0  0  0  0
  2 35  1  0  0  0  0
  3 12  1  0  0  0  0
  3  4  1  0  0  0  0
  3 36  1  0  0  0  0
  4  5  1  0  0  0  0
  4 37  1  0  0  0  0
  4 38  1  0  0  0  0
  5 10  1  0  0  0  0
  5  6  1  0  0  0  0
  5 65  1  0  0  0  0
  6  7  1  0  0  0  0
  6 39  1  0  0  0  0
  6 40  1  0  0  0  0
  7  8  1  0  0  0  0
  7 41  1  0  0  0  0
  7 42  1  0  0  0  0
  8  9  1  0  0  0  0
  8 43  1  0  0  0  0
  8 44  1  0  0  0  0
  9 10  1  0  0  0  0
  9 45  1  0  0  0  0
  9 46  1  0  0  0  0
 10 11  1  0  0  0  0
 10 47  1  0  0  0  0
 11 12  1  0  0  0  0
 11 48  1  0  0  0  0
 11 49  1  0  0  0  0
 12 13  1  0  0  0  0
 13 18  1  0  0  0  0
 13 14  2  0  0  0  0
 14 15  1  0  0  0  0
 15 16  2  0  0  0  0
 15 50  1  0  0  0  0
 16 17  1  0  0  0  0
 17 21  1  0  0  0  0
 17 18  2  0  0  0  0
 18 19  1  0  0  0  0
 19 20  2  0  0  0  0
 20 21  1  0  0  0  0
 20 51  1  0  0  0  0
 21 22  1  0  0  0  0
 22 23  1  0  0  0  0
 22 52  1  0  0  0  0
 22 53  1  0  0  0  0
 23 30  1  0  0  0  0
 23 24  1  0  0  0  0
 23 26  1  0  0  0  0
 24 25  1  0  0  0  0
 24 54  1  0  0  0  0
 24 55  1  0  0  0  0
 25 56  1  0  0  0  0
 26 27  1  0  0  0  0
 26 57  1  0  0  0  0
 26 58  1  0  0  0  0
 27 28  1  0  0  0  0
 27 59  1  0  0  0  0
 27 60  1  0  0  0  0
 28 29  1  0  0  0  0
 29 30  1  0  0  0  0
 29 61  1  0  0  0  0
 29 62  1  0  0  0  0
 30 63  1  0  0  0  0
 30 64  1  0  0  0  0
M  CHG  1   5   1
M  END
> <s_m_source_file>
AV-unprocessed.smi

> <i_m_source_file_index>
282

> <i_lp_mmshare_version>
43012

> <i_f3d_flags>
0

> <s_epik_input>
W0NIMl0xW0NIMl1bQ0gyXVtDSDJdW0NAQEhdKE4xMilbQ0gyXU4oW0NAQEhdKFtDSDJdMilbQ0gyXVtDSDNdKWMobltjSF1uMyljKGMzNCluW2NIXW40W0NIMl1DNShbQ0gyXVtPSF0pW0NIMl1bQ0gyXU9bQ0gyXVtDSDJdNQ==

> <s_epik_cmdline>
J2VwaWtfcHl0aG9uJywgJy1waCcsICc3LjAnLCAnLXRuJywgJzgnLCAnLW1hJywgJzIwMCcsICctbWV0YWxfYmluZGluZycsICctaW1hZScsICc8aW5maWxlLm1hZT4nLCAnLW9tYWUnLCAnPG91dGZpbGUubWFlPic=

> <r_lp_tautomer_probability>
1

> <r_epik_Ionization_Penalty>
0.00308583

> <r_epik_Ionization_Penalty_Charging>
0.00300384

> <r_epik_Ionization_Penalty_Neutral>
8.19894e-05

> <r_epik_State_Penalty>
-0

> <r_epik_Charging_Adjusted_Penalty>
0.00300384

> <i_epik_Tot_Q>
1

> <i_epik_Tot_abs_Q>
1

> <r_epik_Metal_State_Penalty>
-0

> <b_epik_Metal_Only>
0

> <s_lp_Force_Field>
OPLS_2005

> <r_lp_Energy>
59.0592

> <b_lp_Chiralities_Consistent>
1

> <s_lp_Variant>
AV-unprocessed.smi:282-4

> <Gold.Version>
5.8.1

> <Gold.Id.Protein>
6NUR|6NUR_protein|mol2

> <Gold.PLP.Fitness>
51.5839

> <Gold.PLP.PLP>
-45.3264

> <Gold.PLP.part.hbond>
-2.6130

> <Gold.PLP.part.metal>
0.0000

> <Gold.PLP.part.buried>
-7.4450

> <Gold.PLP.part.nonpolar>
-35.5861

> <Gold.PLP.part.repulsive>
0.0379

> <Gold.PLP.ligand.clash>
0.0000

> <Gold.PLP.ligand.torsion>
1.3619

> <Gold.PLP.Chemscore.Hbond>
2.8880

> <Gold.PLP.Chemscore.CHOScore>
0.0000

> <Gold.PLP.Chemscore.Metal>
0.0000

> <Gold.Chemscore.Hbonds>
donor molecule, donor type, donor heavy atom, donor atom, acceptor molecule, acceptor atom, score
      L1  H     5    65       P1  8028  1.89
      P1  H  6896  6908       L1    16  1.00

> <Gold.PLP.Chemscore.Internal.Correction>
0.3173

> <Gold.Rescore>
     Score         DG    S(hbond)    S(metal)    S(lipo)     H(rot)  DE(clash)    DE(int)     intcor
     17.79     -20.81       1.84        0.00     132.30       2.46       1.60       1.42       ----

> <Gold.Chemscore.Fitness>
17.7939

> <Gold.Chemscore.DG>
-20.8108

> <Gold.Chemscore.ZeroCoef>
-5.4800

> <Gold.Chemscore.Hbond>
1.8392

> <Gold.Chemscore.Metal>
0.0000

> <Gold.Chemscore.Lipo>
132.3023

> <Gold.Chemscore.Internal_Hbond>
0.0000

> <Gold.Chemscore.DEClash>
1.5999

> <Gold.Chemscore.DEInternal>
1.4170

> <Gold.Chemscore.Rot>
2.4576

> <Gold.Chemscore.Internal.Correction>
   9.000000E+99

> <Gold.Chemscore.Hbonds>
donor molecule, donor type, donor heavy atom, donor atom, acceptor molecule, acceptor atom, score
      L1  H     5    65       P1  8028  0.91
      P1  H  6896  6908       L1    16  0.88

> <Gold.Chemscore.Hbond.Weighted>
-6.1430

> <Gold.Chemscore.Metal.Weighted>
-0.0000

> <Gold.Chemscore.Lipo.Weighted>
-15.4794

> <Gold.Chemscore.Internal_Hbond.Weighted>
0.0000

> <Gold.Chemscore.DEClash.Weighted>
1.5999

> <Gold.Chemscore.DEInternal.Weighted>
1.4170

> <Gold.Chemscore.Rot.Weighted>
6.2915

> <Gold.Chemscore.Internal.Correction.Weighted>
   9.000000E+99

> <Gold.Protein.RotatedTorsions>
[ 6907 6896 6895 6894 ] final -145.63 input  -60.11 | X-H torsion
[ 7974 7965 7964 7962 ] final   93.48 input  175.53 | X-H torsion
[ 8008 7997 7996 7995 ] final -151.49 input   59.86 | X-H torsion
[ 10167 10162 10161 10158 ] final  168.53 input  -65.29 | X-H torsion
[ 10718 10713 10712 10709 ] final   91.74 input   66.30 | X-H torsion
[ 10763 10752 10751 10750 ] final  -14.86 input  -60.55 | X-H torsion
[ 11005 11000 10999 10996 ] final  128.59 input  -57.11 | X-H torsion

> <Gold.Protein.ActiveResidues>
 VAL166  LYS551  ARG553  GLY616  TRP617  ASP618  TYR619  PRO620  LYS621  CYS622 
 ASP623  PHE694  ASN695  SER759  ASP760  ASP761  ALA762  ILE779  LEU786  VAL792 
 PHE793  MET794  SER795  GLU796  ALA797  LYS798  CYS799  TRP800  GLU811  SER814 

> <Gold.Protein.RotatedAtoms>
  151.1305  133.5040  159.2599 H   0  0  0  0  0  0  0  0  0  0  0  0  # atno 6907 bound_to 6896
  151.1763  135.0340  159.8783 H   0  0  0  0  0  0  0  0  0  0  0  0  # atno 6908 bound_to 6896
  152.5459  134.1162  159.8433 H   0  0  0  0  0  0  0  0  0  0  0  0  # atno 6909 bound_to 6896
  145.4783  139.2279  143.2897 H   0  0  0  0  0  0  0  0  0  0  0  0  # atno 7974 bound_to 7965
  155.6402  140.0701  157.2621 H   0  0  0  0  0  0  0  0  0  0  0  0  # atno 8008 bound_to 7997
  154.4185  140.1751  156.1615 H   0  0  0  0  0  0  0  0  0  0  0  0  # atno 8009 bound_to 7997
  155.9861  140.3349  155.6712 H   0  0  0  0  0  0  0  0  0  0  0  0  # atno 8010 bound_to 7997
  139.4970  144.3804  151.9628 H   0  0  0  0  0  0  0  0  0  0  0  0  # atno 10167 bound_to 10162
  157.6960  131.0418  150.3775 H   0  0  0  0  0  0  0  0  0  0  0  0  # atno 10718 bound_to 10713
  153.5346  135.7014  153.5666 H   0  0  0  0  0  0  0  0  0  0  0  0  # atno 10763 bound_to 10752
  153.3658  135.3957  155.1752 H   0  0  0  0  0  0  0  0  0  0  0  0  # atno 10764 bound_to 10752
  154.8681  135.3800  154.4846 H   0  0  0  0  0  0  0  0  0  0  0  0  # atno 10765 bound_to 10752
  139.9569  134.9611  156.9024 H   0  0  0  0  0  0  0  0  0  0  0  0  # atno 11005 bound_to 11000
  146.2356  140.5567  142.8956 LP  0  0  0  0  0  0  0  0  0  0  0  0  # atno 17320 bound_to 7965
  144.7904  140.6020  143.6545 LP  0  0  0  0  0  0  0  0  0  0  0  0  # atno 17321 bound_to 7965
  140.3240  144.3394  150.6002 LP  0  0  0  0  0  0  0  0  0  0  0  0  # atno 17342 bound_to 10162
  140.5699  143.2182  151.7617 LP  0  0  0  0  0  0  0  0  0  0  0  0  # atno 17343 bound_to 10162
  156.4193  130.3949  149.6836 LP  0  0  0  0  0  0  0  0  0  0  0  0  # atno 17370 bound_to 10713
  156.4093  130.7714  151.2726 LP  0  0  0  0  0  0  0  0  0  0  0  0  # atno 17371 bound_to 10713
  140.5589  134.0554  155.7392 LP  0  0  0  0  0  0  0  0  0  0  0  0  # atno 17394 bound_to 11000
  141.1241  133.9411  157.2670 LP  0  0  0  0  0  0  0  0  0  0  0  0  # atno 17395 bound_to 11000

$$$$
