AV-unprocessed.smi:263|AV-procd|sdf|2006|dock4
  -GOLD-   2262021203D 1   1.00000     0.00000
 Structure written by MMmdl.
 57 61  0  0  0  0  0  0  0  0  1 V2000
  145.8365  139.5148  153.8780 O   0  0  0  0  0  0  0  0  0  0  0  0
  146.9642  138.8752  153.3058 C   0  0  0  0  0  0  0  0  0  0  0  0
  148.0585  139.9483  153.0799 C   0  0  0  0  0  0  0  0  0  0  0  0
  148.6061  140.5057  154.3074 N   0  0  0  0  0  0  0  0  0  0  0  0
  147.9877  141.3928  155.1595 C   0  0  0  0  0  0  0  0  0  0  0  0
  148.6923  141.7494  156.1985 N   0  0  0  0  0  0  0  0  0  0  0  0
  149.8899  141.0587  156.0516 C   0  0  0  0  0  0  0  0  0  0  0  0
  151.0935  140.9875  156.8092 C   0  0  0  0  0  0  0  0  0  0  0  0
  151.2727  141.6664  157.9716 N   0  0  0  0  0  0  0  0  0  0  0  0
  150.7906  143.0481  158.0299 C   0  0  0  0  0  0  0  0  0  0  0  0
  150.7409  143.5639  159.4810 C   0  0  0  0  0  0  0  0  0  0  0  0
  152.0886  143.3735  160.2079 C   0  0  1  0  0  0  0  0  0  0  0  0
  153.0387  144.2153  159.5743 O   0  0  0  0  0  0  0  0  0  0  0  0
  152.0028  143.7981  161.6910 C   0  0  0  0  0  0  0  0  0  0  0  0
  153.3057  143.5069  162.4605 C   0  0  0  0  0  0  0  0  0  0  0  0
  153.7293  142.0358  162.3221 C   0  0  0  0  0  0  0  0  0  0  0  0
  153.8386  141.6178  160.8464 C   0  0  0  0  0  0  0  0  0  0  0  0
  152.5196  141.8879  160.0966 C   0  0  2  0  0  0  0  0  0  0  0  0
  152.5573  141.4214  158.6283 C   0  0  0  0  0  0  0  0  0  0  0  0
  152.0897  140.1980  156.3243 N   0  0  0  0  0  0  0  0  0  0  0  0
  151.9218  139.5196  155.1856 C   0  0  0  0  0  0  0  0  0  0  0  0
  150.8569  139.4877  154.3825 N   0  0  0  0  0  0  0  0  0  0  0  0
  149.8550  140.2803  154.8598 C   0  0  0  0  0  0  0  0  0  0  0  0
  147.4639  137.7976  154.2893 C   0  0  0  0  0  0  0  0  0  0  0  0
  146.4786  136.6217  154.4122 C   0  0  0  0  0  0  0  0  0  0  0  0
  146.2225  136.0671  153.1279 O   0  0  0  0  0  0  0  0  0  0  0  0
  145.5948  136.9913  152.2476 C   0  0  0  0  0  0  0  0  0  0  0  0
  146.5214  138.1938  151.9923 C   0  0  0  0  0  0  0  0  0  0  0  0
  145.2385  139.7492  153.1844 H   0  0  0  0  0  0  0  0  0  0  0  0
  148.8815  139.5325  152.4970 H   0  0  0  0  0  0  0  0  0  0  0  0
  147.6564  140.7718  152.4883 H   0  0  0  0  0  0  0  0  0  0  0  0
  146.9888  141.7667  154.9872 H   0  0  0  0  0  0  0  0  0  0  0  0
  151.4431  143.6832  157.4293 H   0  0  0  0  0  0  0  0  0  0  0  0
  149.7929  143.1128  157.5935 H   0  0  0  0  0  0  0  0  0  0  0  0
  150.4444  144.6135  159.4917 H   0  0  0  0  0  0  0  0  0  0  0  0
  149.9607  143.0232  160.0185 H   0  0  0  0  0  0  0  0  0  0  0  0
  153.6895  143.6709  159.1585 H   0  0  0  0  0  0  0  0  0  0  0  0
  151.7566  144.8581  161.7687 H   0  0  0  0  0  0  0  0  0  0  0  0
  151.1849  143.2615  162.1736 H   0  0  0  0  0  0  0  0  0  0  0  0
  154.1041  144.1519  162.0918 H   0  0  0  0  0  0  0  0  0  0  0  0
  153.1750  143.7567  163.5136 H   0  0  0  0  0  0  0  0  0  0  0  0
  154.6831  141.8748  162.8255 H   0  0  0  0  0  0  0  0  0  0  0  0
  153.0025  141.3994  162.8284 H   0  0  0  0  0  0  0  0  0  0  0  0
  154.6591  142.1560  160.3701 H   0  0  0  0  0  0  0  0  0  0  0  0
  154.0902  140.5585  160.7865 H   0  0  0  0  0  0  0  0  0  0  0  0
  151.7529  141.2884  160.5912 H   0  0  0  0  0  0  0  0  0  0  0  0
  152.8204  140.3648  158.5968 H   0  0  0  0  0  0  0  0  0  0  0  0
  153.3389  141.9499  158.0813 H   0  0  0  0  0  0  0  0  0  0  0  0
  152.7609  138.9152  154.8740 H   0  0  0  0  0  0  0  0  0  0  0  0
  148.4214  137.4079  153.9407 H   0  0  0  0  0  0  0  0  0  0  0  0
  147.6520  138.2320  155.2721 H   0  0  0  0  0  0  0  0  0  0  0  0
  146.9036  135.8461  155.0493 H   0  0  0  0  0  0  0  0  0  0  0  0
  145.5443  136.9361  154.8797 H   0  0  0  0  0  0  0  0  0  0  0  0
  145.3750  136.4852  151.3075 H   0  0  0  0  0  0  0  0  0  0  0  0
  144.6381  137.3138  152.6614 H   0  0  0  0  0  0  0  0  0  0  0  0
  146.0212  138.9046  151.3340 H   0  0  0  0  0  0  0  0  0  0  0  0
  147.4034  137.8446  151.4537 H   0  0  0  0  0  0  0  0  0  0  0  0
  1  2  1  0  0  0  0
  1 29  1  0  0  0  0
  2 28  1  0  0  0  0
  2  3  1  0  0  0  0
  2 24  1  0  0  0  0
  3  4  1  0  0  0  0
  3 30  1  0  0  0  0
  3 31  1  0  0  0  0
  4 23  1  0  0  0  0
  4  5  1  0  0  0  0
  5  6  2  0  0  0  0
  5 32  1  0  0  0  0
  6  7  1  0  0  0  0
  7 23  2  0  0  0  0
  7  8  1  0  0  0  0
  8  9  1  0  0  0  0
  8 20  2  0  0  0  0
  9 19  1  0  0  0  0
  9 10  1  0  0  0  0
 10 11  1  0  0  0  0
 10 33  1  0  0  0  0
 10 34  1  0  0  0  0
 11 12  1  0  0  0  0
 11 35  1  0  0  0  0
 11 36  1  0  0  0  0
 12 18  1  0  0  0  0
 12 13  1  0  0  0  0
 12 14  1  0  0  0  0
 13 37  1  0  0  0  0
 14 15  1  0  0  0  0
 14 38  1  0  0  0  0
 14 39  1  0  0  0  0
 15 16  1  0  0  0  0
 15 40  1  0  0  0  0
 15 41  1  0  0  0  0
 16 17  1  0  0  0  0
 16 42  1  0  0  0  0
 16 43  1  0  0  0  0
 17 18  1  0  0  0  0
 17 44  1  0  0  0  0
 17 45  1  0  0  0  0
 18 19  1  0  0  0  0
 18 46  1  0  0  0  0
 19 47  1  0  0  0  0
 19 48  1  0  0  0  0
 20 21  1  0  0  0  0
 21 22  2  0  0  0  0
 21 49  1  0  0  0  0
 22 23  1  0  0  0  0
 24 25  1  0  0  0  0
 24 50  1  0  0  0  0
 24 51  1  0  0  0  0
 25 26  1  0  0  0  0
 25 52  1  0  0  0  0
 25 53  1  0  0  0  0
 26 27  1  0  0  0  0
 27 28  1  0  0  0  0
 27 54  1  0  0  0  0
 27 55  1  0  0  0  0
 28 56  1  0  0  0  0
 28 57  1  0  0  0  0
M  END
> <s_m_source_file>
AV-unprocessed.smi

> <i_m_source_file_index>
263

> <i_lp_mmshare_version>
43012

> <i_f3d_flags>
0

> <s_epik_input>
W0NIMl0xW0NIMl1PW0NIMl1bQ0gyXUMxKFtPSF0pW0NIMl1uKFtjSF1uMiljKGMyMyluW2NIXW5jM04oW0NIMl1bQ0gyXTQpW0NIMl1bQ0BASF0oW0NAXTQ1W09IXSlbQ0gyXVtDSDJdW0NIMl1bQ0gyXTU=

> <s_epik_cmdline>
J2VwaWtfcHl0aG9uJywgJy1waCcsICc3LjAnLCAnLXRuJywgJzgnLCAnLW1hJywgJzIwMCcsICctbWV0YWxfYmluZGluZycsICctaW1hZScsICc8aW5maWxlLm1hZT4nLCAnLW9tYWUnLCAnPG91dGZpbGUubWFlPic=

> <r_lp_tautomer_probability>
1

> <r_epik_Ionization_Penalty>
0.00747493

> <r_epik_Ionization_Penalty_Charging>
0

> <r_epik_Ionization_Penalty_Neutral>
0.00747493

> <r_epik_State_Penalty>
0.00549307

> <r_epik_Charging_Adjusted_Penalty>
0.00549307

> <i_epik_Tot_Q>
0

> <i_epik_Tot_abs_Q>
0

> <r_epik_Metal_State_Penalty>
-0

> <b_epik_Metal_Only>
0

> <s_lp_Force_Field>
OPLS_2005

> <r_lp_Energy>
38.115

> <b_lp_Chiralities_Consistent>
1

> <s_lp_Variant>
AV-unprocessed.smi:263-4

> <Gold.Version>
5.8.1

> <Gold.Id.Protein>
6NUR|6NUR_protein|mol2

> <Gold.PLP.Fitness>
51.1053

> <Gold.PLP.PLP>
-46.6545

> <Gold.PLP.part.hbond>
-2.3933

> <Gold.PLP.part.metal>
0.0000

> <Gold.PLP.part.buried>
4.1906

> <Gold.PLP.part.nonpolar>
-50.3320

> <Gold.PLP.part.repulsive>
2.2088

> <Gold.PLP.ligand.clash>
0.0000

> <Gold.PLP.ligand.torsion>
0.4450

> <Gold.PLP.Chemscore.Hbond>
1.6489

> <Gold.PLP.Chemscore.CHOScore>
0.0000

> <Gold.PLP.Chemscore.Metal>
0.0000

> <Gold.Chemscore.Hbonds>
donor molecule, donor type, donor heavy atom, donor atom, acceptor molecule, acceptor atom, score
      L1  H     1    29       P1 10175  1.00
      P1  H  7989  7998       L1    22  0.20
      P1  H  7997  8008       L1    20  0.43

> <Gold.PLP.Chemscore.Internal.Correction>
0.3942

> <Gold.Rescore>
     Score         DG    S(hbond)    S(metal)    S(lipo)     H(rot)  DE(clash)    DE(int)     intcor
     11.91     -18.06       1.08        0.00     134.25       2.62       4.79       1.36       ----

> <Gold.Chemscore.Fitness>
11.9118

> <Gold.Chemscore.DG>
-18.0633

> <Gold.Chemscore.ZeroCoef>
-5.4800

> <Gold.Chemscore.Hbond>
1.0753

> <Gold.Chemscore.Metal>
0.0000

> <Gold.Chemscore.Lipo>
134.2502

> <Gold.Chemscore.Internal_Hbond>
0.0000

> <Gold.Chemscore.DEClash>
4.7943

> <Gold.Chemscore.DEInternal>
1.3572

> <Gold.Chemscore.Rot>
2.6232

> <Gold.Chemscore.Internal.Correction>
   9.000000E+99

> <Gold.Chemscore.Hbonds>
donor molecule, donor type, donor heavy atom, donor atom, acceptor molecule, acceptor atom, score
      L1  H     1    29       P1 10175  0.98
      P1  H  7997  8008       L1    20  0.10

> <Gold.Chemscore.Hbond.Weighted>
-3.5915

> <Gold.Chemscore.Metal.Weighted>
-0.0000

> <Gold.Chemscore.Lipo.Weighted>
-15.7073

> <Gold.Chemscore.Internal_Hbond.Weighted>
0.0000

> <Gold.Chemscore.DEClash.Weighted>
4.7943

> <Gold.Chemscore.DEInternal.Weighted>
1.3572

> <Gold.Chemscore.Rot.Weighted>
6.7155

> <Gold.Chemscore.Internal.Correction.Weighted>
   9.000000E+99

> <Gold.Protein.RotatedTorsions>
[ 6907 6896 6895 6894 ] final  140.53 input  -60.11 | X-H torsion
[ 7974 7965 7964 7962 ] final  160.15 input  175.53 | X-H torsion
[ 8008 7997 7996 7995 ] final  -48.62 input   59.86 | X-H torsion
[ 10167 10162 10161 10158 ] final  -72.15 input  -65.29 | X-H torsion
[ 10718 10713 10712 10709 ] final  101.37 input   66.30 | X-H torsion
[ 10763 10752 10751 10750 ] final  142.14 input  -60.55 | X-H torsion
[ 11005 11000 10999 10996 ] final  153.89 input  -57.11 | X-H torsion

> <Gold.Protein.ActiveResidues>
 VAL166  LYS551  ARG553  GLY616  TRP617  ASP618  TYR619  PRO620  LYS621  CYS622 
 ASP623  PHE694  ASN695  SER759  ASP760  ASP761  ALA762  ILE779  LEU786  VAL792 
 PHE793  MET794  SER795  GLU796  ALA797  LYS798  CYS799  TRP800  GLU811  SER814 

> <Gold.Protein.RotatedAtoms>
  152.2419  133.5143  159.5274 H   0  0  0  0  0  0  0  0  0  0  0  0  # atno 6907 bound_to 6896
  150.7067  134.1077  159.3997 H   0  0  0  0  0  0  0  0  0  0  0  0  # atno 6908 bound_to 6896
  151.8997  135.0383  160.0556 H   0  0  0  0  0  0  0  0  0  0  0  0  # atno 6909 bound_to 6896
  144.7752  139.7716  143.6281 H   0  0  0  0  0  0  0  0  0  0  0  0  # atno 7974 bound_to 7965
  154.4031  140.1317  156.4369 H   0  0  0  0  0  0  0  0  0  0  0  0  # atno 8008 bound_to 7997
  155.7496  140.3488  155.5124 H   0  0  0  0  0  0  0  0  0  0  0  0  # atno 8009 bound_to 7997
  155.8962  140.1011  157.1373 H   0  0  0  0  0  0  0  0  0  0  0  0  # atno 8010 bound_to 7997
  140.5216  143.2331  151.7420 H   0  0  0  0  0  0  0  0  0  0  0  0  # atno 10167 bound_to 10162
  157.6831  131.0724  150.5243 H   0  0  0  0  0  0  0  0  0  0  0  0  # atno 10718 bound_to 10713
  153.9509  135.2970  155.3438 H   0  0  0  0  0  0  0  0  0  0  0  0  # atno 10763 bound_to 10752
  154.7427  135.5017  153.9153 H   0  0  0  0  0  0  0  0  0  0  0  0  # atno 10764 bound_to 10752
  153.0995  135.6730  153.9809 H   0  0  0  0  0  0  0  0  0  0  0  0  # atno 10765 bound_to 10752
  140.1439  134.8720  157.2367 H   0  0  0  0  0  0  0  0  0  0  0  0  # atno 11005 bound_to 11000
  146.1927  139.5176  142.9794 LP  0  0  0  0  0  0  0  0  0  0  0  0  # atno 17320 bound_to 7965
  145.6206  141.0323  143.1917 LP  0  0  0  0  0  0  0  0  0  0  0  0  # atno 17321 bound_to 7965
  139.4925  144.4247  151.9939 LP  0  0  0  0  0  0  0  0  0  0  0  0  # atno 17342 bound_to 10162
  140.3344  144.3278  150.5980 LP  0  0  0  0  0  0  0  0  0  0  0  0  # atno 17343 bound_to 10162
  156.5555  130.4242  149.6087 LP  0  0  0  0  0  0  0  0  0  0  0  0  # atno 17370 bound_to 10713
  156.2866  130.7100  151.1939 LP  0  0  0  0  0  0  0  0  0  0  0  0  # atno 17371 bound_to 10713
  140.2688  134.3485  155.7381 LP  0  0  0  0  0  0  0  0  0  0  0  0  # atno 17394 bound_to 11000
  141.2190  133.7411  156.9191 LP  0  0  0  0  0  0  0  0  0  0  0  0  # atno 17395 bound_to 11000

$$$$
