AV-unprocessed.smi:2746|AV-procd|sdf|10576|dock9
  -GOLD-   2272015 33D 1   1.00000     0.00000
 Structure written by MMmdl.
 38 39  0  0  0  0  0  0  0  0  3 V2000
  144.7370  134.8445  150.7985 C   0  0  0  0  0  0  0  0  0  0  0  0
  145.1296  136.0048  151.3503 C   0  0  0  0  0  0  0  0  0  0  0  0
  145.2442  136.2746  152.8408 C   0  0  1  0  0  0  0  0  0  0  0  0
  146.1912  135.2569  153.4917 C   0  0  0  0  0  0  0  0  0  0  0  0
  145.7160  137.6203  153.1664 N   0  5  0  0  0  0  0  0  0  0  0  0
  146.5311  138.3668  152.3639 C   0  0  0  0  0  0  0  0  0  0  0  0
  146.7689  138.2371  151.1577 O   0  0  0  0  0  0  0  0  0  0  0  0
  147.2096  139.4974  153.1011 C   0  0  0  0  0  0  0  0  0  0  0  0
  148.5004  139.3418  153.6603 C   0  0  0  0  0  0  0  0  0  0  0  0
  149.1102  140.4208  154.3433 C   0  0  0  0  0  0  0  0  0  0  0  0
  150.3882  140.3126  154.9087 N   0  0  0  0  0  0  0  0  0  0  0  0
  150.4251  140.6242  156.3322 C   0  0  0  0  0  0  0  0  0  0  0  0
  151.8782  140.5998  156.8373 C   0  0  0  0  0  0  0  0  0  0  0  0
  152.4639  139.3344  156.5443 O   0  0  0  0  0  0  0  0  0  0  0  0
  152.4907  139.0677  155.1448 C   0  0  0  0  0  0  0  0  0  0  0  0
  151.0541  139.0548  154.5939 C   0  0  0  0  0  0  0  0  0  0  0  0
  148.4107  141.6407  154.4540 C   0  0  0  0  0  0  0  0  0  0  0  0
  147.1285  141.7514  153.8830 C   0  0  0  0  0  0  0  0  0  0  0  0
  146.5883  140.6953  153.2400 N   0  3  0  0  0  0  0  0  0  0  0  0
  144.4617  133.9844  151.3935 H   0  0  0  0  0  0  0  0  0  0  0  0
  144.6849  134.7410  149.7249 H   0  0  0  0  0  0  0  0  0  0  0  0
  145.3882  136.8277  150.7001 H   0  0  0  0  0  0  0  0  0  0  0  0
  144.2562  136.0995  153.2706 H   0  0  0  0  0  0  0  0  0  0  0  0
  145.8533  134.2365  153.3089 H   0  0  0  0  0  0  0  0  0  0  0  0
  146.2378  135.3952  154.5726 H   0  0  0  0  0  0  0  0  0  0  0  0
  147.2054  135.3449  153.0995 H   0  0  0  0  0  0  0  0  0  0  0  0
  149.0242  138.4017  153.5651 H   0  0  0  0  0  0  0  0  0  0  0  0
  149.9838  141.6058  156.5082 H   0  0  0  0  0  0  0  0  0  0  0  0
  149.8310  139.8980  156.8884 H   0  0  0  0  0  0  0  0  0  0  0  0
  152.4633  141.3986  156.3789 H   0  0  0  0  0  0  0  0  0  0  0  0
  151.9051  140.7629  157.9147 H   0  0  0  0  0  0  0  0  0  0  0  0
  153.0974  139.8164  154.6327 H   0  0  0  0  0  0  0  0  0  0  0  0
  152.9671  138.1019  154.9761 H   0  0  0  0  0  0  0  0  0  0  0  0
  150.5001  138.2222  155.0296 H   0  0  0  0  0  0  0  0  0  0  0  0
  151.0692  138.9031  153.5138 H   0  0  0  0  0  0  0  0  0  0  0  0
  148.8507  142.4823  154.9690 H   0  0  0  0  0  0  0  0  0  0  0  0
  146.5224  142.6445  153.9187 H   0  0  0  0  0  0  0  0  0  0  0  0
  145.6587  140.7892  152.8281 H   0  0  0  0  0  0  0  0  0  0  0  0
  1  2  2  0  0  0  0
  1 20  1  0  0  0  0
  1 21  1  0  0  0  0
  2  3  1  0  0  0  0
  2 22  1  0  0  0  0
  3  4  1  0  0  0  0
  3  5  1  0  0  0  0
  3 23  1  0  0  0  0
  4 24  1  0  0  0  0
  4 25  1  0  0  0  0
  4 26  1  0  0  0  0
  5  6  1  0  0  0  0
  6  7  2  0  0  0  0
  6  8  1  0  0  0  0
  8 19  1  0  0  0  0
  8  9  2  0  0  0  0
  9 10  1  0  0  0  0
  9 27  1  0  0  0  0
 10 11  1  0  0  0  0
 10 17  2  0  0  0  0
 11 16  1  0  0  0  0
 11 12  1  0  0  0  0
 12 13  1  0  0  0  0
 12 28  1  0  0  0  0
 12 29  1  0  0  0  0
 13 14  1  0  0  0  0
 13 30  1  0  0  0  0
 13 31  1  0  0  0  0
 14 15  1  0  0  0  0
 15 16  1  0  0  0  0
 15 32  1  0  0  0  0
 15 33  1  0  0  0  0
 16 34  1  0  0  0  0
 16 35  1  0  0  0  0
 17 18  1  0  0  0  0
 17 36  1  0  0  0  0
 18 19  2  0  0  0  0
 18 37  1  0  0  0  0
 19 38  1  0  0  0  0
M  CHG  1   5  -1
M  CHG  1  19   1
M  END
> <s_m_source_file>
AV-unprocessed.smi

> <i_m_source_file_index>
2746

> <i_lp_mmshare_version>
43012

> <i_f3d_flags>
0

> <s_epik_input>
W0NIMl09W0NIXVtDQEhdKFtDSDNdKVtOSF1DKD1PKWMxW2NIXWMoW2NIXVtjSF1uMSlOMltDSDJdW0NIMl1PW0NIMl1bQ0gyXTI=

> <s_epik_cmdline>
J2VwaWtfcHl0aG9uJywgJy1waCcsICc3LjAnLCAnLXRuJywgJzgnLCAnLW1hJywgJzIwMCcsICctbWV0YWxfYmluZGluZycsICctaW1hZScsICc8aW5maWxlLm1hZT4nLCAnLW9tYWUnLCAnPG91dGZpbGUubWFlPic=

> <r_lp_tautomer_probability>
1

> <r_epik_Ionization_Penalty>
4.23471

> <r_epik_Ionization_Penalty_Charging>
4.23471

> <r_epik_Ionization_Penalty_Neutral>
3.18831e-12

> <r_epik_State_Penalty>
4.68748

> <r_epik_Charging_Adjusted_Penalty>
8.92219

> <i_epik_Tot_Q>
0

> <i_epik_Tot_abs_Q>
2

> <r_epik_Metal_State_Penalty>
1.16626

> <b_epik_Metal_Only>
1

> <s_lp_Force_Field>
OPLS_2005

> <r_lp_Energy>
17.3094

> <b_lp_Chiralities_Consistent>
1

> <s_lp_Variant>
AV-unprocessed.smi:2746-6

> <Gold.Version>
5.8.1

> <Gold.Id.Protein>
6NUR|6NUR_protein|mol2

> <Gold.PLP.Fitness>
42.5060

> <Gold.PLP.PLP>
-35.6666

> <Gold.PLP.part.hbond>
-4.0000

> <Gold.PLP.part.metal>
0.0000

> <Gold.PLP.part.buried>
-0.4617

> <Gold.PLP.part.nonpolar>
-31.9171

> <Gold.PLP.part.repulsive>
1.1484

> <Gold.PLP.ligand.clash>
0.5760

> <Gold.PLP.ligand.torsion>
1.9894

> <Gold.PLP.Chemscore.Hbond>
3.7313

> <Gold.PLP.Chemscore.CHOScore>
0.0000

> <Gold.PLP.Chemscore.Metal>
0.0000

> <Gold.Chemscore.Hbonds>
donor molecule, donor type, donor heavy atom, donor atom, acceptor molecule, acceptor atom, score
      L1  H    19    38       P1 10175  2.00
      P1  H  7954  7966       L1     7  1.00
      P1  H  7997  8008       L1    14  0.48

> <Gold.PLP.Chemscore.Internal.Correction>
0.2004

> <Gold.Rescore>
     Score         DG    S(hbond)    S(metal)    S(lipo)     H(rot)  DE(clash)    DE(int)     intcor
     13.00     -17.52       1.79        0.00      79.59       1.27       1.05       3.47       ----

> <Gold.Chemscore.Fitness>
13.0029

> <Gold.Chemscore.DG>
-17.5229

> <Gold.Chemscore.ZeroCoef>
-5.4800

> <Gold.Chemscore.Hbond>
1.7944

> <Gold.Chemscore.Metal>
0.0000

> <Gold.Chemscore.Lipo>
79.5868

> <Gold.Chemscore.Internal_Hbond>
0.0000

> <Gold.Chemscore.DEClash>
1.0546

> <Gold.Chemscore.DEInternal>
3.4653

> <Gold.Chemscore.Rot>
1.2742

> <Gold.Chemscore.Internal.Correction>
   9.000000E+99

> <Gold.Chemscore.Hbonds>
donor molecule, donor type, donor heavy atom, donor atom, acceptor molecule, acceptor atom, score
      L1  H    19    38       P1 10175  0.37
      P1  H  7954  7966       L1     7  0.99
      P1  H  7997  8008       L1    14  0.01

> <Gold.Chemscore.Hbond.Weighted>
-5.9932

> <Gold.Chemscore.Metal.Weighted>
-0.0000

> <Gold.Chemscore.Lipo.Weighted>
-9.3117

> <Gold.Chemscore.Internal_Hbond.Weighted>
0.0000

> <Gold.Chemscore.DEClash.Weighted>
1.0546

> <Gold.Chemscore.DEInternal.Weighted>
3.4653

> <Gold.Chemscore.Rot.Weighted>
3.2619

> <Gold.Chemscore.Internal.Correction.Weighted>
   9.000000E+99

> <Gold.Protein.RotatedTorsions>
[ 6907 6896 6895 6894 ] final  135.87 input  -60.11 | X-H torsion
[ 7974 7965 7964 7962 ] final -159.35 input  175.53 | X-H torsion
[ 8008 7997 7996 7995 ] final  -65.22 input   59.86 | X-H torsion
[ 10167 10162 10161 10158 ] final  167.18 input  -65.29 | X-H torsion
[ 10718 10713 10712 10709 ] final -110.66 input   66.30 | X-H torsion
[ 10763 10752 10751 10750 ] final  176.64 input  -60.55 | X-H torsion
[ 11005 11000 10999 10996 ] final    3.94 input  -57.11 | X-H torsion

> <Gold.Protein.ActiveResidues>
 VAL166  LYS551  ARG553  GLY616  TRP617  ASP618  TYR619  PRO620  LYS621  CYS622 
 ASP623  PHE694  ASN695  SER759  ASP760  ASP761  ALA762  ILE779  LEU786  VAL792 
 PHE793  MET794  SER795  GLU796  ALA797  LYS798  CYS799  TRP800  GLU811  SER814 

> <Gold.Protein.RotatedAtoms>
  152.2956  133.5604  159.5585 H   0  0  0  0  0  0  0  0  0  0  0  0  # atno 6907 bound_to 6896
  150.7254  134.0366  159.3760 H   0  0  0  0  0  0  0  0  0  0  0  0  # atno 6908 bound_to 6896
  151.8269  135.0634  160.0483 H   0  0  0  0  0  0  0  0  0  0  0  0  # atno 6909 bound_to 6896
  144.7469  140.3698  143.6078 H   0  0  0  0  0  0  0  0  0  0  0  0  # atno 7974 bound_to 7965
  154.4659  140.0937  156.7017 H   0  0  0  0  0  0  0  0  0  0  0  0  # atno 8008 bound_to 7997
  155.4861  140.3469  155.4329 H   0  0  0  0  0  0  0  0  0  0  0  0  # atno 8009 bound_to 7997
  156.0954  140.1408  156.9526 H   0  0  0  0  0  0  0  0  0  0  0  0  # atno 8010 bound_to 7997
  139.4940  144.3949  151.9476 H   0  0  0  0  0  0  0  0  0  0  0  0  # atno 10167 bound_to 10162
  156.0603  130.5827  150.8267 H   0  0  0  0  0  0  0  0  0  0  0  0  # atno 10718 bound_to 10713
  154.4839  135.2776  155.1549 H   0  0  0  0  0  0  0  0  0  0  0  0  # atno 10763 bound_to 10752
  154.3249  135.6202  153.5528 H   0  0  0  0  0  0  0  0  0  0  0  0  # atno 10764 bound_to 10752
  152.9879  135.5751  154.5245 H   0  0  0  0  0  0  0  0  0  0  0  0  # atno 10765 bound_to 10752
  140.5874  133.9956  155.8074 H   0  0  0  0  0  0  0  0  0  0  0  0  # atno 11005 bound_to 11000
  145.7090  139.1680  143.2550 LP  0  0  0  0  0  0  0  0  0  0  0  0  # atno 17320 bound_to 7965
  146.1361  140.7121  142.9389 LP  0  0  0  0  0  0  0  0  0  0  0  0  # atno 17321 bound_to 7965
  140.3387  144.3230  150.5972 LP  0  0  0  0  0  0  0  0  0  0  0  0  # atno 17342 bound_to 10162
  140.5584  143.2195  151.7807 LP  0  0  0  0  0  0  0  0  0  0  0  0  # atno 17343 bound_to 10162
  157.5606  131.0946  150.9564 LP  0  0  0  0  0  0  0  0  0  0  0  0  # atno 17370 bound_to 10713
  156.9803  130.5524  149.5296 LP  0  0  0  0  0  0  0  0  0  0  0  0  # atno 17371 bound_to 10713
  141.0957  133.9847  157.3164 LP  0  0  0  0  0  0  0  0  0  0  0  0  # atno 17394 bound_to 11000
  139.9289  135.0200  156.8332 LP  0  0  0  0  0  0  0  0  0  0  0  0  # atno 17395 bound_to 11000

$$$$
