AV-unprocessed.smi:2681|AV-procd|sdf|10373|dock10
  -GOLD-   2272014403D 1   1.00000     0.00000
 Structure written by MMmdl.
 42 43  0  0  0  0  0  0  0  0  1 V2000
  145.2865  137.7889  154.1947 N   0  0  0  0  0  0  0  0  0  0  0  0
  146.4141  137.9535  154.3946 C   0  0  0  0  0  0  0  0  0  0  0  0
  147.8341  138.1613  154.6466 C   0  0  0  0  0  0  0  0  0  0  0  0
  148.6075  137.0940  155.1495 C   0  0  0  0  0  0  0  0  0  0  0  0
  149.9848  137.2861  155.3792 C   0  0  0  0  0  0  0  0  0  0  0  0
  150.7923  136.1814  155.8755 C   0  0  0  0  0  0  0  0  0  0  0  0
  151.4346  135.3038  156.2707 N   0  0  0  0  0  0  0  0  0  0  0  0
  150.5285  138.5612  155.0946 C   0  0  0  0  0  0  0  0  0  0  0  0
  152.2476  138.9323  155.3122 S   0  0  0  0  0  0  0  0  0  0  0  0
  152.5291  139.0596  157.1043 C   0  0  0  0  0  0  0  0  0  0  0  0
  152.1034  140.4222  157.6687 C   0  0  0  0  0  0  0  0  0  0  0  0
  152.8948  140.7307  158.8073 O   0  0  0  0  0  0  0  0  0  0  0  0
  152.4105  141.7966  159.6142 C   0  0  0  0  0  0  0  0  0  0  0  0
  152.1745  143.0394  158.7261 C   0  0  0  0  0  0  0  0  0  0  0  0
  152.1814  144.4101  159.4265 C   0  0  0  0  0  0  0  0  0  0  0  0
  151.5089  144.4523  160.8077 C   0  0  0  0  0  0  0  0  0  0  0  0
  152.4721  144.0777  161.9466 C   0  0  0  0  0  0  0  0  0  0  0  0
  152.8275  142.5859  162.0233 C   0  0  0  0  0  0  0  0  0  0  0  0
  153.4408  141.9973  160.7411 C   0  0  0  0  0  0  0  0  0  0  0  0
  149.7960  139.5944  154.6257 N   0  0  0  0  0  0  0  0  0  0  0  0
  148.4797  139.4000  154.4001 C   0  0  0  0  0  0  0  0  0  0  0  0
  147.7912  140.5078  153.9018 N   0  0  0  0  0  0  0  0  0  0  0  0
  148.1506  136.1340  155.3464 H   0  0  0  0  0  0  0  0  0  0  0  0
  152.0115  138.2497  157.6188 H   0  0  0  0  0  0  0  0  0  0  0  0
  153.5945  138.9126  157.2812 H   0  0  0  0  0  0  0  0  0  0  0  0
  152.2359  141.1887  156.9051 H   0  0  0  0  0  0  0  0  0  0  0  0
  151.0441  140.3995  157.9287 H   0  0  0  0  0  0  0  0  0  0  0  0
  151.4686  141.4878  160.0709 H   0  0  0  0  0  0  0  0  0  0  0  0
  152.9298  143.0674  157.9396 H   0  0  0  0  0  0  0  0  0  0  0  0
  151.2211  142.9169  158.2115 H   0  0  0  0  0  0  0  0  0  0  0  0
  153.2069  144.7715  159.5116 H   0  0  0  0  0  0  0  0  0  0  0  0
  151.6827  145.1230  158.7688 H   0  0  0  0  0  0  0  0  0  0  0  0
  151.1697  145.4734  160.9854 H   0  0  0  0  0  0  0  0  0  0  0  0
  150.6116  143.8324  160.8275 H   0  0  0  0  0  0  0  0  0  0  0  0
  153.3855  144.6682  161.8657 H   0  0  0  0  0  0  0  0  0  0  0  0
  152.0189  144.3673  162.8952 H   0  0  0  0  0  0  0  0  0  0  0  0
  153.5363  142.4487  162.8405 H   0  0  0  0  0  0  0  0  0  0  0  0
  151.9436  142.0122  162.3046 H   0  0  0  0  0  0  0  0  0  0  0  0
  153.8456  141.0213  161.0078 H   0  0  0  0  0  0  0  0  0  0  0  0
  154.2929  142.5855  160.3984 H   0  0  0  0  0  0  0  0  0  0  0  0
  146.8029  140.4697  153.6968 H   0  0  0  0  0  0  0  0  0  0  0  0
  148.2619  141.3850  153.7315 H   0  0  0  0  0  0  0  0  0  0  0  0
  1  2  3  0  0  0  0
  2  3  1  0  0  0  0
  3 21  1  0  0  0  0
  3  4  2  0  0  0  0
  4  5  1  0  0  0  0
  4 23  1  0  0  0  0
  5  6  1  0  0  0  0
  5  8  2  0  0  0  0
  6  7  3  0  0  0  0
  8  9  1  0  0  0  0
  8 20  1  0  0  0  0
  9 10  1  0  0  0  0
 10 11  1  0  0  0  0
 10 24  1  0  0  0  0
 10 25  1  0  0  0  0
 11 12  1  0  0  0  0
 11 26  1  0  0  0  0
 11 27  1  0  0  0  0
 12 13  1  0  0  0  0
 13 19  1  0  0  0  0
 13 14  1  0  0  0  0
 13 28  1  0  0  0  0
 14 15  1  0  0  0  0
 14 29  1  0  0  0  0
 14 30  1  0  0  0  0
 15 16  1  0  0  0  0
 15 31  1  0  0  0  0
 15 32  1  0  0  0  0
 16 17  1  0  0  0  0
 16 33  1  0  0  0  0
 16 34  1  0  0  0  0
 17 18  1  0  0  0  0
 17 35  1  0  0  0  0
 17 36  1  0  0  0  0
 18 19  1  0  0  0  0
 18 37  1  0  0  0  0
 18 38  1  0  0  0  0
 19 39  1  0  0  0  0
 19 40  1  0  0  0  0
 20 21  2  0  0  0  0
 21 22  1  0  0  0  0
 22 41  1  0  0  0  0
 22 42  1  0  0  0  0
M  END
> <s_m_source_file>
AV-unprocessed.smi

> <i_m_source_file_index>
2681

> <i_lp_mmshare_version>
43012

> <i_f3d_flags>
0

> <s_epik_input>
TiNDYzFbY0hdYyhDI04pYyhuYzFbTkgyXSlTW0NIMl1bQ0gyXU9bQ0hdMltDSDJdW0NIMl1bQ0gyXVtDSDJdW0NIMl1bQ0gyXTI=

> <s_epik_cmdline>
J2VwaWtfcHl0aG9uJywgJy1waCcsICc3LjAnLCAnLXRuJywgJzgnLCAnLW1hJywgJzIwMCcsICctbWV0YWxfYmluZGluZycsICctaW1hZScsICc8aW5maWxlLm1hZT4nLCAnLW9tYWUnLCAnPG91dGZpbGUubWFlPic=

> <r_epik_Ionization_Penalty>
0.00177186

> <r_epik_Ionization_Penalty_Charging>
0

> <r_epik_Ionization_Penalty_Neutral>
0.00177186

> <r_epik_State_Penalty>
0.00120048

> <r_epik_Charging_Adjusted_Penalty>
0.00120048

> <i_epik_Tot_Q>
0

> <i_epik_Tot_abs_Q>
0

> <r_epik_Metal_State_Penalty>
-0

> <b_epik_Metal_Only>
0

> <s_lp_Force_Field>
OPLS_2005

> <r_lp_Energy>
17.568

> <b_lp_Chiralities_Consistent>
1

> <s_lp_Variant>
AV-unprocessed.smi:2681-1

> <Gold.Version>
5.8.1

> <Gold.Id.Protein>
6NUR|6NUR_protein|mol2

> <Gold.PLP.Fitness>
48.0090

> <Gold.PLP.PLP>
-42.9593

> <Gold.PLP.part.hbond>
-3.2257

> <Gold.PLP.part.metal>
0.0000

> <Gold.PLP.part.buried>
-2.1954

> <Gold.PLP.part.nonpolar>
-37.3174

> <Gold.PLP.part.repulsive>
0.7475

> <Gold.PLP.ligand.clash>
0.0000

> <Gold.PLP.ligand.torsion>
0.4882

> <Gold.PLP.Chemscore.Hbond>
2.0000

> <Gold.PLP.Chemscore.CHOScore>
0.0000

> <Gold.PLP.Chemscore.Metal>
0.0000

> <Gold.Chemscore.Hbonds>
donor molecule, donor type, donor heavy atom, donor atom, acceptor molecule, acceptor atom, score
      P1  H 10752 10763       L1     7  0.83

> <Gold.PLP.Chemscore.Internal.Correction>
0.0262

> <Gold.Rescore>
     Score         DG    S(hbond)    S(metal)    S(lipo)     H(rot)  DE(clash)    DE(int)     intcor
     15.73     -17.77       1.03        0.00     121.96       2.12       1.57       0.47       ----

> <Gold.Chemscore.Fitness>
15.7300

> <Gold.Chemscore.DG>
-17.7661

> <Gold.Chemscore.ZeroCoef>
-5.4800

> <Gold.Chemscore.Hbond>
1.0276

> <Gold.Chemscore.Metal>
0.0000

> <Gold.Chemscore.Lipo>
121.9553

> <Gold.Chemscore.Internal_Hbond>
0.0000

> <Gold.Chemscore.DEClash>
1.5680

> <Gold.Chemscore.DEInternal>
0.4681

> <Gold.Chemscore.Rot>
2.1152

> <Gold.Chemscore.Internal.Correction>
   9.000000E+99

> <Gold.Chemscore.Hbonds>
donor molecule, donor type, donor heavy atom, donor atom, acceptor molecule, acceptor atom, score
      P1  H 10752 10763       L1     7  0.28

> <Gold.Chemscore.Hbond.Weighted>
-3.4322

> <Gold.Chemscore.Metal.Weighted>
-0.0000

> <Gold.Chemscore.Lipo.Weighted>
-14.2688

> <Gold.Chemscore.Internal_Hbond.Weighted>
0.0000

> <Gold.Chemscore.DEClash.Weighted>
1.5680

> <Gold.Chemscore.DEInternal.Weighted>
0.4681

> <Gold.Chemscore.Rot.Weighted>
5.4149

> <Gold.Chemscore.Internal.Correction.Weighted>
   9.000000E+99

> <Gold.Protein.RotatedTorsions>
[ 6907 6896 6895 6894 ] final  153.70 input  -60.11 | X-H torsion
[ 7974 7965 7964 7962 ] final   86.11 input  175.53 | X-H torsion
[ 8008 7997 7996 7995 ] final  -13.79 input   59.86 | X-H torsion
[ 10167 10162 10161 10158 ] final  166.95 input  -65.29 | X-H torsion
[ 10718 10713 10712 10709 ] final  167.20 input   66.30 | X-H torsion
[ 10763 10752 10751 10750 ] final   91.76 input  -60.55 | X-H torsion
[ 11005 11000 10999 10996 ] final   75.90 input  -57.11 | X-H torsion

> <Gold.Protein.ActiveResidues>
 VAL166  LYS551  ARG553  GLY616  TRP617  ASP618  TYR619  PRO620  LYS621  CYS622 
 ASP623  PHE694  ASN695  SER759  ASP760  ASP761  ALA762  ILE779  LEU786  VAL792 
 PHE793  MET794  SER795  GLU796  ALA797  LYS798  CYS799  TRP800  GLU811  SER814 

> <Gold.Protein.RotatedAtoms>
  152.0689  133.4097  159.4450 H   0  0  0  0  0  0  0  0  0  0  0  0  # atno 6907 bound_to 6896
  150.6864  134.3114  159.4757 H   0  0  0  0  0  0  0  0  0  0  0  0  # atno 6908 bound_to 6896
  152.0944  134.9385  160.0622 H   0  0  0  0  0  0  0  0  0  0  0  0  # atno 6909 bound_to 6896
  145.5767  139.2320  143.2376 H   0  0  0  0  0  0  0  0  0  0  0  0  # atno 7974 bound_to 7965
  154.5263  140.2240  155.8884 H   0  0  0  0  0  0  0  0  0  0  0  0  # atno 8008 bound_to 7997
  156.1716  140.3120  155.8949 H   0  0  0  0  0  0  0  0  0  0  0  0  # atno 8009 bound_to 7997
  155.3545  140.0457  157.3037 H   0  0  0  0  0  0  0  0  0  0  0  0  # atno 8010 bound_to 7997
  139.4935  144.3973  151.9449 H   0  0  0  0  0  0  0  0  0  0  0  0  # atno 10167 bound_to 10162
  157.0550  131.0324  151.2667 H   0  0  0  0  0  0  0  0  0  0  0  0  # atno 10718 bound_to 10713
  153.2117  135.4386  155.0388 H   0  0  0  0  0  0  0  0  0  0  0  0  # atno 10763 bound_to 10752
  154.8204  135.3335  154.7058 H   0  0  0  0  0  0  0  0  0  0  0  0  # atno 10764 bound_to 10752
  153.7496  135.6999  153.5004 H   0  0  0  0  0  0  0  0  0  0  0  0  # atno 10765 bound_to 10752
  139.9322  134.7556  156.1329 H   0  0  0  0  0  0  0  0  0  0  0  0  # atno 11005 bound_to 11000
  146.1746  140.6593  142.9217 LP  0  0  0  0  0  0  0  0  0  0  0  0  # atno 17320 bound_to 7965
  144.7413  140.4949  143.6867 LP  0  0  0  0  0  0  0  0  0  0  0  0  # atno 17321 bound_to 7965
  140.3412  144.3201  150.5967 LP  0  0  0  0  0  0  0  0  0  0  0  0  # atno 17342 bound_to 10162
  140.5564  143.2198  151.7839 LP  0  0  0  0  0  0  0  0  0  0  0  0  # atno 17343 bound_to 10162
  157.5000  130.7874  149.7595 LP  0  0  0  0  0  0  0  0  0  0  0  0  # atno 17370 bound_to 10713
  155.9996  130.3888  150.2658 LP  0  0  0  0  0  0  0  0  0  0  0  0  # atno 17371 bound_to 10713
  141.0917  133.6711  156.2556 LP  0  0  0  0  0  0  0  0  0  0  0  0  # atno 17394 bound_to 11000
  140.6170  134.5400  157.5542 LP  0  0  0  0  0  0  0  0  0  0  0  0  # atno 17395 bound_to 11000

$$$$
