AV-unprocessed.smi:533|AV-procd|sdf|2854|dock4
  -GOLD-   2262023343D 1   1.00000     0.00000
 Structure written by MMmdl.
 36 37  0  0  0  0  0  0  0  0  1 V2000
  150.9483  144.5147  158.5581 C   0  0  0  0  0  0  0  0  0  0  0  0
  151.6392  143.8081  157.3885 C   0  0  0  0  0  0  0  0  0  0  0  0
  150.6865  143.1095  156.5478 N   0  0  0  0  0  0  0  0  0  0  0  0
  150.6662  141.8109  156.0549 C   0  0  0  0  0  0  0  0  0  0  0  0
  151.6114  140.8971  156.2898 N   0  0  0  0  0  0  0  0  0  0  0  0
  151.1475  139.7942  155.5863 C   0  0  0  0  0  0  0  0  0  0  0  0
  149.9713  140.0695  154.9667 C   0  0  0  0  0  0  0  0  0  0  0  0
  149.2655  139.0810  154.1419 C   0  0  0  0  0  0  0  0  0  0  0  0
  148.2046  139.3099  153.5652 O   0  0  0  0  0  0  0  0  0  0  0  0
  149.9067  137.8886  154.0800 N   0  0  0  0  0  0  0  0  0  0  0  0
  151.0873  137.5446  154.6807 C   0  0  0  0  0  0  0  0  0  0  0  0
  151.5418  136.4115  154.5256 O   0  0  0  0  0  0  0  0  0  0  0  0
  151.7178  138.4993  155.4400 N   0  0  0  0  0  0  0  0  0  0  0  0
  152.9862  138.2338  156.1219 C   0  0  0  0  0  0  0  0  0  0  0  0
  149.6413  141.3899  155.2729 N   0  0  0  0  0  0  0  0  0  0  0  0
  148.4741  142.1571  154.8488 C   0  0  0  0  0  0  0  0  0  0  0  0
  147.1587  141.4288  155.1609 C   0  0  0  0  0  0  0  0  0  0  0  0
  146.0760  142.3435  155.1130 O   0  0  0  0  0  0  0  0  0  0  0  0
  145.8948  142.9072  153.8266 C   0  0  0  0  0  0  0  0  0  0  0  0
  149.4627  137.1713  153.5252 H   0  0  0  0  0  0  0  0  0  0  0  0
  151.6777  145.0321  159.1815 H   0  0  0  0  0  0  0  0  0  0  0  0
  150.4169  143.8029  159.1906 H   0  0  0  0  0  0  0  0  0  0  0  0
  150.2294  145.2544  158.2043 H   0  0  0  0  0  0  0  0  0  0  0  0
  152.1810  144.5323  156.7796 H   0  0  0  0  0  0  0  0  0  0  0  0
  152.3712  143.0919  157.7628 H   0  0  0  0  0  0  0  0  0  0  0  0
  149.8993  143.6770  156.2691 H   0  0  0  0  0  0  0  0  0  0  0  0
  153.3584  137.2173  155.9904 H   0  0  0  0  0  0  0  0  0  0  0  0
  152.8754  138.4032  157.1933 H   0  0  0  0  0  0  0  0  0  0  0  0
  153.7554  138.9130  155.7529 H   0  0  0  0  0  0  0  0  0  0  0  0
  148.4907  143.1361  155.3248 H   0  0  0  0  0  0  0  0  0  0  0  0
  148.5466  142.3524  153.7786 H   0  0  0  0  0  0  0  0  0  0  0  0
  147.0017  140.6272  154.4375 H   0  0  0  0  0  0  0  0  0  0  0  0
  147.2138  140.9694  156.1492 H   0  0  0  0  0  0  0  0  0  0  0  0
  145.0569  143.6041  153.8471 H   0  0  0  0  0  0  0  0  0  0  0  0
  145.6741  142.1367  153.0867 H   0  0  0  0  0  0  0  0  0  0  0  0
  146.7817  143.4562  153.5077 H   0  0  0  0  0  0  0  0  0  0  0  0
  1  2  1  0  0  0  0
  1 21  1  0  0  0  0
  1 22  1  0  0  0  0
  1 23  1  0  0  0  0
  2  3  1  0  0  0  0
  2 24  1  0  0  0  0
  2 25  1  0  0  0  0
  3  4  1  0  0  0  0
  3 26  1  0  0  0  0
  4 15  1  0  0  0  0
  4  5  2  0  0  0  0
  5  6  1  0  0  0  0
  6 13  1  0  0  0  0
  6  7  2  0  0  0  0
  7  8  1  0  0  0  0
  7 15  1  0  0  0  0
  8  9  2  0  0  0  0
  8 10  1  0  0  0  0
 10 20  1  0  0  0  0
 10 11  1  0  0  0  0
 11 12  2  0  0  0  0
 11 13  1  0  0  0  0
 13 14  1  0  0  0  0
 14 27  1  0  0  0  0
 14 28  1  0  0  0  0
 14 29  1  0  0  0  0
 15 16  1  0  0  0  0
 16 17  1  0  0  0  0
 16 30  1  0  0  0  0
 16 31  1  0  0  0  0
 17 18  1  0  0  0  0
 17 32  1  0  0  0  0
 17 33  1  0  0  0  0
 18 19  1  0  0  0  0
 19 34  1  0  0  0  0
 19 35  1  0  0  0  0
 19 36  1  0  0  0  0
M  END
> <s_m_source_file>
AV-unprocessed.smi

> <i_m_source_file_index>
533

> <i_lp_mmshare_version>
43012

> <i_f3d_flags>
0

> <s_epik_input>
W0NIM11bQ0gyXVtOSF1jKG4xKW4oW0NIMl1bQ0gyXU9bQ0gzXSljKGMxMiljKD1PKVtuSF1jKD1PKW4yW0NIM10=

> <s_epik_cmdline>
J2VwaWtfcHl0aG9uJywgJy1waCcsICc3LjAnLCAnLXRuJywgJzgnLCAnLW1hJywgJzIwMCcsICctbWV0YWxfYmluZGluZycsICctaW1hZScsICc8aW5maWxlLm1hZT4nLCAnLW9tYWUnLCAnPG91dGZpbGUubWFlPic=

> <r_lp_tautomer_probability>
1

> <r_epik_Ionization_Penalty>
5.47603e-05

> <r_epik_Ionization_Penalty_Charging>
3.02296e-05

> <r_epik_Ionization_Penalty_Neutral>
2.45307e-05

> <r_epik_State_Penalty>
-0

> <r_epik_Charging_Adjusted_Penalty>
3.02296e-05

> <i_epik_Tot_Q>
0

> <i_epik_Tot_abs_Q>
0

> <r_epik_Metal_State_Penalty>
0.0280858

> <b_epik_Metal_Only>
0

> <s_lp_Force_Field>
OPLS_2005

> <r_lp_Energy>
19.3222

> <b_lp_Chiralities_Consistent>
1

> <s_lp_Variant>
AV-unprocessed.smi:533-1

> <Gold.Version>
5.8.1

> <Gold.Id.Protein>
6NUR|6NUR_protein|mol2

> <Gold.PLP.Fitness>
43.3301

> <Gold.PLP.PLP>
-34.6864

> <Gold.PLP.part.hbond>
-3.0000

> <Gold.PLP.part.metal>
0.0000

> <Gold.PLP.part.buried>
-1.9129

> <Gold.PLP.part.nonpolar>
-32.0502

> <Gold.PLP.part.repulsive>
2.5330

> <Gold.PLP.ligand.clash>
0.0000

> <Gold.PLP.ligand.torsion>
0.1791

> <Gold.PLP.Chemscore.Hbond>
3.0000

> <Gold.PLP.Chemscore.CHOScore>
0.0000

> <Gold.PLP.Chemscore.Metal>
0.0000

> <Gold.Chemscore.Hbonds>
donor molecule, donor type, donor heavy atom, donor atom, acceptor molecule, acceptor atom, score
      L1  H     3    26       P1  8028  1.00
      L1  H    10    20       P1  7948  1.00
      P1  H 10752 10763       L1    12  1.00

> <Gold.PLP.Chemscore.Internal.Correction>
0.0019

> <Gold.Rescore>
     Score         DG    S(hbond)    S(metal)    S(lipo)     H(rot)  DE(clash)    DE(int)     intcor
     14.91     -16.47       2.93        0.00      51.11       1.86       1.37       0.19       ----

> <Gold.Chemscore.Fitness>
14.9094

> <Gold.Chemscore.DG>
-16.4677

> <Gold.Chemscore.ZeroCoef>
-5.4800

> <Gold.Chemscore.Hbond>
2.9275

> <Gold.Chemscore.Metal>
0.0000

> <Gold.Chemscore.Lipo>
51.1131

> <Gold.Chemscore.Internal_Hbond>
0.0000

> <Gold.Chemscore.DEClash>
1.3709

> <Gold.Chemscore.DEInternal>
0.1875

> <Gold.Chemscore.Rot>
1.8634

> <Gold.Chemscore.Internal.Correction>
   9.000000E+99

> <Gold.Chemscore.Hbonds>
donor molecule, donor type, donor heavy atom, donor atom, acceptor molecule, acceptor atom, score
      L1  H     3    26       P1  8028  0.97
      L1  H    10    20       P1  7948  0.90
      P1  H 10752 10763       L1    12  0.98

> <Gold.Chemscore.Hbond.Weighted>
-9.7777

> <Gold.Chemscore.Metal.Weighted>
-0.0000

> <Gold.Chemscore.Lipo.Weighted>
-5.9802

> <Gold.Chemscore.Internal_Hbond.Weighted>
0.0000

> <Gold.Chemscore.DEClash.Weighted>
1.3709

> <Gold.Chemscore.DEInternal.Weighted>
0.1875

> <Gold.Chemscore.Rot.Weighted>
4.7702

> <Gold.Chemscore.Internal.Correction.Weighted>
   9.000000E+99

> <Gold.Protein.RotatedTorsions>
[ 6907 6896 6895 6894 ] final  -40.30 input  -60.11 | X-H torsion
[ 7974 7965 7964 7962 ] final   33.20 input  175.53 | X-H torsion
[ 8008 7997 7996 7995 ] final -106.38 input   59.86 | X-H torsion
[ 10167 10162 10161 10158 ] final  113.05 input  -65.29 | X-H torsion
[ 10718 10713 10712 10709 ] final -151.27 input   66.30 | X-H torsion
[ 10763 10752 10751 10750 ] final   50.31 input  -60.55 | X-H torsion
[ 11005 11000 10999 10996 ] final  156.49 input  -57.11 | X-H torsion

> <Gold.Protein.ActiveResidues>
 VAL166  LYS551  ARG553  GLY616  TRP617  ASP618  TYR619  PRO620  LYS621  CYS622 
 ASP623  PHE694  ASN695  SER759  ASP760  ASP761  ALA762  ILE779  LEU786  VAL792 
 PHE793  MET794  SER795  GLU796  ALA797  LYS798  CYS799  TRP800  GLU811  SER814 

> <Gold.Protein.RotatedAtoms>
  150.9801  134.9158  159.7839 H   0  0  0  0  0  0  0  0  0  0  0  0  # atno 6907 bound_to 6896
  152.5219  134.3422  159.9231 H   0  0  0  0  0  0  0  0  0  0  0  0  # atno 6908 bound_to 6896
  151.3429  133.3914  159.2707 H   0  0  0  0  0  0  0  0  0  0  0  0  # atno 6909 bound_to 6896
  146.1437  139.6428  142.9146 H   0  0  0  0  0  0  0  0  0  0  0  0  # atno 7974 bound_to 7965
  154.9137  140.0409  157.1960 H   0  0  0  0  0  0  0  0  0  0  0  0  # atno 8008 bound_to 7997
  154.8322  140.2901  155.5693 H   0  0  0  0  0  0  0  0  0  0  0  0  # atno 8009 bound_to 7997
  156.2987  140.2498  156.3250 H   0  0  0  0  0  0  0  0  0  0  0  0  # atno 8010 bound_to 7997
  139.6490  144.7127  151.2085 H   0  0  0  0  0  0  0  0  0  0  0  0  # atno 10167 bound_to 10162
  156.4570  130.8195  151.2426 H   0  0  0  0  0  0  0  0  0  0  0  0  # atno 10718 bound_to 10713
  152.9785  135.5883  154.4231 H   0  0  0  0  0  0  0  0  0  0  0  0  # atno 10763 bound_to 10752
  154.3853  135.2767  155.2189 H   0  0  0  0  0  0  0  0  0  0  0  0  # atno 10764 bound_to 10752
  154.4085  135.6087  153.5993 H   0  0  0  0  0  0  0  0  0  0  0  0  # atno 10765 bound_to 10752
  140.1680  134.8563  157.2656 H   0  0  0  0  0  0  0  0  0  0  0  0  # atno 11005 bound_to 11000
  145.4988  141.0438  143.2552 LP  0  0  0  0  0  0  0  0  0  0  0  0  # atno 17320 bound_to 7965
  144.7821  139.6504  143.7150 LP  0  0  0  0  0  0  0  0  0  0  0  0  # atno 17321 bound_to 7965
  140.7529  143.6182  150.8539 LP  0  0  0  0  0  0  0  0  0  0  0  0  # atno 17342 bound_to 10162
  139.9828  143.5933  152.2937 LP  0  0  0  0  0  0  0  0  0  0  0  0  # atno 17343 bound_to 10162
  157.7500  131.0119  150.3365 LP  0  0  0  0  0  0  0  0  0  0  0  0  # atno 17370 bound_to 10713
  156.3756  130.3871  149.7141 LP  0  0  0  0  0  0  0  0  0  0  0  0  # atno 17371 bound_to 10713
  140.2411  134.3795  155.7480 LP  0  0  0  0  0  0  0  0  0  0  0  0  # atno 17394 bound_to 11000
  141.2215  133.7265  156.8790 LP  0  0  0  0  0  0  0  0  0  0  0  0  # atno 17395 bound_to 11000

$$$$
