AV-unprocessed.smi:2061|AV-procd|sdf|8388|dock7
  -GOLD-   2272011 73D 1   1.00000     0.00000
 Structure written by MMmdl.
 45 46  0  0  0  0  0  0  0  0  3 V2000
  146.2038  136.1355  162.4428 C   0  0  0  0  0  0  0  0  0  0  0  0
  147.0140  136.1617  161.1921 C   0  0  0  0  0  0  0  0  0  0  0  0
  147.1414  135.2891  160.1483 C   0  0  0  0  0  0  0  0  0  0  0  0
  148.0794  135.9365  159.3007 C   0  0  0  0  0  0  0  0  0  0  0  0
  148.4834  135.3390  158.0774 N   0  0  0  0  0  0  0  0  0  0  0  0
  149.2751  135.8452  157.1144 C   0  0  0  0  0  0  0  0  0  0  0  0
  149.7793  136.9671  157.2456 O   0  0  0  0  0  0  0  0  0  0  0  0
  149.4147  134.9958  156.0588 N   0  5  0  0  0  0  0  0  0  0  0  0
  148.8388  135.2127  154.7301 C   0  0  0  0  0  0  0  0  0  0  0  0
  148.3756  133.8727  154.0921 C   0  0  2  0  0  0  0  0  0  0  0  0
  149.5093  132.8331  153.9059 C   0  0  0  0  0  0  0  0  0  0  0  0
  147.6062  134.1302  152.8351 N   0  3  1  0  0  0  0  0  0  0  0  0
  147.2278  132.9375  152.0276 C   0  0  0  0  0  0  0  0  0  0  0  0
  146.6046  133.3799  150.6916 C   0  0  1  0  0  0  0  0  0  0  0  0
  146.1410  132.1888  149.8465 C   0  0  0  0  0  0  0  0  0  0  0  0
  145.4718  134.1996  150.9612 O   0  0  0  0  0  0  0  0  0  0  0  0
  145.8098  135.3867  151.6708 C   0  0  1  0  0  0  0  0  0  0  0  0
  144.5397  136.2298  151.8273 C   0  0  0  0  0  0  0  0  0  0  0  0
  146.4272  135.0094  153.0309 C   0  0  0  0  0  0  0  0  0  0  0  0
  148.4868  137.1005  159.7851 N   0  0  0  0  0  0  0  0  0  0  0  0
  147.8071  137.2501  160.9996 O   0  0  0  0  0  0  0  0  0  0  0  0
  145.3865  135.4186  162.3616 H   0  0  0  0  0  0  0  0  0  0  0  0
  145.7734  137.1159  162.6472 H   0  0  0  0  0  0  0  0  0  0  0  0
  146.8207  135.8517  163.2955 H   0  0  0  0  0  0  0  0  0  0  0  0
  146.6432  134.3407  160.0140 H   0  0  0  0  0  0  0  0  0  0  0  0
  148.1197  134.4138  157.9031 H   0  0  0  0  0  0  0  0  0  0  0  0
  147.9881  135.8949  154.7736 H   0  0  0  0  0  0  0  0  0  0  0  0
  149.5530  135.6948  154.0622 H   0  0  0  0  0  0  0  0  0  0  0  0
  147.6679  133.4335  154.7967 H   0  0  0  0  0  0  0  0  0  0  0  0
  149.9530  132.5430  154.8600 H   0  0  0  0  0  0  0  0  0  0  0  0
  150.3183  133.1986  153.2709 H   0  0  0  0  0  0  0  0  0  0  0  0
  149.1258  131.9188  153.4532 H   0  0  0  0  0  0  0  0  0  0  0  0
  148.1018  132.3148  151.8347 H   0  0  0  0  0  0  0  0  0  0  0  0
  146.5107  132.3251  152.5762 H   0  0  0  0  0  0  0  0  0  0  0  0
  147.3348  133.9509  150.1153 H   0  0  0  0  0  0  0  0  0  0  0  0
  146.9758  131.5302  149.6059 H   0  0  0  0  0  0  0  0  0  0  0  0
  145.7018  132.5251  148.9068 H   0  0  0  0  0  0  0  0  0  0  0  0
  145.3896  131.5994  150.3727 H   0  0  0  0  0  0  0  0  0  0  0  0
  146.5337  135.9575  151.0863 H   0  0  0  0  0  0  0  0  0  0  0  0
  144.7497  137.1610  152.3542 H   0  0  0  0  0  0  0  0  0  0  0  0
  143.7748  135.6923  152.3885 H   0  0  0  0  0  0  0  0  0  0  0  0
  144.1198  136.4867  150.8545 H   0  0  0  0  0  0  0  0  0  0  0  0
  145.6925  134.5021  153.6583 H   0  0  0  0  0  0  0  0  0  0  0  0
  146.7238  135.9195  153.5540 H   0  0  0  0  0  0  0  0  0  0  0  0
  148.2401  134.6670  152.2602 H   0  0  0  0  0  0  0  0  0  0  0  0
  1  2  1  0  0  0  0
  1 22  1  0  0  0  0
  1 23  1  0  0  0  0
  1 24  1  0  0  0  0
  2 21  1  0  0  0  0
  2  3  2  0  0  0  0
  3  4  1  0  0  0  0
  3 25  1  0  0  0  0
  4  5  1  0  0  0  0
  4 20  2  0  0  0  0
  5  6  1  0  0  0  0
  5 26  1  0  0  0  0
  6  7  2  0  0  0  0
  6  8  1  0  0  0  0
  8  9  1  0  0  0  0
  9 10  1  0  0  0  0
  9 27  1  0  0  0  0
  9 28  1  0  0  0  0
 10 11  1  0  0  0  0
 10 12  1  0  0  0  0
 10 29  1  0  0  0  0
 11 30  1  0  0  0  0
 11 31  1  0  0  0  0
 11 32  1  0  0  0  0
 12 19  1  0  0  0  0
 12 13  1  0  0  0  0
 12 45  1  0  0  0  0
 13 14  1  0  0  0  0
 13 33  1  0  0  0  0
 13 34  1  0  0  0  0
 14 15  1  0  0  0  0
 14 16  1  0  0  0  0
 14 35  1  0  0  0  0
 15 36  1  0  0  0  0
 15 37  1  0  0  0  0
 15 38  1  0  0  0  0
 16 17  1  0  0  0  0
 17 18  1  0  0  0  0
 17 19  1  0  0  0  0
 17 39  1  0  0  0  0
 18 40  1  0  0  0  0
 18 41  1  0  0  0  0
 18 42  1  0  0  0  0
 19 43  1  0  0  0  0
 19 44  1  0  0  0  0
 20 21  1  0  0  0  0
M  CHG  1   8  -1
M  CHG  1  12   1
M  END
> <s_m_source_file>
AV-unprocessed.smi

> <i_m_source_file_index>
2061

> <i_lp_mmshare_version>
43012

> <i_f3d_flags>
0

> <s_epik_input>
W0NIM11jMVtjSF1jKG5vMSlbTkhdQyg9TylbTkhdW0NIMl1bQ0BIXShbQ0gzXSlOMltDSDJdW0NAQEhdKFtDSDNdKU9bQ0BASF0oW0NIM10pW0NIMl0y

> <s_epik_cmdline>
J2VwaWtfcHl0aG9uJywgJy1waCcsICc3LjAnLCAnLXRuJywgJzgnLCAnLW1hJywgJzIwMCcsICctbWV0YWxfYmluZGluZycsICctaW1hZScsICc8aW5maWxlLm1hZT4nLCAnLW9tYWUnLCAnPG91dGZpbGUubWFlPic=

> <r_epik_Ionization_Penalty>
6.8073

> <r_epik_Ionization_Penalty_Charging>
6.80729

> <r_epik_Ionization_Penalty_Neutral>
5.65391e-06

> <r_epik_State_Penalty>
7.47323

> <r_epik_Charging_Adjusted_Penalty>
14.2805

> <i_epik_Tot_Q>
0

> <i_epik_Tot_abs_Q>
2

> <r_epik_Metal_State_Penalty>
3.40035

> <b_epik_Metal_Only>
1

> <s_lp_Force_Field>
OPLS_2005

> <r_lp_Energy>
16.5553

> <b_lp_Chiralities_Consistent>
1

> <s_lp_Variant>
AV-unprocessed.smi:2061-29

> <Gold.Version>
5.8.1

> <Gold.Id.Protein>
6NUR|6NUR_protein|mol2

> <Gold.PLP.Fitness>
40.4713

> <Gold.PLP.PLP>
-31.2010

> <Gold.PLP.part.hbond>
-3.7422

> <Gold.PLP.part.metal>
0.0000

> <Gold.PLP.part.buried>
-2.2357

> <Gold.PLP.part.nonpolar>
-24.5641

> <Gold.PLP.part.repulsive>
0.2362

> <Gold.PLP.ligand.clash>
0.0000

> <Gold.PLP.ligand.torsion>
0.9429

> <Gold.PLP.Chemscore.Hbond>
3.6740

> <Gold.PLP.Chemscore.CHOScore>
0.0000

> <Gold.PLP.Chemscore.Metal>
0.0000

> <Gold.Chemscore.Hbonds>
donor molecule, donor type, donor heavy atom, donor atom, acceptor molecule, acceptor atom, score
      L1  H    12    45       P1  7948  1.80
      P1  H  6931  6943       L1    21  0.84
      P1  H  6934  6947       L1    21  0.82

> <Gold.PLP.Chemscore.Internal.Correction>
0.1341

> <Gold.Rescore>
     Score         DG    S(hbond)    S(metal)    S(lipo)     H(rot)  DE(clash)    DE(int)     intcor
     13.41     -15.82       1.87        0.00      68.94       1.56       0.02       2.39       ----

> <Gold.Chemscore.Fitness>
13.4114

> <Gold.Chemscore.DG>
-15.8209

> <Gold.Chemscore.ZeroCoef>
-5.4800

> <Gold.Chemscore.Hbond>
1.8730

> <Gold.Chemscore.Metal>
0.0000

> <Gold.Chemscore.Lipo>
68.9399

> <Gold.Chemscore.Internal_Hbond>
0.0000

> <Gold.Chemscore.DEClash>
0.0186

> <Gold.Chemscore.DEInternal>
2.3909

> <Gold.Chemscore.Rot>
1.5550

> <Gold.Chemscore.Internal.Correction>
   9.000000E+99

> <Gold.Chemscore.Hbonds>
donor molecule, donor type, donor heavy atom, donor atom, acceptor molecule, acceptor atom, score
      L1  H    12    45       P1  7948  0.17
      P1  H  6931  6943       L1    21  0.19
      P1  H  6934  6947       L1    21  0.32

> <Gold.Chemscore.Hbond.Weighted>
-6.2558

> <Gold.Chemscore.Metal.Weighted>
-0.0000

> <Gold.Chemscore.Lipo.Weighted>
-8.0660

> <Gold.Chemscore.Internal_Hbond.Weighted>
0.0000

> <Gold.Chemscore.DEClash.Weighted>
0.0186

> <Gold.Chemscore.DEInternal.Weighted>
2.3909

> <Gold.Chemscore.Rot.Weighted>
3.9809

> <Gold.Chemscore.Internal.Correction.Weighted>
   9.000000E+99

> <Gold.Protein.RotatedTorsions>
[ 6907 6896 6895 6894 ] final  141.76 input  -60.11 | X-H torsion
[ 7974 7965 7964 7962 ] final -138.53 input  175.53 | X-H torsion
[ 8008 7997 7996 7995 ] final   15.58 input   59.86 | X-H torsion
[ 10167 10162 10161 10158 ] final   59.50 input  -65.29 | X-H torsion
[ 10718 10713 10712 10709 ] final -168.21 input   66.30 | X-H torsion
[ 10763 10752 10751 10750 ] final -132.42 input  -60.55 | X-H torsion
[ 11005 11000 10999 10996 ] final  -23.93 input  -57.11 | X-H torsion

> <Gold.Protein.ActiveResidues>
 VAL166  LYS551  ARG553  GLY616  TRP617  ASP618  TYR619  PRO620  LYS621  CYS622 
 ASP623  PHE694  ASN695  SER759  ASP760  ASP761  ALA762  ILE779  LEU786  VAL792 
 PHE793  MET794  SER795  GLU796  ALA797  LYS798  CYS799  TRP800  GLU811  SER814 

> <Gold.Protein.RotatedAtoms>
  152.2270  133.5028  159.5193 H   0  0  0  0  0  0  0  0  0  0  0  0  # atno 6907 bound_to 6896
  150.7027  134.1267  159.4064 H   0  0  0  0  0  0  0  0  0  0  0  0  # atno 6908 bound_to 6896
  151.9188  135.0307  160.0571 H   0  0  0  0  0  0  0  0  0  0  0  0  # atno 6909 bound_to 6896
  144.8751  140.6425  143.5242 H   0  0  0  0  0  0  0  0  0  0  0  0  # atno 7974 bound_to 7965
  154.8647  140.2949  155.5518 H   0  0  0  0  0  0  0  0  0  0  0  0  # atno 8008 bound_to 7997
  156.3020  140.2471  156.3559 H   0  0  0  0  0  0  0  0  0  0  0  0  # atno 8009 bound_to 7997
  154.8881  140.0395  157.1811 H   0  0  0  0  0  0  0  0  0  0  0  0  # atno 8010 bound_to 7997
  140.1758  144.4231  150.6639 H   0  0  0  0  0  0  0  0  0  0  0  0  # atno 10167 bound_to 10162
  156.6936  130.9169  151.3072 H   0  0  0  0  0  0  0  0  0  0  0  0  # atno 10718 bound_to 10713
  154.8743  135.3798  154.4406 H   0  0  0  0  0  0  0  0  0  0  0  0  # atno 10763 bound_to 10752
  153.5092  135.7030  153.5795 H   0  0  0  0  0  0  0  0  0  0  0  0  # atno 10764 bound_to 10752
  153.4092  135.3929  155.2005 H   0  0  0  0  0  0  0  0  0  0  0  0  # atno 10765 bound_to 10752
  140.8797  133.7662  156.0287 H   0  0  0  0  0  0  0  0  0  0  0  0  # atno 11005 bound_to 11000
  145.4058  139.1589  143.4153 LP  0  0  0  0  0  0  0  0  0  0  0  0  # atno 17320 bound_to 7965
  146.2957  140.4158  142.8722 LP  0  0  0  0  0  0  0  0  0  0  0  0  # atno 17321 bound_to 7965
  140.6552  143.2236  151.5985 LP  0  0  0  0  0  0  0  0  0  0  0  0  # atno 17342 bound_to 10162
  139.5318  144.2895  152.1164 LP  0  0  0  0  0  0  0  0  0  0  0  0  # atno 17343 bound_to 10162
  157.7000  130.9322  150.0756 LP  0  0  0  0  0  0  0  0  0  0  0  0  # atno 17370 bound_to 10713
  156.1780  130.3649  149.9074 LP  0  0  0  0  0  0  0  0  0  0  0  0  # atno 17371 bound_to 10713
  140.8475  134.2993  157.5289 LP  0  0  0  0  0  0  0  0  0  0  0  0  # atno 17394 bound_to 11000
  139.8718  134.9450  156.3897 LP  0  0  0  0  0  0  0  0  0  0  0  0  # atno 17395 bound_to 11000

$$$$
