AV-unprocessed.smi:2165|AV-procd|sdf|8812|dock5
  -GOLD-   2272012 03D 1   1.00000     0.00000
 Structure written by MMmdl.
 36 37  0  0  0  0  0  0  0  0  1 V2000
  153.6770  140.9628  160.9887 C   0  0  0  0  0  0  0  0  0  0  0  0
  152.8907  141.9773  160.3183 N   0  0  0  0  0  0  0  0  0  0  0  0
  152.4953  143.1325  161.0355 C   0  0  0  0  0  0  0  0  0  0  0  0
  152.7911  143.3157  162.2168 O   0  0  0  0  0  0  0  0  0  0  0  0
  151.7055  144.0819  160.2600 C   0  0  0  0  0  0  0  0  0  0  0  0
  151.3966  143.8370  158.9676 C   0  0  0  0  0  0  0  0  0  0  0  0
  151.7920  142.6968  158.2922 N   0  0  0  0  0  0  0  0  0  0  0  0
  151.4191  142.5151  156.8836 C   0  0  0  0  0  0  0  0  0  0  0  0
  150.4946  141.3098  156.6701 C   0  0  0  0  0  0  0  0  0  0  0  0
  150.8629  140.1767  156.9827 O   0  0  0  0  0  0  0  0  0  0  0  0
  149.2981  141.5707  156.1231 N   0  0  0  0  0  0  0  0  0  0  0  0
  148.2550  140.5822  155.8770 C   0  0  0  0  0  0  0  0  0  0  0  0
  147.0248  141.2187  155.2086 C   0  0  2  0  0  0  0  0  0  0  0  0
  147.3084  141.8343  153.8400 C   0  0  0  0  0  0  0  0  0  0  0  0
  146.2349  142.9040  153.7006 C   0  0  0  0  0  0  0  0  0  0  0  0
  145.6666  143.0524  155.1151 C   0  0  0  0  0  0  0  0  0  0  0  0
  146.5655  142.3373  155.9503 O   0  0  0  0  0  0  0  0  0  0  0  0
  152.5598  141.7246  158.9692 C   0  0  0  0  0  0  0  0  0  0  0  0
  152.9220  140.6948  158.3942 O   0  0  0  0  0  0  0  0  0  0  0  0
  153.9578  141.2770  161.9933 H   0  0  0  0  0  0  0  0  0  0  0  0
  154.5789  140.8030  160.3950 H   0  0  0  0  0  0  0  0  0  0  0  0
  153.0644  140.0606  161.0328 H   0  0  0  0  0  0  0  0  0  0  0  0
  151.3639  144.9939  160.7271 H   0  0  0  0  0  0  0  0  0  0  0  0
  150.8118  144.5739  158.4365 H   0  0  0  0  0  0  0  0  0  0  0  0
  150.9470  143.4241  156.5055 H   0  0  0  0  0  0  0  0  0  0  0  0
  152.3118  142.3707  156.2738 H   0  0  0  0  0  0  0  0  0  0  0  0
  149.0790  142.5296  155.8947 H   0  0  0  0  0  0  0  0  0  0  0  0
  148.6673  139.7993  155.2396 H   0  0  0  0  0  0  0  0  0  0  0  0
  147.9710  140.1030  156.8152 H   0  0  0  0  0  0  0  0  0  0  0  0
  146.2130  140.4937  155.1203 H   0  0  0  0  0  0  0  0  0  0  0  0
  148.2930  142.3039  153.8329 H   0  0  0  0  0  0  0  0  0  0  0  0
  147.2821  141.0980  153.0363 H   0  0  0  0  0  0  0  0  0  0  0  0
  146.6644  143.8391  153.3393 H   0  0  0  0  0  0  0  0  0  0  0  0
  145.4541  142.6008  153.0021 H   0  0  0  0  0  0  0  0  0  0  0  0
  145.5810  144.0932  155.4274 H   0  0  0  0  0  0  0  0  0  0  0  0
  144.6783  142.5952  155.1806 H   0  0  0  0  0  0  0  0  0  0  0  0
  1  2  1  0  0  0  0
  1 20  1  0  0  0  0
  1 21  1  0  0  0  0
  1 22  1  0  0  0  0
  2 18  1  0  0  0  0
  2  3  1  0  0  0  0
  3  4  2  0  0  0  0
  3  5  1  0  0  0  0
  5  6  2  0  0  0  0
  5 23  1  0  0  0  0
  6  7  1  0  0  0  0
  6 24  1  0  0  0  0
  7  8  1  0  0  0  0
  7 18  1  0  0  0  0
  8  9  1  0  0  0  0
  8 25  1  0  0  0  0
  8 26  1  0  0  0  0
  9 10  2  0  0  0  0
  9 11  1  0  0  0  0
 11 12  1  0  0  0  0
 11 27  1  0  0  0  0
 12 13  1  0  0  0  0
 12 28  1  0  0  0  0
 12 29  1  0  0  0  0
 13 17  1  0  0  0  0
 13 14  1  0  0  0  0
 13 30  1  0  0  0  0
 14 15  1  0  0  0  0
 14 31  1  0  0  0  0
 14 32  1  0  0  0  0
 15 16  1  0  0  0  0
 15 33  1  0  0  0  0
 15 34  1  0  0  0  0
 16 17  1  0  0  0  0
 16 35  1  0  0  0  0
 16 36  1  0  0  0  0
 18 19  2  0  0  0  0
M  END
> <s_m_source_file>
AV-unprocessed.smi

> <i_m_source_file_index>
2165

> <i_lp_mmshare_version>
43012

> <i_f3d_flags>
0

> <s_epik_input>
W0NIM11uMWMoPU8pW2NIXVtjSF1uKGMxPU8pW0NIMl1DKD1PKVtOSF1bQ0gyXVtDQEBIXTJbQ0gyXVtDSDJdW0NIMl1PMg==

> <s_epik_cmdline>
J2VwaWtfcHl0aG9uJywgJy1waCcsICc3LjAnLCAnLXRuJywgJzgnLCAnLW1hJywgJzIwMCcsICctbWV0YWxfYmluZGluZycsICctaW1hZScsICc8aW5maWxlLm1hZT4nLCAnLW9tYWUnLCAnPG91dGZpbGUubWFlPic=

> <r_lp_tautomer_probability>
1

> <r_epik_Ionization_Penalty>
3.89869e-08

> <r_epik_Ionization_Penalty_Charging>
1.21279e-08

> <r_epik_Ionization_Penalty_Neutral>
2.6859e-08

> <r_epik_State_Penalty>
-0

> <r_epik_Charging_Adjusted_Penalty>
1.21279e-08

> <i_epik_Tot_Q>
0

> <i_epik_Tot_abs_Q>
0

> <r_epik_Metal_State_Penalty>
-0

> <b_epik_Metal_Only>
0

> <s_lp_Force_Field>
OPLS_2005

> <r_lp_Energy>
24.9398

> <b_lp_Chiralities_Consistent>
1

> <s_lp_Variant>
AV-unprocessed.smi:2165-1

> <Gold.Version>
5.8.1

> <Gold.Id.Protein>
6NUR|6NUR_protein|mol2

> <Gold.PLP.Fitness>
42.7871

> <Gold.PLP.PLP>
-38.5626

> <Gold.PLP.part.hbond>
-2.0000

> <Gold.PLP.part.metal>
0.0000

> <Gold.PLP.part.buried>
-4.1929

> <Gold.PLP.part.nonpolar>
-31.5192

> <Gold.PLP.part.repulsive>
0.3481

> <Gold.PLP.ligand.clash>
0.0000

> <Gold.PLP.ligand.torsion>
0.0314

> <Gold.PLP.Chemscore.Hbond>
1.4248

> <Gold.PLP.Chemscore.CHOScore>
0.0000

> <Gold.PLP.Chemscore.Metal>
0.0000

> <Gold.Chemscore.Hbonds>
donor molecule, donor type, donor heavy atom, donor atom, acceptor molecule, acceptor atom, score
      L1  H    11    27       P1  8028  0.55
      P1  H  7997  8010       L1    19  0.33

> <Gold.PLP.Chemscore.Internal.Correction>
0.0128

> <Gold.Rescore>
     Score         DG    S(hbond)    S(metal)    S(lipo)     H(rot)  DE(clash)    DE(int)     intcor
     11.63     -13.93       1.66        0.00      65.63       1.87       0.68       1.62       ----

> <Gold.Chemscore.Fitness>
11.6257

> <Gold.Chemscore.DG>
-13.9265

> <Gold.Chemscore.ZeroCoef>
-5.4800

> <Gold.Chemscore.Hbond>
1.6618

> <Gold.Chemscore.Metal>
0.0000

> <Gold.Chemscore.Lipo>
65.6264

> <Gold.Chemscore.Internal_Hbond>
0.0000

> <Gold.Chemscore.DEClash>
0.6759

> <Gold.Chemscore.DEInternal>
1.6249

> <Gold.Chemscore.Rot>
1.8681

> <Gold.Chemscore.Internal.Correction>
   9.000000E+99

> <Gold.Chemscore.Hbonds>
donor molecule, donor type, donor heavy atom, donor atom, acceptor molecule, acceptor atom, score
      L1  H    11    27       P1  8028  0.56
      P1  H  7997  8010       L1    19  0.33

> <Gold.Chemscore.Hbond.Weighted>
-5.5504

> <Gold.Chemscore.Metal.Weighted>
-0.0000

> <Gold.Chemscore.Lipo.Weighted>
-7.6783

> <Gold.Chemscore.Internal_Hbond.Weighted>
0.0000

> <Gold.Chemscore.DEClash.Weighted>
0.6759

> <Gold.Chemscore.DEInternal.Weighted>
1.6249

> <Gold.Chemscore.Rot.Weighted>
4.7822

> <Gold.Chemscore.Internal.Correction.Weighted>
   9.000000E+99

> <Gold.Protein.RotatedTorsions>
[ 6907 6896 6895 6894 ] final   -9.79 input  -60.11 | X-H torsion
[ 7974 7965 7964 7962 ] final -156.93 input  175.53 | X-H torsion
[ 8008 7997 7996 7995 ] final   42.36 input   59.86 | X-H torsion
[ 10167 10162 10161 10158 ] final  -11.31 input  -65.29 | X-H torsion
[ 10718 10713 10712 10709 ] final   86.75 input   66.30 | X-H torsion
[ 10763 10752 10751 10750 ] final -158.21 input  -60.55 | X-H torsion
[ 11005 11000 10999 10996 ] final  -26.98 input  -57.11 | X-H torsion

> <Gold.Protein.ActiveResidues>
 VAL166  LYS551  ARG553  GLY616  TRP617  ASP618  TYR619  PRO620  LYS621  CYS622 
 ASP623  PHE694  ASN695  SER759  ASP760  ASP761  ALA762  ILE779  LEU786  VAL792 
 PHE793  MET794  SER795  GLU796  ALA797  LYS798  CYS799  TRP800  GLU811  SER814 

> <Gold.Protein.RotatedAtoms>
  151.4122  135.0986  159.9588 H   0  0  0  0  0  0  0  0  0  0  0  0  # atno 6907 bound_to 6896
  152.5016  133.8787  159.7345 H   0  0  0  0  0  0  0  0  0  0  0  0  # atno 6908 bound_to 6896
  150.9284  133.6739  159.2844 H   0  0  0  0  0  0  0  0  0  0  0  0  # atno 6909 bound_to 6896
  144.7571  140.4040  143.6004 H   0  0  0  0  0  0  0  0  0  0  0  0  # atno 7974 bound_to 7965
  155.2848  140.3375  155.4256 H   0  0  0  0  0  0  0  0  0  0  0  0  # atno 8008 bound_to 7997
  156.2073  140.1756  156.7812 H   0  0  0  0  0  0  0  0  0  0  0  0  # atno 8009 bound_to 7997
  154.5638  140.0682  156.8844 H   0  0  0  0  0  0  0  0  0  0  0  0  # atno 8010 bound_to 7997
  140.7135  143.5653  150.9151 H   0  0  0  0  0  0  0  0  0  0  0  0  # atno 10167 bound_to 10162
  157.6932  131.0228  150.3020 H   0  0  0  0  0  0  0  0  0  0  0  0  # atno 10718 bound_to 10713
  154.7574  135.3108  154.8443 H   0  0  0  0  0  0  0  0  0  0  0  0  # atno 10763 bound_to 10752
  153.9213  135.6795  153.4752 H   0  0  0  0  0  0  0  0  0  0  0  0  # atno 10764 bound_to 10752
  153.1173  135.4839  154.9066 H   0  0  0  0  0  0  0  0  0  0  0  0  # atno 10765 bound_to 10752
  140.9078  133.7481  156.0630 H   0  0  0  0  0  0  0  0  0  0  0  0  # atno 11005 bound_to 11000
  145.6744  139.1605  143.2736 LP  0  0  0  0  0  0  0  0  0  0  0  0  # atno 17320 bound_to 7965
  146.1592  140.6812  142.9285 LP  0  0  0  0  0  0  0  0  0  0  0  0  # atno 17321 bound_to 7965
  139.9378  143.6417  152.3061 LP  0  0  0  0  0  0  0  0  0  0  0  0  # atno 17342 bound_to 10162
  139.6891  144.7648  151.1471 LP  0  0  0  0  0  0  0  0  0  0  0  0  # atno 17343 bound_to 10162
  156.3535  130.3835  149.7310 LP  0  0  0  0  0  0  0  0  0  0  0  0  # atno 17370 bound_to 10713
  156.4780  130.8027  151.3043 LP  0  0  0  0  0  0  0  0  0  0  0  0  # atno 17371 bound_to 10713
  140.8149  134.3357  157.5400 LP  0  0  0  0  0  0  0  0  0  0  0  0  # atno 17394 bound_to 11000
  139.8752  134.9275  156.3428 LP  0  0  0  0  0  0  0  0  0  0  0  0  # atno 17395 bound_to 11000

$$$$
