AV-unprocessed.smi:140|AV-procd|sdf|1185|dock4
  -GOLD-   2262018333D 1   1.00000     0.00000
 Structure written by MMmdl.
 52 55  0  0  0  0  0  0  0  0  1 V2000
  144.1990  145.0473  153.5317 C   0  0  0  0  0  0  0  0  0  0  0  0
  144.9007  144.1395  154.4901 C   0  0  0  0  0  0  0  0  0  0  0  0
  145.8386  143.1791  154.2515 C   0  0  0  0  0  0  0  0  0  0  0  0
  146.1973  142.5775  155.4900 C   0  0  0  0  0  0  0  0  0  0  0  0
  147.1919  141.5027  155.7358 C   0  0  0  0  0  0  0  0  0  0  0  0
  146.9798  140.5432  156.4789 O   0  0  0  0  0  0  0  0  0  0  0  0
  148.5388  141.6592  155.0053 C   0  0  0  0  0  0  0  0  0  0  0  0
  149.6749  141.2068  155.7986 N   0  0  0  0  0  0  0  0  0  0  0  0
  150.5156  140.2076  155.2472 C   0  0  0  0  0  0  0  0  0  0  0  0
  150.3122  139.7210  154.1336 O   0  0  0  0  0  0  0  0  0  0  0  0
  151.6351  139.8208  156.0990 C   0  0  0  0  0  0  0  0  0  0  0  0
  152.4930  138.8753  155.6796 F   0  0  0  0  0  0  0  0  0  0  0  0
  151.8281  140.3982  157.3047 C   0  0  0  0  0  0  0  0  0  0  0  0
  150.9962  141.3826  157.8127 N   0  0  0  0  0  0  0  0  0  0  0  0
  151.2431  142.0263  159.1593 C   0  0  2  0  0  0  0  0  0  0  0  0
  151.5083  143.5333  158.9963 C   0  0  0  0  0  0  0  0  0  0  0  0
  152.7607  143.7390  159.8233 C   0  0  0  0  0  0  0  0  0  0  0  0
  153.4559  142.3934  159.6775 C   0  0  0  0  0  0  0  0  0  0  0  0
  152.3802  141.4664  159.7529 O   0  0  0  0  0  0  0  0  0  0  0  0
  149.8864  141.8185  157.0575 C   0  0  0  0  0  0  0  0  0  0  0  0
  149.1443  142.7074  157.4828 O   0  0  0  0  0  0  0  0  0  0  0  0
  145.4457  143.1818  156.4722 C   0  0  0  0  0  0  0  0  0  0  0  0
  145.3781  142.9399  157.9546 C   0  0  0  0  0  0  0  0  0  0  0  0
  144.6647  144.1635  155.8594 N   0  0  0  0  0  0  0  0  0  0  0  0
  143.7374  145.0699  156.5330 C   0  0  0  0  0  0  0  0  0  0  0  0
  144.3042  146.4248  156.8424 C   0  0  0  0  0  0  0  0  0  0  0  0
  144.3672  147.4923  155.9830 C   0  0  0  0  0  0  0  0  0  0  0  0
  144.9531  148.6547  156.5647 C   0  0  0  0  0  0  0  0  0  0  0  0
  145.3333  148.4633  157.8659 C   0  0  0  0  0  0  0  0  0  0  0  0
  144.9747  146.8465  158.4044 S   0  0  0  0  0  0  0  0  0  0  0  0
  144.4256  144.7737  152.5011 H   0  0  0  0  0  0  0  0  0  0  0  0
  144.5086  146.0822  153.6776 H   0  0  0  0  0  0  0  0  0  0  0  0
  143.1176  144.9915  153.6595 H   0  0  0  0  0  0  0  0  0  0  0  0
  146.2316  142.9366  153.2751 H   0  0  0  0  0  0  0  0  0  0  0  0
  148.5426  141.1032  154.0664 H   0  0  0  0  0  0  0  0  0  0  0  0
  148.7114  142.6994  154.7256 H   0  0  0  0  0  0  0  0  0  0  0  0
  152.6762  140.0641  157.8820 H   0  0  0  0  0  0  0  0  0  0  0  0
  150.3705  141.7898  159.7709 H   0  0  0  0  0  0  0  0  0  0  0  0
  151.7021  143.7708  157.9489 H   0  0  0  0  0  0  0  0  0  0  0  0
  150.6582  144.1213  159.3423 H   0  0  0  0  0  0  0  0  0  0  0  0
  153.3698  144.5746  159.4774 H   0  0  0  0  0  0  0  0  0  0  0  0
  152.4977  143.9137  160.8675 H   0  0  0  0  0  0  0  0  0  0  0  0
  153.9513  142.3169  158.7088 H   0  0  0  0  0  0  0  0  0  0  0  0
  154.1953  142.2133  160.4579 H   0  0  0  0  0  0  0  0  0  0  0  0
  145.4378  141.8760  158.1817 H   0  0  0  0  0  0  0  0  0  0  0  0
  144.4441  143.2887  158.3926 H   0  0  0  0  0  0  0  0  0  0  0  0
  146.2004  143.4412  158.4653 H   0  0  0  0  0  0  0  0  0  0  0  0
  142.8418  145.1730  155.9201 H   0  0  0  0  0  0  0  0  0  0  0  0
  143.3913  144.6044  157.4553 H   0  0  0  0  0  0  0  0  0  0  0  0
  144.0136  147.4794  154.9626 H   0  0  0  0  0  0  0  0  0  0  0  0
  145.0735  149.5772  156.0161 H   0  0  0  0  0  0  0  0  0  0  0  0
  145.7986  149.1690  158.5380 H   0  0  0  0  0  0  0  0  0  0  0  0
  1  2  1  0  0  0  0
  1 31  1  0  0  0  0
  1 32  1  0  0  0  0
  1 33  1  0  0  0  0
  2 24  1  0  0  0  0
  2  3  2  0  0  0  0
  3  4  1  0  0  0  0
  3 34  1  0  0  0  0
  4  5  1  0  0  0  0
  4 22  2  0  0  0  0
  5  6  2  0  0  0  0
  5  7  1  0  0  0  0
  7  8  1  0  0  0  0
  7 35  1  0  0  0  0
  7 36  1  0  0  0  0
  8 20  1  0  0  0  0
  8  9  1  0  0  0  0
  9 10  2  0  0  0  0
  9 11  1  0  0  0  0
 11 12  1  0  0  0  0
 11 13  2  0  0  0  0
 13 14  1  0  0  0  0
 13 37  1  0  0  0  0
 14 15  1  0  0  0  0
 14 20  1  0  0  0  0
 15 19  1  0  0  0  0
 15 16  1  0  0  0  0
 15 38  1  0  0  0  0
 16 17  1  0  0  0  0
 16 39  1  0  0  0  0
 16 40  1  0  0  0  0
 17 18  1  0  0  0  0
 17 41  1  0  0  0  0
 17 42  1  0  0  0  0
 18 19  1  0  0  0  0
 18 43  1  0  0  0  0
 18 44  1  0  0  0  0
 20 21  2  0  0  0  0
 22 23  1  0  0  0  0
 22 24  1  0  0  0  0
 23 45  1  0  0  0  0
 23 46  1  0  0  0  0
 23 47  1  0  0  0  0
 24 25  1  0  0  0  0
 25 26  1  0  0  0  0
 25 48  1  0  0  0  0
 25 49  1  0  0  0  0
 26 30  1  0  0  0  0
 26 27  2  0  0  0  0
 27 28  1  0  0  0  0
 27 50  1  0  0  0  0
 28 29  2  0  0  0  0
 28 51  1  0  0  0  0
 29 30  1  0  0  0  0
 29 52  1  0  0  0  0
M  END
> <s_m_source_file>
AV-unprocessed.smi

> <i_m_source_file_index>
140

> <i_lp_mmshare_version>
43012

> <i_f3d_flags>
0

> <s_epik_input>
czFbY0hdW2NIXVtjSF1jMVtDSDJdbjJjKFtDSDNdKWMoW2NIXWMyW0NIM10pQyg9TylbQ0gyXW4zYyg9TyljKEYpW2NIXW4oYzM9TylbQ0BASF00W0NIMl1bQ0gyXVtDSDJdTzQ=

> <s_epik_cmdline>
J2VwaWtfcHl0aG9uJywgJy1waCcsICc3LjAnLCAnLXRuJywgJzgnLCAnLW1hJywgJzIwMCcsICctbWV0YWxfYmluZGluZycsICctaW1hZScsICc8aW5maWxlLm1hZT4nLCAnLW9tYWUnLCAnPG91dGZpbGUubWFlPic=

> <r_lp_tautomer_probability>
1

> <r_epik_Ionization_Penalty>
5.024e-09

> <r_epik_Ionization_Penalty_Charging>
5.01743e-09

> <r_epik_Ionization_Penalty_Neutral>
6.5712e-12

> <r_epik_State_Penalty>
-0

> <r_epik_Charging_Adjusted_Penalty>
5.01743e-09

> <i_epik_Tot_Q>
0

> <i_epik_Tot_abs_Q>
0

> <r_epik_Metal_State_Penalty>
-0

> <b_epik_Metal_Only>
0

> <s_epik_Chemistry_Notes>
This compound contains an acetal/aminal-like group ( X-CH(R)-Y where X, Y are N, S, or O) that may be acid/base labile, releasing an aldehyde.

> <s_lp_Force_Field>
OPLS_2005

> <r_lp_Energy>
39.7817

> <b_lp_Chiralities_Consistent>
1

> <s_lp_Variant>
AV-unprocessed.smi:140-1

> <Gold.Version>
5.8.1

> <Gold.Id.Protein>
6NUR|6NUR_protein|mol2

> <Gold.PLP.Fitness>
55.6516

> <Gold.PLP.PLP>
-57.6847

> <Gold.PLP.part.hbond>
-1.0000

> <Gold.PLP.part.metal>
0.0000

> <Gold.PLP.part.buried>
-6.0452

> <Gold.PLP.part.nonpolar>
-52.9349

> <Gold.PLP.part.repulsive>
2.9341

> <Gold.PLP.ligand.clash>
0.0000

> <Gold.PLP.ligand.torsion>
1.7523

> <Gold.PLP.Chemscore.Hbond>
0.4500

> <Gold.PLP.Chemscore.CHOScore>
0.0000

> <Gold.PLP.Chemscore.Metal>
0.0000

> <Gold.Chemscore.Hbonds>
donor molecule, donor type, donor heavy atom, donor atom, acceptor molecule, acceptor atom, score
      P1  H  7989  7998       L1    10  0.40

> <Gold.PLP.Chemscore.Internal.Correction>
0.1215

> <Gold.Rescore>
     Score         DG    S(hbond)    S(metal)    S(lipo)     H(rot)  DE(clash)    DE(int)     intcor
      9.56     -14.51       0.18        0.00     113.02       1.87       0.67       4.27       ----

> <Gold.Chemscore.Fitness>
9.5614

> <Gold.Chemscore.DG>
-14.5058

> <Gold.Chemscore.ZeroCoef>
-5.4800

> <Gold.Chemscore.Hbond>
0.1774

> <Gold.Chemscore.Metal>
0.0000

> <Gold.Chemscore.Lipo>
113.0246

> <Gold.Chemscore.Internal_Hbond>
0.0000

> <Gold.Chemscore.DEClash>
0.6748

> <Gold.Chemscore.DEInternal>
4.2696

> <Gold.Chemscore.Rot>
1.8713

> <Gold.Chemscore.Internal.Correction>
   9.000000E+99

> <Gold.Chemscore.Hbonds>
donor molecule, donor type, donor heavy atom, donor atom, acceptor molecule, acceptor atom, score
      P1  H  7989  7998       L1    10  0.01

> <Gold.Chemscore.Hbond.Weighted>
-0.5924

> <Gold.Chemscore.Metal.Weighted>
-0.0000

> <Gold.Chemscore.Lipo.Weighted>
-13.2239

> <Gold.Chemscore.Internal_Hbond.Weighted>
0.0000

> <Gold.Chemscore.DEClash.Weighted>
0.6748

> <Gold.Chemscore.DEInternal.Weighted>
4.2696

> <Gold.Chemscore.Rot.Weighted>
4.7905

> <Gold.Chemscore.Internal.Correction.Weighted>
   9.000000E+99

> <Gold.Protein.RotatedTorsions>
[ 6907 6896 6895 6894 ] final -131.75 input  -60.11 | X-H torsion
[ 7974 7965 7964 7962 ] final  -41.38 input  175.53 | X-H torsion
[ 8008 7997 7996 7995 ] final -167.27 input   59.86 | X-H torsion
[ 10167 10162 10161 10158 ] final   22.84 input  -65.29 | X-H torsion
[ 10718 10713 10712 10709 ] final   95.82 input   66.30 | X-H torsion
[ 10763 10752 10751 10750 ] final -171.69 input  -60.55 | X-H torsion
[ 11005 11000 10999 10996 ] final   91.93 input  -57.11 | X-H torsion

> <Gold.Protein.ActiveResidues>
 VAL166  LYS551  ARG553  GLY616  TRP617  ASP618  TYR619  PRO620  LYS621  CYS622 
 ASP623  PHE694  ASN695  SER759  ASP760  ASP761  ALA762  ILE779  LEU786  VAL792 
 PHE793  MET794  SER795  GLU796  ALA797  LYS798  CYS799  TRP800  GLU811  SER814 

> <Gold.Protein.RotatedAtoms>
  150.9545  133.6512  159.2765 H   0  0  0  0  0  0  0  0  0  0  0  0  # atno 6907 bound_to 6896
  151.3857  135.0946  159.9520 H   0  0  0  0  0  0  0  0  0  0  0  0  # atno 6908 bound_to 6896
  152.5123  133.9070  159.7524 H   0  0  0  0  0  0  0  0  0  0  0  0  # atno 6909 bound_to 6896
  146.0216  140.6842  142.9175 H   0  0  0  0  0  0  0  0  0  0  0  0  # atno 7974 bound_to 7965
  155.8753  140.1000  157.1522 H   0  0  0  0  0  0  0  0  0  0  0  0  # atno 8008 bound_to 7997
  154.4000  140.1339  156.4192 H   0  0  0  0  0  0  0  0  0  0  0  0  # atno 8009 bound_to 7997
  155.7704  140.3461  155.5246 H   0  0  0  0  0  0  0  0  0  0  0  0  # atno 8010 bound_to 7997
  140.5316  143.9831  150.6469 H   0  0  0  0  0  0  0  0  0  0  0  0  # atno 10167 bound_to 10162
  157.6934  131.0558  150.4397 H   0  0  0  0  0  0  0  0  0  0  0  0  # atno 10718 bound_to 10713
  154.6277  135.2883  155.0253 H   0  0  0  0  0  0  0  0  0  0  0  0  # atno 10763 bound_to 10752
  154.1425  135.6516  153.4949 H   0  0  0  0  0  0  0  0  0  0  0  0  # atno 10764 bound_to 10752
  153.0265  135.5336  154.7091 H   0  0  0  0  0  0  0  0  0  0  0  0  # atno 10765 bound_to 10752
  139.8831  134.8703  156.3499 H   0  0  0  0  0  0  0  0  0  0  0  0  # atno 11005 bound_to 11000
  144.6992  140.3576  143.7170 LP  0  0  0  0  0  0  0  0  0  0  0  0  # atno 17320 bound_to 7965
  145.7183  139.1703  143.2499 LP  0  0  0  0  0  0  0  0  0  0  0  0  # atno 17321 bound_to 7965
  140.3207  143.3139  152.0787 LP  0  0  0  0  0  0  0  0  0  0  0  0  # atno 17342 bound_to 10162
  139.4956  144.6575  151.6539 LP  0  0  0  0  0  0  0  0  0  0  0  0  # atno 17343 bound_to 10162
  156.4756  130.4062  149.6492 LP  0  0  0  0  0  0  0  0  0  0  0  0  # atno 17370 bound_to 10713
  156.3556  130.7455  151.2420 LP  0  0  0  0  0  0  0  0  0  0  0  0  # atno 17371 bound_to 10713
  140.9602  133.7394  156.0390 LP  0  0  0  0  0  0  0  0  0  0  0  0  # atno 17394 bound_to 11000
  140.7999  134.3520  157.5442 LP  0  0  0  0  0  0  0  0  0  0  0  0  # atno 17395 bound_to 11000

$$$$
