AV-unprocessed.smi:1809|AV-procd|sdf|7327|dock10
  -GOLD-   22720 8583D 1   1.00000     0.00000
 Structure written by MMmdl.
 39 41  0  0  0  0  0  0  0  0  3 V2000
  152.8363  141.9288  160.4754 C   0  0  0  0  0  0  0  0  0  0  0  0
  152.7206  140.9077  159.3964 C   0  0  0  0  0  0  0  0  0  0  0  0
  153.7287  140.1023  159.0522 N   0  0  0  0  0  0  0  0  0  0  0  0
  153.3799  139.2385  158.0240 N   0  0  0  0  0  0  0  0  0  0  0  0
  152.1132  139.3947  157.6132 C   0  0  0  0  0  0  0  0  0  0  0  0
  151.5808  138.6588  156.6235 N   0  5  0  0  0  0  0  0  0  0  0  0
  150.8891  139.2610  155.6309 C   0  0  0  0  0  0  0  0  0  0  0  0
  150.9589  140.4478  155.3034 O   0  0  0  0  0  0  0  0  0  0  0  0
  150.0623  138.4375  154.9755 N   0  0  0  0  0  0  0  0  0  0  0  0
  149.1892  138.8315  153.8793 C   0  0  0  0  0  0  0  0  0  0  0  0
  147.7263  138.9288  154.3527 C   0  0  2  0  0  0  0  0  0  0  0  0
  147.1382  137.5555  154.7574 C   0  0  0  0  0  0  0  0  0  0  0  0
  146.8605  136.7760  153.5364 N   0  3  1  0  0  0  0  0  0  0  0  0
  146.3034  135.4211  153.6878 C   0  0  0  0  0  0  0  0  0  0  0  0
  145.5848  135.1371  152.3536 C   0  0  0  0  0  0  0  0  0  0  0  0
  145.6331  136.4575  151.5636 C   0  0  0  0  0  0  0  0  0  0  0  0
  145.9534  137.4927  152.6374 C   0  0  2  0  0  0  0  0  0  0  0  0
  146.6150  138.8045  152.1988 C   0  0  0  0  0  0  0  0  0  0  0  0
  146.8906  139.5694  153.3753 O   0  0  0  0  0  0  0  0  0  0  0  0
  151.2449  140.6631  158.4777 S   0  0  0  0  0  0  0  0  0  0  0  0
  152.6951  141.4589  161.4487 H   0  0  0  0  0  0  0  0  0  0  0  0
  152.0791  142.7023  160.3460 H   0  0  0  0  0  0  0  0  0  0  0  0
  153.8204  142.3973  160.4496 H   0  0  0  0  0  0  0  0  0  0  0  0
  150.0302  137.4722  155.2708 H   0  0  0  0  0  0  0  0  0  0  0  0
  149.5314  139.7787  153.4610 H   0  0  0  0  0  0  0  0  0  0  0  0
  149.2707  138.0907  153.0825 H   0  0  0  0  0  0  0  0  0  0  0  0
  147.7145  139.5682  155.2364 H   0  0  0  0  0  0  0  0  0  0  0  0
  147.8286  137.0104  155.4020 H   0  0  0  0  0  0  0  0  0  0  0  0
  146.2139  137.6940  155.3200 H   0  0  0  0  0  0  0  0  0  0  0  0
  147.0893  134.6970  153.9038 H   0  0  0  0  0  0  0  0  0  0  0  0
  145.5870  135.4020  154.5106 H   0  0  0  0  0  0  0  0  0  0  0  0
  146.0698  134.3342  151.7977 H   0  0  0  0  0  0  0  0  0  0  0  0
  144.5541  134.8324  152.5391 H   0  0  0  0  0  0  0  0  0  0  0  0
  146.4360  136.4189  150.8258 H   0  0  0  0  0  0  0  0  0  0  0  0
  144.7024  136.6712  151.0372 H   0  0  0  0  0  0  0  0  0  0  0  0
  145.0329  137.7213  153.1795 H   0  0  0  0  0  0  0  0  0  0  0  0
  147.5256  138.6249  151.6267 H   0  0  0  0  0  0  0  0  0  0  0  0
  145.9424  139.3732  151.5563 H   0  0  0  0  0  0  0  0  0  0  0  0
  147.7338  136.6742  153.0388 H   0  0  0  0  0  0  0  0  0  0  0  0
  1  2  1  0  0  0  0
  1 21  1  0  0  0  0
  1 22  1  0  0  0  0
  1 23  1  0  0  0  0
  2 20  1  0  0  0  0
  2  3  2  0  0  0  0
  3  4  1  0  0  0  0
  4  5  2  0  0  0  0
  5  6  1  0  0  0  0
  5 20  1  0  0  0  0
  6  7  1  0  0  0  0
  7  8  2  0  0  0  0
  7  9  1  0  0  0  0
  9 10  1  0  0  0  0
  9 24  1  0  0  0  0
 10 11  1  0  0  0  0
 10 25  1  0  0  0  0
 10 26  1  0  0  0  0
 11 19  1  0  0  0  0
 11 12  1  0  0  0  0
 11 27  1  0  0  0  0
 12 13  1  0  0  0  0
 12 28  1  0  0  0  0
 12 29  1  0  0  0  0
 13 17  1  0  0  0  0
 13 14  1  0  0  0  0
 13 39  1  0  0  0  0
 14 15  1  0  0  0  0
 14 30  1  0  0  0  0
 14 31  1  0  0  0  0
 15 16  1  0  0  0  0
 15 32  1  0  0  0  0
 15 33  1  0  0  0  0
 16 17  1  0  0  0  0
 16 34  1  0  0  0  0
 16 35  1  0  0  0  0
 17 18  1  0  0  0  0
 17 36  1  0  0  0  0
 18 19  1  0  0  0  0
 18 37  1  0  0  0  0
 18 38  1  0  0  0  0
M  CHG  1   6  -1
M  CHG  1  13   1
M  END
> <s_m_source_file>
AV-unprocessed.smi

> <i_m_source_file_index>
1809

> <i_lp_mmshare_version>
43012

> <i_f3d_flags>
0

> <s_epik_input>
W0NIM11jMW5uYyhzMSlbTkhdQyg9TylbTkhdW0NIMl1bQ0BIXShbQ0gyXTIpT1tDSDJdW0NAQEhdKE4yMylbQ0gyXVtDSDJdW0NIMl0z

> <s_epik_cmdline>
J2VwaWtfcHl0aG9uJywgJy1waCcsICc3LjAnLCAnLXRuJywgJzgnLCAnLW1hJywgJzIwMCcsICctbWV0YWxfYmluZGluZycsICctaW1hZScsICc8aW5maWxlLm1hZT4nLCAnLW9tYWUnLCAnPG91dGZpbGUubWFlPic=

> <r_lp_tautomer_probability>
1

> <r_epik_Ionization_Penalty>
3.2601

> <r_epik_Ionization_Penalty_Charging>
3.1406

> <r_epik_Ionization_Penalty_Neutral>
0.119497

> <r_epik_State_Penalty>
3.08894

> <r_epik_Charging_Adjusted_Penalty>
6.22954

> <i_epik_Tot_Q>
0

> <i_epik_Tot_abs_Q>
2

> <r_epik_Metal_State_Penalty>
0.510807

> <b_epik_Metal_Only>
1

> <s_lp_Force_Field>
OPLS_2005

> <r_lp_Energy>
31.1042

> <b_lp_Chiralities_Consistent>
1

> <s_lp_Variant>
AV-unprocessed.smi:1809-19

> <Gold.Version>
5.8.1

> <Gold.Id.Protein>
6NUR|6NUR_protein|mol2

> <Gold.PLP.Fitness>
37.5557

> <Gold.PLP.PLP>
-27.1500

> <Gold.PLP.part.hbond>
-4.0000

> <Gold.PLP.part.metal>
0.0000

> <Gold.PLP.part.buried>
-1.4850

> <Gold.PLP.part.nonpolar>
-23.0819

> <Gold.PLP.part.repulsive>
0.3145

> <Gold.PLP.ligand.clash>
0.0000

> <Gold.PLP.ligand.torsion>
0.6399

> <Gold.PLP.Chemscore.Hbond>
3.8864

> <Gold.PLP.Chemscore.CHOScore>
0.0000

> <Gold.PLP.Chemscore.Metal>
0.0000

> <Gold.Chemscore.Hbonds>
donor molecule, donor type, donor heavy atom, donor atom, acceptor molecule, acceptor atom, score
      L1  H    13    39       P1  7948  2.00
      P1  H  7989  7998       L1     8  0.99
      P1  H  7997  8008       L1     4  0.78

> <Gold.PLP.Chemscore.Internal.Correction>
0.0263

> <Gold.Rescore>
     Score         DG    S(hbond)    S(metal)    S(lipo)     H(rot)  DE(clash)    DE(int)     intcor
     15.21     -15.87       1.96        0.00      61.83       1.32       0.13       0.53       ----

> <Gold.Chemscore.Fitness>
15.2119

> <Gold.Chemscore.DG>
-15.8693

> <Gold.Chemscore.ZeroCoef>
-5.4800

> <Gold.Chemscore.Hbond>
1.9599

> <Gold.Chemscore.Metal>
0.0000

> <Gold.Chemscore.Lipo>
61.8314

> <Gold.Chemscore.Internal_Hbond>
0.0000

> <Gold.Chemscore.DEClash>
0.1298

> <Gold.Chemscore.DEInternal>
0.5276

> <Gold.Chemscore.Rot>
1.3246

> <Gold.Chemscore.Internal.Correction>
   9.000000E+99

> <Gold.Chemscore.Hbonds>
donor molecule, donor type, donor heavy atom, donor atom, acceptor molecule, acceptor atom, score
      L1  H    13    39       P1  7948  1.00
      P1  H  7989  7998       L1     8  0.89
      P1  H  7997  8008       L1     4  0.06

> <Gold.Chemscore.Hbond.Weighted>
-6.5460

> <Gold.Chemscore.Metal.Weighted>
-0.0000

> <Gold.Chemscore.Lipo.Weighted>
-7.2343

> <Gold.Chemscore.Internal_Hbond.Weighted>
0.0000

> <Gold.Chemscore.DEClash.Weighted>
0.1298

> <Gold.Chemscore.DEInternal.Weighted>
0.5276

> <Gold.Chemscore.Rot.Weighted>
3.3910

> <Gold.Chemscore.Internal.Correction.Weighted>
   9.000000E+99

> <Gold.Protein.RotatedTorsions>
[ 6907 6896 6895 6894 ] final   12.04 input  -60.11 | X-H torsion
[ 7974 7965 7964 7962 ] final  -46.71 input  175.53 | X-H torsion
[ 8008 7997 7996 7995 ] final  -63.90 input   59.86 | X-H torsion
[ 10167 10162 10161 10158 ] final   15.71 input  -65.29 | X-H torsion
[ 10718 10713 10712 10709 ] final -175.41 input   66.30 | X-H torsion
[ 10763 10752 10751 10750 ] final  134.77 input  -60.55 | X-H torsion
[ 11005 11000 10999 10996 ] final   84.63 input  -57.11 | X-H torsion

> <Gold.Protein.ActiveResidues>
 VAL166  LYS551  ARG553  GLY616  TRP617  ASP618  TYR619  PRO620  LYS621  CYS622 
 ASP623  PHE694  ASN695  SER759  ASP760  ASP761  ALA762  ILE779  LEU786  VAL792 
 PHE793  MET794  SER795  GLU796  ALA797  LYS798  CYS799  TRP800  GLU811  SER814 

> <Gold.Protein.RotatedAtoms>
  151.7639  135.0803  160.0349 H   0  0  0  0  0  0  0  0  0  0  0  0  # atno 6907 bound_to 6896
  152.3334  133.5980  159.5834 H   0  0  0  0  0  0  0  0  0  0  0  0  # atno 6908 bound_to 6896
  150.7436  133.9749  159.3599 H   0  0  0  0  0  0  0  0  0  0  0  0  # atno 6909 bound_to 6896
  145.9691  140.7402  142.9419 H   0  0  0  0  0  0  0  0  0  0  0  0  # atno 7974 bound_to 7965
  154.4581  140.0965  156.6814 H   0  0  0  0  0  0  0  0  0  0  0  0  # atno 8008 bound_to 7997
  155.5078  140.3475  155.4364 H   0  0  0  0  0  0  0  0  0  0  0  0  # atno 8009 bound_to 7997
  156.0817  140.1374  156.9693 H   0  0  0  0  0  0  0  0  0  0  0  0  # atno 8010 bound_to 7997
  140.5848  143.8911  150.6821 H   0  0  0  0  0  0  0  0  0  0  0  0  # atno 10167 bound_to 10162
  156.7995  130.9547  151.3119 H   0  0  0  0  0  0  0  0  0  0  0  0  # atno 10718 bound_to 10713
  153.8290  135.3106  155.3417 H   0  0  0  0  0  0  0  0  0  0  0  0  # atno 10763 bound_to 10752
  154.7981  135.4743  154.0212 H   0  0  0  0  0  0  0  0  0  0  0  0  # atno 10764 bound_to 10752
  153.1646  135.6867  153.8784 H   0  0  0  0  0  0  0  0  0  0  0  0  # atno 10765 bound_to 10752
  139.8994  134.8230  156.2472 H   0  0  0  0  0  0  0  0  0  0  0  0  # atno 11005 bound_to 11000
  144.6832  140.2718  143.7304 LP  0  0  0  0  0  0  0  0  0  0  0  0  # atno 17320 bound_to 7965
  145.7932  139.1935  143.2091 LP  0  0  0  0  0  0  0  0  0  0  0  0  # atno 17321 bound_to 7965
  140.2419  143.3657  152.1479 LP  0  0  0  0  0  0  0  0  0  0  0  0  # atno 17342 bound_to 10162
  139.5191  144.7015  151.5480 LP  0  0  0  0  0  0  0  0  0  0  0  0  # atno 17343 bound_to 10162
  157.6561  130.8925  149.9731 LP  0  0  0  0  0  0  0  0  0  0  0  0  # atno 17370 bound_to 10713
  156.1110  130.3650  150.0050 LP  0  0  0  0  0  0  0  0  0  0  0  0  # atno 17371 bound_to 10713
  141.0247  133.7022  156.1327 LP  0  0  0  0  0  0  0  0  0  0  0  0  # atno 17394 bound_to 11000
  140.7183  134.4386  157.5577 LP  0  0  0  0  0  0  0  0  0  0  0  0  # atno 17395 bound_to 11000

$$$$
