AV-unprocessed.smi:1849|AV-procd|sdf|7521|dock9
  -GOLD-   22720 9233D 1   1.00000     0.00000
 Structure written by MMmdl.
 40 41  0  0  0  0  0  0  0  0  1 V2000
  154.0243  135.6737  164.2822 C   0  0  0  0  0  0  0  0  0  0  0  0
  154.6157  136.9848  164.0955 N   0  0  0  0  0  0  0  0  0  0  0  0
  155.1379  137.7949  165.0951 C   0  0  0  0  0  0  0  0  0  0  0  0
  155.5806  138.9418  164.4815 C   0  0  0  0  0  0  0  0  0  0  0  0
  155.3411  138.8559  163.1142 N   0  0  0  0  0  0  0  0  0  0  0  0
  154.7733  137.6656  162.9439 C   0  0  0  0  0  0  0  0  0  0  0  0
  154.3174  137.1441  161.6172 C   0  0  0  0  0  0  0  0  0  0  0  0
  154.4341  138.1969  160.5032 C   0  0  0  0  0  0  0  0  0  0  0  0
  153.7803  139.4459  160.8747 N   0  0  0  0  0  0  0  0  0  0  0  0
  153.8800  140.5938  160.1901 C   0  0  0  0  0  0  0  0  0  0  0  0
  154.5405  140.7264  159.1592 O   0  0  0  0  0  0  0  0  0  0  0  0
  153.1778  141.5792  160.7665 N   0  0  0  0  0  0  0  0  0  0  0  0
  153.0836  142.9488  160.2699 C   0  0  0  0  0  0  0  0  0  0  0  0
  152.1026  143.7741  161.1290 C   0  0  0  0  0  0  0  0  0  0  0  0
  151.9259  145.1962  160.5726 C   0  0  0  0  0  0  0  0  0  0  0  0
  151.4828  145.1696  159.1015 C   0  0  0  0  0  0  0  0  0  0  0  0
  152.4642  144.3564  158.2428 C   0  0  0  0  0  0  0  0  0  0  0  0
  152.6383  142.9325  158.7951 C   0  0  0  0  0  0  0  0  0  0  0  0
  153.9217  135.4550  165.3454 H   0  0  0  0  0  0  0  0  0  0  0  0
  154.6594  134.9148  163.8248 H   0  0  0  0  0  0  0  0  0  0  0  0
  153.0371  135.6413  163.8204 H   0  0  0  0  0  0  0  0  0  0  0  0
  155.1481  137.4977  166.1333 H   0  0  0  0  0  0  0  0  0  0  0  0
  156.0471  139.8146  164.9141 H   0  0  0  0  0  0  0  0  0  0  0  0
  154.9212  136.2716  161.3643 H   0  0  0  0  0  0  0  0  0  0  0  0
  153.2911  136.7863  161.7037 H   0  0  0  0  0  0  0  0  0  0  0  0
  155.4814  138.3846  160.2607 H   0  0  0  0  0  0  0  0  0  0  0  0
  153.9669  137.8254  159.5908 H   0  0  0  0  0  0  0  0  0  0  0  0
  153.2154  139.4345  161.7113 H   0  0  0  0  0  0  0  0  0  0  0  0
  152.6695  141.3677  161.6126 H   0  0  0  0  0  0  0  0  0  0  0  0
  154.0709  143.4123  160.3196 H   0  0  0  0  0  0  0  0  0  0  0  0
  151.1324  143.2764  161.1630 H   0  0  0  0  0  0  0  0  0  0  0  0
  152.4566  143.8290  162.1590 H   0  0  0  0  0  0  0  0  0  0  0  0
  151.1955  145.7416  161.1712 H   0  0  0  0  0  0  0  0  0  0  0  0
  152.8664  145.7413  160.6605 H   0  0  0  0  0  0  0  0  0  0  0  0
  150.4850  144.7351  159.0275 H   0  0  0  0  0  0  0  0  0  0  0  0
  151.4067  146.1874  158.7178 H   0  0  0  0  0  0  0  0  0  0  0  0
  152.1105  144.3145  157.2122 H   0  0  0  0  0  0  0  0  0  0  0  0
  153.4317  144.8596  158.2174 H   0  0  0  0  0  0  0  0  0  0  0  0
  153.3669  142.3915  158.1900 H   0  0  0  0  0  0  0  0  0  0  0  0
  151.6951  142.3924  158.6991 H   0  0  0  0  0  0  0  0  0  0  0  0
  1  2  1  0  0  0  0
  1 19  1  0  0  0  0
  1 20  1  0  0  0  0
  1 21  1  0  0  0  0
  2  6  1  0  0  0  0
  2  3  1  0  0  0  0
  3  4  2  0  0  0  0
  3 22  1  0  0  0  0
  4  5  1  0  0  0  0
  4 23  1  0  0  0  0
  5  6  2  0  0  0  0
  6  7  1  0  0  0  0
  7  8  1  0  0  0  0
  7 24  1  0  0  0  0
  7 25  1  0  0  0  0
  8  9  1  0  0  0  0
  8 26  1  0  0  0  0
  8 27  1  0  0  0  0
  9 10  1  0  0  0  0
  9 28  1  0  0  0  0
 10 11  2  0  0  0  0
 10 12  1  0  0  0  0
 12 13  1  0  0  0  0
 12 29  1  0  0  0  0
 13 18  1  0  0  0  0
 13 14  1  0  0  0  0
 13 30  1  0  0  0  0
 14 15  1  0  0  0  0
 14 31  1  0  0  0  0
 14 32  1  0  0  0  0
 15 16  1  0  0  0  0
 15 33  1  0  0  0  0
 15 34  1  0  0  0  0
 16 17  1  0  0  0  0
 16 35  1  0  0  0  0
 16 36  1  0  0  0  0
 17 18  1  0  0  0  0
 17 37  1  0  0  0  0
 17 38  1  0  0  0  0
 18 39  1  0  0  0  0
 18 40  1  0  0  0  0
M  END
> <s_m_source_file>
AV-unprocessed.smi

> <i_m_source_file_index>
1849

> <i_lp_mmshare_version>
43012

> <i_f3d_flags>
0

> <s_epik_input>
W0NIM11uMVtjSF1bY0hdbmMxW0NIMl1bQ0gyXVtOSF1DKD1PKVtOSF1bQ0hdMltDSDJdW0NIMl1bQ0gyXVtDSDJdW0NIMl0y

> <s_epik_cmdline>
J2VwaWtfcHl0aG9uJywgJy1waCcsICc3LjAnLCAnLXRuJywgJzgnLCAnLW1hJywgJzIwMCcsICctbWV0YWxfYmluZGluZycsICctaW1hZScsICc8aW5maWxlLm1hZT4nLCAnLW9tYWUnLCAnPG91dGZpbGUubWFlPic=

> <r_lp_tautomer_probability>
1

> <r_epik_Ionization_Penalty>
1.48237

> <r_epik_Ionization_Penalty_Charging>
1.48231

> <r_epik_Ionization_Penalty_Neutral>
5.84917e-05

> <r_epik_State_Penalty>
1.57104

> <r_epik_Charging_Adjusted_Penalty>
3.05335

> <i_epik_Tot_Q>
0

> <i_epik_Tot_abs_Q>
0

> <r_epik_Metal_State_Penalty>
0.437242

> <b_epik_Metal_Only>
0

> <s_lp_Force_Field>
OPLS_2005

> <r_lp_Energy>
3.77176

> <b_lp_Chiralities_Consistent>
1

> <s_lp_Variant>
AV-unprocessed.smi:1849-2

> <Gold.Version>
5.8.1

> <Gold.Id.Protein>
6NUR|6NUR_protein|mol2

> <Gold.PLP.Fitness>
45.6785

> <Gold.PLP.PLP>
-44.0585

> <Gold.PLP.part.hbond>
-1.0000

> <Gold.PLP.part.metal>
0.0000

> <Gold.PLP.part.buried>
-3.2949

> <Gold.PLP.part.nonpolar>
-40.3066

> <Gold.PLP.part.repulsive>
0.1067

> <Gold.PLP.ligand.clash>
0.0000

> <Gold.PLP.ligand.torsion>
0.1466

> <Gold.PLP.Chemscore.Hbond>
0.6344

> <Gold.PLP.Chemscore.CHOScore>
0.0000

> <Gold.PLP.Chemscore.Metal>
0.0000

> <Gold.Chemscore.Hbonds>
donor molecule, donor type, donor heavy atom, donor atom, acceptor molecule, acceptor atom, score
      P1  H  7997  8008       L1    11  0.64

> <Gold.PLP.Chemscore.Internal.Correction>
0.0101

> <Gold.Rescore>
     Score         DG    S(hbond)    S(metal)    S(lipo)     H(rot)  DE(clash)    DE(int)     intcor
     15.81     -16.35       0.79        0.00     106.54       1.66       0.39       0.15       ----

> <Gold.Chemscore.Fitness>
15.8124

> <Gold.Chemscore.DG>
-16.3548

> <Gold.Chemscore.ZeroCoef>
-5.4800

> <Gold.Chemscore.Hbond>
0.7941

> <Gold.Chemscore.Metal>
0.0000

> <Gold.Chemscore.Lipo>
106.5439

> <Gold.Chemscore.Internal_Hbond>
0.0000

> <Gold.Chemscore.DEClash>
0.3942

> <Gold.Chemscore.DEInternal>
0.1482

> <Gold.Chemscore.Rot>
1.6575

> <Gold.Chemscore.Internal.Correction>
   9.000000E+99

> <Gold.Chemscore.Hbonds>
donor molecule, donor type, donor heavy atom, donor atom, acceptor molecule, acceptor atom, score
      P1  H  7997  8008       L1    11  0.60

> <Gold.Chemscore.Hbond.Weighted>
-2.6523

> <Gold.Chemscore.Metal.Weighted>
-0.0000

> <Gold.Chemscore.Lipo.Weighted>
-12.4656

> <Gold.Chemscore.Internal_Hbond.Weighted>
0.0000

> <Gold.Chemscore.DEClash.Weighted>
0.3942

> <Gold.Chemscore.DEInternal.Weighted>
0.1482

> <Gold.Chemscore.Rot.Weighted>
4.2432

> <Gold.Chemscore.Internal.Correction.Weighted>
   9.000000E+99

> <Gold.Protein.RotatedTorsions>
[ 6907 6896 6895 6894 ] final   46.46 input  -60.11 | X-H torsion
[ 7974 7965 7964 7962 ] final  -65.97 input  175.53 | X-H torsion
[ 8008 7997 7996 7995 ] final -117.48 input   59.86 | X-H torsion
[ 10167 10162 10161 10158 ] final  150.25 input  -65.29 | X-H torsion
[ 10718 10713 10712 10709 ] final -132.67 input   66.30 | X-H torsion
[ 10763 10752 10751 10750 ] final   -5.42 input  -60.55 | X-H torsion
[ 11005 11000 10999 10996 ] final   -9.81 input  -57.11 | X-H torsion

> <Gold.Protein.ActiveResidues>
 VAL166  LYS551  ARG553  GLY616  TRP617  ASP618  TYR619  PRO620  LYS621  CYS622 
 ASP623  PHE694  ASN695  SER759  ASP760  ASP761  ALA762  ILE779  LEU786  VAL792 
 PHE793  MET794  SER795  GLU796  ALA797  LYS798  CYS799  TRP800  GLU811  SER814 

> <Gold.Protein.RotatedAtoms>
  152.2566  134.8077  160.0437 H   0  0  0  0  0  0  0  0  0  0  0  0  # atno 6907 bound_to 6896
  151.8739  133.3476  159.3752 H   0  0  0  0  0  0  0  0  0  0  0  0  # atno 6908 bound_to 6896
  150.7102  134.5013  159.5607 H   0  0  0  0  0  0  0  0  0  0  0  0  # atno 6909 bound_to 6896
  145.7476  140.8924  143.0497 H   0  0  0  0  0  0  0  0  0  0  0  0  # atno 7974 bound_to 7965
  155.0844  140.0394  157.2649 H   0  0  0  0  0  0  0  0  0  0  0  0  # atno 8008 bound_to 7997
  154.6881  140.2647  155.6815 H   0  0  0  0  0  0  0  0  0  0  0  0  # atno 8009 bound_to 7997
  156.2719  140.2765  156.1449 H   0  0  0  0  0  0  0  0  0  0  0  0  # atno 8010 bound_to 7997
  139.4852  144.5537  151.7355 H   0  0  0  0  0  0  0  0  0  0  0  0  # atno 10167 bound_to 10162
  156.2370  130.7072  151.0918 H   0  0  0  0  0  0  0  0  0  0  0  0  # atno 10718 bound_to 10713
  153.3982  135.7004  153.6445 H   0  0  0  0  0  0  0  0  0  0  0  0  # atno 10763 bound_to 10752
  153.4989  135.3656  155.2530 H   0  0  0  0  0  0  0  0  0  0  0  0  # atno 10764 bound_to 10752
  154.8708  135.4107  154.3312 H   0  0  0  0  0  0  0  0  0  0  0  0  # atno 10765 bound_to 10752
  140.7381  133.8693  155.8946 H   0  0  0  0  0  0  0  0  0  0  0  0  # atno 11005 bound_to 11000
  144.6856  139.9547  143.7479 LP  0  0  0  0  0  0  0  0  0  0  0  0  # atno 17320 bound_to 7965
  146.0387  139.3402  143.0710 LP  0  0  0  0  0  0  0  0  0  0  0  0  # atno 17321 bound_to 7965
  140.5095  144.1046  150.5991 LP  0  0  0  0  0  0  0  0  0  0  0  0  # atno 17342 bound_to 10162
  140.3967  143.2724  151.9996 LP  0  0  0  0  0  0  0  0  0  0  0  0  # atno 17343 bound_to 10162
  157.7159  131.0710  150.6330 LP  0  0  0  0  0  0  0  0  0  0  0  0  # atno 17370 bound_to 10713
  156.6400  130.4456  149.5755 LP  0  0  0  0  0  0  0  0  0  0  0  0  # atno 17371 bound_to 10713
  140.9861  134.1341  157.4451 LP  0  0  0  0  0  0  0  0  0  0  0  0  # atno 17394 bound_to 11000
  139.8812  135.0026  156.6135 LP  0  0  0  0  0  0  0  0  0  0  0  0  # atno 17395 bound_to 11000

$$$$
