AV-unprocessed.smi:1965|AV-procd|sdf|7946|dock2
  -GOLD-   2272010113D 1   1.00000     0.00000
 Structure written by MMmdl.
 36 38  0  0  0  0  0  0  0  0  3 V2000
  151.1715  140.3078  154.9402 O   0  0  0  0  0  0  0  0  0  0  0  0
  150.2754  141.1007  155.2264 C   0  0  0  0  0  0  0  0  0  0  0  0
  149.1868  141.3130  154.4426 N   0  5  0  0  0  0  0  0  0  0  0  0
  148.0361  141.8206  154.9215 C   0  0  0  0  0  0  0  0  0  0  0  0
  147.7574  141.8953  156.2281 N   0  0  0  0  0  0  0  0  0  0  0  0
  146.5084  142.4575  156.4979 C   0  0  0  0  0  0  0  0  0  0  0  0
  145.8209  142.8200  155.3703 C   0  0  0  0  0  0  0  0  0  0  0  0
  146.7296  142.4699  153.9279 S   0  0  0  0  0  0  0  0  0  0  0  0
  150.3747  141.8071  156.3690 N   0  0  0  0  0  0  0  0  0  0  0  0
  151.4787  141.7381  157.3205 C   0  0  2  0  0  0  0  0  0  0  0  0
  151.2660  140.7017  158.4159 C   0  0  0  0  0  0  0  0  0  0  0  0
  152.2509  141.1425  159.5034 C   0  0  0  0  0  0  0  0  0  0  0  0
  152.4554  142.6024  159.3333 N   0  3  2  0  0  0  0  0  0  0  0  0
  152.1839  143.3998  160.5594 C   0  0  0  0  0  0  0  0  0  0  0  0
  152.0103  144.8878  160.2215 C   0  0  0  0  0  0  0  0  0  0  0  0
  150.8062  145.1156  159.2882 C   0  0  0  0  0  0  0  0  0  0  0  0
  150.4597  143.8654  158.4566 C   0  0  0  0  0  0  0  0  0  0  0  0
  151.7223  143.0371  158.1111 C   0  0  2  0  0  0  0  0  0  0  0  0
  146.1881  142.5618  157.5238 H   0  0  0  0  0  0  0  0  0  0  0  0
  144.8434  143.2728  155.3003 H   0  0  0  0  0  0  0  0  0  0  0  0
  149.6278  142.4528  156.5804 H   0  0  0  0  0  0  0  0  0  0  0  0
  152.3927  141.4725  156.7848 H   0  0  0  0  0  0  0  0  0  0  0  0
  150.2448  140.7582  158.7964 H   0  0  0  0  0  0  0  0  0  0  0  0
  151.4414  139.6807  158.0748 H   0  0  0  0  0  0  0  0  0  0  0  0
  151.8952  140.8707  160.4981 H   0  0  0  0  0  0  0  0  0  0  0  0
  153.2134  140.6514  159.3579 H   0  0  0  0  0  0  0  0  0  0  0  0
  151.2790  143.0387  161.0513 H   0  0  0  0  0  0  0  0  0  0  0  0
  153.0044  143.2577  161.2635 H   0  0  0  0  0  0  0  0  0  0  0  0
  151.8932  145.4770  161.1315 H   0  0  0  0  0  0  0  0  0  0  0  0
  152.9192  145.2502  159.7390 H   0  0  0  0  0  0  0  0  0  0  0  0
  149.9308  145.4066  159.8696 H   0  0  0  0  0  0  0  0  0  0  0  0
  151.0231  145.9556  158.6274 H   0  0  0  0  0  0  0  0  0  0  0  0
  149.7613  143.2411  159.0157 H   0  0  0  0  0  0  0  0  0  0  0  0
  149.9308  144.1759  157.5553 H   0  0  0  0  0  0  0  0  0  0  0  0
  152.3866  143.6800  157.5315 H   0  0  0  0  0  0  0  0  0  0  0  0
  153.4343  142.7260  159.1181 H   0  0  0  0  0  0  0  0  0  0  0  0
  1  2  2  0  0  0  0
  2  3  1  0  0  0  0
  2  9  1  0  0  0  0
  3  4  1  0  0  0  0
  4  8  1  0  0  0  0
  4  5  2  0  0  0  0
  5  6  1  0  0  0  0
  6  7  2  0  0  0  0
  6 19  1  0  0  0  0
  7  8  1  0  0  0  0
  7 20  1  0  0  0  0
  9 10  1  0  0  0  0
  9 21  1  0  0  0  0
 10 18  1  0  0  0  0
 10 11  1  0  0  0  0
 10 22  1  0  0  0  0
 11 12  1  0  0  0  0
 11 23  1  0  0  0  0
 11 24  1  0  0  0  0
 12 13  1  0  0  0  0
 12 25  1  0  0  0  0
 12 26  1  0  0  0  0
 13 18  1  0  0  0  0
 13 14  1  0  0  0  0
 13 36  1  0  0  0  0
 14 15  1  0  0  0  0
 14 27  1  0  0  0  0
 14 28  1  0  0  0  0
 15 16  1  0  0  0  0
 15 29  1  0  0  0  0
 15 30  1  0  0  0  0
 16 17  1  0  0  0  0
 16 31  1  0  0  0  0
 16 32  1  0  0  0  0
 17 18  1  0  0  0  0
 17 33  1  0  0  0  0
 17 34  1  0  0  0  0
 18 35  1  0  0  0  0
M  CHG  1   3  -1
M  CHG  1  13   1
M  END
> <s_m_source_file>
AV-unprocessed.smi

> <i_m_source_file_index>
1965

> <i_lp_mmshare_version>
43012

> <i_f3d_flags>
0

> <s_epik_input>
czFbY0hdW2NIXW5jMVtOSF1DKD1PKVtOSF1bQ0BIXShbQ0gyXVtDSDJdMilbQ0BASF0oTjIzKVtDSDJdW0NIMl1bQ0gyXVtDSDJdMw==

> <s_epik_cmdline>
J2VwaWtfcHl0aG9uJywgJy1waCcsICc3LjAnLCAnLXRuJywgJzgnLCAnLW1hJywgJzIwMCcsICctbWV0YWxfYmluZGluZycsICctaW1hZScsICc8aW5maWxlLm1hZT4nLCAnLW9tYWUnLCAnPG91dGZpbGUubWFlPic=

> <r_lp_tautomer_probability>
1

> <r_epik_Ionization_Penalty>
7.4116

> <r_epik_Ionization_Penalty_Charging>
6.13869

> <r_epik_Ionization_Penalty_Neutral>
1.27291

> <r_epik_State_Penalty>
6.13761

> <r_epik_Charging_Adjusted_Penalty>
12.2763

> <i_epik_Tot_Q>
0

> <i_epik_Tot_abs_Q>
2

> <r_epik_Metal_State_Penalty>
2.08142

> <b_epik_Metal_Only>
1

> <s_lp_Force_Field>
OPLS_2005

> <r_lp_Energy>
32.0333

> <b_lp_Chiralities_Consistent>
1

> <s_lp_Variant>
AV-unprocessed.smi:1965-15

> <Gold.Version>
5.8.1

> <Gold.Id.Protein>
6NUR|6NUR_protein|mol2

> <Gold.PLP.Fitness>
37.6936

> <Gold.PLP.PLP>
-35.7522

> <Gold.PLP.part.hbond>
-1.0000

> <Gold.PLP.part.metal>
0.0000

> <Gold.PLP.part.buried>
-6.6715

> <Gold.PLP.part.nonpolar>
-28.4479

> <Gold.PLP.part.repulsive>
0.4597

> <Gold.PLP.ligand.clash>
0.0000

> <Gold.PLP.ligand.torsion>
0.5310

> <Gold.PLP.Chemscore.Hbond>
1.0000

> <Gold.PLP.Chemscore.CHOScore>
0.0000

> <Gold.PLP.Chemscore.Metal>
0.0000

> <Gold.Chemscore.Hbonds>
donor molecule, donor type, donor heavy atom, donor atom, acceptor molecule, acceptor atom, score
      P1  H  7989  7998       L1     1  1.00

> <Gold.PLP.Chemscore.Internal.Correction>
0.0034

> <Gold.Rescore>
     Score         DG    S(hbond)    S(metal)    S(lipo)     H(rot)  DE(clash)    DE(int)     intcor
     15.95     -16.44       0.96        0.00      88.17       1.00       0.01       0.48       ----

> <Gold.Chemscore.Fitness>
15.9515

> <Gold.Chemscore.DG>
-16.4414

> <Gold.Chemscore.ZeroCoef>
-5.4800

> <Gold.Chemscore.Hbond>
0.9597

> <Gold.Chemscore.Metal>
0.0000

> <Gold.Chemscore.Lipo>
88.1719

> <Gold.Chemscore.Internal_Hbond>
0.0000

> <Gold.Chemscore.DEClash>
0.0141

> <Gold.Chemscore.DEInternal>
0.4758

> <Gold.Chemscore.Rot>
1.0000

> <Gold.Chemscore.Internal.Correction>
   9.000000E+99

> <Gold.Chemscore.Hbonds>
donor molecule, donor type, donor heavy atom, donor atom, acceptor molecule, acceptor atom, score
      P1  H  7989  7998       L1     1  0.29
      P1  H  8011  8017       L1     3  0.02

> <Gold.Chemscore.Hbond.Weighted>
-3.2053

> <Gold.Chemscore.Metal.Weighted>
-0.0000

> <Gold.Chemscore.Lipo.Weighted>
-10.3161

> <Gold.Chemscore.Internal_Hbond.Weighted>
0.0000

> <Gold.Chemscore.DEClash.Weighted>
0.0141

> <Gold.Chemscore.DEInternal.Weighted>
0.4758

> <Gold.Chemscore.Rot.Weighted>
2.5600

> <Gold.Chemscore.Internal.Correction.Weighted>
   9.000000E+99

> <Gold.Protein.RotatedTorsions>
[ 6907 6896 6895 6894 ] final -123.48 input  -60.11 | X-H torsion
[ 7974 7965 7964 7962 ] final -137.24 input  175.53 | X-H torsion
[ 8008 7997 7996 7995 ] final  -33.82 input   59.86 | X-H torsion
[ 10167 10162 10161 10158 ] final  114.58 input  -65.29 | X-H torsion
[ 10718 10713 10712 10709 ] final   66.78 input   66.30 | X-H torsion
[ 10763 10752 10751 10750 ] final  125.04 input  -60.55 | X-H torsion
[ 11005 11000 10999 10996 ] final   89.06 input  -57.11 | X-H torsion

> <Gold.Protein.ActiveResidues>
 VAL166  LYS551  ARG553  GLY616  TRP617  ASP618  TYR619  PRO620  LYS621  CYS622 
 ASP623  PHE694  ASN695  SER759  ASP760  ASP761  ALA762  ILE779  LEU786  VAL792 
 PHE793  MET794  SER795  GLU796  ALA797  LYS798  CYS799  TRP800  GLU811  SER814 

> <Gold.Protein.RotatedAtoms>
  150.8675  133.7554  159.2971 H   0  0  0  0  0  0  0  0  0  0  0  0  # atno 6907 bound_to 6896
  151.5176  135.1065  159.9880 H   0  0  0  0  0  0  0  0  0  0  0  0  # atno 6908 bound_to 6896
  152.4671  133.7903  159.6954 H   0  0  0  0  0  0  0  0  0  0  0  0  # atno 6909 bound_to 6896
  144.8858  140.6573  143.5177 H   0  0  0  0  0  0  0  0  0  0  0  0  # atno 7974 bound_to 7965
  154.4138  140.1700  156.1950 H   0  0  0  0  0  0  0  0  0  0  0  0  # atno 8008 bound_to 7997
  155.9571  140.3396  155.6435 H   0  0  0  0  0  0  0  0  0  0  0  0  # atno 8009 bound_to 7997
  155.6796  140.0721  157.2480 H   0  0  0  0  0  0  0  0  0  0  0  0  # atno 8010 bound_to 7997
  139.6378  144.7121  151.2298 H   0  0  0  0  0  0  0  0  0  0  0  0  # atno 10167 bound_to 10162
  157.6190  130.9286  150.0154 H   0  0  0  0  0  0  0  0  0  0  0  0  # atno 10718 bound_to 10713
  153.6709  135.3330  155.3153 H   0  0  0  0  0  0  0  0  0  0  0  0  # atno 10763 bound_to 10752
  154.8491  135.4386  154.1706 H   0  0  0  0  0  0  0  0  0  0  0  0  # atno 10764 bound_to 10752
  153.2697  135.6999  153.7569 H   0  0  0  0  0  0  0  0  0  0  0  0  # atno 10765 bound_to 10752
  139.8883  134.8527  156.3088 H   0  0  0  0  0  0  0  0  0  0  0  0  # atno 11005 bound_to 11000
  145.3871  139.1624  143.4249 LP  0  0  0  0  0  0  0  0  0  0  0  0  # atno 17320 bound_to 7965
  146.3023  140.3957  142.8699 LP  0  0  0  0  0  0  0  0  0  0  0  0  # atno 17321 bound_to 7965
  140.7475  143.6364  150.8375 LP  0  0  0  0  0  0  0  0  0  0  0  0  # atno 17342 bound_to 10162
  139.9998  143.5757  152.2880 LP  0  0  0  0  0  0  0  0  0  0  0  0  # atno 17343 bound_to 10162
  156.1326  130.3643  149.9708 LP  0  0  0  0  0  0  0  0  0  0  0  0  # atno 17370 bound_to 10713
  156.7765  130.9205  151.3645 LP  0  0  0  0  0  0  0  0  0  0  0  0  # atno 17371 bound_to 10713
  140.9864  133.7236  156.0748 LP  0  0  0  0  0  0  0  0  0  0  0  0  # atno 17394 bound_to 11000
  140.7683  134.3862  157.5513 LP  0  0  0  0  0  0  0  0  0  0  0  0  # atno 17395 bound_to 11000

$$$$
