AV-unprocessed.smi:139|AV-procd|sdf|1182|dock3
  -GOLD-   2262018333D 1   1.00000     0.00000
 Structure written by MMmdl.
 50 53  0  0  0  0  0  0  0  0  1 V2000
  150.6022  137.7028  157.2970 O   0  0  0  0  0  0  0  0  0  0  0  0
  150.0825  138.4755  158.1030 C   0  0  0  0  0  0  0  0  0  0  0  0
  148.6609  138.2212  158.6234 C   0  0  0  0  0  0  0  0  0  0  0  0
  148.3130  136.7838  158.6261 N   0  0  0  0  0  0  0  0  0  0  0  0
  148.2966  136.0747  157.3991 C   0  0  0  0  0  0  0  0  0  0  0  0
  148.5523  136.6350  156.3324 O   0  0  0  0  0  0  0  0  0  0  0  0
  147.9646  134.6575  157.4955 C   0  0  0  0  0  0  0  0  0  0  0  0
  147.9040  133.9106  156.3800 F   0  0  0  0  0  0  0  0  0  0  0  0
  147.7147  134.0823  158.6897 C   0  0  0  0  0  0  0  0  0  0  0  0
  147.7579  134.7820  159.8811 N   0  0  0  0  0  0  0  0  0  0  0  0
  147.4795  134.0955  161.1981 C   0  0  1  0  0  0  0  0  0  0  0  0
  146.2356  134.6997  161.8606 C   0  0  0  0  0  0  0  0  0  0  0  0
  145.1617  133.6975  161.4944 C   0  0  0  0  0  0  0  0  0  0  0  0
  145.9493  132.3933  161.4863 C   0  0  0  0  0  0  0  0  0  0  0  0
  147.2232  132.7420  160.9557 O   0  0  0  0  0  0  0  0  0  0  0  0
  148.0461  136.1633  159.8705 C   0  0  0  0  0  0  0  0  0  0  0  0
  148.0641  136.8129  160.9186 O   0  0  0  0  0  0  0  0  0  0  0  0
  150.6975  139.5688  158.5778 N   0  0  0  0  0  0  0  0  0  0  0  0
  152.0632  139.9806  158.2642 C   0  0  2  0  0  0  0  0  0  0  0  0
  153.0690  138.9237  158.7634 C   0  0  0  0  0  0  0  0  0  0  0  0
  153.3712  139.0807  160.2565 C   0  0  0  0  0  0  0  0  0  0  0  0
  153.9701  140.4599  160.5562 C   0  0  0  0  0  0  0  0  0  0  0  0
  153.2183  141.6041  159.8926 C   0  0  0  0  0  0  0  0  0  0  0  0
  153.4262  142.9170  160.3656 C   0  0  0  0  0  0  0  0  0  0  0  0
  152.7577  144.0038  159.7712 C   0  0  0  0  0  0  0  0  0  0  0  0
  151.8754  143.7834  158.6980 C   0  0  0  0  0  0  0  0  0  0  0  0
  151.6643  142.4771  158.2193 C   0  0  0  0  0  0  0  0  0  0  0  0
  152.3335  141.3808  158.8058 C   0  0  0  0  0  0  0  0  0  0  0  0
  148.5556  138.6342  159.6286 H   0  0  0  0  0  0  0  0  0  0  0  0
  147.9697  138.8106  158.0197 H   0  0  0  0  0  0  0  0  0  0  0  0
  147.4704  133.0306  158.7032 H   0  0  0  0  0  0  0  0  0  0  0  0
  148.3853  134.1869  161.7995 H   0  0  0  0  0  0  0  0  0  0  0  0
  146.3913  134.7169  162.9399 H   0  0  0  0  0  0  0  0  0  0  0  0
  146.0326  135.7148  161.5167 H   0  0  0  0  0  0  0  0  0  0  0  0
  144.3269  133.6878  162.1955 H   0  0  0  0  0  0  0  0  0  0  0  0
  144.7701  133.9094  160.4989 H   0  0  0  0  0  0  0  0  0  0  0  0
  146.0802  132.0214  162.5036 H   0  0  0  0  0  0  0  0  0  0  0  0
  145.4693  131.6128  160.8955 H   0  0  0  0  0  0  0  0  0  0  0  0
  150.1896  140.1504  159.2284 H   0  0  0  0  0  0  0  0  0  0  0  0
  152.1610  140.0457  157.1786 H   0  0  0  0  0  0  0  0  0  0  0  0
  152.7184  137.9145  158.5428 H   0  0  0  0  0  0  0  0  0  0  0  0
  154.0041  139.0408  158.2145 H   0  0  0  0  0  0  0  0  0  0  0  0
  152.4470  138.9532  160.8214 H   0  0  0  0  0  0  0  0  0  0  0  0
  154.0499  138.2975  160.5952 H   0  0  0  0  0  0  0  0  0  0  0  0
  154.0042  140.6201  161.6346 H   0  0  0  0  0  0  0  0  0  0  0  0
  155.0014  140.4927  160.2031 H   0  0  0  0  0  0  0  0  0  0  0  0
  154.1036  143.0945  161.1882 H   0  0  0  0  0  0  0  0  0  0  0  0
  152.9226  145.0058  160.1389 H   0  0  0  0  0  0  0  0  0  0  0  0
  151.3605  144.6158  158.2417 H   0  0  0  0  0  0  0  0  0  0  0  0
  150.9836  142.3153  157.3961 H   0  0  0  0  0  0  0  0  0  0  0  0
  1  2  2  0  0  0  0
  2  3  1  0  0  0  0
  2 18  1  0  0  0  0
  3  4  1  0  0  0  0
  3 29  1  0  0  0  0
  3 30  1  0  0  0  0
  4 16  1  0  0  0  0
  4  5  1  0  0  0  0
  5  6  2  0  0  0  0
  5  7  1  0  0  0  0
  7  8  1  0  0  0  0
  7  9  2  0  0  0  0
  9 10  1  0  0  0  0
  9 31  1  0  0  0  0
 10 11  1  0  0  0  0
 10 16  1  0  0  0  0
 11 15  1  0  0  0  0
 11 12  1  0  0  0  0
 11 32  1  0  0  0  0
 12 13  1  0  0  0  0
 12 33  1  0  0  0  0
 12 34  1  0  0  0  0
 13 14  1  0  0  0  0
 13 35  1  0  0  0  0
 13 36  1  0  0  0  0
 14 15  1  0  0  0  0
 14 37  1  0  0  0  0
 14 38  1  0  0  0  0
 16 17  2  0  0  0  0
 18 19  1  0  0  0  0
 18 39  1  0  0  0  0
 19 28  1  0  0  0  0
 19 20  1  0  0  0  0
 19 40  1  0  0  0  0
 20 21  1  0  0  0  0
 20 41  1  0  0  0  0
 20 42  1  0  0  0  0
 21 22  1  0  0  0  0
 21 43  1  0  0  0  0
 21 44  1  0  0  0  0
 22 23  1  0  0  0  0
 22 45  1  0  0  0  0
 22 46  1  0  0  0  0
 23 28  2  0  0  0  0
 23 24  1  0  0  0  0
 24 25  2  0  0  0  0
 24 47  1  0  0  0  0
 25 26  1  0  0  0  0
 25 48  1  0  0  0  0
 26 27  2  0  0  0  0
 26 49  1  0  0  0  0
 27 28  1  0  0  0  0
 27 50  1  0  0  0  0
M  END
> <s_m_source_file>
AV-unprocessed.smi

> <i_m_source_file_index>
139

> <i_lp_mmshare_version>
43012

> <i_f3d_flags>
0

> <s_epik_input>
W2NIXTFbY0hdW2NIXVtjSF1jKGMxMilbQ0BASF0oW0NIMl1bQ0gyXVtDSDJdMilbTkhdQyg9TylbQ0gyXW4zYyg9TyljKEYpW2NIXW4oYzM9TylbQ0BASF00W0NIMl1bQ0gyXVtDSDJdTzQ=

> <s_epik_cmdline>
J2VwaWtfcHl0aG9uJywgJy1waCcsICc3LjAnLCAnLXRuJywgJzgnLCAnLW1hJywgJzIwMCcsICctbWV0YWxfYmluZGluZycsICctaW1hZScsICc8aW5maWxlLm1hZT4nLCAnLW9tYWUnLCAnPG91dGZpbGUubWFlPic=

> <r_lp_tautomer_probability>
1

> <r_epik_Ionization_Penalty>
3.261e-08

> <r_epik_Ionization_Penalty_Charging>
3.6725e-09

> <r_epik_Ionization_Penalty_Neutral>
2.89375e-08

> <r_epik_State_Penalty>
-0

> <r_epik_Charging_Adjusted_Penalty>
3.6725e-09

> <i_epik_Tot_Q>
0

> <i_epik_Tot_abs_Q>
0

> <r_epik_Metal_State_Penalty>
-0

> <b_epik_Metal_Only>
0

> <s_epik_Chemistry_Notes>
This compound contains an acetal/aminal-like group ( X-CH(R)-Y where X, Y are N, S, or O) that may be acid/base labile, releasing an aldehyde.

> <s_lp_Force_Field>
OPLS_2005

> <r_lp_Energy>
30.9445

> <b_lp_Chiralities_Consistent>
1

> <s_lp_Variant>
AV-unprocessed.smi:139-2

> <Gold.Version>
5.8.1

> <Gold.Id.Protein>
6NUR|6NUR_protein|mol2

> <Gold.PLP.Fitness>
52.1210

> <Gold.PLP.PLP>
-47.9506

> <Gold.PLP.part.hbond>
-2.0000

> <Gold.PLP.part.metal>
0.0000

> <Gold.PLP.part.buried>
-4.8245

> <Gold.PLP.part.nonpolar>
-41.7463

> <Gold.PLP.part.repulsive>
0.1663

> <Gold.PLP.ligand.clash>
0.0000

> <Gold.PLP.ligand.torsion>
0.4293

> <Gold.PLP.Chemscore.Hbond>
1.6640

> <Gold.PLP.Chemscore.CHOScore>
0.0000

> <Gold.PLP.Chemscore.Metal>
0.0000

> <Gold.Chemscore.Hbonds>
donor molecule, donor type, donor heavy atom, donor atom, acceptor molecule, acceptor atom, score
      P1  H  6931  6943       L1    17  1.00
      P1  H  6934  6947       L1    17  0.11

> <Gold.PLP.Chemscore.Internal.Correction>
0.0371

> <Gold.Rescore>
     Score         DG    S(hbond)    S(metal)    S(lipo)     H(rot)  DE(clash)    DE(int)     intcor
     16.00     -19.35       1.60        0.00     112.55       1.82       0.03       3.33       ----

> <Gold.Chemscore.Fitness>
15.9994

> <Gold.Chemscore.DG>
-19.3513

> <Gold.Chemscore.ZeroCoef>
-5.4800

> <Gold.Chemscore.Hbond>
1.6035

> <Gold.Chemscore.Metal>
0.0000

> <Gold.Chemscore.Lipo>
112.5469

> <Gold.Chemscore.Internal_Hbond>
0.0000

> <Gold.Chemscore.DEClash>
0.0252

> <Gold.Chemscore.DEInternal>
3.3266

> <Gold.Chemscore.Rot>
1.8174

> <Gold.Chemscore.Internal.Correction>
   9.000000E+99

> <Gold.Chemscore.Hbonds>
donor molecule, donor type, donor heavy atom, donor atom, acceptor molecule, acceptor atom, score
      P1  H  6931  6943       L1    17  0.94
      P1  H  6934  6947       L1    17  0.12

> <Gold.Chemscore.Hbond.Weighted>
-5.3557

> <Gold.Chemscore.Metal.Weighted>
-0.0000

> <Gold.Chemscore.Lipo.Weighted>
-13.1680

> <Gold.Chemscore.Internal_Hbond.Weighted>
0.0000

> <Gold.Chemscore.DEClash.Weighted>
0.0252

> <Gold.Chemscore.DEInternal.Weighted>
3.3266

> <Gold.Chemscore.Rot.Weighted>
4.6524

> <Gold.Chemscore.Internal.Correction.Weighted>
   9.000000E+99

> <Gold.Protein.RotatedTorsions>
[ 6907 6896 6895 6894 ] final  162.52 input  -60.11 | X-H torsion
[ 7974 7965 7964 7962 ] final   41.22 input  175.53 | X-H torsion
[ 8008 7997 7996 7995 ] final  -72.91 input   59.86 | X-H torsion
[ 10167 10162 10161 10158 ] final  -63.91 input  -65.29 | X-H torsion
[ 10718 10713 10712 10709 ] final  169.01 input   66.30 | X-H torsion
[ 10763 10752 10751 10750 ] final  116.48 input  -60.55 | X-H torsion
[ 11005 11000 10999 10996 ] final   -9.05 input  -57.11 | X-H torsion

> <Gold.Protein.ActiveResidues>
 VAL166  LYS551  ARG553  GLY616  TRP617  ASP618  TYR619  PRO620  LYS621  CYS622 
 ASP623  PHE694  ASN695  SER759  ASP760  ASP761  ALA762  ILE779  LEU786  VAL792 
 PHE793  MET794  SER795  GLU796  ALA797  LYS798  CYS799  TRP800  GLU811  SER814 

> <Gold.Protein.RotatedAtoms>
  151.9393  133.3633  159.3958 H   0  0  0  0  0  0  0  0  0  0  0  0  # atno 6907 bound_to 6896
  150.7001  134.4456  159.5322 H   0  0  0  0  0  0  0  0  0  0  0  0  # atno 6908 bound_to 6896
  152.2110  134.8501  160.0548 H   0  0  0  0  0  0  0  0  0  0  0  0  # atno 6909 bound_to 6896
  146.0841  139.5442  142.9518 H   0  0  0  0  0  0  0  0  0  0  0  0  # atno 7974 bound_to 7965
  154.5204  140.0788  156.8161 H   0  0  0  0  0  0  0  0  0  0  0  0  # atno 8008 bound_to 7997
  155.3588  140.3417  155.4222 H   0  0  0  0  0  0  0  0  0  0  0  0  # atno 8009 bound_to 7997
  156.1675  140.1608  156.8493 H   0  0  0  0  0  0  0  0  0  0  0  0  # atno 8010 bound_to 7997
  140.5838  143.2331  151.6286 H   0  0  0  0  0  0  0  0  0  0  0  0  # atno 10167 bound_to 10162
  157.0288  131.0253  151.2751 H   0  0  0  0  0  0  0  0  0  0  0  0  # atno 10718 bound_to 10713
  153.5379  135.3565  155.2705 H   0  0  0  0  0  0  0  0  0  0  0  0  # atno 10763 bound_to 10752
  154.8720  135.4084  154.3077 H   0  0  0  0  0  0  0  0  0  0  0  0  # atno 10764 bound_to 10752
  153.3779  135.7067  153.6656 H   0  0  0  0  0  0  0  0  0  0  0  0  # atno 10765 bound_to 10752
  140.7300  133.8757  155.8885 H   0  0  0  0  0  0  0  0  0  0  0  0  # atno 11005 bound_to 11000
  145.6162  141.0331  143.1940 LP  0  0  0  0  0  0  0  0  0  0  0  0  # atno 17320 bound_to 7965
  144.7314  139.7715  143.7346 LP  0  0  0  0  0  0  0  0  0  0  0  0  # atno 17321 bound_to 7965
  139.5185  144.3281  152.0850 LP  0  0  0  0  0  0  0  0  0  0  0  0  # atno 17342 bound_to 10162
  140.2435  144.4244  150.6250 LP  0  0  0  0  0  0  0  0  0  0  0  0  # atno 17343 bound_to 10162
  157.5193  130.7988  149.7791 LP  0  0  0  0  0  0  0  0  0  0  0  0  # atno 17370 bound_to 10713
  156.0076  130.3848  150.2374 LP  0  0  0  0  0  0  0  0  0  0  0  0  # atno 17371 bound_to 10713
  140.9929  134.1254  157.4391 LP  0  0  0  0  0  0  0  0  0  0  0  0  # atno 17394 bound_to 11000
  139.8828  135.0046  156.6258 LP  0  0  0  0  0  0  0  0  0  0  0  0  # atno 17395 bound_to 11000

$$$$
