AV-unprocessed.smi:2173|AV-procd|sdf|8841|dock3
  -GOLD-   2272012 33D 1   1.00000     0.00000
 Structure written by MMmdl.
 36 37  0  0  0  0  0  0  0  0  2 V2000
  150.1160  140.2272  157.9405 O   0  0  0  0  0  0  0  0  0  0  0  0
  151.1793  140.5844  157.4332 C   0  0  0  0  0  0  0  0  0  0  0  0
  151.7866  139.9064  156.4473 N   0  0  0  0  0  0  0  0  0  0  0  0
  151.2793  138.6867  155.8250 C   0  0  0  0  0  0  0  0  0  0  0  0
  150.9784  138.8395  154.3182 C   0  0  0  0  0  0  0  0  0  0  0  0
  149.6141  139.4380  154.0175 C   0  0  0  0  0  0  0  0  0  0  0  0
  149.2718  140.7536  154.3978 C   0  0  0  0  0  0  0  0  0  0  0  0
  147.9808  141.2410  154.1054 C   0  0  0  0  0  0  0  0  0  0  0  0
  147.0598  140.4040  153.4417 C   0  0  0  0  0  0  0  0  0  0  0  0
  147.4546  139.0989  153.0840 C   0  0  0  0  0  0  0  0  0  0  0  0
  148.7004  138.6695  153.3804 N   0  3  0  0  0  0  0  0  0  0  0  0
  151.8658  141.8748  157.8982 C   0  0  1  0  0  0  0  0  0  0  0  0
  151.0628  143.1185  157.4525 C   0  0  0  0  0  0  0  0  0  0  0  0
  151.5720  144.3922  158.1033 C   0  0  0  0  0  0  0  0  0  0  0  0
  152.3762  144.4010  159.1801 C   0  0  0  0  0  0  0  0  0  0  0  0
  152.8626  143.1391  159.8707 C   0  0  0  0  0  0  0  0  0  0  0  0
  152.0796  141.8892  159.4251 C   0  0  0  0  0  0  0  0  0  0  0  0
  152.6613  140.2676  156.0947 H   0  0  0  0  0  0  0  0  0  0  0  0
  152.0415  137.9191  155.9604 H   0  0  0  0  0  0  0  0  0  0  0  0
  150.3930  138.3358  156.3555 H   0  0  0  0  0  0  0  0  0  0  0  0
  151.7476  139.4579  153.8540 H   0  0  0  0  0  0  0  0  0  0  0  0
  151.0461  137.8664  153.8298 H   0  0  0  0  0  0  0  0  0  0  0  0
  149.9866  141.3808  154.9106 H   0  0  0  0  0  0  0  0  0  0  0  0
  147.6995  142.2446  154.3894 H   0  0  0  0  0  0  0  0  0  0  0  0
  146.0653  140.7575  153.2112 H   0  0  0  0  0  0  0  0  0  0  0  0
  146.8167  138.3901  152.5765 H   0  0  0  0  0  0  0  0  0  0  0  0
  152.8508  141.9232  157.4296 H   0  0  0  0  0  0  0  0  0  0  0  0
  151.1300  143.2326  156.3700 H   0  0  0  0  0  0  0  0  0  0  0  0
  150.0042  143.0167  157.6963 H   0  0  0  0  0  0  0  0  0  0  0  0
  151.2477  145.3260  157.6676 H   0  0  0  0  0  0  0  0  0  0  0  0
  152.7160  145.3415  159.5887 H   0  0  0  0  0  0  0  0  0  0  0  0
  153.9228  143.0194  159.6463 H   0  0  0  0  0  0  0  0  0  0  0  0
  152.7784  143.2645  160.9505 H   0  0  0  0  0  0  0  0  0  0  0  0
  151.1118  141.8779  159.9292 H   0  0  0  0  0  0  0  0  0  0  0  0
  152.6066  140.9915  159.7517 H   0  0  0  0  0  0  0  0  0  0  0  0
  148.9644  137.7198  153.1163 H   0  0  0  0  0  0  0  0  0  0  0  0
  1  2  2  0  0  0  0
  2  3  1  0  0  0  0
  2 12  1  0  0  0  0
  3  4  1  0  0  0  0
  3 18  1  0  0  0  0
  4  5  1  0  0  0  0
  4 19  1  0  0  0  0
  4 20  1  0  0  0  0
  5  6  1  0  0  0  0
  5 21  1  0  0  0  0
  5 22  1  0  0  0  0
  6 11  1  0  0  0  0
  6  7  2  0  0  0  0
  7  8  1  0  0  0  0
  7 23  1  0  0  0  0
  8  9  2  0  0  0  0
  8 24  1  0  0  0  0
  9 10  1  0  0  0  0
  9 25  1  0  0  0  0
 10 11  2  0  0  0  0
 10 26  1  0  0  0  0
 11 36  1  0  0  0  0
 12 17  1  0  0  0  0
 12 13  1  0  0  0  0
 12 27  1  0  0  0  0
 13 14  1  0  0  0  0
 13 28  1  0  0  0  0
 13 29  1  0  0  0  0
 14 15  2  0  0  0  0
 14 30  1  0  0  0  0
 15 16  1  0  0  0  0
 15 31  1  0  0  0  0
 16 17  1  0  0  0  0
 16 32  1  0  0  0  0
 16 33  1  0  0  0  0
 17 34  1  0  0  0  0
 17 35  1  0  0  0  0
M  CHG  1  11   1
M  END
> <s_m_source_file>
AV-unprocessed.smi

> <i_m_source_file_index>
2173

> <i_lp_mmshare_version>
43012

> <i_f3d_flags>
0

> <s_epik_input>
W0NIMl0xW0NIMl1bQ0hdPVtDSF1bQ0gyXVtDQEhdMUMoPU8pW05IXVtDSDJdW0NIMl1jMltjSF1bY0hdW2NIXVtjSF1uMg==

> <s_epik_cmdline>
J2VwaWtfcHl0aG9uJywgJy1waCcsICc3LjAnLCAnLXRuJywgJzgnLCAnLW1hJywgJzIwMCcsICctbWV0YWxfYmluZGluZycsICctaW1hZScsICc8aW5maWxlLm1hZT4nLCAnLW9tYWUnLCAnPG91dGZpbGUubWFlPic=

> <r_epik_Ionization_Penalty>
1.84586

> <r_epik_Ionization_Penalty_Charging>
1.84586

> <r_epik_Ionization_Penalty_Neutral>
1.53635e-08

> <r_epik_State_Penalty>
1.96297

> <r_epik_Charging_Adjusted_Penalty>
3.80883

> <i_epik_Tot_Q>
1

> <i_epik_Tot_abs_Q>
1

> <r_epik_Metal_State_Penalty>
1.98887

> <b_epik_Metal_Only>
0

> <s_lp_Force_Field>
OPLS_2005

> <r_lp_Energy>
13.9489

> <b_lp_Chiralities_Consistent>
1

> <s_lp_Variant>
AV-unprocessed.smi:2173-4

> <Gold.Version>
5.8.1

> <Gold.Id.Protein>
6NUR|6NUR_protein|mol2

> <Gold.PLP.Fitness>
45.9647

> <Gold.PLP.PLP>
-40.5331

> <Gold.PLP.part.hbond>
-2.0000

> <Gold.PLP.part.metal>
0.0000

> <Gold.PLP.part.buried>
-1.7777

> <Gold.PLP.part.nonpolar>
-36.7907

> <Gold.PLP.part.repulsive>
0.1756

> <Gold.PLP.ligand.clash>
0.0000

> <Gold.PLP.ligand.torsion>
0.2956

> <Gold.PLP.Chemscore.Hbond>
2.0000

> <Gold.PLP.Chemscore.CHOScore>
0.0000

> <Gold.PLP.Chemscore.Metal>
0.0000

> <Gold.Chemscore.Hbonds>
donor molecule, donor type, donor heavy atom, donor atom, acceptor molecule, acceptor atom, score
      L1  H    11    36       P1  7948  2.00

> <Gold.PLP.Chemscore.Internal.Correction>
0.0229

> <Gold.Rescore>
     Score         DG    S(hbond)    S(metal)    S(lipo)     H(rot)  DE(clash)    DE(int)     intcor
     17.57     -18.02       0.98        0.00     111.62       1.48       0.08       0.37       ----

> <Gold.Chemscore.Fitness>
17.5657

> <Gold.Chemscore.DG>
-18.0201

> <Gold.Chemscore.ZeroCoef>
-5.4800

> <Gold.Chemscore.Hbond>
0.9789

> <Gold.Chemscore.Metal>
0.0000

> <Gold.Chemscore.Lipo>
111.6217

> <Gold.Chemscore.Internal_Hbond>
0.0000

> <Gold.Chemscore.DEClash>
0.0822

> <Gold.Chemscore.DEInternal>
0.3722

> <Gold.Chemscore.Rot>
1.4801

> <Gold.Chemscore.Internal.Correction>
   9.000000E+99

> <Gold.Chemscore.Hbonds>
donor molecule, donor type, donor heavy atom, donor atom, acceptor molecule, acceptor atom, score
      L1  H    11    36       P1  7948  0.95

> <Gold.Chemscore.Hbond.Weighted>
-3.2695

> <Gold.Chemscore.Metal.Weighted>
-0.0000

> <Gold.Chemscore.Lipo.Weighted>
-13.0597

> <Gold.Chemscore.Internal_Hbond.Weighted>
0.0000

> <Gold.Chemscore.DEClash.Weighted>
0.0822

> <Gold.Chemscore.DEInternal.Weighted>
0.3722

> <Gold.Chemscore.Rot.Weighted>
3.7892

> <Gold.Chemscore.Internal.Correction.Weighted>
   9.000000E+99

> <Gold.Protein.RotatedTorsions>
[ 6907 6896 6895 6894 ] final -127.98 input  -60.11 | X-H torsion
[ 7974 7965 7964 7962 ] final  128.01 input  175.53 | X-H torsion
[ 8008 7997 7996 7995 ] final   95.04 input   59.86 | X-H torsion
[ 10167 10162 10161 10158 ] final -166.23 input  -65.29 | X-H torsion
[ 10718 10713 10712 10709 ] final -161.10 input   66.30 | X-H torsion
[ 10763 10752 10751 10750 ] final   51.85 input  -60.55 | X-H torsion
[ 11005 11000 10999 10996 ] final   17.39 input  -57.11 | X-H torsion

> <Gold.Protein.ActiveResidues>
 VAL166  LYS551  ARG553  GLY616  TRP617  ASP618  TYR619  PRO620  LYS621  CYS622 
 ASP623  PHE694  ASN695  SER759  ASP760  ASP761  ALA762  ILE779  LEU786  VAL792 
 PHE793  MET794  SER795  GLU796  ALA797  LYS798  CYS799  TRP800  GLU811  SER814 

> <Gold.Protein.RotatedAtoms>
  150.9130  133.6974  159.2849 H   0  0  0  0  0  0  0  0  0  0  0  0  # atno 6907 bound_to 6896
  151.4454  135.1023  159.9692 H   0  0  0  0  0  0  0  0  0  0  0  0  # atno 6908 bound_to 6896
  152.4940  133.8529  159.7266 H   0  0  0  0  0  0  0  0  0  0  0  0  # atno 6909 bound_to 6896
  145.0442  139.3937  143.5086 H   0  0  0  0  0  0  0  0  0  0  0  0  # atno 7974 bound_to 7965
  156.0645  140.3292  155.7501 H   0  0  0  0  0  0  0  0  0  0  0  0  # atno 8008 bound_to 7997
  155.5403  140.0601  157.2889 H   0  0  0  0  0  0  0  0  0  0  0  0  # atno 8009 bound_to 7997
  154.4498  140.1912  156.0572 H   0  0  0  0  0  0  0  0  0  0  0  0  # atno 8010 bound_to 7997
  139.6129  144.0779  152.1859 H   0  0  0  0  0  0  0  0  0  0  0  0  # atno 10167 bound_to 10162
  156.5915  130.8772  151.2891 H   0  0  0  0  0  0  0  0  0  0  0  0  # atno 10718 bound_to 10713
  152.9786  135.5832  154.4482 H   0  0  0  0  0  0  0  0  0  0  0  0  # atno 10763 bound_to 10752
  154.4075  135.2769  155.2060 H   0  0  0  0  0  0  0  0  0  0  0  0  # atno 10764 bound_to 10752
  154.3864  135.6135  153.5873 H   0  0  0  0  0  0  0  0  0  0  0  0  # atno 10765 bound_to 10752
  140.4365  134.1366  155.7686 H   0  0  0  0  0  0  0  0  0  0  0  0  # atno 11005 bound_to 11000
  146.3512  140.0059  142.8671 LP  0  0  0  0  0  0  0  0  0  0  0  0  # atno 17320 bound_to 7965
  145.1609  140.9672  143.4378 LP  0  0  0  0  0  0  0  0  0  0  0  0  # atno 17321 bound_to 7965
  140.0402  144.6014  150.7417 LP  0  0  0  0  0  0  0  0  0  0  0  0  # atno 17342 bound_to 10162
  140.7331  143.2713  151.3879 LP  0  0  0  0  0  0  0  0  0  0  0  0  # atno 17343 bound_to 10162
  157.7302  130.9682  150.1824 LP  0  0  0  0  0  0  0  0  0  0  0  0  # atno 17370 bound_to 10713
  156.2546  130.3704  149.8196 LP  0  0  0  0  0  0  0  0  0  0  0  0  # atno 17371 bound_to 10713
  141.1723  133.8583  157.1530 LP  0  0  0  0  0  0  0  0  0  0  0  0  # atno 17394 bound_to 11000
  140.0098  134.9993  157.0371 LP  0  0  0  0  0  0  0  0  0  0  0  0  # atno 17395 bound_to 11000

$$$$
