AV-unprocessed.smi:1293|AV-procd|sdf|5399|dock2
  -GOLD-   22720 4553D 1   1.00000     0.00000
 Structure written by MMmdl.
 39 40  0  0  0  0  0  0  0  0  1 V2000
  150.4453  134.6547  155.9294 C   0  0  0  0  0  0  0  0  0  0  0  0
  151.2347  135.6564  155.3129 O   0  0  0  0  0  0  0  0  0  0  0  0
  150.4529  136.6187  154.6240 C   0  0  0  0  0  0  0  0  0  0  0  0
  151.3110  137.8596  154.3287 C   0  0  0  0  0  0  0  0  0  0  0  0
  150.7162  139.0812  154.8905 N   0  0  0  0  0  0  0  0  0  0  0  0
  151.5090  139.8227  155.7887 C   0  0  0  0  0  0  0  0  0  0  0  0
  151.0755  140.9648  156.3665 C   0  0  0  0  0  0  0  0  0  0  0  0
  151.8125  141.7621  157.2554 N   0  0  0  0  0  0  0  0  0  0  0  0
  151.4636  142.2565  158.4606 C   0  0  0  0  0  0  0  0  0  0  0  0
  150.3680  142.1031  159.0005 O   0  0  0  0  0  0  0  0  0  0  0  0
  152.5521  143.0757  159.1757 C   0  0  0  0  0  0  0  0  0  0  0  0
  152.8575  142.5140  160.5776 C   0  0  0  0  0  0  0  0  0  0  0  0
  152.0517  143.3759  161.5482 C   0  0  0  0  0  0  0  0  0  0  0  0
  152.1061  144.7693  160.9282 C   0  0  0  0  0  0  0  0  0  0  0  0
  152.1162  144.5413  159.4107 C   0  0  0  0  0  0  0  0  0  0  0  0
  149.7422  141.4065  156.0176 C   0  0  0  0  0  0  0  0  0  0  0  0
  148.9792  140.7103  155.1531 C   0  0  0  0  0  0  0  0  0  0  0  0
  149.4597  139.4760  154.5283 C   0  0  0  0  0  0  0  0  0  0  0  0
  148.7748  138.8390  153.7275 O   0  0  0  0  0  0  0  0  0  0  0  0
  151.0922  133.9448  156.4451 H   0  0  0  0  0  0  0  0  0  0  0  0
  149.8614  134.1034  155.1911 H   0  0  0  0  0  0  0  0  0  0  0  0
  149.7648  135.0858  156.6645 H   0  0  0  0  0  0  0  0  0  0  0  0
  150.0534  136.1976  153.6999 H   0  0  0  0  0  0  0  0  0  0  0  0
  149.6016  136.9046  155.2434 H   0  0  0  0  0  0  0  0  0  0  0  0
  152.3152  137.7128  154.7299 H   0  0  0  0  0  0  0  0  0  0  0  0
  151.4539  137.9602  153.2516 H   0  0  0  0  0  0  0  0  0  0  0  0
  152.4848  139.3920  155.9454 H   0  0  0  0  0  0  0  0  0  0  0  0
  152.7417  141.9964  156.9374 H   0  0  0  0  0  0  0  0  0  0  0  0
  153.4644  143.0530  158.5768 H   0  0  0  0  0  0  0  0  0  0  0  0
  152.6207  141.4541  160.6835 H   0  0  0  0  0  0  0  0  0  0  0  0
  153.9219  142.6249  160.7881 H   0  0  0  0  0  0  0  0  0  0  0  0
  151.0190  143.0269  161.5869 H   0  0  0  0  0  0  0  0  0  0  0  0
  152.4504  143.3513  162.5626 H   0  0  0  0  0  0  0  0  0  0  0  0
  151.2781  145.4011  161.2506 H   0  0  0  0  0  0  0  0  0  0  0  0
  153.0318  145.2624  161.2275 H   0  0  0  0  0  0  0  0  0  0  0  0
  152.7989  145.2379  158.9228 H   0  0  0  0  0  0  0  0  0  0  0  0
  151.1245  144.7423  159.0013 H   0  0  0  0  0  0  0  0  0  0  0  0
  149.3468  142.3118  156.4552 H   0  0  0  0  0  0  0  0  0  0  0  0
  147.9888  141.0688  154.9138 H   0  0  0  0  0  0  0  0  0  0  0  0
  1  2  1  0  0  0  0
  1 20  1  0  0  0  0
  1 21  1  0  0  0  0
  1 22  1  0  0  0  0
  2  3  1  0  0  0  0
  3  4  1  0  0  0  0
  3 23  1  0  0  0  0
  3 24  1  0  0  0  0
  4  5  1  0  0  0  0
  4 25  1  0  0  0  0
  4 26  1  0  0  0  0
  5 18  1  0  0  0  0
  5  6  1  0  0  0  0
  6  7  2  0  0  0  0
  6 27  1  0  0  0  0
  7  8  1  0  0  0  0
  7 16  1  0  0  0  0
  8  9  1  0  0  0  0
  8 28  1  0  0  0  0
  9 10  2  0  0  0  0
  9 11  1  0  0  0  0
 11 15  1  0  0  0  0
 11 12  1  0  0  0  0
 11 29  1  0  0  0  0
 12 13  1  0  0  0  0
 12 30  1  0  0  0  0
 12 31  1  0  0  0  0
 13 14  1  0  0  0  0
 13 32  1  0  0  0  0
 13 33  1  0  0  0  0
 14 15  1  0  0  0  0
 14 34  1  0  0  0  0
 14 35  1  0  0  0  0
 15 36  1  0  0  0  0
 15 37  1  0  0  0  0
 16 17  2  0  0  0  0
 16 38  1  0  0  0  0
 17 18  1  0  0  0  0
 17 39  1  0  0  0  0
 18 19  2  0  0  0  0
M  END
> <s_m_source_file>
AV-unprocessed.smi

> <i_m_source_file_index>
1293

> <i_lp_mmshare_version>
43012

> <i_f3d_flags>
0

> <s_epik_input>
W0NIM11PW0NIMl1bQ0gyXW4xW2NIXWMoW2NIXVtjSF1jMT1PKVtOSF1DKD1PKVtDSF0yW0NIMl1bQ0gyXVtDSDJdW0NIMl0y

> <s_epik_cmdline>
J2VwaWtfcHl0aG9uJywgJy1waCcsICc3LjAnLCAnLXRuJywgJzgnLCAnLW1hJywgJzIwMCcsICctbWV0YWxfYmluZGluZycsICctaW1hZScsICc8aW5maWxlLm1hZT4nLCAnLW9tYWUnLCAnPG91dGZpbGUubWFlPic=

> <r_lp_tautomer_probability>
1

> <r_epik_Ionization_Penalty>
2.42474e-06

> <r_epik_Ionization_Penalty_Charging>
2.30353e-06

> <r_epik_Ionization_Penalty_Neutral>
1.21208e-07

> <r_epik_State_Penalty>
-0

> <r_epik_Charging_Adjusted_Penalty>
2.30353e-06

> <i_epik_Tot_Q>
0

> <i_epik_Tot_abs_Q>
0

> <r_epik_Metal_State_Penalty>
-0

> <b_epik_Metal_Only>
0

> <s_lp_Force_Field>
OPLS_2005

> <r_lp_Energy>
36.4395

> <b_lp_Chiralities_Consistent>
1

> <s_lp_Variant>
AV-unprocessed.smi:1293-1

> <Gold.Version>
5.8.1

> <Gold.Id.Protein>
6NUR|6NUR_protein|mol2

> <Gold.PLP.Fitness>
44.7445

> <Gold.PLP.PLP>
-43.5121

> <Gold.PLP.part.hbond>
-1.0078

> <Gold.PLP.part.metal>
0.0000

> <Gold.PLP.part.buried>
-3.4798

> <Gold.PLP.part.nonpolar>
-41.0415

> <Gold.PLP.part.repulsive>
0.9201

> <Gold.PLP.ligand.clash>
0.0000

> <Gold.PLP.ligand.torsion>
0.9019

> <Gold.PLP.Chemscore.Hbond>
1.0000

> <Gold.PLP.Chemscore.CHOScore>
0.0000

> <Gold.PLP.Chemscore.Metal>
0.0000

> <Gold.Chemscore.Hbonds>
donor molecule, donor type, donor heavy atom, donor atom, acceptor molecule, acceptor atom, score
      P1  H 10752 10765       L1     2  1.00

> <Gold.PLP.Chemscore.Internal.Correction>
0.0362

> <Gold.Rescore>
     Score         DG    S(hbond)    S(metal)    S(lipo)     H(rot)  DE(clash)    DE(int)     intcor
     14.36     -16.68       0.87        0.00     104.43       1.53       1.16       1.16       ----

> <Gold.Chemscore.Fitness>
14.3581

> <Gold.Chemscore.DG>
-16.6763

> <Gold.Chemscore.ZeroCoef>
-5.4800

> <Gold.Chemscore.Hbond>
0.8680

> <Gold.Chemscore.Metal>
0.0000

> <Gold.Chemscore.Lipo>
104.4289

> <Gold.Chemscore.Internal_Hbond>
0.0000

> <Gold.Chemscore.DEClash>
1.1550

> <Gold.Chemscore.DEInternal>
1.1632

> <Gold.Chemscore.Rot>
1.5316

> <Gold.Chemscore.Internal.Correction>
   9.000000E+99

> <Gold.Chemscore.Hbonds>
donor molecule, donor type, donor heavy atom, donor atom, acceptor molecule, acceptor atom, score
      P1  H 10752 10765       L1     2  0.94

> <Gold.Chemscore.Hbond.Weighted>
-2.8990

> <Gold.Chemscore.Metal.Weighted>
-0.0000

> <Gold.Chemscore.Lipo.Weighted>
-12.2182

> <Gold.Chemscore.Internal_Hbond.Weighted>
0.0000

> <Gold.Chemscore.DEClash.Weighted>
1.1550

> <Gold.Chemscore.DEInternal.Weighted>
1.1632

> <Gold.Chemscore.Rot.Weighted>
3.9209

> <Gold.Chemscore.Internal.Correction.Weighted>
   9.000000E+99

> <Gold.Protein.RotatedTorsions>
[ 6907 6896 6895 6894 ] final  -80.84 input  -60.11 | X-H torsion
[ 7974 7965 7964 7962 ] final   -4.44 input  175.53 | X-H torsion
[ 8008 7997 7996 7995 ] final -113.53 input   59.86 | X-H torsion
[ 10167 10162 10161 10158 ] final  166.55 input  -65.29 | X-H torsion
[ 10718 10713 10712 10709 ] final   38.26 input   66.30 | X-H torsion
[ 10763 10752 10751 10750 ] final -165.59 input  -60.55 | X-H torsion
[ 11005 11000 10999 10996 ] final -177.86 input  -57.11 | X-H torsion

> <Gold.Protein.ActiveResidues>
 VAL166  LYS551  ARG553  GLY616  TRP617  ASP618  TYR619  PRO620  LYS621  CYS622 
 ASP623  PHE694  ASN695  SER759  ASP760  ASP761  ALA762  ILE779  LEU786  VAL792 
 PHE793  MET794  SER795  GLU796  ALA797  LYS798  CYS799  TRP800  GLU811  SER814 

> <Gold.Protein.RotatedAtoms>
  150.6922  134.3908  159.5075 H   0  0  0  0  0  0  0  0  0  0  0  0  # atno 6907 bound_to 6896
  152.1697  134.8842  160.0544 H   0  0  0  0  0  0  0  0  0  0  0  0  # atno 6908 bound_to 6896
  151.9872  133.3743  159.4167 H   0  0  0  0  0  0  0  0  0  0  0  0  # atno 6909 bound_to 6896
  146.2372  140.1871  142.8332 H   0  0  0  0  0  0  0  0  0  0  0  0  # atno 7974 bound_to 7965
  155.0222  140.0393  157.2441 H   0  0  0  0  0  0  0  0  0  0  0  0  # atno 8008 bound_to 7997
  154.7368  140.2741  155.6384 H   0  0  0  0  0  0  0  0  0  0  0  0  # atno 8009 bound_to 7997
  156.2855  140.2673  156.2084 H   0  0  0  0  0  0  0  0  0  0  0  0  # atno 8010 bound_to 7997
  139.4927  144.4015  151.9404 H   0  0  0  0  0  0  0  0  0  0  0  0  # atno 10167 bound_to 10162
  157.3567  130.7627  149.7018 H   0  0  0  0  0  0  0  0  0  0  0  0  # atno 10718 bound_to 10713
  154.6917  135.2972  154.9470 H   0  0  0  0  0  0  0  0  0  0  0  0  # atno 10763 bound_to 10752
  154.0431  135.6654  153.4796 H   0  0  0  0  0  0  0  0  0  0  0  0  # atno 10764 bound_to 10752
  153.0617  135.5112  154.8013 H   0  0  0  0  0  0  0  0  0  0  0  0  # atno 10765 bound_to 10752
  140.4362  134.6474  157.4736 H   0  0  0  0  0  0  0  0  0  0  0  0  # atno 11005 bound_to 11000
  144.9888  140.8527  143.5352 LP  0  0  0  0  0  0  0  0  0  0  0  0  # atno 17320 bound_to 7965
  145.1874  139.2319  143.5260 LP  0  0  0  0  0  0  0  0  0  0  0  0  # atno 17321 bound_to 7965
  140.3455  144.3152  150.5959 LP  0  0  0  0  0  0  0  0  0  0  0  0  # atno 17342 bound_to 10162
  140.5530  143.2203  151.7895 LP  0  0  0  0  0  0  0  0  0  0  0  0  # atno 17343 bound_to 10162
  155.9730  130.4125  150.4036 LP  0  0  0  0  0  0  0  0  0  0  0  0  # atno 17370 bound_to 10713
  157.2107  131.0460  151.2601 LP  0  0  0  0  0  0  0  0  0  0  0  0  # atno 17371 bound_to 10713
  140.0101  134.6704  155.9394 LP  0  0  0  0  0  0  0  0  0  0  0  0  # atno 17394 bound_to 11000
  141.1725  133.6538  156.4704 LP  0  0  0  0  0  0  0  0  0  0  0  0  # atno 17395 bound_to 11000

$$$$
