AV-unprocessed.smi:1422|AV-procd|sdf|5793|dock4
  -GOLD-   22720 5443D 1   1.00000     0.00000
 Structure written by MMmdl.
 31 32  0  0  0  0  0  0  0  0  1 V2000
  144.1740  132.1484  150.2447 C   0  0  0  0  0  0  0  0  0  0  0  0
  144.5487  133.4335  150.8995 C   0  0  0  0  0  0  0  0  0  0  0  0
  145.7360  134.0958  151.0362 C   0  0  0  0  0  0  0  0  0  0  0  0
  145.3723  135.2564  151.7701 C   0  0  0  0  0  0  0  0  0  0  0  0
  146.3433  136.2275  152.1238 N   0  0  0  0  0  0  0  0  0  0  0  0
  146.1462  137.3782  152.7892 C   0  0  0  0  0  0  0  0  0  0  0  0
  145.0593  137.7776  153.2083 O   0  0  0  0  0  0  0  0  0  0  0  0
  147.2945  138.0537  152.9431 N   0  0  0  0  0  0  0  0  0  0  0  0
  147.4355  139.3405  153.6180 C   0  0  0  0  0  0  0  0  0  0  0  0
  148.7100  139.4010  154.4806 C   0  0  1  0  0  0  0  0  0  0  0  0
  149.8095  138.4352  154.0817 C   0  0  0  0  0  0  0  0  0  0  0  0
  151.0347  139.0553  154.7475 C   0  0  0  0  0  0  0  0  0  0  0  0
  150.7912  140.4586  154.7877 O   0  0  0  0  0  0  0  0  0  0  0  0
  149.4525  140.7332  154.3868 C   0  0  0  0  0  0  0  0  0  0  0  0
  144.0800  135.2984  152.0557 N   0  0  0  0  0  0  0  0  0  0  0  0
  143.5456  134.1301  151.4996 O   0  0  0  0  0  0  0  0  0  0  0  0
  144.9526  131.8211  149.5553 H   0  0  0  0  0  0  0  0  0  0  0  0
  143.2477  132.2560  149.6798 H   0  0  0  0  0  0  0  0  0  0  0  0
  144.0287  131.3648  150.9884 H   0  0  0  0  0  0  0  0  0  0  0  0
  146.7061  133.7952  150.6696 H   0  0  0  0  0  0  0  0  0  0  0  0
  147.2901  136.0236  151.8402 H   0  0  0  0  0  0  0  0  0  0  0  0
  148.1379  137.6478  152.5650 H   0  0  0  0  0  0  0  0  0  0  0  0
  147.4163  140.1614  152.8990 H   0  0  0  0  0  0  0  0  0  0  0  0
  146.5612  139.4757  154.2550 H   0  0  0  0  0  0  0  0  0  0  0  0
  148.4503  139.2229  155.5256 H   0  0  0  0  0  0  0  0  0  0  0  0
  149.6248  137.4111  154.4075 H   0  0  0  0  0  0  0  0  0  0  0  0
  149.9363  138.4303  152.9979 H   0  0  0  0  0  0  0  0  0  0  0  0
  151.1354  138.6934  155.7713 H   0  0  0  0  0  0  0  0  0  0  0  0
  151.9575  138.8253  154.2146 H   0  0  0  0  0  0  0  0  0  0  0  0
  149.4702  141.0937  153.3572 H   0  0  0  0  0  0  0  0  0  0  0  0
  149.0021  141.5080  155.0077 H   0  0  0  0  0  0  0  0  0  0  0  0
  1  2  1  0  0  0  0
  1 17  1  0  0  0  0
  1 18  1  0  0  0  0
  1 19  1  0  0  0  0
  2 16  1  0  0  0  0
  2  3  2  0  0  0  0
  3  4  1  0  0  0  0
  3 20  1  0  0  0  0
  4  5  1  0  0  0  0
  4 15  2  0  0  0  0
  5  6  1  0  0  0  0
  5 21  1  0  0  0  0
  6  7  2  0  0  0  0
  6  8  1  0  0  0  0
  8  9  1  0  0  0  0
  8 22  1  0  0  0  0
  9 10  1  0  0  0  0
  9 23  1  0  0  0  0
  9 24  1  0  0  0  0
 10 14  1  0  0  0  0
 10 11  1  0  0  0  0
 10 25  1  0  0  0  0
 11 12  1  0  0  0  0
 11 26  1  0  0  0  0
 11 27  1  0  0  0  0
 12 13  1  0  0  0  0
 12 28  1  0  0  0  0
 12 29  1  0  0  0  0
 13 14  1  0  0  0  0
 14 30  1  0  0  0  0
 14 31  1  0  0  0  0
 15 16  1  0  0  0  0
M  END
> <s_m_source_file>
AV-unprocessed.smi

> <i_m_source_file_index>
1422

> <i_lp_mmshare_version>
43012

> <i_f3d_flags>
0

> <s_epik_input>
W0NIM11jMVtjSF1jKG5vMSlbTkhdQyg9TylbTkhdW0NIMl1bQ0BASF0yW0NIMl1bQ0gyXU9bQ0gyXTI=

> <s_epik_cmdline>
J2VwaWtfcHl0aG9uJywgJy1waCcsICc3LjAnLCAnLXRuJywgJzgnLCAnLW1hJywgJzIwMCcsICctbWV0YWxfYmluZGluZycsICctaW1hZScsICc8aW5maWxlLm1hZT4nLCAnLW9tYWUnLCAnPG91dGZpbGUubWFlPic=

> <r_lp_tautomer_probability>
1

> <r_epik_Ionization_Penalty>
2.27275e-05

> <r_epik_Ionization_Penalty_Charging>
0

> <r_epik_Ionization_Penalty_Neutral>
2.27275e-05

> <r_epik_State_Penalty>
-0

> <r_epik_Charging_Adjusted_Penalty>
0

> <i_epik_Tot_Q>
0

> <i_epik_Tot_abs_Q>
0

> <r_epik_Metal_State_Penalty>
-0

> <b_epik_Metal_Only>
0

> <s_lp_Force_Field>
OPLS_2005

> <r_lp_Energy>
16.3124

> <b_lp_Chiralities_Consistent>
1

> <s_lp_Variant>
AV-unprocessed.smi:1422-2

> <Gold.Version>
5.8.1

> <Gold.Id.Protein>
6NUR|6NUR_protein|mol2

> <Gold.PLP.Fitness>
33.7859

> <Gold.PLP.PLP>
-26.1778

> <Gold.PLP.part.hbond>
-3.0000

> <Gold.PLP.part.metal>
0.0000

> <Gold.PLP.part.buried>
-2.8072

> <Gold.PLP.part.nonpolar>
-21.6674

> <Gold.PLP.part.repulsive>
1.0285

> <Gold.PLP.ligand.clash>
0.0000

> <Gold.PLP.ligand.torsion>
0.6866

> <Gold.PLP.Chemscore.Hbond>
2.9920

> <Gold.PLP.Chemscore.CHOScore>
0.0000

> <Gold.PLP.Chemscore.Metal>
0.0000

> <Gold.Chemscore.Hbonds>
donor molecule, donor type, donor heavy atom, donor atom, acceptor molecule, acceptor atom, score
      L1  H     5    21       P1  7948  1.00
      L1  H     8    22       P1  7948  0.99
      P1  H  7989  7998       L1    13  0.95

> <Gold.PLP.Chemscore.Internal.Correction>
0.0054

> <Gold.Rescore>
     Score         DG    S(hbond)    S(metal)    S(lipo)     H(rot)  DE(clash)    DE(int)     intcor
     13.68     -15.71       2.07        0.00      56.65       1.30       0.12       1.91       ----

> <Gold.Chemscore.Fitness>
13.6825

> <Gold.Chemscore.DG>
-15.7075

> <Gold.Chemscore.ZeroCoef>
-5.4800

> <Gold.Chemscore.Hbond>
2.0714

> <Gold.Chemscore.Metal>
0.0000

> <Gold.Chemscore.Lipo>
56.6519

> <Gold.Chemscore.Internal_Hbond>
0.0000

> <Gold.Chemscore.DEClash>
0.1162

> <Gold.Chemscore.DEInternal>
1.9088

> <Gold.Chemscore.Rot>
1.2965

> <Gold.Chemscore.Internal.Correction>
   9.000000E+99

> <Gold.Chemscore.Hbonds>
donor molecule, donor type, donor heavy atom, donor atom, acceptor molecule, acceptor atom, score
      L1  H     5    21       P1  7948  0.98
      L1  H     8    22       P1  7948  0.93
      P1  H  7989  7998       L1    13  0.07

> <Gold.Chemscore.Hbond.Weighted>
-6.9183

> <Gold.Chemscore.Metal.Weighted>
-0.0000

> <Gold.Chemscore.Lipo.Weighted>
-6.6283

> <Gold.Chemscore.Internal_Hbond.Weighted>
0.0000

> <Gold.Chemscore.DEClash.Weighted>
0.1162

> <Gold.Chemscore.DEInternal.Weighted>
1.9088

> <Gold.Chemscore.Rot.Weighted>
3.3192

> <Gold.Chemscore.Internal.Correction.Weighted>
   9.000000E+99

> <Gold.Protein.RotatedTorsions>
[ 6907 6896 6895 6894 ] final   12.13 input  -60.11 | X-H torsion
[ 7974 7965 7964 7962 ] final  147.95 input  175.53 | X-H torsion
[ 8008 7997 7996 7995 ] final  -78.04 input   59.86 | X-H torsion
[ 10167 10162 10161 10158 ] final  127.92 input  -65.29 | X-H torsion
[ 10718 10713 10712 10709 ] final  176.63 input   66.30 | X-H torsion
[ 10763 10752 10751 10750 ] final -144.28 input  -60.55 | X-H torsion
[ 11005 11000 10999 10996 ] final   90.69 input  -57.11 | X-H torsion

> <Gold.Protein.ActiveResidues>
 VAL166  LYS551  ARG553  GLY616  TRP617  ASP618  TYR619  PRO620  LYS621  CYS622 
 ASP623  PHE694  ASN695  SER759  ASP760  ASP761  ALA762  ILE779  LEU786  VAL792 
 PHE793  MET794  SER795  GLU796  ALA797  LYS798  CYS799  TRP800  GLU811  SER814 

> <Gold.Protein.RotatedAtoms>
  151.7654  135.0799  160.0351 H   0  0  0  0  0  0  0  0  0  0  0  0  # atno 6907 bound_to 6896
  152.3325  133.5969  159.5828 H   0  0  0  0  0  0  0  0  0  0  0  0  # atno 6908 bound_to 6896
  150.7431  133.9763  159.3603 H   0  0  0  0  0  0  0  0  0  0  0  0  # atno 6909 bound_to 6896
  144.8551  139.6093  143.5956 H   0  0  0  0  0  0  0  0  0  0  0  0  # atno 7974 bound_to 7965
  154.5652  140.0700  156.8881 H   0  0  0  0  0  0  0  0  0  0  0  0  # atno 8008 bound_to 7997
  155.2736  140.3367  155.4245 H   0  0  0  0  0  0  0  0  0  0  0  0  # atno 8009 bound_to 7997
  156.2075  140.1746  156.7754 H   0  0  0  0  0  0  0  0  0  0  0  0  # atno 8010 bound_to 7997
  139.5553  144.6844  151.4200 H   0  0  0  0  0  0  0  0  0  0  0  0  # atno 10167 bound_to 10162
  156.9173  130.9929  151.3010 H   0  0  0  0  0  0  0  0  0  0  0  0  # atno 10718 bound_to 10713
  154.8434  135.3444  154.6321 H   0  0  0  0  0  0  0  0  0  0  0  0  # atno 10763 bound_to 10752
  153.6931  135.6974  153.5089 H   0  0  0  0  0  0  0  0  0  0  0  0  # atno 10764 bound_to 10752
  153.2580  135.4332  155.0820 H   0  0  0  0  0  0  0  0  0  0  0  0  # atno 10765 bound_to 10752
  139.8851  134.8629  156.3320 H   0  0  0  0  0  0  0  0  0  0  0  0  # atno 11005 bound_to 11000
  146.2817  139.6894  142.9224 LP  0  0  0  0  0  0  0  0  0  0  0  0  # atno 17320 bound_to 7965
  145.4421  141.0423  143.2851 LP  0  0  0  0  0  0  0  0  0  0  0  0  # atno 17321 bound_to 7965
  140.6825  143.8050  150.7140 LP  0  0  0  0  0  0  0  0  0  0  0  0  # atno 17342 bound_to 10162
  140.1507  143.4360  152.2133 LP  0  0  0  0  0  0  0  0  0  0  0  0  # atno 17343 bound_to 10162
  157.5930  130.8457  149.8687 LP  0  0  0  0  0  0  0  0  0  0  0  0  # atno 17370 bound_to 10713
  156.0507  130.3718  150.1208 LP  0  0  0  0  0  0  0  0  0  0  0  0  # atno 17371 bound_to 10713
  140.9716  133.7323  156.0543 LP  0  0  0  0  0  0  0  0  0  0  0  0  # atno 17394 bound_to 11000
  140.7863  134.3668  157.5475 LP  0  0  0  0  0  0  0  0  0  0  0  0  # atno 17395 bound_to 11000

$$$$
