AV-unprocessed.smi:1995|AV-procd|sdf|8077|dock4
  -GOLD-   2272010293D 1   1.00000     0.00000
 Structure written by MMmdl.
 42 43  0  0  0  0  0  0  0  0  1 V2000
  149.5032  138.3375  156.4106 C   0  0  0  0  0  0  0  0  0  0  0  0
  148.3716  139.3729  156.2831 C   0  0  0  0  0  0  0  0  0  0  0  0
  148.3134  140.1370  154.9204 C   0  0  2  0  0  0  0  0  0  0  0  0
  148.2380  139.0591  153.8067 C   0  0  0  0  0  0  0  0  0  0  0  0
  149.6517  140.9307  154.7391 C   0  0  0  0  0  0  0  0  0  0  0  0
  149.8632  142.0093  155.7065 N   0  0  0  0  0  0  0  0  0  0  0  0
  150.6868  141.9692  156.7644 C   0  0  0  0  0  0  0  0  0  0  0  0
  151.3818  140.9938  157.0498 O   0  0  0  0  0  0  0  0  0  0  0  0
  150.6403  143.1195  157.4594 N   0  0  0  0  0  0  0  0  0  0  0  0
  151.3387  143.4553  158.6491 C   0  0  0  0  0  0  0  0  0  0  0  0
  152.1978  142.6428  159.2760 N   0  0  0  0  0  0  0  0  0  0  0  0
  152.7339  143.2314  160.4242 C   0  0  0  0  0  0  0  0  0  0  0  0
  152.2690  144.5016  160.6581 C   0  0  0  0  0  0  0  0  0  0  0  0
  151.1339  145.0128  159.4375 S   0  0  0  0  0  0  0  0  0  0  0  0
  147.1458  141.0695  154.8758 N   0  0  0  0  0  0  0  0  0  0  0  0
  147.2317  142.1358  153.8672 C   0  0  0  0  0  0  0  0  0  0  0  0
  145.9456  142.9760  153.7933 C   0  0  0  0  0  0  0  0  0  0  0  0
  145.6625  143.5291  155.0715 O   0  0  0  0  0  0  0  0  0  0  0  0
  145.5023  142.5270  156.0669 C   0  0  0  0  0  0  0  0  0  0  0  0
  146.7814  141.6773  156.1629 C   0  0  0  0  0  0  0  0  0  0  0  0
  149.4910  137.8788  157.3993 H   0  0  0  0  0  0  0  0  0  0  0  0
  150.4842  138.7931  156.2747 H   0  0  0  0  0  0  0  0  0  0  0  0
  149.4021  137.5347  155.6811 H   0  0  0  0  0  0  0  0  0  0  0  0
  147.4259  138.8656  156.4752 H   0  0  0  0  0  0  0  0  0  0  0  0
  148.4458  140.0763  157.1116 H   0  0  0  0  0  0  0  0  0  0  0  0
  149.0594  138.3469  153.8809 H   0  0  0  0  0  0  0  0  0  0  0  0
  148.2913  139.4962  152.8099 H   0  0  0  0  0  0  0  0  0  0  0  0
  147.3241  138.4689  153.8613 H   0  0  0  0  0  0  0  0  0  0  0  0
  150.5113  140.2618  154.7813 H   0  0  0  0  0  0  0  0  0  0  0  0
  149.6843  141.3797  153.7462 H   0  0  0  0  0  0  0  0  0  0  0  0
  149.3301  142.8533  155.5568 H   0  0  0  0  0  0  0  0  0  0  0  0
  150.0241  143.8350  157.1028 H   0  0  0  0  0  0  0  0  0  0  0  0
  153.4413  142.6728  161.0193 H   0  0  0  0  0  0  0  0  0  0  0  0
  152.5247  145.1642  161.4717 H   0  0  0  0  0  0  0  0  0  0  0  0
  148.0665  142.8005  154.0881 H   0  0  0  0  0  0  0  0  0  0  0  0
  147.4053  141.7257  152.8749 H   0  0  0  0  0  0  0  0  0  0  0  0
  146.0642  143.7864  153.0740 H   0  0  0  0  0  0  0  0  0  0  0  0
  145.1048  142.3681  153.4552 H   0  0  0  0  0  0  0  0  0  0  0  0
  145.2936  143.0065  157.0231 H   0  0  0  0  0  0  0  0  0  0  0  0
  144.6406  141.9016  155.8282 H   0  0  0  0  0  0  0  0  0  0  0  0
  146.6017  140.9169  156.9196 H   0  0  0  0  0  0  0  0  0  0  0  0
  147.5947  142.3047  156.5280 H   0  0  0  0  0  0  0  0  0  0  0  0
  1  2  1  0  0  0  0
  1 21  1  0  0  0  0
  1 22  1  0  0  0  0
  1 23  1  0  0  0  0
  2  3  1  0  0  0  0
  2 24  1  0  0  0  0
  2 25  1  0  0  0  0
  3  4  1  0  0  0  0
  3  5  1  0  0  0  0
  3 15  1  0  0  0  0
  4 26  1  0  0  0  0
  4 27  1  0  0  0  0
  4 28  1  0  0  0  0
  5  6  1  0  0  0  0
  5 29  1  0  0  0  0
  5 30  1  0  0  0  0
  6  7  1  0  0  0  0
  6 31  1  0  0  0  0
  7  8  2  0  0  0  0
  7  9  1  0  0  0  0
  9 10  1  0  0  0  0
  9 32  1  0  0  0  0
 10 14  1  0  0  0  0
 10 11  2  0  0  0  0
 11 12  1  0  0  0  0
 12 13  2  0  0  0  0
 12 33  1  0  0  0  0
 13 14  1  0  0  0  0
 13 34  1  0  0  0  0
 15 20  1  0  0  0  0
 15 16  1  0  0  0  0
 16 17  1  0  0  0  0
 16 35  1  0  0  0  0
 16 36  1  0  0  0  0
 17 18  1  0  0  0  0
 17 37  1  0  0  0  0
 17 38  1  0  0  0  0
 18 19  1  0  0  0  0
 19 20  1  0  0  0  0
 19 39  1  0  0  0  0
 19 40  1  0  0  0  0
 20 41  1  0  0  0  0
 20 42  1  0  0  0  0
M  END
> <s_m_source_file>
AV-unprocessed.smi

> <i_m_source_file_index>
1995

> <i_lp_mmshare_version>
43012

> <i_f3d_flags>
0

> <s_epik_input>
W0NIMl0xW0NIMl1PW0NIMl1bQ0gyXU4xW0NAQF0oW0NIM10pKFtDSDJdW0NIM10pW0NIMl1bTkhdQyg9TylbTkhdYzJuW2NIXVtjSF1zMg==

> <s_epik_cmdline>
J2VwaWtfcHl0aG9uJywgJy1waCcsICc3LjAnLCAnLXRuJywgJzgnLCAnLW1hJywgJzIwMCcsICctbWV0YWxfYmluZGluZycsICctaW1hZScsICc8aW5maWxlLm1hZT4nLCAnLW9tYWUnLCAnPG91dGZpbGUubWFlPic=

> <r_lp_tautomer_probability>
0.999

> <r_epik_Ionization_Penalty>
0.295852

> <r_epik_Ionization_Penalty_Charging>
0

> <r_epik_Ionization_Penalty_Neutral>
0.295852

> <r_epik_State_Penalty>
0.288723

> <r_epik_Charging_Adjusted_Penalty>
0.288723

> <i_epik_Tot_Q>
0

> <i_epik_Tot_abs_Q>
0

> <r_epik_Metal_State_Penalty>
0.29791

> <b_epik_Metal_Only>
0

> <s_lp_Force_Field>
OPLS_2005

> <r_lp_Energy>
41.4857

> <b_lp_Chiralities_Consistent>
1

> <s_lp_Variant>
AV-unprocessed.smi:1995-2

> <Gold.Version>
5.8.1

> <Gold.Id.Protein>
6NUR|6NUR_protein|mol2

> <Gold.PLP.Fitness>
39.1308

> <Gold.PLP.PLP>
-34.8126

> <Gold.PLP.part.hbond>
-2.0000

> <Gold.PLP.part.metal>
0.0000

> <Gold.PLP.part.buried>
-5.8775

> <Gold.PLP.part.nonpolar>
-26.6616

> <Gold.PLP.part.repulsive>
0.4885

> <Gold.PLP.ligand.clash>
0.0000

> <Gold.PLP.ligand.torsion>
0.8768

> <Gold.PLP.Chemscore.Hbond>
2.0000

> <Gold.PLP.Chemscore.CHOScore>
0.0000

> <Gold.PLP.Chemscore.Metal>
0.0000

> <Gold.Chemscore.Hbonds>
donor molecule, donor type, donor heavy atom, donor atom, acceptor molecule, acceptor atom, score
      L1  H     6    31       P1  8028  1.00
      L1  H     9    32       P1  8028  1.00

> <Gold.PLP.Chemscore.Internal.Correction>
0.0719

> <Gold.Rescore>
     Score         DG    S(hbond)    S(metal)    S(lipo)     H(rot)  DE(clash)    DE(int)     intcor
     14.10     -16.35       1.94        0.00      75.61       1.74       0.19       2.05       ----

> <Gold.Chemscore.Fitness>
14.1050

> <Gold.Chemscore.DG>
-16.3456

> <Gold.Chemscore.ZeroCoef>
-5.4800

> <Gold.Chemscore.Hbond>
1.9390

> <Gold.Chemscore.Metal>
0.0000

> <Gold.Chemscore.Lipo>
75.6067

> <Gold.Chemscore.Internal_Hbond>
0.0000

> <Gold.Chemscore.DEClash>
0.1903

> <Gold.Chemscore.DEInternal>
2.0503

> <Gold.Chemscore.Rot>
1.7408

> <Gold.Chemscore.Internal.Correction>
   9.000000E+99

> <Gold.Chemscore.Hbonds>
donor molecule, donor type, donor heavy atom, donor atom, acceptor molecule, acceptor atom, score
      L1  H     6    31       P1  8028  0.99
      L1  H     9    32       P1  8028  0.87

> <Gold.Chemscore.Hbond.Weighted>
-6.4762

> <Gold.Chemscore.Metal.Weighted>
-0.0000

> <Gold.Chemscore.Lipo.Weighted>
-8.8460

> <Gold.Chemscore.Internal_Hbond.Weighted>
0.0000

> <Gold.Chemscore.DEClash.Weighted>
0.1903

> <Gold.Chemscore.DEInternal.Weighted>
2.0503

> <Gold.Chemscore.Rot.Weighted>
4.4565

> <Gold.Chemscore.Internal.Correction.Weighted>
   9.000000E+99

> <Gold.Protein.RotatedTorsions>
[ 6907 6896 6895 6894 ] final  -50.03 input  -60.11 | X-H torsion
[ 7974 7965 7964 7962 ] final  153.05 input  175.53 | X-H torsion
[ 8008 7997 7996 7995 ] final  -20.92 input   59.86 | X-H torsion
[ 10167 10162 10161 10158 ] final  -89.67 input  -65.29 | X-H torsion
[ 10718 10713 10712 10709 ] final    7.82 input   66.30 | X-H torsion
[ 10763 10752 10751 10750 ] final   84.88 input  -60.55 | X-H torsion
[ 11005 11000 10999 10996 ] final  -17.91 input  -57.11 | X-H torsion

> <Gold.Protein.ActiveResidues>
 VAL166  LYS551  ARG553  GLY616  TRP617  ASP618  TYR619  PRO620  LYS621  CYS622 
 ASP623  PHE694  ASN695  SER759  ASP760  ASP761  ALA762  ILE779  LEU786  VAL792 
 PHE793  MET794  SER795  GLU796  ALA797  LYS798  CYS799  TRP800  GLU811  SER814 

> <Gold.Protein.RotatedAtoms>
  150.8747  134.8127  159.7180 H   0  0  0  0  0  0  0  0  0  0  0  0  # atno 6907 bound_to 6896
  152.4738  134.4891  159.9699 H   0  0  0  0  0  0  0  0  0  0  0  0  # atno 6908 bound_to 6896
  151.4975  133.3473  159.2899 H   0  0  0  0  0  0  0  0  0  0  0  0  # atno 6909 bound_to 6896
  144.8181  139.6749  143.6112 H   0  0  0  0  0  0  0  0  0  0  0  0  # atno 7974 bound_to 7965
  154.4739  140.2049  155.9927 H   0  0  0  0  0  0  0  0  0  0  0  0  # atno 8008 bound_to 7997
  156.1056  140.3237  155.7972 H   0  0  0  0  0  0  0  0  0  0  0  0  # atno 8009 bound_to 7997
  155.4723  140.0532  157.2969 H   0  0  0  0  0  0  0  0  0  0  0  0  # atno 8010 bound_to 7997
  140.3626  143.2834  151.9597 H   0  0  0  0  0  0  0  0  0  0  0  0  # atno 10167 bound_to 10162
  156.9425  130.5867  149.5653 H   0  0  0  0  0  0  0  0  0  0  0  0  # atno 10718 bound_to 10713
  153.1422  135.4638  154.9513 H   0  0  0  0  0  0  0  0  0  0  0  0  # atno 10763 bound_to 10752
  154.7757  135.3172  154.8100 H   0  0  0  0  0  0  0  0  0  0  0  0  # atno 10764 bound_to 10752
  153.8620  135.6911  153.4836 H   0  0  0  0  0  0  0  0  0  0  0  0  # atno 10765 bound_to 10752
  140.8216  133.8064  155.9665 H   0  0  0  0  0  0  0  0  0  0  0  0  # atno 11005 bound_to 11000
  146.2485  139.6149  142.9443 LP  0  0  0  0  0  0  0  0  0  0  0  0  # atno 17320 bound_to 7965
  145.5168  141.0433  143.2457 LP  0  0  0  0  0  0  0  0  0  0  0  0  # atno 17321 bound_to 7965
  139.4812  144.5979  151.7657 LP  0  0  0  0  0  0  0  0  0  0  0  0  # atno 17342 bound_to 10162
  140.5112  144.1021  150.5996 LP  0  0  0  0  0  0  0  0  0  0  0  0  # atno 17343 bound_to 10162
  156.0398  130.5482  150.8743 LP  0  0  0  0  0  0  0  0  0  0  0  0  # atno 17370 bound_to 10713
  157.5775  131.0946  150.9323 LP  0  0  0  0  0  0  0  0  0  0  0  0  # atno 17371 bound_to 10713
  140.9093  134.2280  157.4995 LP  0  0  0  0  0  0  0  0  0  0  0  0  # atno 17394 bound_to 11000
  139.8708  134.9743  156.4840 LP  0  0  0  0  0  0  0  0  0  0  0  0  # atno 17395 bound_to 11000

$$$$
