AV-unprocessed.smi:3212|AV-procd|sdf|12280|dock1
  -GOLD-   2272018113D 1   1.00000     0.00000
 Structure written by MMmdl.
 39 39  0  0  0  0  0  0  0  0  1 V2000
  146.5583  138.8776  150.9024 C   0  0  0  0  0  0  0  0  0  0  0  0
  146.4449  138.6818  152.4233 C   0  0  2  0  0  0  0  0  0  0  0  0
  147.7937  138.6347  153.0180 N   0  0  0  0  0  0  0  0  0  0  0  0
  147.8891  139.2652  154.3300 C   0  0  0  0  0  0  0  0  0  0  0  0
  149.1869  140.0808  154.4122 C   0  0  0  0  0  0  0  0  0  0  0  0
  150.3515  139.2196  154.4802 N   0  0  0  0  0  0  0  0  0  0  0  0
  150.4228  137.8575  154.2764 C   0  0  0  0  0  0  0  0  0  0  0  0
  151.7279  137.4904  154.4391 C   0  0  0  0  0  0  0  0  0  0  0  0
  152.3874  138.7140  154.7445 C   0  0  0  0  0  0  0  0  0  0  0  0
  151.5609  139.7472  154.7677 N   0  0  0  0  0  0  0  0  0  0  0  0
  145.5881  137.4478  152.7571 C   0  0  0  0  0  0  0  0  0  0  0  0
  144.5219  137.5808  153.3578 O   0  0  0  0  0  0  0  0  0  0  0  0
  146.0643  136.2636  152.3306 N   0  0  0  0  0  0  0  0  0  0  0  0
  145.4519  134.9358  152.4524 C   0  0  0  0  0  0  0  0  0  0  0  0
  144.0844  135.0081  151.7507 C   0  0  0  0  0  0  0  0  0  0  0  0
  145.2332  134.5747  153.9371 C   0  0  0  0  0  0  0  0  0  0  0  0
  146.3193  133.8683  151.7527 C   0  0  0  0  0  0  0  0  0  0  0  0
  145.5741  138.9309  150.4350 H   0  0  0  0  0  0  0  0  0  0  0  0
  147.1082  138.0621  150.4302 H   0  0  0  0  0  0  0  0  0  0  0  0
  147.0803  139.8054  150.6664 H   0  0  0  0  0  0  0  0  0  0  0  0
  145.9356  139.5627  152.8190 H   0  0  0  0  0  0  0  0  0  0  0  0
  148.4783  139.0470  152.4005 H   0  0  0  0  0  0  0  0  0  0  0  0
  147.0302  139.9204  154.4830 H   0  0  0  0  0  0  0  0  0  0  0  0
  147.8794  138.5175  155.1240 H   0  0  0  0  0  0  0  0  0  0  0  0
  149.2860  140.7351  153.5444 H   0  0  0  0  0  0  0  0  0  0  0  0
  149.1812  140.7222  155.2945 H   0  0  0  0  0  0  0  0  0  0  0  0
  149.5495  137.2703  154.0334 H   0  0  0  0  0  0  0  0  0  0  0  0
  152.1477  136.4993  154.3528 H   0  0  0  0  0  0  0  0  0  0  0  0
  153.4350  138.8809  154.9478 H   0  0  0  0  0  0  0  0  0  0  0  0
  146.9497  136.2875  151.8462 H   0  0  0  0  0  0  0  0  0  0  0  0
  143.5619  134.0521  151.7999 H   0  0  0  0  0  0  0  0  0  0  0  0
  144.1904  135.2686  150.6967 H   0  0  0  0  0  0  0  0  0  0  0  0
  143.4393  135.7574  152.2114 H   0  0  0  0  0  0  0  0  0  0  0  0
  144.6565  135.3444  154.4517 H   0  0  0  0  0  0  0  0  0  0  0  0
  146.1742  134.4548  154.4737 H   0  0  0  0  0  0  0  0  0  0  0  0
  144.6881  133.6354  154.0366 H   0  0  0  0  0  0  0  0  0  0  0  0
  145.8208  132.8986  151.7505 H   0  0  0  0  0  0  0  0  0  0  0  0
  147.2806  133.7309  152.2476 H   0  0  0  0  0  0  0  0  0  0  0  0
  146.5184  134.1364  150.7147 H   0  0  0  0  0  0  0  0  0  0  0  0
  1  2  1  0  0  0  0
  1 18  1  0  0  0  0
  1 19  1  0  0  0  0
  1 20  1  0  0  0  0
  2  3  1  0  0  0  0
  2 11  1  0  0  0  0
  2 21  1  0  0  0  0
  3  4  1  0  0  0  0
  3 22  1  0  0  0  0
  4  5  1  0  0  0  0
  4 23  1  0  0  0  0
  4 24  1  0  0  0  0
  5  6  1  0  0  0  0
  5 25  1  0  0  0  0
  5 26  1  0  0  0  0
  6 10  1  0  0  0  0
  6  7  1  0  0  0  0
  7  8  2  0  0  0  0
  7 27  1  0  0  0  0
  8  9  1  0  0  0  0
  8 28  1  0  0  0  0
  9 10  2  0  0  0  0
  9 29  1  0  0  0  0
 11 12  2  0  0  0  0
 11 13  1  0  0  0  0
 13 14  1  0  0  0  0
 13 30  1  0  0  0  0
 14 15  1  0  0  0  0
 14 16  1  0  0  0  0
 14 17  1  0  0  0  0
 15 31  1  0  0  0  0
 15 32  1  0  0  0  0
 15 33  1  0  0  0  0
 16 34  1  0  0  0  0
 16 35  1  0  0  0  0
 16 36  1  0  0  0  0
 17 37  1  0  0  0  0
 17 38  1  0  0  0  0
 17 39  1  0  0  0  0
M  END
> <s_m_source_file>
AV-unprocessed.smi

> <i_m_source_file_index>
3212

> <i_lp_mmshare_version>
43012

> <i_f3d_flags>
0

> <s_epik_input>
W0NIM11DKFtDSDNdKShbQ0gzXSlbTkhdQyg9TylbQ0BIXShbQ0gzXSlbTkhdW0NIMl1bQ0gyXW4xW2NIXVtjSF1bY0hdbjE=

> <s_epik_cmdline>
J2VwaWtfcHl0aG9uJywgJy1waCcsICc3LjAnLCAnLXRuJywgJzgnLCAnLW1hJywgJzIwMCcsICctbWV0YWxfYmluZGluZycsICctaW1hZScsICc8aW5maWxlLm1hZT4nLCAnLW9tYWUnLCAnPG91dGZpbGUubWFlPic=

> <r_lp_tautomer_probability>
1

> <r_epik_Ionization_Penalty>
0.745735

> <r_epik_Ionization_Penalty_Charging>
0

> <r_epik_Ionization_Penalty_Neutral>
0.745735

> <r_epik_State_Penalty>
0.771152

> <r_epik_Charging_Adjusted_Penalty>
0.771152

> <i_epik_Tot_Q>
0

> <i_epik_Tot_abs_Q>
0

> <r_epik_Metal_State_Penalty>
0.770403

> <b_epik_Metal_Only>
0

> <s_lp_Force_Field>
OPLS_2005

> <r_lp_Energy>
5.75151

> <b_lp_Chiralities_Consistent>
1

> <s_lp_Variant>
AV-unprocessed.smi:3212-3

> <Gold.Version>
5.8.1

> <Gold.Id.Protein>
6NUR|6NUR_protein|mol2

> <Gold.PLP.Fitness>
41.0808

> <Gold.PLP.PLP>
-30.9820

> <Gold.PLP.part.hbond>
-3.9418

> <Gold.PLP.part.metal>
0.0000

> <Gold.PLP.part.buried>
1.4265

> <Gold.PLP.part.nonpolar>
-28.7688

> <Gold.PLP.part.repulsive>
0.2619

> <Gold.PLP.ligand.clash>
0.0000

> <Gold.PLP.ligand.torsion>
0.9027

> <Gold.PLP.Chemscore.Hbond>
2.9500

> <Gold.PLP.Chemscore.CHOScore>
1.0000

> <Gold.PLP.Chemscore.Metal>
0.0000

> <Gold.Chemscore.Hbonds>
donor molecule, donor type, donor heavy atom, donor atom, acceptor molecule, acceptor atom, score
      L1  H     3    22       P1  7957  1.00
      L1  H    13    30       P1  7948  1.00
      P1  H  7989  7998       L1    10  0.95
      L1  C     7    27       P1  7948  0.94

> <Gold.PLP.Chemscore.Internal.Correction>
0.0542

> <Gold.Rescore>
     Score         DG    S(hbond)    S(metal)    S(lipo)     H(rot)  DE(clash)    DE(int)     intcor
     15.16     -17.20       2.66        0.00      67.57       1.99       1.16       0.87       ----

> <Gold.Chemscore.Fitness>
15.1593

> <Gold.Chemscore.DG>
-17.1974

> <Gold.Chemscore.ZeroCoef>
-5.4800

> <Gold.Chemscore.Hbond>
2.6649

> <Gold.Chemscore.Metal>
0.0000

> <Gold.Chemscore.Lipo>
67.5720

> <Gold.Chemscore.Internal_Hbond>
0.0000

> <Gold.Chemscore.DEClash>
1.1643

> <Gold.Chemscore.DEInternal>
0.8738

> <Gold.Chemscore.Rot>
1.9880

> <Gold.Chemscore.Internal.Correction>
   9.000000E+99

> <Gold.Chemscore.Hbonds>
donor molecule, donor type, donor heavy atom, donor atom, acceptor molecule, acceptor atom, score
      L1  H     3    22       P1  7957  0.99
      L1  H    13    30       P1  7948  0.94
      P1  H  7989  7998       L1    10  0.20

> <Gold.Chemscore.Hbond.Weighted>
-8.9008

> <Gold.Chemscore.Metal.Weighted>
-0.0000

> <Gold.Chemscore.Lipo.Weighted>
-7.9059

> <Gold.Chemscore.Internal_Hbond.Weighted>
0.0000

> <Gold.Chemscore.DEClash.Weighted>
1.1643

> <Gold.Chemscore.DEInternal.Weighted>
0.8738

> <Gold.Chemscore.Rot.Weighted>
5.0893

> <Gold.Chemscore.Internal.Correction.Weighted>
   9.000000E+99

> <Gold.Protein.RotatedTorsions>
[ 6907 6896 6895 6894 ] final  168.51 input  -60.11 | X-H torsion
[ 7974 7965 7964 7962 ] final -108.41 input  175.53 | X-H torsion
[ 8008 7997 7996 7995 ] final   80.26 input   59.86 | X-H torsion
[ 10167 10162 10161 10158 ] final  -51.86 input  -65.29 | X-H torsion
[ 10718 10713 10712 10709 ] final  134.89 input   66.30 | X-H torsion
[ 10763 10752 10751 10750 ] final   52.68 input  -60.55 | X-H torsion
[ 11005 11000 10999 10996 ] final  -10.50 input  -57.11 | X-H torsion

> <Gold.Protein.ActiveResidues>
 VAL166  LYS551  ARG553  GLY616  TRP617  ASP618  TYR619  PRO620  LYS621  CYS622 
 ASP623  PHE694  ASN695  SER759  ASP760  ASP761  ALA762  ILE779  LEU786  VAL792 
 PHE793  MET794  SER795  GLU796  ALA797  LYS798  CYS799  TRP800  GLU811  SER814 

> <Gold.Protein.RotatedAtoms>
  151.8465  133.3432  159.3659 H   0  0  0  0  0  0  0  0  0  0  0  0  # atno 6907 bound_to 6896
  150.7219  134.5341  159.5724 H   0  0  0  0  0  0  0  0  0  0  0  0  # atno 6908 bound_to 6896
  152.2825  134.7813  160.0445 H   0  0  0  0  0  0  0  0  0  0  0  0  # atno 6909 bound_to 6896
  145.1932  140.9024  143.3412 H   0  0  0  0  0  0  0  0  0  0  0  0  # atno 7974 bound_to 7965
  155.8810  140.3444  155.5887 H   0  0  0  0  0  0  0  0  0  0  0  0  # atno 8008 bound_to 7997
  155.7720  140.0846  157.2122 H   0  0  0  0  0  0  0  0  0  0  0  0  # atno 8009 bound_to 7997
  154.4024  140.1516  156.2940 H   0  0  0  0  0  0  0  0  0  0  0  0  # atno 8010 bound_to 7997
  140.6567  143.2604  151.4564 H   0  0  0  0  0  0  0  0  0  0  0  0  # atno 10167 bound_to 10162
  157.4627  131.1074  150.9901 H   0  0  0  0  0  0  0  0  0  0  0  0  # atno 10718 bound_to 10713
  152.9790  135.5804  154.4618 H   0  0  0  0  0  0  0  0  0  0  0  0  # atno 10763 bound_to 10752
  154.4193  135.2771  155.1988 H   0  0  0  0  0  0  0  0  0  0  0  0  # atno 10764 bound_to 10752
  154.3743  135.6161  153.5811 H   0  0  0  0  0  0  0  0  0  0  0  0  # atno 10765 bound_to 10752
  140.7454  133.8636  155.9001 H   0  0  0  0  0  0  0  0  0  0  0  0  # atno 11005 bound_to 11000
  145.0021  139.3589  143.6162 LP  0  0  0  0  0  0  0  0  0  0  0  0  # atno 17320 bound_to 7965
  146.3432  139.9248  142.8761 LP  0  0  0  0  0  0  0  0  0  0  0  0  # atno 17321 bound_to 7965
  139.5791  144.1750  152.1944 LP  0  0  0  0  0  0  0  0  0  0  0  0  # atno 17342 bound_to 10162
  140.1070  144.5490  150.6950 LP  0  0  0  0  0  0  0  0  0  0  0  0  # atno 17343 bound_to 10162
  157.0692  130.5857  149.5399 LP  0  0  0  0  0  0  0  0  0  0  0  0  # atno 17370 bound_to 10713
  156.0036  130.5119  150.7750 LP  0  0  0  0  0  0  0  0  0  0  0  0  # atno 17371 bound_to 10713
  140.9799  134.1419  157.4503 LP  0  0  0  0  0  0  0  0  0  0  0  0  # atno 17394 bound_to 11000
  139.8798  135.0007  156.6025 LP  0  0  0  0  0  0  0  0  0  0  0  0  # atno 17395 bound_to 11000

$$$$
