#       Name:                AV-unprocessed.smi:1401
#       Creating user name   scv26
#       Creation time:       Fri Mar 27 05:32:22 2020


#       File generated by GOLD software.
#

@<TRIPOS>MOLECULE
AV-unprocessed.smi:1401
    54    56     1
SMALL
NO_CHARGES


@<TRIPOS>ATOM
      1 ****        -2.4695   2.0000  -1.8385 C.3            1 S1                 0.0000
      2 ****        -1.8133   0.6847  -2.1600 C.2            1 S1                 0.0000
      3 ****        -0.5579   0.7219  -2.4633 N.2            1 S1                 0.0000
      4 ****         0.1496  -0.4303  -2.7510 N.am           1 S1                 0.0000
      5 ****         1.5894  -0.2005  -2.9629 C.3            1 S1                 0.0000
      6 ****         2.4074  -0.1400  -1.6605 C.2            1 S1                 0.0000
      7 ****         3.5384   0.3436  -1.6784 O.2            1 S1                 0.0000
      8 ****         1.8205  -0.5868  -0.5379 N.am           1 S1                 0.0000
      9 ****         2.3262  -0.4471   0.8219 C.3            1 S1                 0.0000
     10 ****         3.3770  -1.5310   1.1168 C.3            1 S1                 0.0000
     11 ****         1.1361  -0.5099   1.8089 C.3            1 S1                 0.0000
     12 ****         1.4591  -0.0383   3.2439 C.3            1 S1                 0.0000
     13 ****         0.3256   0.9622   3.5414 C.3            1 S1                 0.0000
     14 ****         0.5737   2.2575   2.7460 C.3            1 S1                 0.0000
     15 ****         0.2473   1.8359   1.3017 C.3            1 S1                 0.0000
     16 ****        -0.1101   0.3438   1.4563 C.3            1 S1                 0.0000
     17 ****        -0.8511   0.3520   2.7887 C.3            1 S1                 0.0000
     18 ****        -0.3858  -1.6850  -2.7660 C.2            1 S1                 0.0000
     19 ****         0.2842  -2.6889  -3.0108 O.2            1 S1                 0.0000
     20 ****        -1.8127  -1.7179  -2.4369 C.2            1 S1                 0.0000
     21 ****        -2.4120  -3.0134  -2.4370 C.1            1 S1                 0.0000
     22 ****        -2.9138  -4.0566  -2.4270 N.1            1 S1                 0.0000
     23 ****        -2.5131  -0.5951  -2.1383 C.2            1 S1                 0.0000
     24 ****        -3.9909  -0.5774  -1.7733 C.3            1 S1                 0.0000
     25 ****        -3.2889   2.2034  -2.5281 H              1 S1                 0.0000
     26 ****        -1.7672   2.8324  -1.9065 H              1 S1                 0.0000
     27 ****        -2.8713   1.9931  -0.8250 H              1 S1                 0.0000
     28 ****         2.0238  -0.9631  -3.6112 H              1 S1                 0.0000
     29 ****         1.7267   0.7415  -3.4970 H              1 S1                 0.0000
     30 ****         0.8959  -0.9822  -0.6284 H              1 S1                 0.0000
     31 ****         2.8072   0.5283   0.9118 H              1 S1                 0.0000
     32 ****         3.7681  -1.4351   2.1298 H              1 S1                 0.0000
     33 ****         4.2241  -1.4590   0.4340 H              1 S1                 0.0000
     34 ****         2.9548  -2.5315   1.0173 H              1 S1                 0.0000
     35 ****         0.8036  -1.5486   1.8599 H              1 S1                 0.0000
     36 ****         1.4312  -0.8797   3.9373 H              1 S1                 0.0000
     37 ****         2.4414   0.4279   3.3307 H              1 S1                 0.0000
     38 ****         0.1575   1.1289   4.6056 H              1 S1                 0.0000
     39 ****        -0.0979   3.0517   3.0743 H              1 S1                 0.0000
     40 ****         1.5970   2.6191   2.8528 H              1 S1                 0.0000
     41 ****        -0.6116   2.3952   0.9283 H              1 S1                 0.0000
     42 ****         1.0721   2.0136   0.6125 H              1 S1                 0.0000
     43 ****        -0.6917  -0.0532   0.6239 H              1 S1                 0.0000
     44 ****        -1.1221  -0.6446   3.1420 H              1 S1                 0.0000
     45 ****        -1.7404   0.9850   2.7868 H              1 S1                 0.0000
     46 ****        -4.4331  -1.5731  -1.7932 H              1 S1                 0.0000
     47 ****        -4.5516   0.0436  -2.4729 H              1 S1                 0.0000
     48 ****        -4.1312  -0.1767  -0.7685 H              1 S1                 0.0000
     49 ****        -0.0876   1.6039  -2.4905 LP             1 S1                 0.0000
     50 ****         3.9191   0.6933  -2.5344 LP             1 S1                 0.0000
     51 ****         4.0770   0.3870  -0.8370 LP             1 S1                 0.0000
     52 ****         1.2605  -2.6024  -3.2089 LP             1 S1                 0.0000
     53 ****        -0.1481  -3.5906  -3.0115 LP             1 S1                 0.0000
     54 ****        -3.3473  -4.9577  -2.4184 LP             1 S1                 0.0000
@<TRIPOS>BOND
    1    1    2 1     
    2    1   25 1     
    3    1   26 1     
    4    1   27 1     
    5    2   23 1     
    6    2    3 2     
    7    3    4 1     
    8    4    5 1     
    9    4   18 am    
   10    5    6 1     
   11    5   28 1     
   12    5   29 1     
   13    6    7 2     
   14    6    8 am    
   15    8    9 1     
   16    8   30 1     
   17    9   10 1     
   18    9   11 1     
   19    9   31 1     
   20   10   32 1     
   21   10   33 1     
   22   10   34 1     
   23   11   16 1     
   24   11   12 1     
   25   11   35 1     
   26   12   13 1     
   27   12   36 1     
   28   12   37 1     
   29   13   17 1     
   30   13   14 1     
   31   13   38 1     
   32   14   15 1     
   33   14   39 1     
   34   14   40 1     
   35   15   16 1     
   36   15   41 1     
   37   15   42 1     
   38   16   17 1     
   39   16   43 1     
   40   17   44 1     
   41   17   45 1     
   42   18   19 2     
   43   18   20 1     
   44   20   21 1     
   45   20   23 2     
   46   21   22 3     
   47   23   24 1     
   48   24   46 1     
   49   24   47 1     
   50   24   48 1     
   51    3   49 1     
   52    7   50 1     
   53    7   51 1     
   54   19   52 1     
   55   19   53 1     
   56   22   54 1     
@<TRIPOS>SUBSTRUCTURE
      1 S1             1
@<TRIPOS>SET
LONE_PAIRS      STATIC     ATOMS    <user>   **** ""
6 49 50 51 52 53 54
DONOR_HYDROGENS      STATIC     ATOMS    <user>   **** ""
1 30
ATOM$BLUE        STATIC     ATOMS    COLORGROUP SYSTEM
6 49 50 51 52 53 54
ATOM$RED        STATIC     ATOMS    COLORGROUP SYSTEM
1 30
