AV-unprocessed.smi:1973|AV-procd|sdf|7977|dock10
  -GOLD-   2272010153D 1   1.00000     0.00000
 Structure written by MMmdl.
 48 50  0  0  0  0  0  0  0  0  2 V2000
  149.0983  141.3423  154.6812 C   0  0  0  0  0  0  0  0  0  0  0  0
  150.0409  140.2972  154.5188 O   0  0  0  0  0  0  0  0  0  0  0  0
  149.4261  139.0247  154.4099 C   0  0  0  0  0  0  0  0  0  0  0  0
  150.4954  137.9378  154.5934 C   0  0  0  0  0  0  0  0  0  0  0  0
  149.8874  136.6141  154.7599 N   0  0  0  0  0  0  0  0  0  0  0  0
  148.5242  136.5869  154.5181 N   0  0  0  0  0  0  0  0  0  0  0  0
  147.8625  135.4828  154.6497 C   0  0  0  0  0  0  0  0  0  0  0  0
  146.3934  135.4162  154.4153 C   0  0  0  0  0  0  0  0  0  0  0  0
  145.7627  134.3637  154.5270 O   0  0  0  0  0  0  0  0  0  0  0  0
  145.8088  136.5823  154.0862 N   0  0  0  0  0  0  0  0  0  0  0  0
  144.3826  136.7677  153.8434 C   0  0  0  0  0  0  0  0  0  0  0  0
  143.9721  136.2772  152.4420 C   0  0  1  0  0  0  0  0  0  0  0  0
  145.1150  136.2029  151.4291 C   0  0  0  0  0  0  0  0  0  0  0  0
  144.6277  135.1944  150.3813 C   0  0  0  0  0  0  0  0  0  0  0  0
  143.5205  134.4311  151.0038 N   0  3  1  0  0  0  0  0  0  0  0  0
  143.6079  132.9676  150.8143 C   0  0  0  0  0  0  0  0  0  0  0  0
  145.0225  132.4401  150.8398 C   0  0  0  0  0  0  0  0  0  0  0  0
  144.2831  132.5648  149.5252 C   0  0  0  0  0  0  0  0  0  0  0  0
  143.4277  134.8504  152.4168 C   0  0  0  0  0  0  0  0  0  0  0  0
  148.5333  134.2555  155.0439 C   0  0  0  0  0  0  0  0  0  0  0  0
  149.8625  134.2995  155.2827 C   0  0  0  0  0  0  0  0  0  0  0  0
  150.6325  135.5378  155.1545 C   0  0  0  0  0  0  0  0  0  0  0  0
  151.8389  135.6074  155.3867 O   0  0  0  0  0  0  0  0  0  0  0  0
  149.6191  142.2961  154.7634 H   0  0  0  0  0  0  0  0  0  0  0  0
  148.5061  141.2027  155.5865 H   0  0  0  0  0  0  0  0  0  0  0  0
  148.4233  141.4002  153.8264 H   0  0  0  0  0  0  0  0  0  0  0  0
  148.6460  138.9220  155.1660 H   0  0  0  0  0  0  0  0  0  0  0  0
  148.9527  138.9234  153.4318 H   0  0  0  0  0  0  0  0  0  0  0  0
  151.1592  137.9321  153.7269 H   0  0  0  0  0  0  0  0  0  0  0  0
  151.1334  138.1798  155.4451 H   0  0  0  0  0  0  0  0  0  0  0  0
  146.3972  137.4000  154.0096 H   0  0  0  0  0  0  0  0  0  0  0  0
  143.8351  136.2185  154.6100 H   0  0  0  0  0  0  0  0  0  0  0  0
  144.1179  137.8189  153.9704 H   0  0  0  0  0  0  0  0  0  0  0  0
  143.2008  136.9373  152.0409 H   0  0  0  0  0  0  0  0  0  0  0  0
  145.3576  137.1738  150.9956 H   0  0  0  0  0  0  0  0  0  0  0  0
  146.0160  135.8202  151.9109 H   0  0  0  0  0  0  0  0  0  0  0  0
  144.2406  135.7059  149.4996 H   0  0  0  0  0  0  0  0  0  0  0  0
  145.4445  134.5481  150.0559 H   0  0  0  0  0  0  0  0  0  0  0  0
  142.7888  132.3751  151.2186 H   0  0  0  0  0  0  0  0  0  0  0  0
  145.8317  133.1430  151.0305 H   0  0  0  0  0  0  0  0  0  0  0  0
  145.1773  131.4364  151.2307 H   0  0  0  0  0  0  0  0  0  0  0  0
  143.9517  131.6430  149.0511 H   0  0  0  0  0  0  0  0  0  0  0  0
  144.6011  133.3504  148.8419 H   0  0  0  0  0  0  0  0  0  0  0  0
  144.0515  134.2016  153.0345 H   0  0  0  0  0  0  0  0  0  0  0  0
  142.4036  134.7851  152.7860 H   0  0  0  0  0  0  0  0  0  0  0  0
  147.9905  133.3272  155.1456 H   0  0  0  0  0  0  0  0  0  0  0  0
  150.3742  133.3948  155.5767 H   0  0  0  0  0  0  0  0  0  0  0  0
  142.6726  134.7468  150.5546 H   0  0  0  0  0  0  0  0  0  0  0  0
  1  2  1  0  0  0  0
  1 24  1  0  0  0  0
  1 25  1  0  0  0  0
  1 26  1  0  0  0  0
  2  3  1  0  0  0  0
  3  4  1  0  0  0  0
  3 27  1  0  0  0  0
  3 28  1  0  0  0  0
  4  5  1  0  0  0  0
  4 29  1  0  0  0  0
  4 30  1  0  0  0  0
  5 22  1  0  0  0  0
  5  6  1  0  0  0  0
  6  7  2  0  0  0  0
  7  8  1  0  0  0  0
  7 20  1  0  0  0  0
  8  9  2  0  0  0  0
  8 10  1  0  0  0  0
 10 11  1  0  0  0  0
 10 31  1  0  0  0  0
 11 12  1  0  0  0  0
 11 32  1  0  0  0  0
 11 33  1  0  0  0  0
 12 19  1  0  0  0  0
 12 13  1  0  0  0  0
 12 34  1  0  0  0  0
 13 14  1  0  0  0  0
 13 35  1  0  0  0  0
 13 36  1  0  0  0  0
 14 15  1  0  0  0  0
 14 37  1  0  0  0  0
 14 38  1  0  0  0  0
 15 16  1  0  0  0  0
 15 19  1  0  0  0  0
 15 48  1  0  0  0  0
 16 18  1  0  0  0  0
 16 17  1  0  0  0  0
 16 39  1  0  0  0  0
 17 18  1  0  0  0  0
 17 40  1  0  0  0  0
 17 41  1  0  0  0  0
 18 42  1  0  0  0  0
 18 43  1  0  0  0  0
 19 44  1  0  0  0  0
 19 45  1  0  0  0  0
 20 21  2  0  0  0  0
 20 46  1  0  0  0  0
 21 22  1  0  0  0  0
 21 47  1  0  0  0  0
 22 23  2  0  0  0  0
M  CHG  1  15   1
M  END
> <s_m_source_file>
AV-unprocessed.smi

> <i_m_source_file_index>
1973

> <i_lp_mmshare_version>
43012

> <i_f3d_flags>
0

> <s_epik_input>
W0NIM11PW0NIMl1bQ0gyXW4xbmMoW2NIXVtjSF1jMT1PKUMoPU8pW05IXVtDSDJdW0NAQEhdMltDSDJdW0NIMl1OKFtDSDJdMilbQ0hdM1tDSDJdW0NIMl0z

> <s_epik_cmdline>
J2VwaWtfcHl0aG9uJywgJy1waCcsICc3LjAnLCAnLXRuJywgJzgnLCAnLW1hJywgJzIwMCcsICctbWV0YWxfYmluZGluZycsICctaW1hZScsICc8aW5maWxlLm1hZT4nLCAnLW9tYWUnLCAnPG91dGZpbGUubWFlPic=

> <r_lp_tautomer_probability>
1

> <r_epik_Ionization_Penalty>
0.000225706

> <r_epik_Ionization_Penalty_Charging>
0.000223776

> <r_epik_Ionization_Penalty_Neutral>
1.93004e-06

> <r_epik_State_Penalty>
-0

> <r_epik_Charging_Adjusted_Penalty>
0.000223776

> <i_epik_Tot_Q>
1

> <i_epik_Tot_abs_Q>
1

> <r_epik_Metal_State_Penalty>
-0

> <b_epik_Metal_Only>
0

> <s_lp_Force_Field>
OPLS_2005

> <r_lp_Energy>
57.2407

> <b_lp_Chiralities_Consistent>
1

> <s_lp_Variant>
AV-unprocessed.smi:1973-2

> <Gold.Version>
5.8.1

> <Gold.Id.Protein>
6NUR|6NUR_protein|mol2

> <Gold.PLP.Fitness>
46.0474

> <Gold.PLP.PLP>
-35.7819

> <Gold.PLP.part.hbond>
-3.0000

> <Gold.PLP.part.metal>
0.0000

> <Gold.PLP.part.buried>
-5.6906

> <Gold.PLP.part.nonpolar>
-28.5322

> <Gold.PLP.part.repulsive>
1.6889

> <Gold.PLP.ligand.clash>
0.0000

> <Gold.PLP.ligand.torsion>
1.4393

> <Gold.PLP.Chemscore.Hbond>
3.9600

> <Gold.PLP.Chemscore.CHOScore>
0.0000

> <Gold.PLP.Chemscore.Metal>
0.0000

> <Gold.Chemscore.Hbonds>
donor molecule, donor type, donor heavy atom, donor atom, acceptor molecule, acceptor atom, score
      L1  H    15    48       P1 10186  1.70
      P1  H  7989  7998       L1     2  0.98
      P1  H 10752 10763       L1    23  0.47

> <Gold.PLP.Chemscore.Internal.Correction>
1.2641

> <Gold.Rescore>
     Score         DG    S(hbond)    S(metal)    S(lipo)     H(rot)  DE(clash)    DE(int)     intcor
     14.42     -16.70       2.04        0.00      80.72       1.97       0.82       1.46       ----

> <Gold.Chemscore.Fitness>
14.4240

> <Gold.Chemscore.DG>
-16.7017

> <Gold.Chemscore.ZeroCoef>
-5.4800

> <Gold.Chemscore.Hbond>
2.0431

> <Gold.Chemscore.Metal>
0.0000

> <Gold.Chemscore.Lipo>
80.7166

> <Gold.Chemscore.Internal_Hbond>
0.0000

> <Gold.Chemscore.DEClash>
0.8224

> <Gold.Chemscore.DEInternal>
1.4554

> <Gold.Chemscore.Rot>
1.9711

> <Gold.Chemscore.Internal.Correction>
   9.000000E+99

> <Gold.Chemscore.Hbonds>
donor molecule, donor type, donor heavy atom, donor atom, acceptor molecule, acceptor atom, score
      L1  H    15    48       P1 10186  0.14
      P1  H  7989  7998       L1     2  0.75
      P1  H 10752 10763       L1    23  0.47

> <Gold.Chemscore.Hbond.Weighted>
-6.8239

> <Gold.Chemscore.Metal.Weighted>
-0.0000

> <Gold.Chemscore.Lipo.Weighted>
-9.4438

> <Gold.Chemscore.Internal_Hbond.Weighted>
0.0000

> <Gold.Chemscore.DEClash.Weighted>
0.8224

> <Gold.Chemscore.DEInternal.Weighted>
1.4554

> <Gold.Chemscore.Rot.Weighted>
5.0460

> <Gold.Chemscore.Internal.Correction.Weighted>
   9.000000E+99

> <Gold.Protein.RotatedTorsions>
[ 6907 6896 6895 6894 ] final -109.97 input  -60.11 | X-H torsion
[ 7974 7965 7964 7962 ] final  -48.77 input  175.53 | X-H torsion
[ 8008 7997 7996 7995 ] final  -18.42 input   59.86 | X-H torsion
[ 10167 10162 10161 10158 ] final  133.83 input  -65.29 | X-H torsion
[ 10718 10713 10712 10709 ] final  170.11 input   66.30 | X-H torsion
[ 10763 10752 10751 10750 ] final   62.87 input  -60.55 | X-H torsion
[ 11005 11000 10999 10996 ] final  -36.44 input  -57.11 | X-H torsion

> <Gold.Protein.ActiveResidues>
 VAL166  LYS551  ARG553  GLY616  TRP617  ASP618  TYR619  PRO620  LYS621  CYS622 
 ASP623  PHE694  ASN695  SER759  ASP760  ASP761  ALA762  ILE779  LEU786  VAL792 
 PHE793  MET794  SER795  GLU796  ALA797  LYS798  CYS799  TRP800  GLU811  SER814 

> <Gold.Protein.RotatedAtoms>
  150.7595  133.9450  159.3467 H   0  0  0  0  0  0  0  0  0  0  0  0  # atno 6907 bound_to 6896
  151.7362  135.0862  160.0317 H   0  0  0  0  0  0  0  0  0  0  0  0  # atno 6908 bound_to 6896
  152.3558  133.6197  159.6014 H   0  0  0  0  0  0  0  0  0  0  0  0  # atno 6909 bound_to 6896
  145.9477  140.7602  142.9520 H   0  0  0  0  0  0  0  0  0  0  0  0  # atno 7974 bound_to 7965
  154.4908  140.2116  155.9553 H   0  0  0  0  0  0  0  0  0  0  0  0  # atno 8008 bound_to 7997
  156.1302  140.3198  155.8306 H   0  0  0  0  0  0  0  0  0  0  0  0  # atno 8009 bound_to 7997
  155.4310  140.0503  157.3009 H   0  0  0  0  0  0  0  0  0  0  0  0  # atno 8010 bound_to 7997
  139.5281  144.6597  151.5052 H   0  0  0  0  0  0  0  0  0  0  0  0  # atno 10167 bound_to 10162
  157.0129  131.0209  151.2798 H   0  0  0  0  0  0  0  0  0  0  0  0  # atno 10718 bound_to 10713
  152.9998  135.5449  154.6262 H   0  0  0  0  0  0  0  0  0  0  0  0  # atno 10763 bound_to 10752
  154.5550  135.2829  155.0975 H   0  0  0  0  0  0  0  0  0  0  0  0  # atno 10764 bound_to 10752
  154.2200  135.6452  153.5194 H   0  0  0  0  0  0  0  0  0  0  0  0  # atno 10765 bound_to 10752
  140.9875  133.7023  156.1791 H   0  0  0  0  0  0  0  0  0  0  0  0  # atno 11005 bound_to 11000
  144.6790  140.2383  143.7347 LP  0  0  0  0  0  0  0  0  0  0  0  0  # atno 17320 bound_to 7965
  145.8214  139.2045  143.1935 LP  0  0  0  0  0  0  0  0  0  0  0  0  # atno 17321 bound_to 7965
  140.6439  143.8833  150.6718 LP  0  0  0  0  0  0  0  0  0  0  0  0  # atno 17342 bound_to 10162
  140.2177  143.3833  152.1668 LP  0  0  0  0  0  0  0  0  0  0  0  0  # atno 17343 bound_to 10162
  157.5307  130.8056  149.7913 LP  0  0  0  0  0  0  0  0  0  0  0  0  # atno 17370 bound_to 10713
  156.0129  130.3825  150.2204 LP  0  0  0  0  0  0  0  0  0  0  0  0  # atno 17371 bound_to 10713
  140.7092  134.4480  157.5582 LP  0  0  0  0  0  0  0  0  0  0  0  0  # atno 17394 bound_to 11000
  139.8977  134.8630  156.2033 LP  0  0  0  0  0  0  0  0  0  0  0  0  # atno 17395 bound_to 11000

$$$$
