AV-unprocessed.smi:3077|AV-procd|sdf|11729|dock4
  -GOLD-   2272017123D 1   1.00000     0.00000
 Structure written by MMmdl.
 28 29  0  0  0  0  0  0  0  0  2 V2000
  151.6694  139.1369  155.1688 C   0  0  0  0  0  0  0  0  0  0  0  0
  150.5316  139.5026  154.3967 C   0  0  0  0  0  0  0  0  0  0  0  0
  149.8186  140.4631  154.9628 N   0  0  0  0  0  0  0  0  0  0  0  0
  150.4789  140.7458  156.1064 N   0  0  0  0  0  0  0  0  0  0  0  0
  149.9616  141.7631  157.0036 C   0  0  0  0  0  0  0  0  0  0  0  0
  151.0578  142.6941  157.5612 C   0  0  2  0  0  0  0  0  0  0  0  0
  151.8348  142.0744  158.7458 C   0  0  0  0  0  0  0  0  0  0  0  0
  152.8758  143.0548  159.3084 C   0  0  0  0  0  0  0  0  0  0  0  0
  152.2110  144.3887  159.6756 C   0  0  0  0  0  0  0  0  0  0  0  0
  151.4475  144.9640  158.4721 C   0  0  0  0  0  0  0  0  0  0  0  0
  150.4586  143.9879  157.9644 N   0  3  0  0  0  0  0  0  0  0  0  0
  151.5979  139.9544  156.2600 C   0  0  0  0  0  0  0  0  0  0  0  0
  152.4188  138.3887  154.9564 H   0  0  0  0  0  0  0  0  0  0  0  0
  150.2034  139.1000  153.4498 H   0  0  0  0  0  0  0  0  0  0  0  0
  149.2114  142.3419  156.4626 H   0  0  0  0  0  0  0  0  0  0  0  0
  149.4400  141.2643  157.8218 H   0  0  0  0  0  0  0  0  0  0  0  0
  151.7660  142.9056  156.7580 H   0  0  0  0  0  0  0  0  0  0  0  0
  151.1384  141.7892  159.5355 H   0  0  0  0  0  0  0  0  0  0  0  0
  152.3391  141.1589  158.4347 H   0  0  0  0  0  0  0  0  0  0  0  0
  153.3647  142.6243  160.1828 H   0  0  0  0  0  0  0  0  0  0  0  0
  153.6578  143.2256  158.5672 H   0  0  0  0  0  0  0  0  0  0  0  0
  151.5242  144.2392  160.5099 H   0  0  0  0  0  0  0  0  0  0  0  0
  152.9630  145.1007  160.0169 H   0  0  0  0  0  0  0  0  0  0  0  0
  150.9293  145.8803  158.7558 H   0  0  0  0  0  0  0  0  0  0  0  0
  152.1404  145.2242  157.6708 H   0  0  0  0  0  0  0  0  0  0  0  0
  149.9871  144.3896  157.1664 H   0  0  0  0  0  0  0  0  0  0  0  0
  152.2434  140.0371  157.1221 H   0  0  0  0  0  0  0  0  0  0  0  0
  149.7783  143.8135  158.6901 H   0  0  0  0  0  0  0  0  0  0  0  0
  1 12  2  0  0  0  0
  1  2  1  0  0  0  0
  1 13  1  0  0  0  0
  2  3  2  0  0  0  0
  2 14  1  0  0  0  0
  3  4  1  0  0  0  0
  4  5  1  0  0  0  0
  4 12  1  0  0  0  0
  5  6  1  0  0  0  0
  5 15  1  0  0  0  0
  5 16  1  0  0  0  0
  6 11  1  0  0  0  0
  6  7  1  0  0  0  0
  6 17  1  0  0  0  0
  7  8  1  0  0  0  0
  7 18  1  0  0  0  0
  7 19  1  0  0  0  0
  8  9  1  0  0  0  0
  8 20  1  0  0  0  0
  8 21  1  0  0  0  0
  9 10  1  0  0  0  0
  9 22  1  0  0  0  0
  9 23  1  0  0  0  0
 10 11  1  0  0  0  0
 10 24  1  0  0  0  0
 10 25  1  0  0  0  0
 11 26  1  0  0  0  0
 11 28  1  0  0  0  0
 12 27  1  0  0  0  0
M  CHG  1  11   1
M  END
> <s_m_source_file>
AV-unprocessed.smi

> <i_m_source_file_index>
3077

> <i_lp_mmshare_version>
43012

> <i_f3d_flags>
0

> <s_epik_input>
W2NIXTFbY0hdW2NIXW5uMVtDSDJdW0NAQEhdMltDSDJdW0NIMl1bQ0gyXVtDSDJdW05IXTI=

> <s_epik_cmdline>
J2VwaWtfcHl0aG9uJywgJy1waCcsICc3LjAnLCAnLXRuJywgJzgnLCAnLW1hJywgJzIwMCcsICctbWV0YWxfYmluZGluZycsICctaW1hZScsICc8aW5maWxlLm1hZT4nLCAnLW9tYWUnLCAnPG91dGZpbGUubWFlPic=

> <r_lp_tautomer_probability>
1

> <r_epik_Ionization_Penalty>
0.000655985

> <r_epik_Ionization_Penalty_Charging>
0.000651447

> <r_epik_Ionization_Penalty_Neutral>
4.5377e-06

> <r_epik_State_Penalty>
0.000412577

> <r_epik_Charging_Adjusted_Penalty>
0.00106402

> <i_epik_Tot_Q>
1

> <i_epik_Tot_abs_Q>
1

> <r_epik_Metal_State_Penalty>
-0

> <b_epik_Metal_Only>
0

> <s_lp_Force_Field>
OPLS_2005

> <r_lp_Energy>
13.5088

> <b_lp_Chiralities_Consistent>
1

> <s_lp_Variant>
AV-unprocessed.smi:3077-1

> <Gold.Version>
5.8.1

> <Gold.Id.Protein>
6NUR|6NUR_protein|mol2

> <Gold.PLP.Fitness>
38.4406

> <Gold.PLP.PLP>
-30.3464

> <Gold.PLP.part.hbond>
-1.4617

> <Gold.PLP.part.metal>
0.0000

> <Gold.PLP.part.buried>
-2.5549

> <Gold.PLP.part.nonpolar>
-27.2471

> <Gold.PLP.part.repulsive>
0.1239

> <Gold.PLP.ligand.clash>
0.0000

> <Gold.PLP.ligand.torsion>
0.4395

> <Gold.PLP.Chemscore.Hbond>
2.0000

> <Gold.PLP.Chemscore.CHOScore>
0.9897

> <Gold.PLP.Chemscore.Metal>
0.0000

> <Gold.Chemscore.Hbonds>
donor molecule, donor type, donor heavy atom, donor atom, acceptor molecule, acceptor atom, score
      L1  H    11    26       P1  8028  2.00
      L1  C     2    14       P1  7957  0.99

> <Gold.PLP.Chemscore.Internal.Correction>
0.0041

> <Gold.Rescore>
     Score         DG    S(hbond)    S(metal)    S(lipo)     H(rot)  DE(clash)    DE(int)     intcor
     15.45     -15.91       0.97        0.00      87.35       1.19       0.03       0.43       ----

> <Gold.Chemscore.Fitness>
15.4534

> <Gold.Chemscore.DG>
-15.9087

> <Gold.Chemscore.ZeroCoef>
-5.4800

> <Gold.Chemscore.Hbond>
0.9742

> <Gold.Chemscore.Metal>
0.0000

> <Gold.Chemscore.Lipo>
87.3527

> <Gold.Chemscore.Internal_Hbond>
0.0000

> <Gold.Chemscore.DEClash>
0.0266

> <Gold.Chemscore.DEInternal>
0.4287

> <Gold.Chemscore.Rot>
1.1896

> <Gold.Chemscore.Internal.Correction>
   9.000000E+99

> <Gold.Chemscore.Hbonds>
donor molecule, donor type, donor heavy atom, donor atom, acceptor molecule, acceptor atom, score
      L1  H    11    26       P1  8028  0.55

> <Gold.Chemscore.Hbond.Weighted>
-3.2537

> <Gold.Chemscore.Metal.Weighted>
-0.0000

> <Gold.Chemscore.Lipo.Weighted>
-10.2203

> <Gold.Chemscore.Internal_Hbond.Weighted>
0.0000

> <Gold.Chemscore.DEClash.Weighted>
0.0266

> <Gold.Chemscore.DEInternal.Weighted>
0.4287

> <Gold.Chemscore.Rot.Weighted>
3.0453

> <Gold.Chemscore.Internal.Correction.Weighted>
   9.000000E+99

> <Gold.Protein.RotatedTorsions>
[ 6907 6896 6895 6894 ] final   27.04 input  -60.11 | X-H torsion
[ 7974 7965 7964 7962 ] final   14.71 input  175.53 | X-H torsion
[ 8008 7997 7996 7995 ] final -155.80 input   59.86 | X-H torsion
[ 10167 10162 10161 10158 ] final -172.67 input  -65.29 | X-H torsion
[ 10718 10713 10712 10709 ] final  -31.24 input   66.30 | X-H torsion
[ 10763 10752 10751 10750 ] final -125.75 input  -60.55 | X-H torsion
[ 11005 11000 10999 10996 ] final   50.67 input  -57.11 | X-H torsion

> <Gold.Protein.ActiveResidues>
 VAL166  LYS551  ARG553  GLY616  TRP617  ASP618  TYR619  PRO620  LYS621  CYS622 
 ASP623  PHE694  ASN695  SER759  ASP760  ASP761  ALA762  ILE779  LEU786  VAL792 
 PHE793  MET794  SER795  GLU796  ALA797  LYS798  CYS799  TRP800  GLU811  SER814 

> <Gold.Protein.RotatedAtoms>
  151.9964  134.9952  160.0563 H   0  0  0  0  0  0  0  0  0  0  0  0  # atno 6907 bound_to 6896
  152.1561  133.4547  159.4846 H   0  0  0  0  0  0  0  0  0  0  0  0  # atno 6908 bound_to 6896
  150.6881  134.2047  159.4379 H   0  0  0  0  0  0  0  0  0  0  0  0  # atno 6909 bound_to 6896
  146.2298  139.9001  142.8540 H   0  0  0  0  0  0  0  0  0  0  0  0  # atno 7974 bound_to 7965
  155.7074  140.0774  157.2385 H   0  0  0  0  0  0  0  0  0  0  0  0  # atno 8008 bound_to 7997
  154.4063  140.1636  156.2312 H   0  0  0  0  0  0  0  0  0  0  0  0  # atno 8009 bound_to 7997
  155.9313  140.3391  155.6254 H   0  0  0  0  0  0  0  0  0  0  0  0  # atno 8010 bound_to 7997
  139.5731  144.1595  152.1412 H   0  0  0  0  0  0  0  0  0  0  0  0  # atno 10167 bound_to 10162
  156.3897  130.4371  149.7404 H   0  0  0  0  0  0  0  0  0  0  0  0  # atno 10718 bound_to 10713
  154.8739  135.4019  154.3318 H   0  0  0  0  0  0  0  0  0  0  0  0  # atno 10763 bound_to 10752
  153.4131  135.7021  153.6351 H   0  0  0  0  0  0  0  0  0  0  0  0  # atno 10764 bound_to 10752
  153.5045  135.3720  155.2527 H   0  0  0  0  0  0  0  0  0  0  0  0  # atno 10765 bound_to 10752
  140.0998  134.5097  155.8773 H   0  0  0  0  0  0  0  0  0  0  0  0  # atno 11005 bound_to 11000
  145.2332  140.9981  143.3979 LP  0  0  0  0  0  0  0  0  0  0  0  0  # atno 17320 bound_to 7965
  144.9513  139.4079  143.6401 LP  0  0  0  0  0  0  0  0  0  0  0  0  # atno 17321 bound_to 7965
  140.1132  144.5439  150.6911 LP  0  0  0  0  0  0  0  0  0  0  0  0  # atno 17342 bound_to 10162
  140.7015  143.2438  151.4850 LP  0  0  0  0  0  0  0  0  0  0  0  0  # atno 17343 bound_to 10162
  156.4462  130.7885  151.2906 LP  0  0  0  0  0  0  0  0  0  0  0  0  # atno 17370 bound_to 10713
  157.7498  131.0109  150.3326 LP  0  0  0  0  0  0  0  0  0  0  0  0  # atno 17371 bound_to 10713
  141.2102  133.6692  156.6495 LP  0  0  0  0  0  0  0  0  0  0  0  0  # atno 17394 bound_to 11000
  140.3236  134.7987  157.4272 LP  0  0  0  0  0  0  0  0  0  0  0  0  # atno 17395 bound_to 11000

$$$$
