AV-unprocessed.smi:224|AV-procd|sdf|1714|dock9
  -GOLD-   2262020183D 1   1.00000     0.00000
 Structure written by MMmdl.
 56 59  0  0  0  0  0  0  0  0  2 V2000
  145.8739  132.6716  150.1324 C   0  0  0  0  0  0  0  0  0  0  0  0
  144.6901  133.6251  150.3393 C   0  0  1  0  0  0  0  0  0  0  0  0
  144.0161  133.7526  149.1031 O   0  0  0  0  0  0  0  0  0  0  0  0
  143.7129  133.0953  151.4096 C   0  0  0  0  0  0  0  0  0  0  0  0
  143.9788  133.6108  152.7811 N   0  3  1  0  0  0  0  0  0  0  0  0
  145.4318  133.6275  153.0999 C   0  0  0  0  0  0  0  0  0  0  0  0
  145.6767  134.0086  154.5710 C   0  0  0  0  0  0  0  0  0  0  0  0
  144.9997  135.2561  154.9033 N   0  0  0  0  0  0  0  0  0  0  0  0
  145.6574  136.4494  154.8937 C   0  0  0  0  0  0  0  0  0  0  0  0
  145.0768  137.4730  154.2139 N   0  0  0  0  0  0  0  0  0  0  0  0
  145.6537  138.6758  154.1616 C   0  0  0  0  0  0  0  0  0  0  0  0
  146.8019  139.0715  154.7093 N   0  0  0  0  0  0  0  0  0  0  0  0
  147.4005  138.0549  155.3915 C   0  0  0  0  0  0  0  0  0  0  0  0
  146.9034  136.7259  155.5386 C   0  0  0  0  0  0  0  0  0  0  0  0
  147.8016  135.9835  156.2987 N   0  0  0  0  0  0  0  0  0  0  0  0
  148.7572  136.8208  156.5922 C   0  0  0  0  0  0  0  0  0  0  0  0
  148.6027  138.0862  156.0769 N   0  0  0  0  0  0  0  0  0  0  0  0
  149.5131  139.2097  156.2436 C   0  0  0  0  0  0  0  0  0  0  0  0
  150.6005  139.2947  155.1466 C   0  0  2  0  0  0  0  0  0  0  0  0
  150.0430  139.8946  153.9894 O   0  0  0  0  0  0  0  0  0  0  0  0
  151.1579  137.9315  154.7574 C   0  0  0  0  0  0  0  0  0  0  0  0
  152.5677  138.2677  154.2905 C   0  0  0  0  0  0  0  0  0  0  0  0
  152.9811  139.2597  155.2154 O   0  0  0  0  0  0  0  0  0  0  0  0
  151.8656  140.0833  155.5442 C   0  0  0  0  0  0  0  0  0  0  0  0
  143.5637  135.2452  154.6262 C   0  0  0  0  0  0  0  0  0  0  0  0
  143.2793  134.8822  153.1522 C   0  0  1  0  0  0  0  0  0  0  0  0
  143.5900  136.0581  152.2017 C   0  0  0  0  0  0  0  0  0  0  0  0
  146.4442  132.5505  151.0539 H   0  0  0  0  0  0  0  0  0  0  0  0
  146.5567  133.0514  149.3713 H   0  0  0  0  0  0  0  0  0  0  0  0
  145.5398  131.6828  149.8160 H   0  0  0  0  0  0  0  0  0  0  0  0
  145.0917  134.5976  150.6214 H   0  0  0  0  0  0  0  0  0  0  0  0
  144.6504  133.9126  148.4217 H   0  0  0  0  0  0  0  0  0  0  0  0
  142.7013  133.3839  151.1197 H   0  0  0  0  0  0  0  0  0  0  0  0
  143.7138  132.0052  151.4189 H   0  0  0  0  0  0  0  0  0  0  0  0
  145.8612  132.6427  152.9133 H   0  0  0  0  0  0  0  0  0  0  0  0
  145.9425  134.3199  152.4309 H   0  0  0  0  0  0  0  0  0  0  0  0
  145.2665  133.2296  155.2145 H   0  0  0  0  0  0  0  0  0  0  0  0
  146.7394  134.0461  154.8062 H   0  0  0  0  0  0  0  0  0  0  0  0
  145.1182  139.4288  153.6021 H   0  0  0  0  0  0  0  0  0  0  0  0
  149.6103  136.5350  157.1904 H   0  0  0  0  0  0  0  0  0  0  0  0
  148.9248  140.1281  156.2601 H   0  0  0  0  0  0  0  0  0  0  0  0
  149.9766  139.1286  157.2277 H   0  0  0  0  0  0  0  0  0  0  0  0
  149.6499  139.2162  153.4618 H   0  0  0  0  0  0  0  0  0  0  0  0
  151.2201  137.2836  155.6330 H   0  0  0  0  0  0  0  0  0  0  0  0
  150.5661  137.4128  154.0020 H   0  0  0  0  0  0  0  0  0  0  0  0
  153.2341  137.4050  154.3000 H   0  0  0  0  0  0  0  0  0  0  0  0
  152.5579  138.6867  153.2831 H   0  0  0  0  0  0  0  0  0  0  0  0
  151.9373  141.0418  155.0278 H   0  0  0  0  0  0  0  0  0  0  0  0
  151.9053  140.2854  156.6137 H   0  0  0  0  0  0  0  0  0  0  0  0
  143.1110  134.4946  155.2754 H   0  0  0  0  0  0  0  0  0  0  0  0
  143.0742  136.1851  154.8811 H   0  0  0  0  0  0  0  0  0  0  0  0
  142.2064  134.7038  153.0969 H   0  0  0  0  0  0  0  0  0  0  0  0
  143.0954  136.9680  152.5427 H   0  0  0  0  0  0  0  0  0  0  0  0
  143.2328  135.8678  151.1899 H   0  0  0  0  0  0  0  0  0  0  0  0
  144.6570  136.2725  152.1457 H   0  0  0  0  0  0  0  0  0  0  0  0
  143.5942  132.9118  153.4000 H   0  0  0  0  0  0  0  0  0  0  0  0
  1  2  1  0  0  0  0
  1 28  1  0  0  0  0
  1 29  1  0  0  0  0
  1 30  1  0  0  0  0
  2  3  1  0  0  0  0
  2  4  1  0  0  0  0
  2 31  1  0  0  0  0
  3 32  1  0  0  0  0
  4  5  1  0  0  0  0
  4 33  1  0  0  0  0
  4 34  1  0  0  0  0
  5 26  1  0  0  0  0
  5  6  1  0  0  0  0
  5 56  1  0  0  0  0
  6  7  1  0  0  0  0
  6 35  1  0  0  0  0
  6 36  1  0  0  0  0
  7  8  1  0  0  0  0
  7 37  1  0  0  0  0
  7 38  1  0  0  0  0
  8  9  1  0  0  0  0
  8 25  1  0  0  0  0
  9 14  1  0  0  0  0
  9 10  2  0  0  0  0
 10 11  1  0  0  0  0
 11 12  2  0  0  0  0
 11 39  1  0  0  0  0
 12 13  1  0  0  0  0
 13 17  1  0  0  0  0
 13 14  2  0  0  0  0
 14 15  1  0  0  0  0
 15 16  2  0  0  0  0
 16 17  1  0  0  0  0
 16 40  1  0  0  0  0
 17 18  1  0  0  0  0
 18 19  1  0  0  0  0
 18 41  1  0  0  0  0
 18 42  1  0  0  0  0
 19 24  1  0  0  0  0
 19 20  1  0  0  0  0
 19 21  1  0  0  0  0
 20 43  1  0  0  0  0
 21 22  1  0  0  0  0
 21 44  1  0  0  0  0
 21 45  1  0  0  0  0
 22 23  1  0  0  0  0
 22 46  1  0  0  0  0
 22 47  1  0  0  0  0
 23 24  1  0  0  0  0
 24 48  1  0  0  0  0
 24 49  1  0  0  0  0
 25 26  1  0  0  0  0
 25 50  1  0  0  0  0
 25 51  1  0  0  0  0
 26 27  1  0  0  0  0
 26 52  1  0  0  0  0
 27 53  1  0  0  0  0
 27 54  1  0  0  0  0
 27 55  1  0  0  0  0
M  CHG  1   5   1
M  END
> <s_m_source_file>
AV-unprocessed.smi

> <i_m_source_file_index>
224

> <i_lp_mmshare_version>
43012

> <i_f3d_flags>
0

> <s_epik_input>
W0NIM11bQ0BIXShbT0hdKVtDSDJdTjFbQ0gyXVtDSDJdTihbQ0gyXVtDQEhdMVtDSDNdKWMobltjSF1uMiljKGMyMyluW2NIXW4zW0NIMl1bQ0BAXTQoW09IXSlbQ0gyXVtDSDJdT1tDSDJdNA==

> <s_epik_cmdline>
J2VwaWtfcHl0aG9uJywgJy1waCcsICc3LjAnLCAnLXRuJywgJzgnLCAnLW1hJywgJzIwMCcsICctbWV0YWxfYmluZGluZycsICctaW1hZScsICc8aW5maWxlLm1hZT4nLCAnLW9tYWUnLCAnPG91dGZpbGUubWFlPic=

> <r_lp_tautomer_probability>
1

> <r_epik_Ionization_Penalty>
0.00516958

> <r_epik_Ionization_Penalty_Charging>
0.00509693

> <r_epik_Ionization_Penalty_Neutral>
7.26542e-05

> <r_epik_State_Penalty>
-0

> <r_epik_Charging_Adjusted_Penalty>
0.00509693

> <i_epik_Tot_Q>
1

> <i_epik_Tot_abs_Q>
1

> <r_epik_Metal_State_Penalty>
-0

> <b_epik_Metal_Only>
0

> <s_lp_Force_Field>
OPLS_2005

> <r_lp_Energy>
50.9618

> <b_lp_Chiralities_Consistent>
1

> <s_lp_Variant>
AV-unprocessed.smi:224-8

> <Gold.Version>
5.8.1

> <Gold.Id.Protein>
6NUR|6NUR_protein|mol2

> <Gold.PLP.Fitness>
47.6779

> <Gold.PLP.PLP>
-33.3011

> <Gold.PLP.part.hbond>
-5.5038

> <Gold.PLP.part.metal>
0.0000

> <Gold.PLP.part.buried>
-5.9616

> <Gold.PLP.part.nonpolar>
-21.6143

> <Gold.PLP.part.repulsive>
0.1883

> <Gold.PLP.ligand.clash>
0.0000

> <Gold.PLP.ligand.torsion>
1.9186

> <Gold.PLP.Chemscore.Hbond>
4.9920

> <Gold.PLP.Chemscore.CHOScore>
1.0000

> <Gold.PLP.Chemscore.Metal>
0.0000

> <Gold.Chemscore.Hbonds>
donor molecule, donor type, donor heavy atom, donor atom, acceptor molecule, acceptor atom, score
      L1  H     3    32       P1  7921  1.00
      L1  H     5    56       P1 10957  2.00
      P1  H  7989  7998       L1    20  0.80
      P1  H  7997  8010       L1    23  1.00
      L1  C    11    39       P1 10175  1.00

> <Gold.PLP.Chemscore.Internal.Correction>
0.2379

> <Gold.Rescore>
     Score         DG    S(hbond)    S(metal)    S(lipo)     H(rot)  DE(clash)    DE(int)     intcor
     14.21     -17.58       3.65        0.00      65.22       3.02       0.01       3.36       ----

> <Gold.Chemscore.Fitness>
14.2083

> <Gold.Chemscore.DG>
-17.5761

> <Gold.Chemscore.ZeroCoef>
-5.4800

> <Gold.Chemscore.Hbond>
3.6541

> <Gold.Chemscore.Metal>
0.0000

> <Gold.Chemscore.Lipo>
65.2179

> <Gold.Chemscore.Internal_Hbond>
0.0000

> <Gold.Chemscore.DEClash>
0.0089

> <Gold.Chemscore.DEInternal>
3.3589

> <Gold.Chemscore.Rot>
3.0231

> <Gold.Chemscore.Internal.Correction>
   9.000000E+99

> <Gold.Chemscore.Hbonds>
donor molecule, donor type, donor heavy atom, donor atom, acceptor molecule, acceptor atom, score
      L1  H     3    32       P1  7921  0.98
      L1  H     5    56       P1 10957  0.70
      L1  H    20    43       P1  7957  0.01
      P1  H  7989  7998       L1    20  0.13
      P1  H  7997  8010       L1    23  0.45

> <Gold.Chemscore.Hbond.Weighted>
-12.2047

> <Gold.Chemscore.Metal.Weighted>
-0.0000

> <Gold.Chemscore.Lipo.Weighted>
-7.6305

> <Gold.Chemscore.Internal_Hbond.Weighted>
0.0000

> <Gold.Chemscore.DEClash.Weighted>
0.0089

> <Gold.Chemscore.DEInternal.Weighted>
3.3589

> <Gold.Chemscore.Rot.Weighted>
7.7391

> <Gold.Chemscore.Internal.Correction.Weighted>
   9.000000E+99

> <Gold.Protein.RotatedTorsions>
[ 6907 6896 6895 6894 ] final -103.56 input  -60.11 | X-H torsion
[ 7974 7965 7964 7962 ] final  -51.01 input  175.53 | X-H torsion
[ 8008 7997 7996 7995 ] final  102.14 input   59.86 | X-H torsion
[ 10167 10162 10161 10158 ] final   94.56 input  -65.29 | X-H torsion
[ 10718 10713 10712 10709 ] final  -75.01 input   66.30 | X-H torsion
[ 10763 10752 10751 10750 ] final   85.99 input  -60.55 | X-H torsion
[ 11005 11000 10999 10996 ] final   21.95 input  -57.11 | X-H torsion

> <Gold.Protein.ActiveResidues>
 VAL166  LYS551  ARG553  GLY616  TRP617  ASP618  TYR619  PRO620  LYS621  CYS622 
 ASP623  PHE694  ASN695  SER759  ASP760  ASP761  ALA762  ILE779  LEU786  VAL792 
 PHE793  MET794  SER795  GLU796  ALA797  LYS798  CYS799  TRP800  GLU811  SER814 

> <Gold.Protein.RotatedAtoms>
  150.7246  134.0411  159.3765 H   0  0  0  0  0  0  0  0  0  0  0  0  # atno 6907 bound_to 6896
  151.8384  135.0596  160.0454 H   0  0  0  0  0  0  0  0  0  0  0  0  # atno 6908 bound_to 6896
  152.2881  133.5498  159.5576 H   0  0  0  0  0  0  0  0  0  0  0  0  # atno 6909 bound_to 6896
  145.9236  140.7812  142.9635 H   0  0  0  0  0  0  0  0  0  0  0  0  # atno 7974 bound_to 7965
  156.1365  140.3186  155.8429 H   0  0  0  0  0  0  0  0  0  0  0  0  # atno 8008 bound_to 7997
  155.4235  140.0514  157.3041 H   0  0  0  0  0  0  0  0  0  0  0  0  # atno 8009 bound_to 7997
  154.4941  140.2104  155.9497 H   0  0  0  0  0  0  0  0  0  0  0  0  # atno 8010 bound_to 7997
  139.8072  144.6789  150.9687 H   0  0  0  0  0  0  0  0  0  0  0  0  # atno 10167 bound_to 10162
  156.0222  130.4430  150.2979 H   0  0  0  0  0  0  0  0  0  0  0  0  # atno 10718 bound_to 10713
  153.1527  135.4597  154.9660 H   0  0  0  0  0  0  0  0  0  0  0  0  # atno 10763 bound_to 10752
  154.7837  135.3197  154.7935 H   0  0  0  0  0  0  0  0  0  0  0  0  # atno 10764 bound_to 10752
  153.8437  135.6928  153.4854 H   0  0  0  0  0  0  0  0  0  0  0  0  # atno 10765 bound_to 10752
  140.3859  134.1870  155.7663 H   0  0  0  0  0  0  0  0  0  0  0  0  # atno 11005 bound_to 11000
  144.6756  140.2015  143.7386 LP  0  0  0  0  0  0  0  0  0  0  0  0  # atno 17320 bound_to 7965
  145.8518  139.2179  143.1768 LP  0  0  0  0  0  0  0  0  0  0  0  0  # atno 17321 bound_to 7965
  140.7819  143.4221  151.0825 LP  0  0  0  0  0  0  0  0  0  0  0  0  # atno 17342 bound_to 10162
  139.7890  143.8246  152.3149 LP  0  0  0  0  0  0  0  0  0  0  0  0  # atno 17343 bound_to 10162
  157.1082  131.0214  151.3058 LP  0  0  0  0  0  0  0  0  0  0  0  0  # atno 17370 bound_to 10713
  157.4726  130.7717  149.7337 LP  0  0  0  0  0  0  0  0  0  0  0  0  # atno 17371 bound_to 10713
  141.1907  133.8210  157.0906 LP  0  0  0  0  0  0  0  0  0  0  0  0  # atno 17394 bound_to 11000
  140.0443  134.9838  157.1019 LP  0  0  0  0  0  0  0  0  0  0  0  0  # atno 17395 bound_to 11000

$$$$
