#       Name:                AV-unprocessed.smi:1556
#       Creating user name   scv26
#       Creation time:       Fri Mar 27 06:46:01 2020


#       File generated by GOLD software.
#

@<TRIPOS>MOLECULE
AV-unprocessed.smi:1556
    40    41     1
SMALL
NO_CHARGES


@<TRIPOS>ATOM
      1 ****        -3.1764   1.8066   0.2110 C.3            1 S1                 0.0000
      2 ****        -2.5541   0.7958   1.0388 N.pl3          1 S1                 0.0000
      3 ****        -2.3166  -0.5295   0.7453 C.2            1 S1                 0.0000
      4 ****        -1.6722  -1.0778   1.8183 C.2            1 S1                 0.0000
      5 ****        -1.1499  -2.4818   1.9826 C.3            1 S1                 0.0000
      6 ****         0.3900  -2.5495   1.9383 C.3            1 S1                 0.0000
      7 ****         0.9452  -1.8134   0.8070 N.am           1 S1                 0.0000
      8 ****         0.9577  -2.2423  -0.4654 C.2            1 S1                 0.0000
      9 ****         0.6001  -3.3686  -0.8044 O.2            1 S1                 0.0000
     10 ****         1.3841  -1.3323  -1.3596 N.am           1 S1                 0.0000
     11 ****         1.5155  -1.4816  -2.8107 C.3            1 S1                 0.0000
     12 ****         1.7957  -0.1210  -3.4764 C.3            1 S1                 0.0000
     13 ****         2.2849  -0.3630  -4.9090 C.3            1 S1                 0.0000
     14 ****         3.2073  -1.9454  -4.8677 S.o2           1 S1                 0.0000
     15 ****         2.6308  -2.8623  -5.8624 O.2            1 S1                 0.0000
     16 ****         4.6524  -1.6736  -4.8354 O.2            1 S1                 0.0000
     17 ****         2.6600  -2.4384  -3.1922 C.3            1 S1                 0.0000
     18 ****        -1.5819   0.0053   2.7384 C.2            1 S1                 0.0000
     19 ****        -2.1055   1.1252   2.2673 N.2            1 S1                 0.0000
     20 ****        -3.6281   1.3443  -0.6671 H              1 S1                 0.0000
     21 ****        -2.4246   2.5261  -0.1150 H              1 S1                 0.0000
     22 ****        -3.9509   2.3263   0.7759 H              1 S1                 0.0000
     23 ****        -2.6017  -0.9641  -0.2014 H              1 S1                 0.0000
     24 ****        -1.4981  -2.9147   2.9205 H              1 S1                 0.0000
     25 ****        -1.5516  -3.1267   1.2000 H              1 S1                 0.0000
     26 ****         0.7968  -2.0999   2.8444 H              1 S1                 0.0000
     27 ****         0.7308  -3.5860   1.9286 H              1 S1                 0.0000
     28 ****         1.2725  -0.8767   0.9934 H              1 S1                 0.0000
     29 ****         1.6913  -0.4472  -0.9825 H              1 S1                 0.0000
     30 ****         0.5817  -1.8656  -3.2254 H              1 S1                 0.0000
     31 ****         0.9195   0.5280  -3.4575 H              1 S1                 0.0000
     32 ****         2.5842   0.3930  -2.9242 H              1 S1                 0.0000
     33 ****         1.4412  -0.4838  -5.5888 H              1 S1                 0.0000
     34 ****         2.9230   0.4373  -5.2840 H              1 S1                 0.0000
     35 ****         3.5115  -2.3284  -2.5200 H              1 S1                 0.0000
     36 ****         2.3555  -3.4848  -3.1999 H              1 S1                 0.0000
     37 ****        -1.1386   0.0137   3.7233 H              1 S1                 0.0000
     38 ****         0.2785  -4.0194  -0.1165 LP             1 S1                 0.0000
     39 ****         0.6307  -3.6341  -1.7681 LP             1 S1                 0.0000
     40 ****        -2.1571   2.0153   2.7200 LP             1 S1                 0.0000
@<TRIPOS>BOND
    1    1    2 1     
    2    1   20 1     
    3    1   21 1     
    4    1   22 1     
    5    2   19 1     
    6    2    3 1     
    7    3    4 2     
    8    3   23 1     
    9    4    5 1     
   10    4   18 1     
   11    5    6 1     
   12    5   24 1     
   13    5   25 1     
   14    6    7 1     
   15    6   26 1     
   16    6   27 1     
   17    7    8 am    
   18    7   28 1     
   19    8    9 2     
   20    8   10 am    
   21   10   11 1     
   22   10   29 1     
   23   11   17 1     
   24   11   12 1     
   25   11   30 1     
   26   12   13 1     
   27   12   31 1     
   28   12   32 1     
   29   13   14 1     
   30   13   33 1     
   31   13   34 1     
   32   14   15 2     
   33   14   16 2     
   34   14   17 1     
   35   17   35 1     
   36   17   36 1     
   37   18   19 2     
   38   18   37 1     
   39    9   38 1     
   40    9   39 1     
   41   19   40 1     
@<TRIPOS>SUBSTRUCTURE
      1 S1             1
@<TRIPOS>SET
LONE_PAIRS      STATIC     ATOMS    <user>   **** ""
5 38 39 15 16 40
DONOR_HYDROGENS      STATIC     ATOMS    <user>   **** ""
2 28 29
ATOM$BLUE        STATIC     ATOMS    COLORGROUP SYSTEM
5 38 39 15 16 40
ATOM$RED        STATIC     ATOMS    COLORGROUP SYSTEM
2 28 29
