AV-unprocessed.smi:1175|AV-procd|sdf|4950|dock9
  -GOLD-   22720 3543D 1   1.00000     0.00000
 Structure written by MMmdl.
 36 37  0  0  0  0  0  0  0  0  1 V2000
  150.2813  136.0974  158.9243 O   0  0  0  0  0  0  0  0  0  0  0  0
  149.2377  136.5856  158.4877 C   0  0  0  0  0  0  0  0  0  0  0  0
  148.1163  137.0352  159.4356 C   0  0  0  0  0  0  0  0  0  0  0  0
  147.6203  135.9588  160.3097 N   0  0  0  0  0  0  0  0  0  0  0  0
  147.3496  134.7163  159.7034 C   0  0  0  0  0  0  0  0  0  0  0  0
  146.8848  133.6527  160.3867 C   0  0  0  0  0  0  0  0  0  0  0  0
  146.6620  132.3058  159.7164 C   0  0  0  0  0  0  0  0  0  0  0  0
  146.3523  131.3689  160.6131 F   0  0  0  0  0  0  0  0  0  0  0  0
  145.6577  132.3946  158.8452 F   0  0  0  0  0  0  0  0  0  0  0  0
  147.7508  131.9099  159.0554 F   0  0  0  0  0  0  0  0  0  0  0  0
  146.6991  133.8339  161.8131 C   0  0  0  0  0  0  0  0  0  0  0  0
  146.9675  135.0110  162.4113 C   0  0  0  0  0  0  0  0  0  0  0  0
  147.4578  136.1632  161.6513 C   0  0  0  0  0  0  0  0  0  0  0  0
  147.7082  137.2434  162.1866 O   0  0  0  0  0  0  0  0  0  0  0  0
  148.9969  136.7487  157.1783 N   0  0  0  0  0  0  0  0  0  0  0  0
  149.9204  136.3930  156.1063 C   0  0  0  0  0  0  0  0  0  0  0  0
  150.8673  137.5549  155.7520 C   0  0  2  0  0  0  0  0  0  0  0  0
  151.0033  138.6154  156.8270 C   0  0  0  0  0  0  0  0  0  0  0  0
  151.5580  139.7937  156.0332 C   0  0  0  0  0  0  0  0  0  0  0  0
  151.0044  139.6750  154.7259 O   0  0  0  0  0  0  0  0  0  0  0  0
  150.3998  138.3950  154.5636 C   0  0  0  0  0  0  0  0  0  0  0  0
  148.4708  137.8760  160.0349 H   0  0  0  0  0  0  0  0  0  0  0  0
  147.3018  137.4398  158.8332 H   0  0  0  0  0  0  0  0  0  0  0  0
  147.5566  134.6801  158.6436 H   0  0  0  0  0  0  0  0  0  0  0  0
  146.3353  133.0125  162.4128 H   0  0  0  0  0  0  0  0  0  0  0  0
  146.8164  135.1097  163.4763 H   0  0  0  0  0  0  0  0  0  0  0  0
  148.1137  137.1545  156.9037 H   0  0  0  0  0  0  0  0  0  0  0  0
  150.4960  135.5095  156.3880 H   0  0  0  0  0  0  0  0  0  0  0  0
  149.3310  136.1091  155.2340 H   0  0  0  0  0  0  0  0  0  0  0  0
  151.8601  137.1624  155.5245 H   0  0  0  0  0  0  0  0  0  0  0  0
  150.0259  138.8692  157.2400 H   0  0  0  0  0  0  0  0  0  0  0  0
  151.6544  138.3149  157.6485 H   0  0  0  0  0  0  0  0  0  0  0  0
  151.3123  140.7546  156.4858 H   0  0  0  0  0  0  0  0  0  0  0  0
  152.6437  139.7225  155.9569 H   0  0  0  0  0  0  0  0  0  0  0  0
  150.6681  137.9468  153.6066 H   0  0  0  0  0  0  0  0  0  0  0  0
  149.3169  138.5252  154.5825 H   0  0  0  0  0  0  0  0  0  0  0  0
  1  2  2  0  0  0  0
  2  3  1  0  0  0  0
  2 15  1  0  0  0  0
  3  4  1  0  0  0  0
  3 22  1  0  0  0  0
  3 23  1  0  0  0  0
  4 13  1  0  0  0  0
  4  5  1  0  0  0  0
  5  6  2  0  0  0  0
  5 24  1  0  0  0  0
  6  7  1  0  0  0  0
  6 11  1  0  0  0  0
  7  8  1  0  0  0  0
  7  9  1  0  0  0  0
  7 10  1  0  0  0  0
 11 12  2  0  0  0  0
 11 25  1  0  0  0  0
 12 13  1  0  0  0  0
 12 26  1  0  0  0  0
 13 14  2  0  0  0  0
 15 16  1  0  0  0  0
 15 27  1  0  0  0  0
 16 17  1  0  0  0  0
 16 28  1  0  0  0  0
 16 29  1  0  0  0  0
 17 21  1  0  0  0  0
 17 18  1  0  0  0  0
 17 30  1  0  0  0  0
 18 19  1  0  0  0  0
 18 31  1  0  0  0  0
 18 32  1  0  0  0  0
 19 20  1  0  0  0  0
 19 33  1  0  0  0  0
 19 34  1  0  0  0  0
 20 21  1  0  0  0  0
 21 35  1  0  0  0  0
 21 36  1  0  0  0  0
M  END
> <s_m_source_file>
AV-unprocessed.smi

> <i_m_source_file_index>
1175

> <i_lp_mmshare_version>
43012

> <i_f3d_flags>
0

> <s_epik_input>
W0NIMl0xT1tDSDJdW0NIMl1bQ0BIXTFbQ0gyXVtOSF1DKD1PKVtDSDJdbjJbY0hdYyhDKEYpKEYpRilbY0hdW2NIXWMyPU8=

> <s_epik_cmdline>
J2VwaWtfcHl0aG9uJywgJy1waCcsICc3LjAnLCAnLXRuJywgJzgnLCAnLW1hJywgJzIwMCcsICctbWV0YWxfYmluZGluZycsICctaW1hZScsICc8aW5maWxlLm1hZT4nLCAnLW9tYWUnLCAnPG91dGZpbGUubWFlPic=

> <r_lp_tautomer_probability>
1

> <r_epik_Ionization_Penalty>
3.67963e-08

> <r_epik_Ionization_Penalty_Charging>
1.809e-08

> <r_epik_Ionization_Penalty_Neutral>
1.87063e-08

> <r_epik_State_Penalty>
-0

> <r_epik_Charging_Adjusted_Penalty>
1.809e-08

> <i_epik_Tot_Q>
0

> <i_epik_Tot_abs_Q>
0

> <r_epik_Metal_State_Penalty>
-0

> <b_epik_Metal_Only>
0

> <s_lp_Force_Field>
OPLS_2005

> <r_lp_Energy>
30.0254

> <b_lp_Chiralities_Consistent>
1

> <s_lp_Variant>
AV-unprocessed.smi:1175-1

> <Gold.Version>
5.8.1

> <Gold.Id.Protein>
6NUR|6NUR_protein|mol2

> <Gold.PLP.Fitness>
43.0011

> <Gold.PLP.PLP>
-34.8418

> <Gold.PLP.part.hbond>
-3.7074

> <Gold.PLP.part.metal>
0.0000

> <Gold.PLP.part.buried>
-3.7764

> <Gold.PLP.part.nonpolar>
-27.3351

> <Gold.PLP.part.repulsive>
0.1464

> <Gold.PLP.ligand.clash>
0.0000

> <Gold.PLP.ligand.torsion>
0.9763

> <Gold.PLP.Chemscore.Hbond>
3.3555

> <Gold.PLP.Chemscore.CHOScore>
0.0000

> <Gold.PLP.Chemscore.Metal>
0.0000

> <Gold.Chemscore.Hbonds>
donor molecule, donor type, donor heavy atom, donor atom, acceptor molecule, acceptor atom, score
      P1  H  6896  6907       L1     1  1.00
      P1  H  6931  6943       L1    14  0.94
      P1  H  6934  6947       L1    14  0.28
      P1  H  7989  7998       L1    20  1.00

> <Gold.PLP.Chemscore.Internal.Correction>
0.0453

> <Gold.Rescore>
     Score         DG    S(hbond)    S(metal)    S(lipo)     H(rot)  DE(clash)    DE(int)     intcor
     17.51     -18.64       3.34        0.00      58.10       1.87       0.01       1.12       ----

> <Gold.Chemscore.Fitness>
17.5069

> <Gold.Chemscore.DG>
-18.6399

> <Gold.Chemscore.ZeroCoef>
-5.4800

> <Gold.Chemscore.Hbond>
3.3366

> <Gold.Chemscore.Metal>
0.0000

> <Gold.Chemscore.Lipo>
58.1028

> <Gold.Chemscore.Internal_Hbond>
0.0000

> <Gold.Chemscore.DEClash>
0.0089

> <Gold.Chemscore.DEInternal>
1.1242

> <Gold.Chemscore.Rot>
1.8681

> <Gold.Chemscore.Internal.Correction>
   9.000000E+99

> <Gold.Chemscore.Hbonds>
donor molecule, donor type, donor heavy atom, donor atom, acceptor molecule, acceptor atom, score
      P1  H  6896  6907       L1     1  0.95
      P1  H  6931  6943       L1    14  0.91
      P1  H  6934  6947       L1    14  0.25
      P1  H  7989  7998       L1    20  0.93

> <Gold.Chemscore.Hbond.Weighted>
-11.1441

> <Gold.Chemscore.Metal.Weighted>
-0.0000

> <Gold.Chemscore.Lipo.Weighted>
-6.7980

> <Gold.Chemscore.Internal_Hbond.Weighted>
0.0000

> <Gold.Chemscore.DEClash.Weighted>
0.0089

> <Gold.Chemscore.DEInternal.Weighted>
1.1242

> <Gold.Chemscore.Rot.Weighted>
4.7822

> <Gold.Chemscore.Internal.Correction.Weighted>
   9.000000E+99

> <Gold.Protein.RotatedTorsions>
[ 6907 6896 6895 6894 ] final  -35.95 input  -60.11 | X-H torsion
[ 7974 7965 7964 7962 ] final  122.43 input  175.53 | X-H torsion
[ 8008 7997 7996 7995 ] final  137.86 input   59.86 | X-H torsion
[ 10167 10162 10161 10158 ] final  100.59 input  -65.29 | X-H torsion
[ 10718 10713 10712 10709 ] final   11.06 input   66.30 | X-H torsion
[ 10763 10752 10751 10750 ] final  172.45 input  -60.55 | X-H torsion
[ 11005 11000 10999 10996 ] final -172.40 input  -57.11 | X-H torsion

> <Gold.Protein.ActiveResidues>
 VAL166  LYS551  ARG553  GLY616  TRP617  ASP618  TYR619  PRO620  LYS621  CYS622 
 ASP623  PHE694  ASN695  SER759  ASP760  ASP761  ALA762  ILE779  LEU786  VAL792 
 PHE793  MET794  SER795  GLU796  ALA797  LYS798  CYS799  TRP800  GLU811  SER814 

> <Gold.Protein.RotatedAtoms>
  151.0333  134.9555  159.8122 H   0  0  0  0  0  0  0  0  0  0  0  0  # atno 6907 bound_to 6896
  152.5350  134.2752  159.8996 H   0  0  0  0  0  0  0  0  0  0  0  0  # atno 6908 bound_to 6896
  151.2762  133.4189  159.2658 H   0  0  0  0  0  0  0  0  0  0  0  0  # atno 6909 bound_to 6896
  145.1077  139.3474  143.4779 H   0  0  0  0  0  0  0  0  0  0  0  0  # atno 7974 bound_to 7965
  156.3000  140.2408  156.3979 H   0  0  0  0  0  0  0  0  0  0  0  0  # atno 8008 bound_to 7997
  154.8554  140.0422  157.1651 H   0  0  0  0  0  0  0  0  0  0  0  0  # atno 8009 bound_to 7997
  154.8954  140.2969  155.5351 H   0  0  0  0  0  0  0  0  0  0  0  0  # atno 8010 bound_to 7997
  139.7513  144.6983  151.0428 H   0  0  0  0  0  0  0  0  0  0  0  0  # atno 10167 bound_to 10162
  156.9900  130.6039  149.5685 H   0  0  0  0  0  0  0  0  0  0  0  0  # atno 10718 bound_to 10713
  154.4262  135.2759  155.1942 H   0  0  0  0  0  0  0  0  0  0  0  0  # atno 10763 bound_to 10752
  154.3867  135.6075  153.5824 H   0  0  0  0  0  0  0  0  0  0  0  0  # atno 10764 bound_to 10752
  152.9834  135.5893  154.4566 H   0  0  0  0  0  0  0  0  0  0  0  0  # atno 10765 bound_to 10752
  140.4974  134.5927  157.4976 H   0  0  0  0  0  0  0  0  0  0  0  0  # atno 11005 bound_to 11000
  146.3527  140.0982  142.8609 LP  0  0  0  0  0  0  0  0  0  0  0  0  # atno 17320 bound_to 7965
  145.0883  140.9267  143.4784 LP  0  0  0  0  0  0  0  0  0  0  0  0  # atno 17321 bound_to 7965
  140.7798  143.4805  151.0024 LP  0  0  0  0  0  0  0  0  0  0  0  0  # atno 17342 bound_to 10162
  139.8493  143.7460  152.3178 LP  0  0  0  0  0  0  0  0  0  0  0  0  # atno 17343 bound_to 10162
  156.0211  130.5305  150.8277 LP  0  0  0  0  0  0  0  0  0  0  0  0  # atno 17370 bound_to 10713
  157.5465  131.0942  150.9755 LP  0  0  0  0  0  0  0  0  0  0  0  0  # atno 17371 bound_to 10713
  139.9733  134.7256  155.9998 LP  0  0  0  0  0  0  0  0  0  0  0  0  # atno 17394 bound_to 11000
  141.1453  133.6557  156.3850 LP  0  0  0  0  0  0  0  0  0  0  0  0  # atno 17395 bound_to 11000

$$$$
