AV-unprocessed.smi:190|AV-procd|sdf|1492|dock6
  -GOLD-   2262019313D 1   1.00000     0.00000
 Structure written by MMmdl.
 54 58  0  0  0  0  0  0  0  0  1 V2000
  148.9686  139.1575  153.2888 O   0  0  0  0  0  0  0  0  0  0  0  0
  148.8989  138.4841  154.5303 C   0  0  0  0  0  0  0  0  0  0  0  0
  150.2412  138.5391  155.3079 C   0  0  0  0  0  0  0  0  0  0  0  0
  150.2548  137.5064  156.4801 C   0  0  0  0  0  0  0  0  0  0  0  0
  149.1242  137.5950  157.3945 N   0  0  0  0  0  0  0  0  0  0  0  0
  148.3469  138.7051  157.6407 C   0  0  0  0  0  0  0  0  0  0  0  0
  147.3888  138.5351  158.5099 N   0  0  0  0  0  0  0  0  0  0  0  0
  147.5332  137.2157  158.9177 C   0  0  0  0  0  0  0  0  0  0  0  0
  146.8435  136.3857  159.8422 C   0  0  0  0  0  0  0  0  0  0  0  0
  145.7963  136.8352  160.5769 N   0  0  0  0  0  0  0  0  0  0  0  0
  144.4585  136.6138  160.0364 C   0  0  0  0  0  0  0  0  0  0  0  0
  143.4872  136.8029  161.2101 C   0  0  0  0  0  0  0  0  0  0  0  0
  144.3789  137.1556  162.4037 C   0  0  0  0  0  0  0  0  0  0  0  0
  145.7480  136.5797  162.0213 C   0  0  2  0  0  0  0  0  0  0  0  0
  146.9010  137.1769  162.8221 C   0  0  0  0  0  0  0  0  0  0  0  0
  147.9312  136.0480  162.9232 C   0  0  0  0  0  0  0  0  0  0  0  0
  147.2747  134.8573  162.4990 O   0  0  0  0  0  0  0  0  0  0  0  0
  145.8772  135.0907  162.3863 C   0  0  0  0  0  0  0  0  0  0  0  0
  147.2669  135.1007  159.9733 N   0  0  0  0  0  0  0  0  0  0  0  0
  148.3116  134.6629  159.2654 C   0  0  0  0  0  0  0  0  0  0  0  0
  149.0561  135.3271  158.3795 N   0  0  0  0  0  0  0  0  0  0  0  0
  148.6220  136.6108  158.2292 C   0  0  0  0  0  0  0  0  0  0  0  0
  151.3820  138.2730  154.2932 C   0  0  0  0  0  0  0  0  0  0  0  0
  152.7749  138.6043  154.8594 C   0  0  0  0  0  0  0  0  0  0  0  0
  152.8114  139.9584  155.2897 O   0  0  0  0  0  0  0  0  0  0  0  0
  151.8923  140.2245  156.3409 C   0  0  0  0  0  0  0  0  0  0  0  0
  150.4522  139.9728  155.8572 C   0  0  0  0  0  0  0  0  0  0  0  0
  148.8939  138.5186  152.5965 H   0  0  0  0  0  0  0  0  0  0  0  0
  148.0857  138.9113  155.1170 H   0  0  0  0  0  0  0  0  0  0  0  0
  148.6147  137.4502  154.3308 H   0  0  0  0  0  0  0  0  0  0  0  0
  150.2923  136.4855  156.1028 H   0  0  0  0  0  0  0  0  0  0  0  0
  151.1644  137.6240  157.0700 H   0  0  0  0  0  0  0  0  0  0  0  0
  148.5085  139.6515  157.1455 H   0  0  0  0  0  0  0  0  0  0  0  0
  144.2618  137.3407  159.2478 H   0  0  0  0  0  0  0  0  0  0  0  0
  144.3423  135.6174  159.6087 H   0  0  0  0  0  0  0  0  0  0  0  0
  142.7463  137.5783  161.0138 H   0  0  0  0  0  0  0  0  0  0  0  0
  142.9527  135.8712  161.4001 H   0  0  0  0  0  0  0  0  0  0  0  0
  144.4477  138.2414  162.4895 H   0  0  0  0  0  0  0  0  0  0  0  0
  143.9918  136.7764  163.3501 H   0  0  0  0  0  0  0  0  0  0  0  0
  147.3022  138.0966  162.3990 H   0  0  0  0  0  0  0  0  0  0  0  0
  146.5571  137.4183  163.8288 H   0  0  0  0  0  0  0  0  0  0  0  0
  148.7898  136.2319  162.2771 H   0  0  0  0  0  0  0  0  0  0  0  0
  148.2976  135.9381  163.9441 H   0  0  0  0  0  0  0  0  0  0  0  0
  145.4312  134.8947  163.3623 H   0  0  0  0  0  0  0  0  0  0  0  0
  145.4080  134.4153  161.6702 H   0  0  0  0  0  0  0  0  0  0  0  0
  148.5905  133.6332  159.4322 H   0  0  0  0  0  0  0  0  0  0  0  0
  151.3568  137.2440  153.9353 H   0  0  0  0  0  0  0  0  0  0  0  0
  151.2301  138.8923  153.4080 H   0  0  0  0  0  0  0  0  0  0  0  0
  153.0458  137.9438  155.6829 H   0  0  0  0  0  0  0  0  0  0  0  0
  153.5308  138.4642  154.0866 H   0  0  0  0  0  0  0  0  0  0  0  0
  152.1346  139.6213  157.2164 H   0  0  0  0  0  0  0  0  0  0  0  0
  152.0041  141.2660  156.6424 H   0  0  0  0  0  0  0  0  0  0  0  0
  150.2283  140.6997  155.0754 H   0  0  0  0  0  0  0  0  0  0  0  0
  149.7526  140.1793  156.6679 H   0  0  0  0  0  0  0  0  0  0  0  0
  1  2  1  0  0  0  0
  1 28  1  0  0  0  0
  2  3  1  0  0  0  0
  2 29  1  0  0  0  0
  2 30  1  0  0  0  0
  3 27  1  0  0  0  0
  3  4  1  0  0  0  0
  3 23  1  0  0  0  0
  4  5  1  0  0  0  0
  4 31  1  0  0  0  0
  4 32  1  0  0  0  0
  5 22  1  0  0  0  0
  5  6  1  0  0  0  0
  6  7  2  0  0  0  0
  6 33  1  0  0  0  0
  7  8  1  0  0  0  0
  8 22  2  0  0  0  0
  8  9  1  0  0  0  0
  9 10  1  0  0  0  0
  9 19  2  0  0  0  0
 10 14  1  0  0  0  0
 10 11  1  0  0  0  0
 11 12  1  0  0  0  0
 11 34  1  0  0  0  0
 11 35  1  0  0  0  0
 12 13  1  0  0  0  0
 12 36  1  0  0  0  0
 12 37  1  0  0  0  0
 13 14  1  0  0  0  0
 13 38  1  0  0  0  0
 13 39  1  0  0  0  0
 14 18  1  0  0  0  0
 14 15  1  0  0  0  0
 15 16  1  0  0  0  0
 15 40  1  0  0  0  0
 15 41  1  0  0  0  0
 16 17  1  0  0  0  0
 16 42  1  0  0  0  0
 16 43  1  0  0  0  0
 17 18  1  0  0  0  0
 18 44  1  0  0  0  0
 18 45  1  0  0  0  0
 19 20  1  0  0  0  0
 20 21  2  0  0  0  0
 20 46  1  0  0  0  0
 21 22  1  0  0  0  0
 23 24  1  0  0  0  0
 23 47  1  0  0  0  0
 23 48  1  0  0  0  0
 24 25  1  0  0  0  0
 24 49  1  0  0  0  0
 24 50  1  0  0  0  0
 25 26  1  0  0  0  0
 26 27  1  0  0  0  0
 26 51  1  0  0  0  0
 26 52  1  0  0  0  0
 27 53  1  0  0  0  0
 27 54  1  0  0  0  0
M  END
> <s_m_source_file>
AV-unprocessed.smi

> <i_m_source_file_index>
190

> <i_lp_mmshare_version>
43012

> <i_f3d_flags>
0

> <s_epik_input>
W0NIMl0xW0NIMl1PW0NIMl1bQ0gyXUMxKFtDSDJdW09IXSlbQ0gyXW4oW2NIXW4yKWMoYzIzKW5bY0hdbmMzTihbQ0gyXVtDSDJdW0NIMl00KVtDQF00NVtDSDJdW0NIMl1PW0NIMl01

> <s_epik_cmdline>
J2VwaWtfcHl0aG9uJywgJy1waCcsICc3LjAnLCAnLXRuJywgJzgnLCAnLW1hJywgJzIwMCcsICctbWV0YWxfYmluZGluZycsICctaW1hZScsICc8aW5maWxlLm1hZT4nLCAnLW9tYWUnLCAnPG91dGZpbGUubWFlPic=

> <r_lp_tautomer_probability>
1

> <r_epik_Ionization_Penalty>
0.00423054

> <r_epik_Ionization_Penalty_Charging>
0

> <r_epik_Ionization_Penalty_Neutral>
0.00423054

> <r_epik_State_Penalty>
0.00298851

> <r_epik_Charging_Adjusted_Penalty>
0.00298851

> <i_epik_Tot_Q>
0

> <i_epik_Tot_abs_Q>
0

> <r_epik_Metal_State_Penalty>
-0

> <b_epik_Metal_Only>
0

> <s_lp_Force_Field>
OPLS_2005

> <r_lp_Energy>
69.5451

> <b_lp_Chiralities_Consistent>
1

> <s_lp_Variant>
AV-unprocessed.smi:190-2

> <Gold.Version>
5.8.1

> <Gold.Id.Protein>
6NUR|6NUR_protein|mol2

> <Gold.PLP.Fitness>
45.3576

> <Gold.PLP.PLP>
-39.4770

> <Gold.PLP.part.hbond>
-5.7122

> <Gold.PLP.part.metal>
0.0000

> <Gold.PLP.part.buried>
-6.3606

> <Gold.PLP.part.nonpolar>
-27.7155

> <Gold.PLP.part.repulsive>
0.0136

> <Gold.PLP.ligand.clash>
0.0000

> <Gold.PLP.ligand.torsion>
1.0253

> <Gold.PLP.Chemscore.Hbond>
2.5727

> <Gold.PLP.Chemscore.CHOScore>
0.0000

> <Gold.PLP.Chemscore.Metal>
0.0000

> <Gold.Chemscore.Hbonds>
donor molecule, donor type, donor heavy atom, donor atom, acceptor molecule, acceptor atom, score
      L1  H     1    28       P1  7948  0.16
      P1  H  6896  6909       L1    21  0.03
      P1  H  7989  7998       L1    25  0.14
      P1  H  7997  8010       L1    25  1.00

> <Gold.PLP.Chemscore.Internal.Correction>
0.2133

> <Gold.Rescore>
     Score         DG    S(hbond)    S(metal)    S(lipo)     H(rot)  DE(clash)    DE(int)     intcor
     10.33     -15.41       1.84        0.00      84.22       2.37       0.00       5.07       ----

> <Gold.Chemscore.Fitness>
10.3346

> <Gold.Chemscore.DG>
-15.4095

> <Gold.Chemscore.ZeroCoef>
-5.4800

> <Gold.Chemscore.Hbond>
1.8368

> <Gold.Chemscore.Metal>
0.0000

> <Gold.Chemscore.Lipo>
84.2165

> <Gold.Chemscore.Internal_Hbond>
0.0000

> <Gold.Chemscore.DEClash>
0.0047

> <Gold.Chemscore.DEInternal>
5.0703

> <Gold.Chemscore.Rot>
2.3666

> <Gold.Chemscore.Internal.Correction>
   9.000000E+99

> <Gold.Chemscore.Hbonds>
donor molecule, donor type, donor heavy atom, donor atom, acceptor molecule, acceptor atom, score
      L1  H     1    28       P1  7948  0.17
      P1  H  7989  7998       L1    25  0.01
      P1  H  7997  8010       L1    25  0.33

> <Gold.Chemscore.Hbond.Weighted>
-6.1348

> <Gold.Chemscore.Metal.Weighted>
-0.0000

> <Gold.Chemscore.Lipo.Weighted>
-9.8533

> <Gold.Chemscore.Internal_Hbond.Weighted>
0.0000

> <Gold.Chemscore.DEClash.Weighted>
0.0047

> <Gold.Chemscore.DEInternal.Weighted>
5.0703

> <Gold.Chemscore.Rot.Weighted>
6.0586

> <Gold.Chemscore.Internal.Correction.Weighted>
   9.000000E+99

> <Gold.Protein.RotatedTorsions>
[ 6907 6896 6895 6894 ] final   29.39 input  -60.11 | X-H torsion
[ 7974 7965 7964 7962 ] final  122.62 input  175.53 | X-H torsion
[ 8008 7997 7996 7995 ] final  103.73 input   59.86 | X-H torsion
[ 10167 10162 10161 10158 ] final -110.25 input  -65.29 | X-H torsion
[ 10718 10713 10712 10709 ] final  157.11 input   66.30 | X-H torsion
[ 10763 10752 10751 10750 ] final -100.22 input  -60.55 | X-H torsion
[ 11005 11000 10999 10996 ] final -157.39 input  -57.11 | X-H torsion

> <Gold.Protein.ActiveResidues>
 VAL166  LYS551  ARG553  GLY616  TRP617  ASP618  TYR619  PRO620  LYS621  CYS622 
 ASP623  PHE694  ASN695  SER759  ASP760  ASP761  ALA762  ILE779  LEU786  VAL792 
 PHE793  MET794  SER795  GLU796  ALA797  LYS798  CYS799  TRP800  GLU811  SER814 

> <Gold.Protein.RotatedAtoms>
  152.0308  134.9769  160.0572 H   0  0  0  0  0  0  0  0  0  0  0  0  # atno 6907 bound_to 6896
  152.1246  133.4368  159.4700 H   0  0  0  0  0  0  0  0  0  0  0  0  # atno 6908 bound_to 6896
  150.6851  134.2412  159.4516 H   0  0  0  0  0  0  0  0  0  0  0  0  # atno 6909 bound_to 6896
  145.1054  139.3489  143.4790 H   0  0  0  0  0  0  0  0  0  0  0  0  # atno 7974 bound_to 7965
  156.1510  140.3160  155.8648 H   0  0  0  0  0  0  0  0  0  0  0  0  # atno 8008 bound_to 7997
  155.3970  140.0497  157.3055 H   0  0  0  0  0  0  0  0  0  0  0  0  # atno 8009 bound_to 7997
  154.5059  140.2146  155.9264 H   0  0  0  0  0  0  0  0  0  0  0  0  # atno 8010 bound_to 7997
  140.1465  143.4234  152.1525 H   0  0  0  0  0  0  0  0  0  0  0  0  # atno 10167 bound_to 10162
  157.1959  131.0665  151.2053 H   0  0  0  0  0  0  0  0  0  0  0  0  # atno 10718 bound_to 10713
  154.7562  135.4943  153.9378 H   0  0  0  0  0  0  0  0  0  0  0  0  # atno 10763 bound_to 10752
  153.1198  135.6729  153.9363 H   0  0  0  0  0  0  0  0  0  0  0  0  # atno 10764 bound_to 10752
  153.9098  135.3100  155.3427 H   0  0  0  0  0  0  0  0  0  0  0  0  # atno 10765 bound_to 10752
  140.6652  134.4307  157.5233 H   0  0  0  0  0  0  0  0  0  0  0  0  # atno 11005 bound_to 11000
  146.3528  140.0949  142.8611 LP  0  0  0  0  0  0  0  0  0  0  0  0  # atno 17320 bound_to 7965
  145.0908  140.9283  143.4770 LP  0  0  0  0  0  0  0  0  0  0  0  0  # atno 17321 bound_to 7965
  139.5446  144.7287  151.4624 LP  0  0  0  0  0  0  0  0  0  0  0  0  # atno 17342 bound_to 10162
  140.6728  143.8255  150.7021 LP  0  0  0  0  0  0  0  0  0  0  0  0  # atno 17343 bound_to 10162
  157.3815  130.7233  149.6633 LP  0  0  0  0  0  0  0  0  0  0  0  0  # atno 17370 bound_to 10713
  155.9706  130.4171  150.4264 LP  0  0  0  0  0  0  0  0  0  0  0  0  # atno 17371 bound_to 10713
  139.9000  134.8579  156.1938 LP  0  0  0  0  0  0  0  0  0  0  0  0  # atno 17394 bound_to 11000
  141.0435  133.6925  156.1640 LP  0  0  0  0  0  0  0  0  0  0  0  0  # atno 17395 bound_to 11000

$$$$
