#       Name:                AV-unprocessed.smi:3303
#       Creating user name   scv26
#       Creation time:       Fri Mar 27 18:59:54 2020


#       File generated by GOLD software.
#

@<TRIPOS>MOLECULE
AV-unprocessed.smi:3303
    46    47     1
SMALL
NO_CHARGES


@<TRIPOS>ATOM
      1 ****        -0.4409  -2.1710  -2.5023 C.3            1 S1                 0.0000
      2 ****        -0.9592  -0.7482  -2.2036 C.3            1 S1                 0.0000
      3 ****        -2.4960  -0.6819  -2.3282 C.3            1 S1                 0.0000
      4 ****        -3.1635  -1.3955  -1.2083 N.4            1 S1                 1.0000
      5 ****        -4.6227  -1.5456  -1.4104 C.3            1 S1                 0.0000
      6 ****        -2.7807  -0.8818   0.1392 C.3            1 S1                 0.0000
      7 ****        -3.3731   0.5076   0.4616 C.3            1 S1                 0.0000
      8 ****        -1.2464  -0.9173   0.3131 C.3            1 S1                 0.0000
      9 ****        -0.5136  -0.1852  -0.8329 C.3            1 S1                 0.0000
     10 ****         0.9612  -0.2316  -0.6894 N.4            1 S1                 1.0000
     11 ****         1.5193   0.5765   0.4154 C.3            1 S1                 0.0000
     12 ****         3.0536   0.5738   0.3776 C.3            1 S1                 0.0000
     13 ****         3.6540   1.3953   1.5025 C.ar           1 S1                 0.0000
     14 ****         4.2073   0.7685   2.6394 C.ar           1 S1                 0.0000
     15 ****         4.7477   1.5804   3.6559 C.ar           1 S1                 0.0000
     16 ****         4.7118   2.9791   3.4976 C.ar           1 S1                 0.0000
     17 ****         4.1351   3.5069   2.3252 C.ar           1 S1                 0.0000
     18 ****         3.6146   2.7374   1.3445 N.ar           1 S1                 0.0000
     19 ****        -0.8098  -2.9021  -1.7831 H              1 S1                 0.0000
     20 ****         0.6481  -2.2148  -2.4917 H              1 S1                 0.0000
     21 ****        -0.7616  -2.4999  -3.4913 H              1 S1                 0.0000
     22 ****        -0.5450  -0.0994  -2.9769 H              1 S1                 0.0000
     23 ****        -2.8288   0.3562  -2.3552 H              1 S1                 0.0000
     24 ****        -2.8057  -1.1229  -3.2768 H              1 S1                 0.0000
     25 ****        -5.1176  -0.5780  -1.4990 H              1 S1                 0.0000
     26 ****        -5.0751  -2.0919  -0.5821 H              1 S1                 0.0000
     27 ****        -4.8220  -2.1072  -2.3237 H              1 S1                 0.0000
     28 ****        -3.1967  -1.5767   0.8704 H              1 S1                 0.0000
     29 ****        -3.0609   0.8377   1.4527 H              1 S1                 0.0000
     30 ****        -4.4629   0.4911   0.4669 H              1 S1                 0.0000
     31 ****        -3.0570   1.2721  -0.2472 H              1 S1                 0.0000
     32 ****        -0.9889  -0.4807   1.2780 H              1 S1                 0.0000
     33 ****        -0.9121  -1.9542   0.3600 H              1 S1                 0.0000
     34 ****        -0.7967   0.8681  -0.8085 H              1 S1                 0.0000
     35 ****         1.2523  -1.1922  -0.5759 H              1 S1                 0.0000
     36 ****         1.1490   1.5996   0.3359 H              1 S1                 0.0000
     37 ****         1.1789   0.1817   1.3726 H              1 S1                 0.0000
     38 ****         3.4273  -0.4493   0.4409 H              1 S1                 0.0000
     39 ****         3.4065   0.9709  -0.5753 H              1 S1                 0.0000
     40 ****         4.2206  -0.3075   2.7337 H              1 S1                 0.0000
     41 ****         5.1812   1.1385   4.5408 H              1 S1                 0.0000
     42 ****         5.1162   3.6322   4.2567 H              1 S1                 0.0000
     43 ****         4.0903   4.5749   2.1714 H              1 S1                 0.0000
     44 ****         1.3610   0.1222  -1.5471 H              1 S1                 0.0000
     45 ****        -2.8004  -2.3376  -1.2415 H              1 S1                 0.0000
     46 ****         3.2123   3.1481   0.5263 LP             1 S1                 0.0000
@<TRIPOS>BOND
    1    1    2 1     
    2    1   19 1     
    3    1   20 1     
    4    1   21 1     
    5    2    9 1     
    6    2    3 1     
    7    2   22 1     
    8    3    4 1     
    9    3   23 1     
   10    3   24 1     
   11    4    5 1     
   12    4    6 1     
   13    4   45 1     
   14    5   25 1     
   15    5   26 1     
   16    5   27 1     
   17    6    7 1     
   18    6    8 1     
   19    6   28 1     
   20    7   29 1     
   21    7   30 1     
   22    7   31 1     
   23    8    9 1     
   24    8   32 1     
   25    8   33 1     
   26    9   10 1     
   27    9   34 1     
   28   10   11 1     
   29   10   35 1     
   30   10   44 1     
   31   11   12 1     
   32   11   36 1     
   33   11   37 1     
   34   12   13 1     
   35   12   38 1     
   36   12   39 1     
   37   13   18 ar    
   38   13   14 ar    
   39   14   15 ar    
   40   14   40 1     
   41   15   16 ar    
   42   15   41 1     
   43   16   17 ar    
   44   16   42 1     
   45   17   18 ar    
   46   17   43 1     
   47   18   46 1     
@<TRIPOS>SUBSTRUCTURE
      1 S1             1
@<TRIPOS>SET
LONE_PAIRS      STATIC     ATOMS    <user>   **** ""
1 46
DONOR_HYDROGENS      STATIC     ATOMS    <user>   **** ""
3 45 35 44
ATOM$BLUE        STATIC     ATOMS    COLORGROUP SYSTEM
1 46
ATOM$RED        STATIC     ATOMS    COLORGROUP SYSTEM
3 45 35 44
