AV-unprocessed.smi:613|AV-procd|sdf|3067|dock1
  -GOLD-   2262023593D 1   1.00000     0.00000
 Structure written by MMmdl.
 39 40  0  0  0  0  0  0  0  0  2 V2000
  150.3813  139.9989  156.7741 C   0  0  0  0  0  0  0  0  0  0  0  0
  150.1409  141.2116  156.0016 N   0  0  0  0  0  0  0  0  0  0  0  0
  151.0999  142.3139  156.1092 C   0  0  0  0  0  0  0  0  0  0  0  0
  151.0208  143.0607  157.4558 C   0  0  1  0  0  0  0  0  0  0  0  0
  151.7268  142.3196  158.6117 C   0  0  0  0  0  0  0  0  0  0  0  0
  151.7403  143.1002  159.8514 N   0  0  0  0  0  0  0  0  0  0  0  0
  152.4111  142.4245  160.9710 C   0  0  0  0  0  0  0  0  0  0  0  0
  152.1900  143.0887  162.3351 C   0  0  0  0  0  0  0  0  0  0  0  0
  151.2881  144.0714  162.3914 N   0  0  0  0  0  0  0  0  0  0  0  0
  152.8186  142.7131  163.3227 O   0  0  0  0  0  0  0  0  0  0  0  0
  152.3217  144.4144  159.5954 C   0  0  0  0  0  0  0  0  0  0  0  0
  151.6095  145.1417  158.4435 C   0  0  0  0  0  0  0  0  0  0  0  0
  151.6445  144.3288  157.2752 O   0  0  0  0  0  0  0  0  0  0  0  0
  149.1923  141.1765  154.9519 C   0  0  0  0  0  0  0  0  0  0  0  0
  148.8284  139.9820  154.2826 C   0  0  0  0  0  0  0  0  0  0  0  0
  147.8893  140.0477  153.2395 C   0  0  0  0  0  0  0  0  0  0  0  0
  147.3584  141.3081  152.9200 C   0  0  0  0  0  0  0  0  0  0  0  0
  147.7048  142.4402  153.5691 N   0  0  0  0  0  0  0  0  0  0  0  0
  148.6045  142.3413  154.5624 N   0  3  0  0  0  0  0  0  0  0  0  0
  149.4753  139.6881  157.2950 H   0  0  0  0  0  0  0  0  0  0  0  0
  151.1553  140.1614  157.5248 H   0  0  0  0  0  0  0  0  0  0  0  0
  150.7112  139.1867  156.1258 H   0  0  0  0  0  0  0  0  0  0  0  0
  152.1208  141.9851  155.9155 H   0  0  0  0  0  0  0  0  0  0  0  0
  150.8736  143.0174  155.3073 H   0  0  0  0  0  0  0  0  0  0  0  0
  149.9737  143.2289  157.7140 H   0  0  0  0  0  0  0  0  0  0  0  0
  151.2131  141.3725  158.7703 H   0  0  0  0  0  0  0  0  0  0  0  0
  152.7500  142.0766  158.3195 H   0  0  0  0  0  0  0  0  0  0  0  0
  152.0787  141.3868  161.0332 H   0  0  0  0  0  0  0  0  0  0  0  0
  153.4862  142.3858  160.7875 H   0  0  0  0  0  0  0  0  0  0  0  0
  151.1023  144.5345  163.2692 H   0  0  0  0  0  0  0  0  0  0  0  0
  150.7893  144.3434  161.5567 H   0  0  0  0  0  0  0  0  0  0  0  0
  152.2650  145.0287  160.4951 H   0  0  0  0  0  0  0  0  0  0  0  0
  153.3816  144.3135  159.3550 H   0  0  0  0  0  0  0  0  0  0  0  0
  150.5757  145.3684  158.7081 H   0  0  0  0  0  0  0  0  0  0  0  0
  152.1022  146.0910  158.2320 H   0  0  0  0  0  0  0  0  0  0  0  0
  149.2535  139.0250  154.5450 H   0  0  0  0  0  0  0  0  0  0  0  0
  147.5877  139.1622  152.6998 H   0  0  0  0  0  0  0  0  0  0  0  0
  146.6348  141.4129  152.1251 H   0  0  0  0  0  0  0  0  0  0  0  0
  148.8707  143.1951  155.0528 H   0  0  0  0  0  0  0  0  0  0  0  0
  1  2  1  0  0  0  0
  1 20  1  0  0  0  0
  1 21  1  0  0  0  0
  1 22  1  0  0  0  0
  2  3  1  0  0  0  0
  2 14  1  0  0  0  0
  3  4  1  0  0  0  0
  3 23  1  0  0  0  0
  3 24  1  0  0  0  0
  4 13  1  0  0  0  0
  4  5  1  0  0  0  0
  4 25  1  0  0  0  0
  5  6  1  0  0  0  0
  5 26  1  0  0  0  0
  5 27  1  0  0  0  0
  6  7  1  0  0  0  0
  6 11  1  0  0  0  0
  7  8  1  0  0  0  0
  7 28  1  0  0  0  0
  7 29  1  0  0  0  0
  8  9  1  0  0  0  0
  8 10  2  0  0  0  0
  9 30  1  0  0  0  0
  9 31  1  0  0  0  0
 11 12  1  0  0  0  0
 11 32  1  0  0  0  0
 11 33  1  0  0  0  0
 12 13  1  0  0  0  0
 12 34  1  0  0  0  0
 12 35  1  0  0  0  0
 14 19  1  0  0  0  0
 14 15  2  0  0  0  0
 15 16  1  0  0  0  0
 15 36  1  0  0  0  0
 16 17  2  0  0  0  0
 16 37  1  0  0  0  0
 17 18  1  0  0  0  0
 17 38  1  0  0  0  0
 18 19  2  0  0  0  0
 19 39  1  0  0  0  0
M  CHG  1  19   1
M  END
> <s_m_source_file>
AV-unprocessed.smi

> <i_m_source_file_index>
613

> <i_lp_mmshare_version>
43012

> <i_f3d_flags>
0

> <s_epik_input>
bjFuW2NIXVtjSF1bY0hdYzFOKFtDSDNdKVtDSDJdW0NAQEhdMltDSDJdTihbQ0gyXVtDSDJdTzIpW0NIMl1DKD1PKVtOSDJd

> <s_epik_cmdline>
J2VwaWtfcHl0aG9uJywgJy1waCcsICc3LjAnLCAnLXRuJywgJzgnLCAnLW1hJywgJzIwMCcsICctbWV0YWxfYmluZGluZycsICctaW1hZScsICc8aW5maWxlLm1hZT4nLCAnLW9tYWUnLCAnPG91dGZpbGUubWFlPic=

> <r_lp_tautomer_probability>
0.966961

> <r_epik_Ionization_Penalty>
1.86301

> <r_epik_Ionization_Penalty_Charging>
1.86058

> <r_epik_Ionization_Penalty_Neutral>
0.00243207

> <r_epik_State_Penalty>
1.48112

> <r_epik_Charging_Adjusted_Penalty>
3.3417

> <i_epik_Tot_Q>
1

> <i_epik_Tot_abs_Q>
1

> <r_epik_Metal_State_Penalty>
1.50193

> <b_epik_Metal_Only>
0

> <s_lp_Force_Field>
OPLS_2005

> <r_lp_Energy>
27.4635

> <b_lp_Chiralities_Consistent>
1

> <s_lp_Variant>
AV-unprocessed.smi:613-4

> <Gold.Version>
5.8.1

> <Gold.Id.Protein>
6NUR|6NUR_protein|mol2

> <Gold.PLP.Fitness>
48.1427

> <Gold.PLP.PLP>
-40.4368

> <Gold.PLP.part.hbond>
-2.9572

> <Gold.PLP.part.metal>
0.0000

> <Gold.PLP.part.buried>
-8.6572

> <Gold.PLP.part.nonpolar>
-29.4194

> <Gold.PLP.part.repulsive>
0.7415

> <Gold.PLP.ligand.clash>
0.0000

> <Gold.PLP.ligand.torsion>
0.7846

> <Gold.PLP.Chemscore.Hbond>
2.0000

> <Gold.PLP.Chemscore.CHOScore>
1.0000

> <Gold.PLP.Chemscore.Metal>
0.0000

> <Gold.Chemscore.Hbonds>
donor molecule, donor type, donor heavy atom, donor atom, acceptor molecule, acceptor atom, score
      L1  H    19    39       P1  8028  2.00

> <Gold.PLP.Chemscore.Internal.Correction>
0.2752

> <Gold.Rescore>
     Score         DG    S(hbond)    S(metal)    S(lipo)     H(rot)  DE(clash)    DE(int)     intcor
     11.38     -13.17       1.00        0.00      86.21       2.23       0.63       1.16       ----

> <Gold.Chemscore.Fitness>
11.3765

> <Gold.Chemscore.DG>
-13.1703

> <Gold.Chemscore.ZeroCoef>
-5.4800

> <Gold.Chemscore.Hbond>
0.9955

> <Gold.Chemscore.Metal>
0.0000

> <Gold.Chemscore.Lipo>
86.2087

> <Gold.Chemscore.Internal_Hbond>
0.0000

> <Gold.Chemscore.DEClash>
0.6332

> <Gold.Chemscore.DEInternal>
1.1606

> <Gold.Chemscore.Rot>
2.2348

> <Gold.Chemscore.Internal.Correction>
   9.000000E+99

> <Gold.Chemscore.Hbonds>
donor molecule, donor type, donor heavy atom, donor atom, acceptor molecule, acceptor atom, score
      L1  H    19    39       P1  8028  0.99

> <Gold.Chemscore.Hbond.Weighted>
-3.3249

> <Gold.Chemscore.Metal.Weighted>
-0.0000

> <Gold.Chemscore.Lipo.Weighted>
-10.0864

> <Gold.Chemscore.Internal_Hbond.Weighted>
0.0000

> <Gold.Chemscore.DEClash.Weighted>
0.6332

> <Gold.Chemscore.DEInternal.Weighted>
1.1606

> <Gold.Chemscore.Rot.Weighted>
5.7211

> <Gold.Chemscore.Internal.Correction.Weighted>
   9.000000E+99

> <Gold.Protein.RotatedTorsions>
[ 6907 6896 6895 6894 ] final -177.69 input  -60.11 | X-H torsion
[ 7974 7965 7964 7962 ] final  123.83 input  175.53 | X-H torsion
[ 8008 7997 7996 7995 ] final -115.12 input   59.86 | X-H torsion
[ 10167 10162 10161 10158 ] final  -13.42 input  -65.29 | X-H torsion
[ 10718 10713 10712 10709 ] final   39.31 input   66.30 | X-H torsion
[ 10763 10752 10751 10750 ] final  -13.80 input  -60.55 | X-H torsion
[ 11005 11000 10999 10996 ] final  167.81 input  -57.11 | X-H torsion

> <Gold.Protein.ActiveResidues>
 VAL166  LYS551  ARG553  GLY616  TRP617  ASP618  TYR619  PRO620  LYS621  CYS622 
 ASP623  PHE694  ASN695  SER759  ASP760  ASP761  ALA762  ILE779  LEU786  VAL792 
 PHE793  MET794  SER795  GLU796  ALA797  LYS798  CYS799  TRP800  GLU811  SER814 

> <Gold.Protein.RotatedAtoms>
  151.6251  133.3336  159.3096 H   0  0  0  0  0  0  0  0  0  0  0  0  # atno 6907 bound_to 6896
  150.8085  134.7230  159.6678 H   0  0  0  0  0  0  0  0  0  0  0  0  # atno 6908 bound_to 6896
  152.4182  134.6009  160.0051 H   0  0  0  0  0  0  0  0  0  0  0  0  # atno 6909 bound_to 6896
  145.0914  139.3584  143.4859 H   0  0  0  0  0  0  0  0  0  0  0  0  # atno 7974 bound_to 7965
  155.0470  140.0392  157.2530 H   0  0  0  0  0  0  0  0  0  0  0  0  # atno 8008 bound_to 7997
  154.7169  140.2704  155.6553 H   0  0  0  0  0  0  0  0  0  0  0  0  # atno 8009 bound_to 7997
  156.2805  140.2710  156.1828 H   0  0  0  0  0  0  0  0  0  0  0  0  # atno 8010 bound_to 7997
  140.7182  143.5428  150.9389 H   0  0  0  0  0  0  0  0  0  0  0  0  # atno 10167 bound_to 10162
  157.3691  130.7691  149.7105 H   0  0  0  0  0  0  0  0  0  0  0  0  # atno 10718 bound_to 10713
  153.5188  135.7016  153.5742 H   0  0  0  0  0  0  0  0  0  0  0  0  # atno 10763 bound_to 10752
  153.3800  135.3922  155.1850 H   0  0  0  0  0  0  0  0  0  0  0  0  # atno 10764 bound_to 10752
  154.8696  135.3833  154.4675 H   0  0  0  0  0  0  0  0  0  0  0  0  # atno 10765 bound_to 10752
  140.2807  134.7752  157.3756 H   0  0  0  0  0  0  0  0  0  0  0  0  # atno 11005 bound_to 11000
  146.3531  140.0749  142.8621 LP  0  0  0  0  0  0  0  0  0  0  0  0  # atno 17320 bound_to 7965
  145.1062  140.9377  143.4683 LP  0  0  0  0  0  0  0  0  0  0  0  0  # atno 17321 bound_to 7965
  139.9151  143.6673  152.3108 LP  0  0  0  0  0  0  0  0  0  0  0  0  # atno 17342 bound_to 10162
  139.7070  144.7626  151.1176 LP  0  0  0  0  0  0  0  0  0  0  0  0  # atno 17343 bound_to 10162
  155.9752  130.4092  150.3868 LP  0  0  0  0  0  0  0  0  0  0  0  0  # atno 17370 bound_to 10713
  157.1956  131.0426  151.2677 LP  0  0  0  0  0  0  0  0  0  0  0  0  # atno 17371 bound_to 10713
  140.1286  134.5125  155.8124 LP  0  0  0  0  0  0  0  0  0  0  0  0  # atno 17394 bound_to 11000
  141.2163  133.6781  156.6998 LP  0  0  0  0  0  0  0  0  0  0  0  0  # atno 17395 bound_to 11000

$$$$
