AV-unprocessed.smi:2699|AV-procd|sdf|10424|dock4
  -GOLD-   2272014463D 1   1.00000     0.00000
 Structure written by MMmdl.
 43 45  0  0  0  0  0  0  0  0  1 V2000
  145.8305  135.6496  150.9987 C   0  0  0  0  0  0  0  0  0  0  0  0
  145.3748  134.1988  150.9017 C   0  0  0  0  0  0  0  0  0  0  0  0
  144.3372  133.8482  150.1199 C   0  0  0  0  0  0  0  0  0  0  0  0
  143.9505  132.4624  150.0210 C   0  0  0  0  0  0  0  0  0  0  0  0
  142.9134  132.1076  149.2525 O   0  0  0  0  0  0  0  0  0  0  0  0
  144.6423  131.5285  150.6990 C   0  0  0  0  0  0  0  0  0  0  0  0
  145.7813  131.8753  151.5520 C   0  0  0  0  0  0  0  0  0  0  0  0
  146.4151  131.0090  152.1567 O   0  0  0  0  0  0  0  0  0  0  0  0
  146.0919  133.2095  151.6377 N   0  0  0  0  0  0  0  0  0  0  0  0
  147.2074  133.6153  152.5251 C   0  0  0  0  0  0  0  0  0  0  0  0
  146.7783  134.5654  153.6616 C   0  0  0  0  0  0  0  0  0  0  0  0
  145.9393  134.2117  154.4887 O   0  0  0  0  0  0  0  0  0  0  0  0
  147.3432  135.7804  153.7344 N   0  0  0  0  0  0  0  0  0  0  0  0
  147.0654  136.8084  154.7330 C   0  0  0  0  0  0  0  0  0  0  0  0
  148.3532  137.4817  155.2448 C   0  0  0  0  0  0  0  0  0  0  0  0
  148.8571  138.4132  154.1374 C   0  0  0  0  0  0  0  0  0  0  0  0
  149.8245  139.5334  154.4263 C   0  0  0  0  0  0  0  0  0  0  0  0
  148.4159  139.8472  153.9577 C   0  0  0  0  0  0  0  0  0  0  0  0
  148.2669  138.1123  156.6523 C   0  0  0  0  0  0  0  0  0  0  0  0
  148.7637  136.7988  157.2536 C   0  0  0  0  0  0  0  0  0  0  0  0
  149.3606  136.4916  155.8811 C   0  0  0  0  0  0  0  0  0  0  0  0
  145.3834  136.2468  150.2038 H   0  0  0  0  0  0  0  0  0  0  0  0
  146.9108  135.7468  150.8937 H   0  0  0  0  0  0  0  0  0  0  0  0
  145.5233  136.0846  151.9500 H   0  0  0  0  0  0  0  0  0  0  0  0
  143.8013  134.5978  149.5554 H   0  0  0  0  0  0  0  0  0  0  0  0
  142.8233  132.7620  148.5767 H   0  0  0  0  0  0  0  0  0  0  0  0
  144.3524  130.4905  150.6188 H   0  0  0  0  0  0  0  0  0  0  0  0
  147.7155  132.7505  152.9483 H   0  0  0  0  0  0  0  0  0  0  0  0
  147.9894  134.1055  151.9431 H   0  0  0  0  0  0  0  0  0  0  0  0
  148.0289  136.0143  153.0310 H   0  0  0  0  0  0  0  0  0  0  0  0
  146.3953  137.5474  154.2915 H   0  0  0  0  0  0  0  0  0  0  0  0
  146.5216  136.3621  155.5668 H   0  0  0  0  0  0  0  0  0  0  0  0
  149.0111  137.8967  153.1917 H   0  0  0  0  0  0  0  0  0  0  0  0
  150.0653  139.7424  155.4667 H   0  0  0  0  0  0  0  0  0  0  0  0
  150.6380  139.6861  153.7203 H   0  0  0  0  0  0  0  0  0  0  0  0
  148.2995  140.2066  152.9374 H   0  0  0  0  0  0  0  0  0  0  0  0
  147.7296  140.2868  154.6761 H   0  0  0  0  0  0  0  0  0  0  0  0
  148.9772  138.9283  156.7961 H   0  0  0  0  0  0  0  0  0  0  0  0
  147.2656  138.4034  156.9711 H   0  0  0  0  0  0  0  0  0  0  0  0
  149.4940  136.9108  158.0553 H   0  0  0  0  0  0  0  0  0  0  0  0
  147.9541  136.1226  157.5317 H   0  0  0  0  0  0  0  0  0  0  0  0
  149.2432  135.4548  155.5642 H   0  0  0  0  0  0  0  0  0  0  0  0
  150.4048  136.7952  155.8216 H   0  0  0  0  0  0  0  0  0  0  0  0
  1  2  1  0  0  0  0
  1 22  1  0  0  0  0
  1 23  1  0  0  0  0
  1 24  1  0  0  0  0
  2  9  1  0  0  0  0
  2  3  2  0  0  0  0
  3  4  1  0  0  0  0
  3 25  1  0  0  0  0
  4  5  1  0  0  0  0
  4  6  2  0  0  0  0
  5 26  1  0  0  0  0
  6  7  1  0  0  0  0
  6 27  1  0  0  0  0
  7  8  2  0  0  0  0
  7  9  1  0  0  0  0
  9 10  1  0  0  0  0
 10 11  1  0  0  0  0
 10 28  1  0  0  0  0
 10 29  1  0  0  0  0
 11 12  2  0  0  0  0
 11 13  1  0  0  0  0
 13 14  1  0  0  0  0
 13 30  1  0  0  0  0
 14 15  1  0  0  0  0
 14 31  1  0  0  0  0
 14 32  1  0  0  0  0
 15 21  1  0  0  0  0
 15 16  1  0  0  0  0
 15 19  1  0  0  0  0
 16 18  1  0  0  0  0
 16 17  1  0  0  0  0
 16 33  1  0  0  0  0
 17 18  1  0  0  0  0
 17 34  1  0  0  0  0
 17 35  1  0  0  0  0
 18 36  1  0  0  0  0
 18 37  1  0  0  0  0
 19 20  1  0  0  0  0
 19 38  1  0  0  0  0
 19 39  1  0  0  0  0
 20 21  1  0  0  0  0
 20 40  1  0  0  0  0
 20 41  1  0  0  0  0
 21 42  1  0  0  0  0
 21 43  1  0  0  0  0
M  END
> <s_m_source_file>
AV-unprocessed.smi

> <i_m_source_file_index>
2699

> <i_lp_mmshare_version>
43012

> <i_f3d_flags>
0

> <s_epik_input>
W0NIM11jMVtjSF1jKFtPSF0pW2NIXWMoPU8pbjFbQ0gyXUMoPU8pW05IXVtDSDJdQzIoW0NIXTNbQ0gyXVtDSDJdMylbQ0gyXVtDSDJdW0NIMl0y

> <s_epik_cmdline>
J2VwaWtfcHl0aG9uJywgJy1waCcsICc3LjAnLCAnLXRuJywgJzgnLCAnLW1hJywgJzIwMCcsICctbWV0YWxfYmluZGluZycsICctaW1hZScsICc8aW5maWxlLm1hZT4nLCAnLW9tYWUnLCAnPG91dGZpbGUubWFlPic=

> <r_lp_tautomer_probability>
0.999984

> <r_epik_Ionization_Penalty>
0.783068

> <r_epik_Ionization_Penalty_Charging>
1.5268e-07

> <r_epik_Ionization_Penalty_Neutral>
0.783068

> <r_epik_State_Penalty>
0.823318

> <r_epik_Charging_Adjusted_Penalty>
0.823318

> <i_epik_Tot_Q>
0

> <i_epik_Tot_abs_Q>
0

> <r_epik_Metal_State_Penalty>
0.823318

> <b_epik_Metal_Only>
0

> <s_lp_Force_Field>
OPLS_2005

> <r_lp_Energy>
38.185

> <b_lp_Chiralities_Consistent>
1

> <s_lp_Variant>
AV-unprocessed.smi:2699-2

> <Gold.Version>
5.8.1

> <Gold.Id.Protein>
6NUR|6NUR_protein|mol2

> <Gold.PLP.Fitness>
38.4347

> <Gold.PLP.PLP>
-32.9073

> <Gold.PLP.part.hbond>
-4.0000

> <Gold.PLP.part.metal>
0.0000

> <Gold.PLP.part.buried>
-4.3629

> <Gold.PLP.part.nonpolar>
-24.9421

> <Gold.PLP.part.repulsive>
0.4908

> <Gold.PLP.ligand.clash>
0.0000

> <Gold.PLP.ligand.torsion>
1.0741

> <Gold.PLP.Chemscore.Hbond>
1.9913

> <Gold.PLP.Chemscore.CHOScore>
0.0000

> <Gold.PLP.Chemscore.Metal>
0.0000

> <Gold.Chemscore.Hbonds>
donor molecule, donor type, donor heavy atom, donor atom, acceptor molecule, acceptor atom, score
      L1  H    13    30       P1  7948  0.93
      P1  H 10785 10796       L1     5  0.96

> <Gold.PLP.Chemscore.Internal.Correction>
1.7018

> <Gold.Rescore>
     Score         DG    S(hbond)    S(metal)    S(lipo)     H(rot)  DE(clash)    DE(int)     intcor
     12.72     -13.90       1.79        0.00      71.18       2.30       0.08       1.10       ----

> <Gold.Chemscore.Fitness>
12.7215

> <Gold.Chemscore.DG>
-13.8961

> <Gold.Chemscore.ZeroCoef>
-5.4800

> <Gold.Chemscore.Hbond>
1.7865

> <Gold.Chemscore.Metal>
0.0000

> <Gold.Chemscore.Lipo>
71.1756

> <Gold.Chemscore.Internal_Hbond>
0.0000

> <Gold.Chemscore.DEClash>
0.0755

> <Gold.Chemscore.DEInternal>
1.0990

> <Gold.Chemscore.Rot>
2.2962

> <Gold.Chemscore.Internal.Correction>
   9.000000E+99

> <Gold.Chemscore.Hbonds>
donor molecule, donor type, donor heavy atom, donor atom, acceptor molecule, acceptor atom, score
      L1  H    13    30       P1  7948  0.89
      P1  H 10785 10796       L1     5  0.53

> <Gold.Chemscore.Hbond.Weighted>
-5.9668

> <Gold.Chemscore.Metal.Weighted>
-0.0000

> <Gold.Chemscore.Lipo.Weighted>
-8.3275

> <Gold.Chemscore.Internal_Hbond.Weighted>
0.0000

> <Gold.Chemscore.DEClash.Weighted>
0.0755

> <Gold.Chemscore.DEInternal.Weighted>
1.0990

> <Gold.Chemscore.Rot.Weighted>
5.8783

> <Gold.Chemscore.Internal.Correction.Weighted>
   9.000000E+99

> <Gold.Protein.RotatedTorsions>
[ 6907 6896 6895 6894 ] final  -54.73 input  -60.11 | X-H torsion
[ 7974 7965 7964 7962 ] final  133.80 input  175.53 | X-H torsion
[ 8008 7997 7996 7995 ] final -111.42 input   59.86 | X-H torsion
[ 10167 10162 10161 10158 ] final  -20.40 input  -65.29 | X-H torsion
[ 10718 10713 10712 10709 ] final  119.47 input   66.30 | X-H torsion
[ 10763 10752 10751 10750 ] final  135.93 input  -60.55 | X-H torsion
[ 11005 11000 10999 10996 ] final  -44.78 input  -57.11 | X-H torsion

> <Gold.Protein.ActiveResidues>
 VAL166  LYS551  ARG553  GLY616  TRP617  ASP618  TYR619  PRO620  LYS621  CYS622 
 ASP623  PHE694  ASN695  SER759  ASP760  ASP761  ALA762  ILE779  LEU786  VAL792 
 PHE793  MET794  SER795  GLU796  ALA797  LYS798  CYS799  TRP800  GLU811  SER814 

> <Gold.Protein.RotatedAtoms>
  150.8312  134.7566  159.6855 H   0  0  0  0  0  0  0  0  0  0  0  0  # atno 6907 bound_to 6896
  152.4416  134.5575  159.9894 H   0  0  0  0  0  0  0  0  0  0  0  0  # atno 6908 bound_to 6896
  151.5736  133.3349  159.3030 H   0  0  0  0  0  0  0  0  0  0  0  0  # atno 6909 bound_to 6896
  144.9828  139.4487  143.5378 H   0  0  0  0  0  0  0  0  0  0  0  0  # atno 7974 bound_to 7965
  154.9895  140.0395  157.2313 H   0  0  0  0  0  0  0  0  0  0  0  0  # atno 8008 bound_to 7997
  154.7641  140.2790  155.6167 H   0  0  0  0  0  0  0  0  0  0  0  0  # atno 8009 bound_to 7997
  156.2909  140.2622  156.2427 H   0  0  0  0  0  0  0  0  0  0  0  0  # atno 8010 bound_to 7997
  140.7276  143.4726  151.0226 H   0  0  0  0  0  0  0  0  0  0  0  0  # atno 10167 bound_to 10162
  157.5959  131.1058  150.7900 H   0  0  0  0  0  0  0  0  0  0  0  0  # atno 10718 bound_to 10713
  153.8481  135.3083  155.3430 H   0  0  0  0  0  0  0  0  0  0  0  0  # atno 10763 bound_to 10752
  154.7903  135.4786  154.0041 H   0  0  0  0  0  0  0  0  0  0  0  0  # atno 10764 bound_to 10752
  153.1535  135.6847  153.8940 H   0  0  0  0  0  0  0  0  0  0  0  0  # atno 10765 bound_to 10752
  141.0473  133.6756  156.2921 H   0  0  0  0  0  0  0  0  0  0  0  0  # atno 11005 bound_to 11000
  146.3412  139.9111  142.8780 LP  0  0  0  0  0  0  0  0  0  0  0  0  # atno 17320 bound_to 7965
  145.2397  141.0004  143.3943 LP  0  0  0  0  0  0  0  0  0  0  0  0  # atno 17321 bound_to 7965
  139.8419  143.7552  152.3180 LP  0  0  0  0  0  0  0  0  0  0  0  0  # atno 17342 bound_to 10162
  139.7704  144.7478  151.0232 LP  0  0  0  0  0  0  0  0  0  0  0  0  # atno 17343 bound_to 10162
  156.8311  130.5016  149.5331 LP  0  0  0  0  0  0  0  0  0  0  0  0  # atno 17370 bound_to 10713
  156.1022  130.5977  150.9913 LP  0  0  0  0  0  0  0  0  0  0  0  0  # atno 17371 bound_to 10713
  140.6123  134.5446  157.5535 LP  0  0  0  0  0  0  0  0  0  0  0  0  # atno 17394 bound_to 11000
  139.9322  134.7943  156.0900 LP  0  0  0  0  0  0  0  0  0  0  0  0  # atno 17395 bound_to 11000

$$$$
