AV-unprocessed.smi:72|AV-procd|sdf|726|dock3
  -GOLD-   2262017 53D 1   1.00000     0.00000
 Structure written by MMmdl.
 28 29  0  0  0  0  0  0  0  0  2 V2000
  153.0331  140.1309  159.0454 N   0  0  0  0  0  0  0  0  0  0  0  0
  152.2716  140.3167  158.0582 C   0  0  0  0  0  0  0  0  0  0  0  0
  151.0799  141.1245  158.2017 N   0  0  0  0  0  0  0  0  0  0  0  0
  150.3202  141.2709  157.1601 C   0  0  0  0  0  0  0  0  0  0  0  0
  150.6333  140.6390  155.8856 N   0  0  0  0  0  0  0  0  0  0  0  0
  149.7505  140.8327  154.6713 C   0  0  1  0  0  0  0  0  0  0  0  0
  149.3316  139.5846  154.1971 O   0  0  0  0  0  0  0  0  0  0  0  0
  147.9275  139.5976  153.9577 C   0  0  1  0  0  0  0  0  0  0  0  0
  147.3622  138.1756  154.0972 C   0  0  0  0  0  0  0  0  0  0  0  0
  148.4140  137.2363  154.1636 O   0  0  0  0  0  0  0  0  0  0  0  0
  147.4198  140.5654  155.0268 C   0  0  2  0  0  0  0  0  0  0  0  0
  146.1273  141.0738  154.7548 O   0  0  0  0  0  0  0  0  0  0  0  0
  148.4988  141.6418  155.0466 C   0  0  2  0  0  0  0  0  0  0  0  0
  148.2644  142.6732  154.1055 O   0  0  0  0  0  0  0  0  0  0  0  0
  151.8278  139.8810  155.7639 C   0  0  0  0  0  0  0  0  0  0  0  0
  152.1014  139.3992  154.6642 O   0  0  0  0  0  0  0  0  0  0  0  0
  152.6212  139.7307  156.8616 N   0  5  0  0  0  0  0  0  0  0  0  0
  150.3755  141.3029  153.9100 H   0  0  0  0  0  0  0  0  0  0  0  0
  147.7327  140.0104  152.9656 H   0  0  0  0  0  0  0  0  0  0  0  0
  147.4043  140.0626  155.9952 H   0  0  0  0  0  0  0  0  0  0  0  0
  148.5989  142.0940  156.0347 H   0  0  0  0  0  0  0  0  0  0  0  0
  152.7009  140.5954  159.8781 H   0  0  0  0  0  0  0  0  0  0  0  0
  149.4123  141.8749  157.1730 H   0  0  0  0  0  0  0  0  0  0  0  0
  146.7189  138.0889  154.9733 H   0  0  0  0  0  0  0  0  0  0  0  0
  146.7570  137.9254  153.2254 H   0  0  0  0  0  0  0  0  0  0  0  0
  148.4063  136.7203  153.3721 H   0  0  0  0  0  0  0  0  0  0  0  0
  146.1234  141.9980  154.9511 H   0  0  0  0  0  0  0  0  0  0  0  0
  148.3862  143.5042  154.5394 H   0  0  0  0  0  0  0  0  0  0  0  0
  1  2  2  0  0  0  0
  1 22  1  0  0  0  0
  2 17  1  0  0  0  0
  2  3  1  0  0  0  0
  3  4  2  0  0  0  0
  4  5  1  0  0  0  0
  4 23  1  0  0  0  0
  5  6  1  0  0  0  0
  5 15  1  0  0  0  0
  6 18  1  0  0  0  0
  6 13  1  0  0  0  0
  6  7  1  0  0  0  0
  7  8  1  0  0  0  0
  8 19  1  0  0  0  0
  8  9  1  0  0  0  0
  8 11  1  0  0  0  0
  9 10  1  0  0  0  0
  9 24  1  0  0  0  0
  9 25  1  0  0  0  0
 10 26  1  0  0  0  0
 11 20  1  0  0  0  0
 11 12  1  0  0  0  0
 11 13  1  0  0  0  0
 12 27  1  0  0  0  0
 13 21  1  0  0  0  0
 13 14  1  0  0  0  0
 14 28  1  0  0  0  0
 15 16  2  0  0  0  0
 15 17  1  0  0  0  0
M  CHG  1  17  -1
M  END
> <s_m_source_file>
AV-unprocessed.smi

> <i_m_source_file_index>
72

> <i_lp_mmshare_version>
43012

> <i_f3d_flags>
0

> <s_epik_input>
W05IMl1jMW5bY0hdbihjKD1PKW4xKVtDQEBIXTJPW0NASF0oW0NIMl1bT0hdKVtDQEBIXShbT0hdKVtDQEhdMltPSF0=

> <s_epik_cmdline>
J2VwaWtfcHl0aG9uJywgJy1waCcsICc3LjAnLCAnLXRuJywgJzgnLCAnLW1hJywgJzIwMCcsICctbWV0YWxfYmluZGluZycsICctaW1hZScsICc8aW5maWxlLm1hZT4nLCAnLW9tYWUnLCAnPG91dGZpbGUubWFlPic=

> <r_lp_tautomer_probability>
7.17554e-07

> <r_epik_Ionization_Penalty>
12.8705

> <r_epik_Ionization_Penalty_Charging>
5.64144

> <r_epik_Ionization_Penalty_Neutral>
7.22905

> <r_epik_State_Penalty>
3.30104

> <r_epik_Charging_Adjusted_Penalty>
8.94249

> <i_epik_Tot_Q>
-1

> <i_epik_Tot_abs_Q>
1

> <r_epik_Metal_State_Penalty>
0.529074

> <b_epik_Metal_Only>
1

> <s_epik_Chemistry_Notes>
This compound contains an acetal/aminal-like group ( X-CH(R)-Y where X, Y are N, S, or O) that may be acid/base labile, releasing an aldehyde.

> <s_lp_Force_Field>
OPLS_2005

> <r_lp_Energy>
36.315

> <b_lp_Chiralities_Consistent>
1

> <s_lp_Variant>
AV-unprocessed.smi:72-64

> <Gold.Version>
5.8.1

> <Gold.Id.Protein>
6NUR|6NUR_protein|mol2

> <Gold.PLP.Fitness>
37.1877

> <Gold.PLP.PLP>
-23.9274

> <Gold.PLP.part.hbond>
-5.8716

> <Gold.PLP.part.metal>
0.0000

> <Gold.PLP.part.buried>
-1.8212

> <Gold.PLP.part.nonpolar>
-16.1685

> <Gold.PLP.part.repulsive>
0.3880

> <Gold.PLP.ligand.clash>
0.0000

> <Gold.PLP.ligand.torsion>
0.7320

> <Gold.PLP.Chemscore.Hbond>
4.9008

> <Gold.PLP.Chemscore.CHOScore>
0.0000

> <Gold.PLP.Chemscore.Metal>
0.0000

> <Gold.Chemscore.Hbonds>
donor molecule, donor type, donor heavy atom, donor atom, acceptor molecule, acceptor atom, score
      L1  H    10    26       P1  7948  1.00
      L1  H    14    28       P1  8028  1.00
      P1  H  7989  7998       L1    16  0.86
      P1  H  7997  8010       L1    17  2.00
      P1  H  8011  8017       L1    14  0.02

> <Gold.PLP.Chemscore.Internal.Correction>
0.0219

> <Gold.Rescore>
     Score         DG    S(hbond)    S(metal)    S(lipo)     H(rot)  DE(clash)    DE(int)     intcor
      7.06      -9.05       3.57        0.00      17.08       4.04       0.02       1.97       ----

> <Gold.Chemscore.Fitness>
7.0574

> <Gold.Chemscore.DG>
-9.0528

> <Gold.Chemscore.ZeroCoef>
-5.4800

> <Gold.Chemscore.Hbond>
3.5680

> <Gold.Chemscore.Metal>
0.0000

> <Gold.Chemscore.Lipo>
17.0847

> <Gold.Chemscore.Internal_Hbond>
0.0000

> <Gold.Chemscore.DEClash>
0.0208

> <Gold.Chemscore.DEInternal>
1.9746

> <Gold.Chemscore.Rot>
4.0403

> <Gold.Chemscore.Internal.Correction>
   9.000000E+99

> <Gold.Chemscore.Hbonds>
donor molecule, donor type, donor heavy atom, donor atom, acceptor molecule, acceptor atom, score
      L1  H    10    26       P1  7948  0.98
      L1  H    14    28       P1  8028  0.99
      P1  H  7989  7998       L1    16  0.29
      P1  H  7997  8010       L1    17  0.56
      P1  H  8011  8017       L1    14  0.01

> <Gold.Chemscore.Hbond.Weighted>
-11.9170

> <Gold.Chemscore.Metal.Weighted>
-0.0000

> <Gold.Chemscore.Lipo.Weighted>
-1.9989

> <Gold.Chemscore.Internal_Hbond.Weighted>
0.0000

> <Gold.Chemscore.DEClash.Weighted>
0.0208

> <Gold.Chemscore.DEInternal.Weighted>
1.9746

> <Gold.Chemscore.Rot.Weighted>
10.3431

> <Gold.Chemscore.Internal.Correction.Weighted>
   9.000000E+99

> <Gold.Protein.RotatedTorsions>
[ 6907 6896 6895 6894 ] final  -13.79 input  -60.11 | X-H torsion
[ 7974 7965 7964 7962 ] final  163.15 input  175.53 | X-H torsion
[ 8008 7997 7996 7995 ] final   66.29 input   59.86 | X-H torsion
[ 10167 10162 10161 10158 ] final -129.18 input  -65.29 | X-H torsion
[ 10718 10713 10712 10709 ] final  -94.85 input   66.30 | X-H torsion
[ 10763 10752 10751 10750 ] final  -77.12 input  -60.55 | X-H torsion
[ 11005 11000 10999 10996 ] final  -38.30 input  -57.11 | X-H torsion

> <Gold.Protein.ActiveResidues>
 VAL166  LYS551  ARG553  GLY616  TRP617  ASP618  TYR619  PRO620  LYS621  CYS622 
 ASP623  PHE694  ASN695  SER759  ASP760  ASP761  ALA762  ILE779  LEU786  VAL792 
 PHE793  MET794  SER795  GLU796  ALA797  LYS798  CYS799  TRP800  GLU811  SER814 

> <Gold.Protein.RotatedAtoms>
  151.3495  135.0881  159.9397 H   0  0  0  0  0  0  0  0  0  0  0  0  # atno 6907 bound_to 6896
  152.5191  133.9366  159.7617 H   0  0  0  0  0  0  0  0  0  0  0  0  # atno 6908 bound_to 6896
  150.9739  133.6261  159.2763 H   0  0  0  0  0  0  0  0  0  0  0  0  # atno 6909 bound_to 6896
  144.7603  139.8141  143.6335 H   0  0  0  0  0  0  0  0  0  0  0  0  # atno 7974 bound_to 7965
  155.6750  140.3497  155.4833 H   0  0  0  0  0  0  0  0  0  0  0  0  # atno 8008 bound_to 7997
  155.9656  140.1145  157.0880 H   0  0  0  0  0  0  0  0  0  0  0  0  # atno 8009 bound_to 7997
  154.4153  140.1167  156.5223 H   0  0  0  0  0  0  0  0  0  0  0  0  # atno 8010 bound_to 7997
  139.9425  143.6147  152.2499 H   0  0  0  0  0  0  0  0  0  0  0  0  # atno 10167 bound_to 10162
  156.0033  130.5084  150.5988 H   0  0  0  0  0  0  0  0  0  0  0  0  # atno 10718 bound_to 10713
  154.5088  135.5774  153.6588 H   0  0  0  0  0  0  0  0  0  0  0  0  # atno 10763 bound_to 10752
  152.9893  135.6153  154.2906 H   0  0  0  0  0  0  0  0  0  0  0  0  # atno 10764 bound_to 10752
  154.2819  135.2850  155.2673 H   0  0  0  0  0  0  0  0  0  0  0  0  # atno 10765 bound_to 10752
  141.0017  133.6952  156.2035 H   0  0  0  0  0  0  0  0  0  0  0  0  # atno 11005 bound_to 11000
  146.1659  139.4791  142.9958 LP  0  0  0  0  0  0  0  0  0  0  0  0  # atno 17320 bound_to 7965
  145.6641  141.0233  143.1693 LP  0  0  0  0  0  0  0  0  0  0  0  0  # atno 17321 bound_to 7965
  139.6693  144.7661  151.1814 LP  0  0  0  0  0  0  0  0  0  0  0  0  # atno 17342 bound_to 10162
  140.7607  143.5890  150.8816 LP  0  0  0  0  0  0  0  0  0  0  0  0  # atno 17343 bound_to 10162
  157.3840  131.0785  151.1452 LP  0  0  0  0  0  0  0  0  0  0  0  0  # atno 17370 bound_to 10713
  157.2165  130.6461  149.5794 LP  0  0  0  0  0  0  0  0  0  0  0  0  # atno 17371 bound_to 10713
  140.6878  134.4698  157.5589 LP  0  0  0  0  0  0  0  0  0  0  0  0  # atno 17394 bound_to 11000
  139.9042  134.8486  156.1772 LP  0  0  0  0  0  0  0  0  0  0  0  0  # atno 17395 bound_to 11000

$$$$
