AV-unprocessed.smi:1641|AV-procd|sdf|6557|dock8
  -GOLD-   22720 7243D 1   1.00000     0.00000
 Structure written by MMmdl.
 41 42  0  0  0  0  0  0  0  0  1 V2000
  143.3136  144.0819  162.1503 C   0  0  0  0  0  0  0  0  0  0  0  0
  144.3473  143.5523  161.2163 C   0  0  0  0  0  0  0  0  0  0  0  0
  144.7757  142.2848  161.2549 N   0  0  0  0  0  0  0  0  0  0  0  0
  145.7389  142.0257  160.2900 N   0  0  0  0  0  0  0  0  0  0  0  0
  146.0091  143.1095  159.5495 C   0  0  0  0  0  0  0  0  0  0  0  0
  146.9560  143.1271  158.4917 N   0  0  0  0  0  0  0  0  0  0  0  0
  147.7276  142.1192  158.0488 C   0  0  0  0  0  0  0  0  0  0  0  0
  147.7110  140.9681  158.4851 O   0  0  0  0  0  0  0  0  0  0  0  0
  148.5343  142.5258  157.0574 N   0  0  0  0  0  0  0  0  0  0  0  0
  149.5382  141.6994  156.3933 C   0  0  0  0  0  0  0  0  0  0  0  0
  150.4324  140.9690  157.4142 C   0  0  0  0  0  0  0  0  0  0  0  0
  151.4672  141.7886  158.0446 N   0  0  0  0  0  0  0  0  0  0  0  0
  150.9142  142.8765  158.8480 C   0  0  0  0  0  0  0  0  0  0  0  0
  152.0094  143.7382  159.5073 C   0  0  2  0  0  0  0  0  0  0  0  0
  152.7426  144.6547  158.5122 C   0  0  0  0  0  0  0  0  0  0  0  0
  152.9174  142.9093  160.2355 O   0  0  0  0  0  0  0  0  0  0  0  0
  153.4788  141.8261  159.4961 C   0  0  1  0  0  0  0  0  0  0  0  0
  154.3581  141.0051  160.4452 C   0  0  0  0  0  0  0  0  0  0  0  0
  152.3461  140.9837  158.8814 C   0  0  0  0  0  0  0  0  0  0  0  0
  145.1041  144.5502  159.9807 S   0  0  0  0  0  0  0  0  0  0  0  0
  142.6312  143.2874  162.4535 H   0  0  0  0  0  0  0  0  0  0  0  0
  142.7367  144.8697  161.6656 H   0  0  0  0  0  0  0  0  0  0  0  0
  143.7916  144.4931  163.0394 H   0  0  0  0  0  0  0  0  0  0  0  0
  147.0685  144.0154  158.0262 H   0  0  0  0  0  0  0  0  0  0  0  0
  148.4736  143.4887  156.7608 H   0  0  0  0  0  0  0  0  0  0  0  0
  149.0828  141.0047  155.6866 H   0  0  0  0  0  0  0  0  0  0  0  0
  150.1594  142.3636  155.7924 H   0  0  0  0  0  0  0  0  0  0  0  0
  149.8039  140.5206  158.1849 H   0  0  0  0  0  0  0  0  0  0  0  0
  150.9071  140.1337  156.8972 H   0  0  0  0  0  0  0  0  0  0  0  0
  150.2765  143.5188  158.2425 H   0  0  0  0  0  0  0  0  0  0  0  0
  150.2751  142.4605  159.6282 H   0  0  0  0  0  0  0  0  0  0  0  0
  151.5291  144.3854  160.2414 H   0  0  0  0  0  0  0  0  0  0  0  0
  152.0497  145.3612  158.0546 H   0  0  0  0  0  0  0  0  0  0  0  0
  153.2112  144.0933  157.7040 H   0  0  0  0  0  0  0  0  0  0  0  0
  153.5193  145.2322  159.0137 H   0  0  0  0  0  0  0  0  0  0  0  0
  154.1108  142.2219  158.7006 H   0  0  0  0  0  0  0  0  0  0  0  0
  154.8295  140.1727  159.9219 H   0  0  0  0  0  0  0  0  0  0  0  0
  153.7739  140.5955  161.2697 H   0  0  0  0  0  0  0  0  0  0  0  0
  155.1506  141.6206  160.8713 H   0  0  0  0  0  0  0  0  0  0  0  0
  151.7672  140.5100  159.6761 H   0  0  0  0  0  0  0  0  0  0  0  0
  152.7816  140.1773  158.2900 H   0  0  0  0  0  0  0  0  0  0  0  0
  1  2  1  0  0  0  0
  1 21  1  0  0  0  0
  1 22  1  0  0  0  0
  1 23  1  0  0  0  0
  2 20  1  0  0  0  0
  2  3  2  0  0  0  0
  3  4  1  0  0  0  0
  4  5  2  0  0  0  0
  5  6  1  0  0  0  0
  5 20  1  0  0  0  0
  6  7  1  0  0  0  0
  6 24  1  0  0  0  0
  7  8  2  0  0  0  0
  7  9  1  0  0  0  0
  9 10  1  0  0  0  0
  9 25  1  0  0  0  0
 10 11  1  0  0  0  0
 10 26  1  0  0  0  0
 10 27  1  0  0  0  0
 11 12  1  0  0  0  0
 11 28  1  0  0  0  0
 11 29  1  0  0  0  0
 12 19  1  0  0  0  0
 12 13  1  0  0  0  0
 13 14  1  0  0  0  0
 13 30  1  0  0  0  0
 13 31  1  0  0  0  0
 14 15  1  0  0  0  0
 14 16  1  0  0  0  0
 14 32  1  0  0  0  0
 15 33  1  0  0  0  0
 15 34  1  0  0  0  0
 15 35  1  0  0  0  0
 16 17  1  0  0  0  0
 17 18  1  0  0  0  0
 17 19  1  0  0  0  0
 17 36  1  0  0  0  0
 18 37  1  0  0  0  0
 18 38  1  0  0  0  0
 18 39  1  0  0  0  0
 19 40  1  0  0  0  0
 19 41  1  0  0  0  0
M  END
> <s_m_source_file>
AV-unprocessed.smi

> <i_m_source_file_index>
1641

> <i_lp_mmshare_version>
43012

> <i_f3d_flags>
0

> <s_epik_input>
W0NIM11jMW5uYyhzMSlbTkhdQyg9TylbTkhdW0NIMl1bQ0gyXU4yW0NIMl1bQ0BASF0oW0NIM10pT1tDQEBIXShbQ0gzXSlbQ0gyXTI=

> <s_epik_cmdline>
J2VwaWtfcHl0aG9uJywgJy1waCcsICc3LjAnLCAnLXRuJywgJzgnLCAnLW1hJywgJzIwMCcsICctbWV0YWxfYmluZGluZycsICctaW1hZScsICc8aW5maWxlLm1hZT4nLCAnLW9tYWUnLCAnPG91dGZpbGUubWFlPic=

> <r_lp_tautomer_probability>
1

> <r_epik_Ionization_Penalty>
0.221104

> <r_epik_Ionization_Penalty_Charging>
0

> <r_epik_Ionization_Penalty_Neutral>
0.221104

> <r_epik_State_Penalty>
0.209349

> <r_epik_Charging_Adjusted_Penalty>
0.209349

> <i_epik_Tot_Q>
0

> <i_epik_Tot_abs_Q>
0

> <r_epik_Metal_State_Penalty>
0.560954

> <b_epik_Metal_Only>
0

> <s_lp_Force_Field>
OPLS_2005

> <r_lp_Energy>
24.8312

> <b_lp_Chiralities_Consistent>
1

> <s_lp_Variant>
AV-unprocessed.smi:1641-2

> <Gold.Version>
5.8.1

> <Gold.Id.Protein>
6NUR|6NUR_protein|mol2

> <Gold.PLP.Fitness>
41.8803

> <Gold.PLP.PLP>
-34.1404

> <Gold.PLP.part.hbond>
-3.6173

> <Gold.PLP.part.metal>
0.0000

> <Gold.PLP.part.buried>
-4.2158

> <Gold.PLP.part.nonpolar>
-25.5873

> <Gold.PLP.part.repulsive>
0.1324

> <Gold.PLP.ligand.clash>
0.0373

> <Gold.PLP.ligand.torsion>
0.1376

> <Gold.PLP.Chemscore.Hbond>
2.6825

> <Gold.PLP.Chemscore.CHOScore>
0.0000

> <Gold.PLP.Chemscore.Metal>
0.0000

> <Gold.Chemscore.Hbonds>
donor molecule, donor type, donor heavy atom, donor atom, acceptor molecule, acceptor atom, score
      L1  H     6    24       P1  8029  0.52
      L1  H     9    25       P1  8028  1.00
      P1  H  6934  6946       L1     4  1.00

> <Gold.PLP.Chemscore.Internal.Correction>
0.0049

> <Gold.Rescore>
     Score         DG    S(hbond)    S(metal)    S(lipo)     H(rot)  DE(clash)    DE(int)     intcor
     14.05     -17.82       1.88        0.00      86.63       1.60       0.09       3.68       ----

> <Gold.Chemscore.Fitness>
14.0510

> <Gold.Chemscore.DG>
-17.8203

> <Gold.Chemscore.ZeroCoef>
-5.4800

> <Gold.Chemscore.Hbond>
1.8843

> <Gold.Chemscore.Metal>
0.0000

> <Gold.Chemscore.Lipo>
86.6342

> <Gold.Chemscore.Internal_Hbond>
0.0000

> <Gold.Chemscore.DEClash>
0.0865

> <Gold.Chemscore.DEInternal>
3.6827

> <Gold.Chemscore.Rot>
1.5975

> <Gold.Chemscore.Internal.Correction>
   9.000000E+99

> <Gold.Chemscore.Hbonds>
donor molecule, donor type, donor heavy atom, donor atom, acceptor molecule, acceptor atom, score
      L1  H     6    24       P1  8029  0.12
      L1  H     9    25       P1  8028  0.24
      P1  H  6934  6946       L1     4  0.90

> <Gold.Chemscore.Hbond.Weighted>
-6.2936

> <Gold.Chemscore.Metal.Weighted>
-0.0000

> <Gold.Chemscore.Lipo.Weighted>
-10.1362

> <Gold.Chemscore.Internal_Hbond.Weighted>
0.0000

> <Gold.Chemscore.DEClash.Weighted>
0.0865

> <Gold.Chemscore.DEInternal.Weighted>
3.6827

> <Gold.Chemscore.Rot.Weighted>
4.0896

> <Gold.Chemscore.Internal.Correction.Weighted>
   9.000000E+99

> <Gold.Protein.RotatedTorsions>
[ 6907 6896 6895 6894 ] final   24.15 input  -60.11 | X-H torsion
[ 7974 7965 7964 7962 ] final  178.64 input  175.53 | X-H torsion
[ 8008 7997 7996 7995 ] final  -53.10 input   59.86 | X-H torsion
[ 10167 10162 10161 10158 ] final   41.81 input  -65.29 | X-H torsion
[ 10718 10713 10712 10709 ] final  -37.48 input   66.30 | X-H torsion
[ 10763 10752 10751 10750 ] final  -78.13 input  -60.55 | X-H torsion
[ 11005 11000 10999 10996 ] final  -87.10 input  -57.11 | X-H torsion

> <Gold.Protein.ActiveResidues>
 VAL166  LYS551  ARG553  GLY616  TRP617  ASP618  TYR619  PRO620  LYS621  CYS622 
 ASP623  PHE694  ASN695  SER759  ASP760  ASP761  ALA762  ILE779  LEU786  VAL792 
 PHE793  MET794  SER795  GLU796  ALA797  LYS798  CYS799  TRP800  GLU811  SER814 

> <Gold.Protein.RotatedAtoms>
  151.9531  135.0159  160.0542 H   0  0  0  0  0  0  0  0  0  0  0  0  # atno 6907 bound_to 6896
  152.1935  133.4785  159.5029 H   0  0  0  0  0  0  0  0  0  0  0  0  # atno 6908 bound_to 6896
  150.6940  134.1599  159.4215 H   0  0  0  0  0  0  0  0  0  0  0  0  # atno 6909 bound_to 6896
  144.7154  140.0427  143.6437 H   0  0  0  0  0  0  0  0  0  0  0  0  # atno 7974 bound_to 7965
  154.4124  140.1208  156.5098 H   0  0  0  0  0  0  0  0  0  0  0  0  # atno 8008 bound_to 7997
  155.6810  140.3496  155.4836 H   0  0  0  0  0  0  0  0  0  0  0  0  # atno 8009 bound_to 7997
  155.9551  140.1112  157.0933 H   0  0  0  0  0  0  0  0  0  0  0  0  # atno 8010 bound_to 7997
  140.3606  144.2233  150.6138 H   0  0  0  0  0  0  0  0  0  0  0  0  # atno 10167 bound_to 10162
  156.3147  130.4257  149.8017 H   0  0  0  0  0  0  0  0  0  0  0  0  # atno 10718 bound_to 10713
  154.5218  135.5740  153.6687 H   0  0  0  0  0  0  0  0  0  0  0  0  # atno 10763 bound_to 10752
  152.9919  135.6183  154.2744 H   0  0  0  0  0  0  0  0  0  0  0  0  # atno 10764 bound_to 10752
  154.2665  135.2854  155.2736 H   0  0  0  0  0  0  0  0  0  0  0  0  # atno 10765 bound_to 10752
  141.1621  133.7492  156.9257 H   0  0  0  0  0  0  0  0  0  0  0  0  # atno 11005 bound_to 11000
  146.0010  139.3091  143.0928 LP  0  0  0  0  0  0  0  0  0  0  0  0  # atno 17320 bound_to 7965
  145.8794  140.9372  143.0609 LP  0  0  0  0  0  0  0  0  0  0  0  0  # atno 17321 bound_to 7965
  140.5130  143.2285  151.8506 LP  0  0  0  0  0  0  0  0  0  0  0  0  # atno 17342 bound_to 10162
  139.4814  144.4927  151.9164 LP  0  0  0  0  0  0  0  0  0  0  0  0  # atno 17343 bound_to 10162
  156.5347  130.8273  151.3249 LP  0  0  0  0  0  0  0  0  0  0  0  0  # atno 17370 bound_to 10713
  157.7399  130.9840  150.2342 LP  0  0  0  0  0  0  0  0  0  0  0  0  # atno 17371 bound_to 10713
  140.1420  134.9287  157.2480 LP  0  0  0  0  0  0  0  0  0  0  0  0  # atno 17394 bound_to 11000
  140.2825  134.3334  155.7339 LP  0  0  0  0  0  0  0  0  0  0  0  0  # atno 17395 bound_to 11000

$$$$
