AV-unprocessed.smi:1189|AV-procd|sdf|4979|dock3
  -GOLD-   22720 3573D 1   1.00000     0.00000
 Structure written by MMmdl.
 33 34  0  0  0  0  0  0  0  0  1 V2000
  151.8647  140.8505  157.1867 O   0  0  0  0  0  0  0  0  0  0  0  0
  151.2489  141.9143  157.1042 C   0  0  0  0  0  0  0  0  0  0  0  0
  151.6073  143.1039  158.0030 C   0  0  0  0  0  0  0  0  0  0  0  0
  152.2867  142.6982  159.2224 N   0  0  0  0  0  0  0  0  0  0  0  0
  152.1988  143.2581  160.4790 C   0  0  0  0  0  0  0  0  0  0  0  0
  153.0110  142.5335  161.3030 C   0  0  0  0  0  0  0  0  0  0  0  0
  153.5627  141.5311  160.4532 C   0  0  0  0  0  0  0  0  0  0  0  0
  154.5300  140.4331  160.8104 C   0  0  0  0  0  0  0  0  0  0  0  0
  155.6543  140.5597  160.1053 F   0  0  0  0  0  0  0  0  0  0  0  0
  154.8289  140.4936  162.1080 F   0  0  0  0  0  0  0  0  0  0  0  0
  153.9882  139.2447  160.5434 F   0  0  0  0  0  0  0  0  0  0  0  0
  153.1259  141.6401  159.2054 N   0  0  0  0  0  0  0  0  0  0  0  0
  150.2311  142.1098  156.2513 N   0  0  0  0  0  0  0  0  0  0  0  0
  149.7165  141.1253  155.3041 C   0  0  0  0  0  0  0  0  0  0  0  0
  148.1799  141.1686  155.2015 C   0  0  1  0  0  0  0  0  0  0  0  0
  147.5035  141.7468  156.4279 C   0  0  0  0  0  0  0  0  0  0  0  0
  146.1192  142.1069  155.8949 C   0  0  0  0  0  0  0  0  0  0  0  0
  146.2913  142.3921  154.5096 O   0  0  0  0  0  0  0  0  0  0  0  0
  147.6224  142.0837  154.1098 C   0  0  0  0  0  0  0  0  0  0  0  0
  152.2411  143.8079  157.4609 H   0  0  0  0  0  0  0  0  0  0  0  0
  150.6944  143.6357  158.2726 H   0  0  0  0  0  0  0  0  0  0  0  0
  151.5707  144.1134  160.6797 H   0  0  0  0  0  0  0  0  0  0  0  0
  153.1835  142.6930  162.3570 H   0  0  0  0  0  0  0  0  0  0  0  0
  149.7821  143.0142  156.2534 H   0  0  0  0  0  0  0  0  0  0  0  0
  150.1498  141.3503  154.3294 H   0  0  0  0  0  0  0  0  0  0  0  0
  150.0582  140.1214  155.5628 H   0  0  0  0  0  0  0  0  0  0  0  0
  147.7977  140.1590  155.0414 H   0  0  0  0  0  0  0  0  0  0  0  0
  147.4663  141.0504  157.2662 H   0  0  0  0  0  0  0  0  0  0  0  0
  148.0212  142.6490  156.7572 H   0  0  0  0  0  0  0  0  0  0  0  0
  145.4408  141.2586  155.9918 H   0  0  0  0  0  0  0  0  0  0  0  0
  145.6802  142.9533  156.4236 H   0  0  0  0  0  0  0  0  0  0  0  0
  148.1897  143.0140  154.0586 H   0  0  0  0  0  0  0  0  0  0  0  0
  147.6419  141.6200  153.1233 H   0  0  0  0  0  0  0  0  0  0  0  0
  1  2  2  0  0  0  0
  2  3  1  0  0  0  0
  2 13  1  0  0  0  0
  3  4  1  0  0  0  0
  3 20  1  0  0  0  0
  3 21  1  0  0  0  0
  4 12  1  0  0  0  0
  4  5  1  0  0  0  0
  5  6  2  0  0  0  0
  5 22  1  0  0  0  0
  6  7  1  0  0  0  0
  6 23  1  0  0  0  0
  7  8  1  0  0  0  0
  7 12  2  0  0  0  0
  8  9  1  0  0  0  0
  8 10  1  0  0  0  0
  8 11  1  0  0  0  0
 13 14  1  0  0  0  0
 13 24  1  0  0  0  0
 14 15  1  0  0  0  0
 14 25  1  0  0  0  0
 14 26  1  0  0  0  0
 15 19  1  0  0  0  0
 15 16  1  0  0  0  0
 15 27  1  0  0  0  0
 16 17  1  0  0  0  0
 16 28  1  0  0  0  0
 16 29  1  0  0  0  0
 17 18  1  0  0  0  0
 17 30  1  0  0  0  0
 17 31  1  0  0  0  0
 18 19  1  0  0  0  0
 19 32  1  0  0  0  0
 19 33  1  0  0  0  0
M  END
> <s_m_source_file>
AV-unprocessed.smi

> <i_m_source_file_index>
1189

> <i_lp_mmshare_version>
43012

> <i_f3d_flags>
0

> <s_epik_input>
W0NIMl0xT1tDSDJdW0NIMl1bQ0BIXTFbQ0gyXVtOSF1DKD1PKVtDSDJdbjJbY0hdW2NIXWMobjIpQyhGKShGKUY=

> <s_epik_cmdline>
J2VwaWtfcHl0aG9uJywgJy1waCcsICc3LjAnLCAnLXRuJywgJzgnLCAnLW1hJywgJzIwMCcsICctbWV0YWxfYmluZGluZycsICctaW1hZScsICc8aW5maWxlLm1hZT4nLCAnLW9tYWUnLCAnPG91dGZpbGUubWFlPic=

> <r_lp_tautomer_probability>
1

> <r_epik_Ionization_Penalty>
1.26564e-07

> <r_epik_Ionization_Penalty_Charging>
0

> <r_epik_Ionization_Penalty_Neutral>
1.26564e-07

> <r_epik_State_Penalty>
-0

> <r_epik_Charging_Adjusted_Penalty>
0

> <i_epik_Tot_Q>
0

> <i_epik_Tot_abs_Q>
0

> <r_epik_Metal_State_Penalty>
-0

> <b_epik_Metal_Only>
0

> <s_lp_Force_Field>
OPLS_2005

> <r_lp_Energy>
22.0534

> <b_lp_Chiralities_Consistent>
1

> <s_lp_Variant>
AV-unprocessed.smi:1189-2

> <Gold.Version>
5.8.1

> <Gold.Id.Protein>
6NUR|6NUR_protein|mol2

> <Gold.PLP.Fitness>
40.4986

> <Gold.PLP.PLP>
-40.0275

> <Gold.PLP.part.hbond>
-1.0000

> <Gold.PLP.part.metal>
0.0000

> <Gold.PLP.part.buried>
-4.6508

> <Gold.PLP.part.nonpolar>
-34.0450

> <Gold.PLP.part.repulsive>
0.2745

> <Gold.PLP.ligand.clash>
0.0000

> <Gold.PLP.ligand.torsion>
1.2880

> <Gold.PLP.Chemscore.Hbond>
1.0000

> <Gold.PLP.Chemscore.CHOScore>
0.0000

> <Gold.PLP.Chemscore.Metal>
0.0000

> <Gold.Chemscore.Hbonds>
donor molecule, donor type, donor heavy atom, donor atom, acceptor molecule, acceptor atom, score
      L1  H    13    24       P1  8028  1.00

> <Gold.PLP.Chemscore.Internal.Correction>
0.0472

> <Gold.Rescore>
     Score         DG    S(hbond)    S(metal)    S(lipo)     H(rot)  DE(clash)    DE(int)     intcor
     10.39     -13.20       0.99        0.00      79.05       1.89       0.02       2.79       ----

> <Gold.Chemscore.Fitness>
10.3887

> <Gold.Chemscore.DG>
-13.1980

> <Gold.Chemscore.ZeroCoef>
-5.4800

> <Gold.Chemscore.Hbond>
0.9923

> <Gold.Chemscore.Metal>
0.0000

> <Gold.Chemscore.Lipo>
79.0523

> <Gold.Chemscore.Internal_Hbond>
0.0000

> <Gold.Chemscore.DEClash>
0.0237

> <Gold.Chemscore.DEInternal>
2.7856

> <Gold.Chemscore.Rot>
1.8928

> <Gold.Chemscore.Internal.Correction>
   9.000000E+99

> <Gold.Chemscore.Hbonds>
donor molecule, donor type, donor heavy atom, donor atom, acceptor molecule, acceptor atom, score
      L1  H    13    24       P1  8028  0.94

> <Gold.Chemscore.Hbond.Weighted>
-3.3143

> <Gold.Chemscore.Metal.Weighted>
-0.0000

> <Gold.Chemscore.Lipo.Weighted>
-9.2491

> <Gold.Chemscore.Internal_Hbond.Weighted>
0.0000

> <Gold.Chemscore.DEClash.Weighted>
0.0237

> <Gold.Chemscore.DEInternal.Weighted>
2.7856

> <Gold.Chemscore.Rot.Weighted>
4.8455

> <Gold.Chemscore.Internal.Correction.Weighted>
   9.000000E+99

> <Gold.Protein.RotatedTorsions>
[ 6907 6896 6895 6894 ] final -130.10 input  -60.11 | X-H torsion
[ 7974 7965 7964 7962 ] final  122.14 input  175.53 | X-H torsion
[ 8008 7997 7996 7995 ] final  119.74 input   59.86 | X-H torsion
[ 10167 10162 10161 10158 ] final  120.62 input  -65.29 | X-H torsion
[ 10718 10713 10712 10709 ] final   98.63 input   66.30 | X-H torsion
[ 10763 10752 10751 10750 ] final -143.53 input  -60.55 | X-H torsion
[ 11005 11000 10999 10996 ] final  -39.30 input  -57.11 | X-H torsion

> <Gold.Protein.ActiveResidues>
 VAL166  LYS551  ARG553  GLY616  TRP617  ASP618  TYR619  PRO620  LYS621  CYS622 
 ASP623  PHE694  ASN695  SER759  ASP760  ASP761  ALA762  ILE779  LEU786  VAL792 
 PHE793  MET794  SER795  GLU796  ALA797  LYS798  CYS799  TRP800  GLU811  SER814 

> <Gold.Protein.RotatedAtoms>
  150.9360  133.6711  159.2800 H   0  0  0  0  0  0  0  0  0  0  0  0  # atno 6907 bound_to 6896
  151.4116  135.0984  159.9596 H   0  0  0  0  0  0  0  0  0  0  0  0  # atno 6908 bound_to 6896
  152.5048  133.8832  159.7411 H   0  0  0  0  0  0  0  0  0  0  0  0  # atno 6909 bound_to 6896
  145.1111  139.3452  143.4763 H   0  0  0  0  0  0  0  0  0  0  0  0  # atno 7974 bound_to 7965
  156.2610  140.2846  156.1039 H   0  0  0  0  0  0  0  0  0  0  0  0  # atno 8008 bound_to 7997
  155.1330  140.0394  157.2797 H   0  0  0  0  0  0  0  0  0  0  0  0  # atno 8009 bound_to 7997
  154.6586  140.2561  155.7140 H   0  0  0  0  0  0  0  0  0  0  0  0  # atno 8010 bound_to 7997
  139.5971  144.7045  151.3151 H   0  0  0  0  0  0  0  0  0  0  0  0  # atno 10167 bound_to 10162
  157.6892  131.0646  150.4825 H   0  0  0  0  0  0  0  0  0  0  0  0  # atno 10718 bound_to 10713
  154.8466  135.3465  154.6203 H   0  0  0  0  0  0  0  0  0  0  0  0  # atno 10763 bound_to 10752
  153.6812  135.6980  153.5122 H   0  0  0  0  0  0  0  0  0  0  0  0  # atno 10764 bound_to 10752
  153.2667  135.4306  155.0904 H   0  0  0  0  0  0  0  0  0  0  0  0  # atno 10765 bound_to 10752
  141.0091  133.6917  156.2168 H   0  0  0  0  0  0  0  0  0  0  0  0  # atno 11005 bound_to 11000
  146.3526  140.1030  142.8607 LP  0  0  0  0  0  0  0  0  0  0  0  0  # atno 17320 bound_to 7965
  145.0846  140.9244  143.4805 LP  0  0  0  0  0  0  0  0  0  0  0  0  # atno 17321 bound_to 7965
  140.7220  143.7109  150.7770 LP  0  0  0  0  0  0  0  0  0  0  0  0  # atno 17342 bound_to 10162
  140.0677  143.5092  152.2595 LP  0  0  0  0  0  0  0  0  0  0  0  0  # atno 17343 bound_to 10162
  156.5156  130.4149  149.6278 LP  0  0  0  0  0  0  0  0  0  0  0  0  # atno 17370 bound_to 10713
  156.3201  130.7275  151.2186 LP  0  0  0  0  0  0  0  0  0  0  0  0  # atno 17371 bound_to 10713
  140.6763  134.4815  157.5588 LP  0  0  0  0  0  0  0  0  0  0  0  0  # atno 17394 bound_to 11000
  139.9080  134.8407  156.1633 LP  0  0  0  0  0  0  0  0  0  0  0  0  # atno 17395 bound_to 11000

$$$$
