AV-unprocessed.smi:229|AV-procd|sdf|1749|dock1
  -GOLD-   2262020263D 1   1.00000     0.00000
 Structure written by MMmdl.
 58 62  0  0  0  0  0  0  0  0  1 V2000
  152.6437  144.0289  159.2037 C   0  0  0  0  0  0  0  0  0  0  0  0
  151.1287  144.2694  159.2437 C   0  0  0  0  0  0  0  0  0  0  0  0
  150.3345  143.3813  158.2716 C   0  0  2  0  0  0  0  0  0  0  0  0
  148.8645  143.1985  158.6904 C   0  0  0  0  0  0  0  0  0  0  0  0
  148.2046  142.2553  157.7961 N   0  0  0  0  0  0  0  0  0  0  0  0
  146.8486  142.2616  157.8570 C   0  0  0  0  0  0  0  0  0  0  0  0
  146.2169  141.9115  159.0098 N   0  0  0  0  0  0  0  0  0  0  0  0
  144.8825  141.9315  159.0827 C   0  0  0  0  0  0  0  0  0  0  0  0
  143.9997  142.2615  158.1382 N   0  0  0  0  0  0  0  0  0  0  0  0
  144.6260  142.6025  156.9761 C   0  0  0  0  0  0  0  0  0  0  0  0
  146.0315  142.6275  156.7499 C   0  0  0  0  0  0  0  0  0  0  0  0
  146.2915  143.0120  155.4392 N   0  0  0  0  0  0  0  0  0  0  0  0
  145.1092  143.2168  154.9257 C   0  0  0  0  0  0  0  0  0  0  0  0
  144.0536  142.9966  155.7806 N   0  0  0  0  0  0  0  0  0  0  0  0
  142.6416  143.1530  155.4793 C   0  0  0  0  0  0  0  0  0  0  0  0
  142.3131  144.5519  154.9213 C   0  0  1  0  0  0  0  0  0  0  0  0
  142.4208  144.5282  153.5101 O   0  0  0  0  0  0  0  0  0  0  0  0
  140.8944  145.0134  155.3007 C   0  0  2  0  0  0  0  0  0  0  0  0
  140.3541  146.1636  154.4528 C   0  0  0  0  0  0  0  0  0  0  0  0
  139.2554  146.7314  155.3300 C   0  0  0  0  0  0  0  0  0  0  0  0
  139.7016  146.3657  156.7488 C   0  0  0  0  0  0  0  0  0  0  0  0
  140.8825  145.5842  156.6008 O   0  0  0  0  0  0  0  0  0  0  0  0
  148.8857  140.9660  157.7326 C   0  0  0  0  0  0  0  0  0  0  0  0
  150.3753  141.1493  157.3602 C   0  0  1  0  0  0  0  0  0  0  0  0
  151.1416  139.8387  157.5066 C   0  0  0  0  0  0  0  0  0  0  0  0
  151.1207  139.2628  156.0992 C   0  0  0  0  0  0  0  0  0  0  0  0
  151.3280  140.4118  155.2994 O   0  0  0  0  0  0  0  0  0  0  0  0
  150.5913  141.4893  155.8665 C   0  0  0  0  0  0  0  0  0  0  0  0
  150.9740  142.1039  158.2418 O   0  0  0  0  0  0  0  0  0  0  0  0
  153.1501  144.6368  159.9537 H   0  0  0  0  0  0  0  0  0  0  0  0
  153.0666  144.2880  158.2333 H   0  0  0  0  0  0  0  0  0  0  0  0
  152.8819  142.9847  159.4071 H   0  0  0  0  0  0  0  0  0  0  0  0
  150.7779  144.0794  160.2586 H   0  0  0  0  0  0  0  0  0  0  0  0
  150.9179  145.3203  159.0422 H   0  0  0  0  0  0  0  0  0  0  0  0
  150.3739  143.8342  157.2805 H   0  0  0  0  0  0  0  0  0  0  0  0
  148.8082  142.8159  159.7105 H   0  0  0  0  0  0  0  0  0  0  0  0
  148.3581  144.1621  158.6875 H   0  0  0  0  0  0  0  0  0  0  0  0
  144.4625  141.6440  160.0353 H   0  0  0  0  0  0  0  0  0  0  0  0
  144.9736  143.5408  153.9042 H   0  0  0  0  0  0  0  0  0  0  0  0
  142.3489  142.3787  154.7688 H   0  0  0  0  0  0  0  0  0  0  0  0
  142.0769  142.9664  156.3936 H   0  0  0  0  0  0  0  0  0  0  0  0
  143.0410  145.2705  155.3011 H   0  0  0  0  0  0  0  0  0  0  0  0
  142.5879  143.6386  153.2382 H   0  0  0  0  0  0  0  0  0  0  0  0
  140.1967  144.1739  155.2780 H   0  0  0  0  0  0  0  0  0  0  0  0
  141.1290  146.9160  154.2986 H   0  0  0  0  0  0  0  0  0  0  0  0
  139.9925  145.8414  153.4760 H   0  0  0  0  0  0  0  0  0  0  0  0
  139.1325  147.8059  155.1916 H   0  0  0  0  0  0  0  0  0  0  0  0
  138.3029  146.2509  155.1028 H   0  0  0  0  0  0  0  0  0  0  0  0
  139.9140  147.2487  157.3524 H   0  0  0  0  0  0  0  0  0  0  0  0
  138.9332  145.7835  157.2587 H   0  0  0  0  0  0  0  0  0  0  0  0
  148.8045  140.4839  158.7080 H   0  0  0  0  0  0  0  0  0  0  0  0
  148.3958  140.3123  157.0096 H   0  0  0  0  0  0  0  0  0  0  0  0
  152.1758  140.0376  157.7920 H   0  0  0  0  0  0  0  0  0  0  0  0
  150.7188  139.1623  158.2503 H   0  0  0  0  0  0  0  0  0  0  0  0
  151.8955  138.5132  155.9366 H   0  0  0  0  0  0  0  0  0  0  0  0
  150.1513  138.8186  155.8679 H   0  0  0  0  0  0  0  0  0  0  0  0
  149.6424  141.5946  155.3391 H   0  0  0  0  0  0  0  0  0  0  0  0
  151.1552  142.4098  155.7178 H   0  0  0  0  0  0  0  0  0  0  0  0
  1  2  1  0  0  0  0
  1 30  1  0  0  0  0
  1 31  1  0  0  0  0
  1 32  1  0  0  0  0
  2  3  1  0  0  0  0
  2 33  1  0  0  0  0
  2 34  1  0  0  0  0
  3 29  1  0  0  0  0
  3  4  1  0  0  0  0
  3 35  1  0  0  0  0
  4  5  1  0  0  0  0
  4 36  1  0  0  0  0
  4 37  1  0  0  0  0
  5  6  1  0  0  0  0
  5 23  1  0  0  0  0
  6 11  1  0  0  0  0
  6  7  2  0  0  0  0
  7  8  1  0  0  0  0
  8  9  2  0  0  0  0
  8 38  1  0  0  0  0
  9 10  1  0  0  0  0
 10 14  1  0  0  0  0
 10 11  2  0  0  0  0
 11 12  1  0  0  0  0
 12 13  2  0  0  0  0
 13 14  1  0  0  0  0
 13 39  1  0  0  0  0
 14 15  1  0  0  0  0
 15 16  1  0  0  0  0
 15 40  1  0  0  0  0
 15 41  1  0  0  0  0
 16 17  1  0  0  0  0
 16 18  1  0  0  0  0
 16 42  1  0  0  0  0
 17 43  1  0  0  0  0
 18 22  1  0  0  0  0
 18 19  1  0  0  0  0
 18 44  1  0  0  0  0
 19 20  1  0  0  0  0
 19 45  1  0  0  0  0
 19 46  1  0  0  0  0
 20 21  1  0  0  0  0
 20 47  1  0  0  0  0
 20 48  1  0  0  0  0
 21 22  1  0  0  0  0
 21 49  1  0  0  0  0
 21 50  1  0  0  0  0
 23 24  1  0  0  0  0
 23 51  1  0  0  0  0
 23 52  1  0  0  0  0
 24 28  1  0  0  0  0
 24 25  1  0  0  0  0
 24 29  1  0  0  0  0
 25 26  1  0  0  0  0
 25 53  1  0  0  0  0
 25 54  1  0  0  0  0
 26 27  1  0  0  0  0
 26 55  1  0  0  0  0
 26 56  1  0  0  0  0
 27 28  1  0  0  0  0
 28 57  1  0  0  0  0
 28 58  1  0  0  0  0
M  END
> <s_m_source_file>
AV-unprocessed.smi

> <i_m_source_file_index>
229

> <i_lp_mmshare_version>
43012

> <i_f3d_flags>
0

> <s_epik_input>
W0NIMl0xT1tDSDJdW0NIMl1bQ0BdMTJbQ0gyXU4oW0NIMl1bQ0BIXShPMilbQ0gyXVtDSDNdKWMobltjSF1uMyljKGMzNCluW2NIXW40W0NIMl1bQ0BIXShbT0hdKVtDQEBIXTVbQ0gyXVtDSDJdW0NIMl1PNQ==

> <s_epik_cmdline>
J2VwaWtfcHl0aG9uJywgJy1waCcsICc3LjAnLCAnLXRuJywgJzgnLCAnLW1hJywgJzIwMCcsICctbWV0YWxfYmluZGluZycsICctaW1hZScsICc8aW5maWxlLm1hZT4nLCAnLW9tYWUnLCAnPG91dGZpbGUubWFlPic=

> <r_lp_tautomer_probability>
1

> <r_epik_Ionization_Penalty>
0.00318402

> <r_epik_Ionization_Penalty_Charging>
0

> <r_epik_Ionization_Penalty_Neutral>
0.00318402

> <r_epik_State_Penalty>
0.00215642

> <r_epik_Charging_Adjusted_Penalty>
0.00215642

> <i_epik_Tot_Q>
0

> <i_epik_Tot_abs_Q>
0

> <r_epik_Metal_State_Penalty>
-0

> <b_epik_Metal_Only>
0

> <s_lp_Force_Field>
OPLS_2005

> <r_lp_Energy>
54.6587

> <b_lp_Chiralities_Consistent>
1

> <s_lp_Variant>
AV-unprocessed.smi:229-3

> <Gold.Version>
5.8.1

> <Gold.Id.Protein>
6NUR|6NUR_protein|mol2

> <Gold.PLP.Fitness>
43.9035

> <Gold.PLP.PLP>
-37.9384

> <Gold.PLP.part.hbond>
-3.7344

> <Gold.PLP.part.metal>
0.0000

> <Gold.PLP.part.buried>
-7.0451

> <Gold.PLP.part.nonpolar>
-28.6440

> <Gold.PLP.part.repulsive>
0.8352

> <Gold.PLP.ligand.clash>
0.0000

> <Gold.PLP.ligand.torsion>
1.2610

> <Gold.PLP.Chemscore.Hbond>
2.6980

> <Gold.PLP.Chemscore.CHOScore>
0.0000

> <Gold.PLP.Chemscore.Metal>
0.0000

> <Gold.Chemscore.Hbonds>
donor molecule, donor type, donor heavy atom, donor atom, acceptor molecule, acceptor atom, score
      L1  H    17    43       P1 10174  1.00
      P1  H  6934  6946       L1     7  0.74
      P1  H  7989  7998       L1    27  0.94

> <Gold.PLP.Chemscore.Internal.Correction>
0.3932

> <Gold.Rescore>
     Score         DG    S(hbond)    S(metal)    S(lipo)     H(rot)  DE(clash)    DE(int)     intcor
     15.83     -17.32       2.57        0.00      81.65       2.46       0.08       1.41       ----

> <Gold.Chemscore.Fitness>
15.8302

> <Gold.Chemscore.DG>
-17.3217

> <Gold.Chemscore.ZeroCoef>
-5.4800

> <Gold.Chemscore.Hbond>
2.5701

> <Gold.Chemscore.Metal>
0.0000

> <Gold.Chemscore.Lipo>
81.6479

> <Gold.Chemscore.Internal_Hbond>
0.0000

> <Gold.Chemscore.DEClash>
0.0832

> <Gold.Chemscore.DEInternal>
1.4083

> <Gold.Chemscore.Rot>
2.4591

> <Gold.Chemscore.Internal.Correction>
   9.000000E+99

> <Gold.Chemscore.Hbonds>
donor molecule, donor type, donor heavy atom, donor atom, acceptor molecule, acceptor atom, score
      L1  H    17    43       P1 10174  0.93
      P1  H  6934  6946       L1     7  0.42
      P1  H  7989  7998       L1    27  0.50

> <Gold.Chemscore.Hbond.Weighted>
-8.5842

> <Gold.Chemscore.Metal.Weighted>
-0.0000

> <Gold.Chemscore.Lipo.Weighted>
-9.5528

> <Gold.Chemscore.Internal_Hbond.Weighted>
0.0000

> <Gold.Chemscore.DEClash.Weighted>
0.0832

> <Gold.Chemscore.DEInternal.Weighted>
1.4083

> <Gold.Chemscore.Rot.Weighted>
6.2953

> <Gold.Chemscore.Internal.Correction.Weighted>
   9.000000E+99

> <Gold.Protein.RotatedTorsions>
[ 6907 6896 6895 6894 ] final   -7.69 input  -60.11 | X-H torsion
[ 7974 7965 7964 7962 ] final -159.95 input  175.53 | X-H torsion
[ 8008 7997 7996 7995 ] final -103.03 input   59.86 | X-H torsion
[ 10167 10162 10161 10158 ] final  118.77 input  -65.29 | X-H torsion
[ 10718 10713 10712 10709 ] final  146.38 input   66.30 | X-H torsion
[ 10763 10752 10751 10750 ] final  142.46 input  -60.55 | X-H torsion
[ 11005 11000 10999 10996 ] final   58.66 input  -57.11 | X-H torsion

> <Gold.Protein.ActiveResidues>
 VAL166  LYS551  ARG553  GLY616  TRP617  ASP618  TYR619  PRO620  LYS621  CYS622 
 ASP623  PHE694  ASN695  SER759  ASP760  ASP761  ALA762  ILE779  LEU786  VAL792 
 PHE793  MET794  SER795  GLU796  ALA797  LYS798  CYS799  TRP800  GLU811  SER814 

> <Gold.Protein.RotatedAtoms>
  151.4456  135.1025  159.9682 H   0  0  0  0  0  0  0  0  0  0  0  0  # atno 6907 bound_to 6896
  152.4907  133.8488  159.7201 H   0  0  0  0  0  0  0  0  0  0  0  0  # atno 6908 bound_to 6896
  150.9058  133.7001  159.2894 H   0  0  0  0  0  0  0  0  0  0  0  0  # atno 6909 bound_to 6896
  144.7445  140.3611  143.6096 H   0  0  0  0  0  0  0  0  0  0  0  0  # atno 7974 bound_to 7965
  154.8651  140.0425  157.1690 H   0  0  0  0  0  0  0  0  0  0  0  0  # atno 8008 bound_to 7997
  154.8798  140.2971  155.5411 H   0  0  0  0  0  0  0  0  0  0  0  0  # atno 8009 bound_to 7997
  156.2999  140.2413  156.3799 H   0  0  0  0  0  0  0  0  0  0  0  0  # atno 8010 bound_to 7997
  139.6090  144.7077  151.2888 H   0  0  0  0  0  0  0  0  0  0  0  0  # atno 10167 bound_to 10162
  157.3339  131.0925  151.1140 H   0  0  0  0  0  0  0  0  0  0  0  0  # atno 10718 bound_to 10713
  153.9562  135.2965  155.3436 H   0  0  0  0  0  0  0  0  0  0  0  0  # atno 10763 bound_to 10752
  154.7400  135.5029  153.9109 H   0  0  0  0  0  0  0  0  0  0  0  0  # atno 10764 bound_to 10752
  153.0969  135.6723  153.9855 H   0  0  0  0  0  0  0  0  0  0  0  0  # atno 10765 bound_to 10752
  140.0361  134.5941  155.9442 H   0  0  0  0  0  0  0  0  0  0  0  0  # atno 11005 bound_to 11000
  145.7176  139.1701  143.2503 LP  0  0  0  0  0  0  0  0  0  0  0  0  # atno 17320 bound_to 7965
  146.1301  140.7197  142.9416 LP  0  0  0  0  0  0  0  0  0  0  0  0  # atno 17321 bound_to 7965
  140.7305  143.6877  150.7948 LP  0  0  0  0  0  0  0  0  0  0  0  0  # atno 17342 bound_to 10162
  140.0468  143.5290  152.2692 LP  0  0  0  0  0  0  0  0  0  0  0  0  # atno 17343 bound_to 10162
  157.2377  130.6555  149.5876 LP  0  0  0  0  0  0  0  0  0  0  0  0  # atno 17370 bound_to 10713
  155.9699  130.4578  150.5976 LP  0  0  0  0  0  0  0  0  0  0  0  0  # atno 17371 bound_to 10713
  141.1858  133.6556  156.5213 LP  0  0  0  0  0  0  0  0  0  0  0  0  # atno 17394 bound_to 11000
  140.4145  134.7242  157.4855 LP  0  0  0  0  0  0  0  0  0  0  0  0  # atno 17395 bound_to 11000

$$$$
