#       Name:                AV-unprocessed.smi:1132
#       Creating user name   scv26
#       Creation time:       Fri Mar 27 03:42:29 2020


#       File generated by GOLD software.
#

@<TRIPOS>MOLECULE
AV-unprocessed.smi:1132
    56    57     1
SMALL
NO_CHARGES


@<TRIPOS>ATOM
      1 ****        -2.0581  -0.5374  -4.0088 C.3            1 S1                 0.0000
      2 ****        -2.4622  -0.1097  -2.6857 N.am           1 S1                 0.0000
      3 ****        -3.2448  -0.9789  -1.8877 C.2            1 S1                 0.0000
      4 ****        -3.6069  -2.0904  -2.2737 O.2            1 S1                 0.0000
      5 ****        -3.5719  -0.4535  -0.5676 C.2            1 S1                 0.0000
      6 ****        -3.1288   0.7602  -0.1736 C.2            1 S1                 0.0000
      7 ****        -2.3520   1.5838  -0.9681 N.am           1 S1                 0.0000
      8 ****        -1.8698   2.8657  -0.4288 C.3            1 S1                 0.0000
      9 ****        -0.4478   2.8172   0.1588 C.2            1 S1                 0.0000
     10 ****        -0.0067   3.7993   0.7534 O.2            1 S1                 0.0000
     11 ****         0.2541   1.6822   0.0061 N.am           1 S1                 0.0000
     12 ****         1.6030   1.4188   0.4911 C.3            1 S1                 0.0000
     13 ****         2.3086   0.3507  -0.3587 C.3            1 S1                 0.0000
     14 ****         1.8501  -1.1081  -0.0989 C.3            1 S1                 0.0000
     15 ****         0.5196  -1.4480  -0.8086 C.3            1 S1                 0.0000
     16 ****         2.9145  -2.0505  -0.6934 C.3            1 S1                 0.0000
     17 ****         1.7838  -1.4021   1.3608 N.4            1 S1                 1.0000
     18 ****         1.1722  -0.4143   2.2951 C.3            1 S1                 0.0000
     19 ****        -0.3675  -0.5395   2.3258 C.3            1 S1                 0.0000
     20 ****         1.6696  -0.7746   3.7086 C.3            1 S1                 0.0000
     21 ****         1.6422   1.0293   1.9791 C.3            1 S1                 0.0000
     22 ****        -2.0056   1.1596  -2.2696 C.2            1 S1                 0.0000
     23 ****        -1.3073   1.8691  -2.9976 O.2            1 S1                 0.0000
     24 ****        -2.5354  -1.4770  -4.2851 H              1 S1                 0.0000
     25 ****        -0.9732  -0.6548  -3.9885 H              1 S1                 0.0000
     26 ****        -2.3622   0.2399  -4.7124 H              1 S1                 0.0000
     27 ****        -4.1707  -1.0484   0.1065 H              1 S1                 0.0000
     28 ****        -3.3892   1.0986   0.8190 H              1 S1                 0.0000
     29 ****        -1.9017   3.6359  -1.2011 H              1 S1                 0.0000
     30 ****        -2.5488   3.2116   0.3521 H              1 S1                 0.0000
     31 ****        -0.1922   0.9349  -0.5057 H              1 S1                 0.0000
     32 ****         2.1673   2.3458   0.3719 H              1 S1                 0.0000
     33 ****         2.2187   0.5936  -1.4188 H              1 S1                 0.0000
     34 ****         3.3745   0.4242  -0.1367 H              1 S1                 0.0000
     35 ****         0.6233  -1.3628  -1.8911 H              1 S1                 0.0000
     36 ****        -0.3036  -0.7980  -0.5349 H              1 S1                 0.0000
     37 ****         0.2061  -2.4704  -0.5951 H              1 S1                 0.0000
     38 ****         3.0399  -1.8851  -1.7644 H              1 S1                 0.0000
     39 ****         2.6444  -3.0982  -0.5539 H              1 S1                 0.0000
     40 ****         3.8889  -1.9025  -0.2256 H              1 S1                 0.0000
     41 ****         1.3420  -2.3003   1.4959 H              1 S1                 0.0000
     42 ****        -0.7897   0.0707   3.1252 H              1 S1                 0.0000
     43 ****        -0.6778  -1.5691   2.5079 H              1 S1                 0.0000
     44 ****        -0.8530  -0.2127   1.4131 H              1 S1                 0.0000
     45 ****         1.2827  -0.0806   4.4561 H              1 S1                 0.0000
     46 ****         2.7582  -0.7454   3.7709 H              1 S1                 0.0000
     47 ****         1.3551  -1.7777   4.0003 H              1 S1                 0.0000
     48 ****         2.6787   1.1350   2.3038 H              1 S1                 0.0000
     49 ****         1.0822   1.7504   2.5763 H              1 S1                 0.0000
     50 ****         2.7452  -1.4884   1.6581 H              1 S1                 0.0000
     51 ****        -3.3486  -2.4119  -3.1847 LP             1 S1                 0.0000
     52 ****        -4.1592  -2.6717  -1.6763 LP             1 S1                 0.0000
     53 ****        -0.5705   4.6193   0.8515 LP             1 S1                 0.0000
     54 ****         0.9159   3.7779   1.1387 LP             1 S1                 0.0000
     55 ****        -1.0500   1.5494  -3.9095 LP             1 S1                 0.0000
     56 ****        -0.9983   2.7642  -2.6760 LP             1 S1                 0.0000
@<TRIPOS>BOND
    1    1    2 1     
    2    1   24 1     
    3    1   25 1     
    4    1   26 1     
    5    2   22 am    
    6    2    3 am    
    7    3    4 2     
    8    3    5 1     
    9    5    6 2     
   10    5   27 1     
   11    6    7 1     
   12    6   28 1     
   13    7    8 1     
   14    7   22 am    
   15    8    9 1     
   16    8   29 1     
   17    8   30 1     
   18    9   10 2     
   19    9   11 am    
   20   11   12 1     
   21   11   31 1     
   22   12   21 1     
   23   12   13 1     
   24   12   32 1     
   25   13   14 1     
   26   13   33 1     
   27   13   34 1     
   28   14   15 1     
   29   14   16 1     
   30   14   17 1     
   31   15   35 1     
   32   15   36 1     
   33   15   37 1     
   34   16   38 1     
   35   16   39 1     
   36   16   40 1     
   37   17   18 1     
   38   17   41 1     
   39   17   50 1     
   40   18   19 1     
   41   18   20 1     
   42   18   21 1     
   43   19   42 1     
   44   19   43 1     
   45   19   44 1     
   46   20   45 1     
   47   20   46 1     
   48   20   47 1     
   49   21   48 1     
   50   21   49 1     
   51   22   23 2     
   52    4   51 1     
   53    4   52 1     
   54   10   53 1     
   55   10   54 1     
   56   23   55 1     
   57   23   56 1     
@<TRIPOS>SUBSTRUCTURE
      1 S1             1
@<TRIPOS>SET
LONE_PAIRS      STATIC     ATOMS    <user>   **** ""
6 51 52 53 54 55 56
DONOR_HYDROGENS      STATIC     ATOMS    <user>   **** ""
3 31 41 50
ATOM$BLUE        STATIC     ATOMS    COLORGROUP SYSTEM
6 51 52 53 54 55 56
ATOM$RED        STATIC     ATOMS    COLORGROUP SYSTEM
3 31 41 50
