AV-unprocessed.smi:1049|AV-procd|sdf|4610|dock3
  -GOLD-   22720 3103D 1   1.00000     0.00000
 Structure written by MMmdl.
 41 42  0  0  0  0  0  0  0  0  2 V2000
  151.5864  140.4558  157.7052 C   0  0  0  0  0  0  0  0  0  0  0  0
  150.8531  139.5340  156.7213 C   0  0  2  0  0  0  0  0  0  0  0  0
  151.6069  138.2000  156.5261 C   0  0  0  0  0  0  0  0  0  0  0  0
  150.9566  137.3193  155.4422 C   0  0  0  0  0  0  0  0  0  0  0  0
  150.7242  138.1216  154.1496 C   0  0  0  0  0  0  0  0  0  0  0  0
  149.9040  139.3023  154.4707 N   0  0  0  0  0  0  0  0  0  0  0  0
  148.5802  139.4509  154.2115 C   0  0  0  0  0  0  0  0  0  0  0  0
  147.9115  140.3986  154.6259 O   0  0  0  0  0  0  0  0  0  0  0  0
  148.0435  138.4786  153.4555 N   0  0  0  0  0  0  0  0  0  0  0  0
  146.6373  138.3785  153.0766 C   0  0  0  0  0  0  0  0  0  0  0  0
  145.9899  137.0362  153.4799 C   0  0  0  0  0  0  0  0  0  0  0  0
  145.5181  136.1951  152.3295 C   0  0  0  0  0  0  0  0  0  0  0  0
  146.3053  135.7118  151.3604 N   0  3  0  0  0  0  0  0  0  0  0  0
  145.5689  134.9990  150.4553 C   0  0  0  0  0  0  0  0  0  0  0  0
  144.2713  135.0454  150.8922 C   0  0  0  0  0  0  0  0  0  0  0  0
  144.2679  135.7882  152.0458 N   0  0  0  0  0  0  0  0  0  0  0  0
  143.0941  136.0875  152.8727 C   0  0  0  0  0  0  0  0  0  0  0  0
  143.2198  135.5285  154.0760 F   0  0  0  0  0  0  0  0  0  0  0  0
  142.9212  137.4032  152.9864 F   0  0  0  0  0  0  0  0  0  0  0  0
  150.6266  140.2226  155.3582 C   0  0  0  0  0  0  0  0  0  0  0  0
  152.5750  140.7268  157.3330 H   0  0  0  0  0  0  0  0  0  0  0  0
  151.7161  139.9728  158.6741 H   0  0  0  0  0  0  0  0  0  0  0  0
  151.0288  141.3786  157.8687 H   0  0  0  0  0  0  0  0  0  0  0  0
  149.8750  139.3084  157.1495 H   0  0  0  0  0  0  0  0  0  0  0  0
  152.6380  138.4088  156.2370 H   0  0  0  0  0  0  0  0  0  0  0  0
  151.6579  137.6531  157.4682 H   0  0  0  0  0  0  0  0  0  0  0  0
  151.5866  136.4529  155.2391 H   0  0  0  0  0  0  0  0  0  0  0  0
  150.0053  136.9313  155.8072 H   0  0  0  0  0  0  0  0  0  0  0  0
  151.6807  138.4508  153.7405 H   0  0  0  0  0  0  0  0  0  0  0  0
  150.2935  137.4758  153.3846 H   0  0  0  0  0  0  0  0  0  0  0  0
  148.6557  137.7436  153.1317 H   0  0  0  0  0  0  0  0  0  0  0  0
  146.0731  139.2131  153.4953 H   0  0  0  0  0  0  0  0  0  0  0  0
  146.5934  138.4965  151.9946 H   0  0  0  0  0  0  0  0  0  0  0  0
  146.7045  136.4247  154.0322 H   0  0  0  0  0  0  0  0  0  0  0  0
  145.1432  137.2008  154.1455 H   0  0  0  0  0  0  0  0  0  0  0  0
  146.0125  134.5234  149.5926 H   0  0  0  0  0  0  0  0  0  0  0  0
  143.3720  134.6132  150.4780 H   0  0  0  0  0  0  0  0  0  0  0  0
  142.2023  135.6732  152.4012 H   0  0  0  0  0  0  0  0  0  0  0  0
  150.0985  141.1676  155.4946 H   0  0  0  0  0  0  0  0  0  0  0  0
  151.5829  140.4865  154.9038 H   0  0  0  0  0  0  0  0  0  0  0  0
  147.3058  135.8576  151.3080 H   0  0  0  0  0  0  0  0  0  0  0  0
  1  2  1  0  0  0  0
  1 21  1  0  0  0  0
  1 22  1  0  0  0  0
  1 23  1  0  0  0  0
  2 20  1  0  0  0  0
  2  3  1  0  0  0  0
  2 24  1  0  0  0  0
  3  4  1  0  0  0  0
  3 25  1  0  0  0  0
  3 26  1  0  0  0  0
  4  5  1  0  0  0  0
  4 27  1  0  0  0  0
  4 28  1  0  0  0  0
  5  6  1  0  0  0  0
  5 29  1  0  0  0  0
  5 30  1  0  0  0  0
  6  7  1  0  0  0  0
  6 20  1  0  0  0  0
  7  8  2  0  0  0  0
  7  9  1  0  0  0  0
  9 10  1  0  0  0  0
  9 31  1  0  0  0  0
 10 11  1  0  0  0  0
 10 32  1  0  0  0  0
 10 33  1  0  0  0  0
 11 12  1  0  0  0  0
 11 34  1  0  0  0  0
 11 35  1  0  0  0  0
 12 16  1  0  0  0  0
 12 13  2  0  0  0  0
 13 14  1  0  0  0  0
 13 41  1  0  0  0  0
 14 15  2  0  0  0  0
 14 36  1  0  0  0  0
 15 16  1  0  0  0  0
 15 37  1  0  0  0  0
 16 17  1  0  0  0  0
 17 18  1  0  0  0  0
 17 19  1  0  0  0  0
 17 38  1  0  0  0  0
 20 39  1  0  0  0  0
 20 40  1  0  0  0  0
M  CHG  1  13   1
M  END
> <s_m_source_file>
AV-unprocessed.smi

> <i_m_source_file_index>
1049

> <i_lp_mmshare_version>
43012

> <i_f3d_flags>
0

> <s_epik_input>
W0NIM11bQ0BASF0xW0NIMl1bQ0gyXVtDSDJdTihbQ0gyXTEpQyg9TylbTkhdW0NIMl1bQ0gyXWMybltjSF1bY0hdbjJbQ0hdKEYpRg==

> <s_epik_cmdline>
J2VwaWtfcHl0aG9uJywgJy1waCcsICc3LjAnLCAnLXRuJywgJzgnLCAnLW1hJywgJzIwMCcsICctbWV0YWxfYmluZGluZycsICctaW1hZScsICc8aW5maWxlLm1hZT4nLCAnLW9tYWUnLCAnPG91dGZpbGUubWFlPic=

> <r_lp_tautomer_probability>
1

> <r_epik_Ionization_Penalty>
1.09766

> <r_epik_Ionization_Penalty_Charging>
0

> <r_epik_Ionization_Penalty_Neutral>
1.09766

> <r_epik_State_Penalty>
1.15444

> <r_epik_Charging_Adjusted_Penalty>
1.15444

> <i_epik_Tot_Q>
1

> <i_epik_Tot_abs_Q>
1

> <r_epik_Metal_State_Penalty>
1.24204

> <b_epik_Metal_Only>
0

> <s_lp_Force_Field>
OPLS_2005

> <r_lp_Energy>
36.2432

> <b_lp_Chiralities_Consistent>
1

> <s_lp_Variant>
AV-unprocessed.smi:1049-3

> <Gold.Version>
5.8.1

> <Gold.Id.Protein>
6NUR|6NUR_protein|mol2

> <Gold.PLP.Fitness>
43.2127

> <Gold.PLP.PLP>
-31.9786

> <Gold.PLP.part.hbond>
-2.5345

> <Gold.PLP.part.metal>
0.0000

> <Gold.PLP.part.buried>
-2.0456

> <Gold.PLP.part.nonpolar>
-27.9221

> <Gold.PLP.part.repulsive>
0.2058

> <Gold.PLP.ligand.clash>
0.0000

> <Gold.PLP.ligand.torsion>
0.4204

> <Gold.PLP.Chemscore.Hbond>
3.0000

> <Gold.PLP.Chemscore.CHOScore>
1.0000

> <Gold.PLP.Chemscore.Metal>
0.0000

> <Gold.Chemscore.Hbonds>
donor molecule, donor type, donor heavy atom, donor atom, acceptor molecule, acceptor atom, score
      L1  H     9    31       P1  7948  0.96
      L1  H    13    41       P1  7948  2.00
      L1  C    15    37       P1 10186  0.98

> <Gold.PLP.Chemscore.Internal.Correction>
0.0749

> <Gold.Rescore>
     Score         DG    S(hbond)    S(metal)    S(lipo)     H(rot)  DE(clash)    DE(int)     intcor
     14.44     -14.87       1.98        0.00      58.95       1.61       0.06       0.37       ----

> <Gold.Chemscore.Fitness>
14.4415

> <Gold.Chemscore.DG>
-14.8673

> <Gold.Chemscore.ZeroCoef>
-5.4800

> <Gold.Chemscore.Hbond>
1.9760

> <Gold.Chemscore.Metal>
0.0000

> <Gold.Chemscore.Lipo>
58.9453

> <Gold.Chemscore.Internal_Hbond>
0.0000

> <Gold.Chemscore.DEClash>
0.0589

> <Gold.Chemscore.DEInternal>
0.3668

> <Gold.Chemscore.Rot>
1.6051

> <Gold.Chemscore.Internal.Correction>
   9.000000E+99

> <Gold.Chemscore.Hbonds>
donor molecule, donor type, donor heavy atom, donor atom, acceptor molecule, acceptor atom, score
      L1  H     9    31       P1  7948  0.90
      L1  H    13    41       P1  7948  0.98

> <Gold.Chemscore.Hbond.Weighted>
-6.5998

> <Gold.Chemscore.Metal.Weighted>
-0.0000

> <Gold.Chemscore.Lipo.Weighted>
-6.8966

> <Gold.Chemscore.Internal_Hbond.Weighted>
0.0000

> <Gold.Chemscore.DEClash.Weighted>
0.0589

> <Gold.Chemscore.DEInternal.Weighted>
0.3668

> <Gold.Chemscore.Rot.Weighted>
4.1092

> <Gold.Chemscore.Internal.Correction.Weighted>
   9.000000E+99

> <Gold.Protein.RotatedTorsions>
[ 6907 6896 6895 6894 ] final -106.81 input  -60.11 | X-H torsion
[ 7974 7965 7964 7962 ] final   29.13 input  175.53 | X-H torsion
[ 8008 7997 7996 7995 ] final -166.91 input   59.86 | X-H torsion
[ 10167 10162 10161 10158 ] final   -5.58 input  -65.29 | X-H torsion
[ 10718 10713 10712 10709 ] final  -60.86 input   66.30 | X-H torsion
[ 10763 10752 10751 10750 ] final   53.35 input  -60.55 | X-H torsion
[ 11005 11000 10999 10996 ] final  171.36 input  -57.11 | X-H torsion

> <Gold.Protein.ActiveResidues>
 VAL166  LYS551  ARG553  GLY616  TRP617  ASP618  TYR619  PRO620  LYS621  CYS622 
 ASP623  PHE694  ASN695  SER759  ASP760  ASP761  ALA762  ILE779  LEU786  VAL792 
 PHE793  MET794  SER795  GLU796  ALA797  LYS798  CYS799  TRP800  GLU811  SER814 

> <Gold.Protein.RotatedAtoms>
  150.7409  133.9920  159.3609 H   0  0  0  0  0  0  0  0  0  0  0  0  # atno 6907 bound_to 6896
  151.7868  135.0744  160.0391 H   0  0  0  0  0  0  0  0  0  0  0  0  # atno 6908 bound_to 6896
  152.3235  133.5843  159.5797 H   0  0  0  0  0  0  0  0  0  0  0  0  # atno 6909 bound_to 6896
  146.1689  139.6962  142.8981 H   0  0  0  0  0  0  0  0  0  0  0  0  # atno 7974 bound_to 7965
  155.8705  140.0992  157.1553 H   0  0  0  0  0  0  0  0  0  0  0  0  # atno 8008 bound_to 7997
  154.3996  140.1348  156.4135 H   0  0  0  0  0  0  0  0  0  0  0  0  # atno 8009 bound_to 7997
  155.7756  140.3460  155.5272 H   0  0  0  0  0  0  0  0  0  0  0  0  # atno 8010 bound_to 7997
  140.6968  143.6292  150.8539 H   0  0  0  0  0  0  0  0  0  0  0  0  # atno 10167 bound_to 10162
  156.0962  130.4192  150.0912 H   0  0  0  0  0  0  0  0  0  0  0  0  # atno 10718 bound_to 10713
  152.9795  135.5781  154.4728 H   0  0  0  0  0  0  0  0  0  0  0  0  # atno 10763 bound_to 10752
  154.4288  135.2773  155.1928 H   0  0  0  0  0  0  0  0  0  0  0  0  # atno 10764 bound_to 10752
  154.3646  135.6181  153.5762 H   0  0  0  0  0  0  0  0  0  0  0  0  # atno 10765 bound_to 10752
  140.3181  134.7460  157.4043 H   0  0  0  0  0  0  0  0  0  0  0  0  # atno 11005 bound_to 11000
  145.4394  141.0421  143.2866 LP  0  0  0  0  0  0  0  0  0  0  0  0  # atno 17320 bound_to 7965
  144.8133  139.5922  143.7019 LP  0  0  0  0  0  0  0  0  0  0  0  0  # atno 17321 bound_to 7965
  140.0011  143.5743  152.2875 LP  0  0  0  0  0  0  0  0  0  0  0  0  # atno 17342 bound_to 10162
  139.6433  144.7656  151.2295 LP  0  0  0  0  0  0  0  0  0  0  0  0  # atno 17343 bound_to 10162
  156.8911  130.9589  151.3588 LP  0  0  0  0  0  0  0  0  0  0  0  0  # atno 17370 bound_to 10713
  157.6123  130.8592  149.8971 LP  0  0  0  0  0  0  0  0  0  0  0  0  # atno 17371 bound_to 10713
  140.0965  134.5530  155.8393 LP  0  0  0  0  0  0  0  0  0  0  0  0  # atno 17394 bound_to 11000
  141.2093  133.6682  156.6428 LP  0  0  0  0  0  0  0  0  0  0  0  0  # atno 17395 bound_to 11000

$$$$
