#       Name:                AV-unprocessed.smi:912
#       Creating user name   scv26
#       Creation time:       Fri Mar 27 02:05:24 2020


#       File generated by GOLD software.
#

@<TRIPOS>MOLECULE
AV-unprocessed.smi:912
    30    30     1
SMALL
NO_CHARGES


@<TRIPOS>ATOM
      1 ****        -2.1259   2.0076   0.1713 C.3            1 S1                 0.0000
      2 ****        -1.4524   0.7043  -0.0321 N.4            1 S1                 1.0000
      3 ****         0.0408   0.6819  -0.0313 C.3            1 S1                 0.0000
      4 ****         0.5925   1.3843   1.2342 C.3            1 S1                 0.0000
      5 ****         0.5247   1.3951  -1.3307 C.2            1 S1                 0.0000
      6 ****        -0.0330   0.8996  -2.4589 N.pl3          1 S1                -1.0000
      7 ****         1.3363   2.3171  -1.2624 O.2            1 S1                 0.0000
      8 ****         0.5281  -0.7845   0.0063 C.ar           1 S1                 0.0000
      9 ****         1.7906  -1.1695  -0.5120 C.ar           1 S1                 0.0000
     10 ****         2.1929  -2.5163  -0.4204 C.ar           1 S1                 0.0000
     11 ****         1.4427  -3.4770   0.1565 N.ar           1 S1                 0.0000
     12 ****         0.2518  -3.1140   0.6735 C.ar           1 S1                 0.0000
     13 ****        -0.2436  -1.7955   0.6327 C.ar           1 S1                 0.0000
     14 ****        -3.2005   1.8810   0.0430 H              1 S1                 0.0000
     15 ****        -1.7922   2.7549  -0.5488 H              1 S1                 0.0000
     16 ****        -1.9590   2.3902   1.1780 H              1 S1                 0.0000
     17 ****        -1.7714   0.0739   0.6884 H              1 S1                 0.0000
     18 ****         1.6786   1.2967   1.2917 H              1 S1                 0.0000
     19 ****         0.1853   0.9379   2.1420 H              1 S1                 0.0000
     20 ****         0.3594   2.4493   1.2581 H              1 S1                 0.0000
     21 ****        -0.6814   0.1065  -2.3898 H              1 S1                 0.0000
     22 ****         2.4543  -0.4533  -0.9736 H              1 S1                 0.0000
     23 ****         3.1488  -2.8278  -0.8146 H              1 S1                 0.0000
     24 ****        -0.3243  -3.8981   1.1425 H              1 S1                 0.0000
     25 ****        -1.2000  -1.5835   1.0861 H              1 S1                 0.0000
     26 ****        -1.7431   0.3398  -0.9286 H              1 S1                 0.0000
     27 ****         0.1834   1.3006  -3.3491 LP             1 S1                 0.0000
     28 ****         1.6865   2.6100  -0.3728 LP             1 S1                 0.0000
     29 ****         1.6458   2.7736  -2.0966 LP             1 S1                 0.0000
     30 ****         1.7585  -4.4249   0.1992 LP             1 S1                 0.0000
@<TRIPOS>BOND
    1    1    2 1     
    2    1   14 1     
    3    1   15 1     
    4    1   16 1     
    5    2    3 1     
    6    2   17 1     
    7    2   26 1     
    8    3    4 1     
    9    3    5 1     
   10    3    8 1     
   11    4   18 1     
   12    4   19 1     
   13    4   20 1     
   14    5    6 1     
   15    5    7 2     
   16    6   21 1     
   17    8   13 ar    
   18    8    9 ar    
   19    9   10 ar    
   20    9   22 1     
   21   10   11 ar    
   22   10   23 1     
   23   11   12 ar    
   24   12   13 ar    
   25   12   24 1     
   26   13   25 1     
   27    6   27 1     
   28    7   28 1     
   29    7   29 1     
   30   11   30 1     
@<TRIPOS>SUBSTRUCTURE
      1 S1             1
@<TRIPOS>SET
LONE_PAIRS      STATIC     ATOMS    <user>   **** ""
4 27 28 29 30
DONOR_HYDROGENS      STATIC     ATOMS    <user>   **** ""
3 17 26 21
ATOM$BLUE        STATIC     ATOMS    COLORGROUP SYSTEM
4 27 28 29 30
ATOM$RED        STATIC     ATOMS    COLORGROUP SYSTEM
3 17 26 21
