AV-unprocessed.smi:625|AV-procd|sdf|3103|dock9
  -GOLD-   22720 0 23D 1   1.00000     0.00000
 Structure written by MMmdl.
 49 51  0  0  0  0  0  0  0  0  1 V2000
  146.1425  131.8530  151.6001 C   0  0  0  0  0  0  0  0  0  0  0  0
  147.2239  131.9929  152.5631 N   0  0  0  0  0  0  0  0  0  0  0  0
  147.6906  133.1671  153.0228 C   0  0  0  0  0  0  0  0  0  0  0  0
  147.2245  134.2410  152.6403 O   0  0  0  0  0  0  0  0  0  0  0  0
  148.7714  133.0422  154.0051 C   0  0  0  0  0  0  0  0  0  0  0  0
  149.4740  131.7805  154.1340 C   0  0  0  0  0  0  0  0  0  0  0  0
  150.4970  131.6463  155.0011 C   0  0  0  0  0  0  0  0  0  0  0  0
  150.9438  132.7580  155.8459 C   0  0  0  0  0  0  0  0  0  0  0  0
  151.8923  132.6467  156.6225 O   0  0  0  0  0  0  0  0  0  0  0  0
  150.2423  133.9236  155.7102 N   0  0  0  0  0  0  0  0  0  0  0  0
  150.6102  135.1364  156.4575 C   0  0  0  0  0  0  0  0  0  0  0  0
  151.0189  136.2608  155.4998 C   0  0  0  0  0  0  0  0  0  0  0  0
  151.1544  136.0329  154.2977 O   0  0  0  0  0  0  0  0  0  0  0  0
  151.1853  137.4733  156.0509 N   0  0  0  0  0  0  0  0  0  0  0  0
  151.4168  138.7197  155.3241 C   0  0  2  0  0  0  0  0  0  0  0  0
  152.4572  138.4553  154.2239 C   0  0  0  0  0  0  0  0  0  0  0  0
  151.8680  139.8297  156.3087 C   0  0  1  0  0  0  0  0  0  0  0  0
  151.7296  141.2593  155.7309 C   0  0  0  0  0  0  0  0  0  0  0  0
  150.8980  141.9956  156.7963 C   0  0  2  0  0  0  0  0  0  0  0  0
  151.7438  142.1913  158.0676 C   0  0  0  0  0  0  0  0  0  0  0  0
  151.8131  140.7673  158.6480 C   0  0  0  0  0  0  0  0  0  0  0  0
  151.0300  139.9397  157.6116 C   0  0  1  0  0  0  0  0  0  0  0  0
  149.9203  140.9102  157.2255 C   0  0  0  0  0  0  0  0  0  0  0  0
  149.1730  134.0559  154.8018 C   0  0  0  0  0  0  0  0  0  0  0  0
  145.9671  130.7980  151.3907 H   0  0  0  0  0  0  0  0  0  0  0  0
  146.3893  132.3513  150.6619 H   0  0  0  0  0  0  0  0  0  0  0  0
  145.2180  132.2804  151.9905 H   0  0  0  0  0  0  0  0  0  0  0  0
  147.6419  131.1429  152.9125 H   0  0  0  0  0  0  0  0  0  0  0  0
  149.1852  130.9298  153.5334 H   0  0  0  0  0  0  0  0  0  0  0  0
  151.0039  130.6954  155.0755 H   0  0  0  0  0  0  0  0  0  0  0  0
  149.7659  135.4523  157.0731 H   0  0  0  0  0  0  0  0  0  0  0  0
  151.4268  134.9607  157.1592 H   0  0  0  0  0  0  0  0  0  0  0  0
  151.0676  137.5524  157.0507 H   0  0  0  0  0  0  0  0  0  0  0  0
  150.4961  139.0408  154.8348 H   0  0  0  0  0  0  0  0  0  0  0  0
  152.6372  139.3438  153.6192 H   0  0  0  0  0  0  0  0  0  0  0  0
  152.1199  137.6680  153.5487 H   0  0  0  0  0  0  0  0  0  0  0  0
  153.4129  138.1431  154.6466 H   0  0  0  0  0  0  0  0  0  0  0  0
  152.9100  139.6397  156.5712 H   0  0  0  0  0  0  0  0  0  0  0  0
  152.6970  141.7324  155.5587 H   0  0  0  0  0  0  0  0  0  0  0  0
  151.1908  141.2575  154.7826 H   0  0  0  0  0  0  0  0  0  0  0  0
  150.4358  142.9133  156.4321 H   0  0  0  0  0  0  0  0  0  0  0  0
  152.7306  142.6006  157.8482 H   0  0  0  0  0  0  0  0  0  0  0  0
  151.2480  142.8661  158.7668 H   0  0  0  0  0  0  0  0  0  0  0  0
  152.8371  140.4158  158.7780 H   0  0  0  0  0  0  0  0  0  0  0  0
  151.3231  140.7286  159.6213 H   0  0  0  0  0  0  0  0  0  0  0  0
  150.6805  138.9925  158.0190 H   0  0  0  0  0  0  0  0  0  0  0  0
  149.2896  141.2038  158.0665 H   0  0  0  0  0  0  0  0  0  0  0  0
  149.2872  140.5477  156.4143 H   0  0  0  0  0  0  0  0  0  0  0  0
  148.7335  135.0433  154.7953 H   0  0  0  0  0  0  0  0  0  0  0  0
  1  2  1  0  0  0  0
  1 25  1  0  0  0  0
  1 26  1  0  0  0  0
  1 27  1  0  0  0  0
  2  3  1  0  0  0  0
  2 28  1  0  0  0  0
  3  4  2  0  0  0  0
  3  5  1  0  0  0  0
  5 24  2  0  0  0  0
  5  6  1  0  0  0  0
  6  7  2  0  0  0  0
  6 29  1  0  0  0  0
  7  8  1  0  0  0  0
  7 30  1  0  0  0  0
  8  9  2  0  0  0  0
  8 10  1  0  0  0  0
 10 11  1  0  0  0  0
 10 24  1  0  0  0  0
 11 12  1  0  0  0  0
 11 31  1  0  0  0  0
 11 32  1  0  0  0  0
 12 13  2  0  0  0  0
 12 14  1  0  0  0  0
 14 15  1  0  0  0  0
 14 33  1  0  0  0  0
 15 16  1  0  0  0  0
 15 17  1  0  0  0  0
 15 34  1  0  0  0  0
 16 35  1  0  0  0  0
 16 36  1  0  0  0  0
 16 37  1  0  0  0  0
 17 22  1  0  0  0  0
 17 18  1  0  0  0  0
 17 38  1  0  0  0  0
 18 19  1  0  0  0  0
 18 39  1  0  0  0  0
 18 40  1  0  0  0  0
 19 23  1  0  0  0  0
 19 20  1  0  0  0  0
 19 41  1  0  0  0  0
 20 21  1  0  0  0  0
 20 42  1  0  0  0  0
 20 43  1  0  0  0  0
 21 22  1  0  0  0  0
 21 44  1  0  0  0  0
 21 45  1  0  0  0  0
 22 23  1  0  0  0  0
 22 46  1  0  0  0  0
 23 47  1  0  0  0  0
 23 48  1  0  0  0  0
 24 49  1  0  0  0  0
M  END
> <s_m_source_file>
AV-unprocessed.smi

> <i_m_source_file_index>
625

> <i_lp_mmshare_version>
43012

> <i_f3d_flags>
0

> <s_epik_input>
W0NIM11bTkhdQyg9TyljMVtjSF1bY0hdYyg9TyluKFtjSF0xKVtDSDJdQyg9TylbTkhdW0NASF0oW0NIM10pW0NASF0oW0NIMl1bQ0BIXTIzKVtDQEhdKFtDSDJdMylbQ0gyXVtDSDJdMg==

> <s_epik_cmdline>
J2VwaWtfcHl0aG9uJywgJy1waCcsICc3LjAnLCAnLXRuJywgJzgnLCAnLW1hJywgJzIwMCcsICctbWV0YWxfYmluZGluZycsICctaW1hZScsICc8aW5maWxlLm1hZT4nLCAnLW9tYWUnLCAnPG91dGZpbGUubWFlPic=

> <r_lp_tautomer_probability>
1

> <r_epik_Ionization_Penalty>
3.7129e-07

> <r_epik_Ionization_Penalty_Charging>
5.04114e-08

> <r_epik_Ionization_Penalty_Neutral>
3.20879e-07

> <r_epik_State_Penalty>
-0

> <r_epik_Charging_Adjusted_Penalty>
5.04114e-08

> <i_epik_Tot_Q>
0

> <i_epik_Tot_abs_Q>
0

> <r_epik_Metal_State_Penalty>
-0

> <b_epik_Metal_Only>
0

> <s_lp_Force_Field>
OPLS_2005

> <r_lp_Energy>
63.7952

> <b_lp_Chiralities_Consistent>
1

> <s_lp_Variant>
AV-unprocessed.smi:625-3

> <Gold.Version>
5.8.1

> <Gold.Id.Protein>
6NUR|6NUR_protein|mol2

> <Gold.PLP.Fitness>
39.6947

> <Gold.PLP.PLP>
-37.7947

> <Gold.PLP.part.hbond>
-2.0000

> <Gold.PLP.part.metal>
0.0000

> <Gold.PLP.part.buried>
-4.9426

> <Gold.PLP.part.nonpolar>
-31.5751

> <Gold.PLP.part.repulsive>
2.5646

> <Gold.PLP.ligand.clash>
0.0000

> <Gold.PLP.ligand.torsion>
0.5784

> <Gold.PLP.Chemscore.Hbond>
1.0000

> <Gold.PLP.Chemscore.CHOScore>
0.0000

> <Gold.PLP.Chemscore.Metal>
0.0000

> <Gold.Chemscore.Hbonds>
donor molecule, donor type, donor heavy atom, donor atom, acceptor molecule, acceptor atom, score
      P1  H 10752 10763       L1    13  0.90

> <Gold.PLP.Chemscore.Internal.Correction>
0.0567

> <Gold.Rescore>
     Score         DG    S(hbond)    S(metal)    S(lipo)     H(rot)  DE(clash)    DE(int)     intcor
     12.21     -14.30       0.97        0.00      84.17       1.67       0.17       1.92       ----

> <Gold.Chemscore.Fitness>
12.2132

> <Gold.Chemscore.DG>
-14.2968

> <Gold.Chemscore.ZeroCoef>
-5.4800

> <Gold.Chemscore.Hbond>
0.9719

> <Gold.Chemscore.Metal>
0.0000

> <Gold.Chemscore.Lipo>
84.1715

> <Gold.Chemscore.Internal_Hbond>
0.0000

> <Gold.Chemscore.DEClash>
0.1683

> <Gold.Chemscore.DEInternal>
1.9153

> <Gold.Chemscore.Rot>
1.6709

> <Gold.Chemscore.Internal.Correction>
   9.000000E+99

> <Gold.Chemscore.Hbonds>
donor molecule, donor type, donor heavy atom, donor atom, acceptor molecule, acceptor atom, score
      P1  H 10752 10763       L1    13  0.18

> <Gold.Chemscore.Hbond.Weighted>
-3.2461

> <Gold.Chemscore.Metal.Weighted>
-0.0000

> <Gold.Chemscore.Lipo.Weighted>
-9.8481

> <Gold.Chemscore.Internal_Hbond.Weighted>
0.0000

> <Gold.Chemscore.DEClash.Weighted>
0.1683

> <Gold.Chemscore.DEInternal.Weighted>
1.9153

> <Gold.Chemscore.Rot.Weighted>
4.2774

> <Gold.Chemscore.Internal.Correction.Weighted>
   9.000000E+99

> <Gold.Protein.RotatedTorsions>
[ 6907 6896 6895 6894 ] final -101.37 input  -60.11 | X-H torsion
[ 7974 7965 7964 7962 ] final  -84.12 input  175.53 | X-H torsion
[ 8008 7997 7996 7995 ] final   21.99 input   59.86 | X-H torsion
[ 10167 10162 10161 10158 ] final -115.70 input  -65.29 | X-H torsion
[ 10718 10713 10712 10709 ] final   43.56 input   66.30 | X-H torsion
[ 10763 10752 10751 10750 ] final   44.73 input  -60.55 | X-H torsion
[ 11005 11000 10999 10996 ] final -154.80 input  -57.11 | X-H torsion

> <Gold.Protein.ActiveResidues>
 VAL166  LYS551  ARG553  GLY616  TRP617  ASP618  TYR619  PRO620  LYS621  CYS622 
 ASP623  PHE694  ASN695  SER759  ASP760  ASP761  ALA762  ILE779  LEU786  VAL792 
 PHE793  MET794  SER795  GLU796  ALA797  LYS798  CYS799  TRP800  GLU811  SER814 

> <Gold.Protein.RotatedAtoms>
  150.7152  134.0744  159.3875 H   0  0  0  0  0  0  0  0  0  0  0  0  # atno 6907 bound_to 6896
  151.8726  135.0481  160.0490 H   0  0  0  0  0  0  0  0  0  0  0  0  # atno 6908 bound_to 6896
  152.2631  133.5279  159.5430 H   0  0  0  0  0  0  0  0  0  0  0  0  # atno 6909 bound_to 6896
  145.5109  140.9540  143.1708 H   0  0  0  0  0  0  0  0  0  0  0  0  # atno 7974 bound_to 7965
  154.9589  140.3075  155.5040 H   0  0  0  0  0  0  0  0  0  0  0  0  # atno 8008 bound_to 7997
  156.2979  140.2305  156.4611 H   0  0  0  0  0  0  0  0  0  0  0  0  # atno 8009 bound_to 7997
  154.7984  140.0435  157.1243 H   0  0  0  0  0  0  0  0  0  0  0  0  # atno 8010 bound_to 7997
  140.0873  143.4732  152.1891 H   0  0  0  0  0  0  0  0  0  0  0  0  # atno 10167 bound_to 10162
  157.4172  130.7948  149.7483 H   0  0  0  0  0  0  0  0  0  0  0  0  # atno 10718 bound_to 10713
  152.9836  135.6061  154.3322 H   0  0  0  0  0  0  0  0  0  0  0  0  # atno 10763 bound_to 10752
  154.3025  135.2772  155.2606 H   0  0  0  0  0  0  0  0  0  0  0  0  # atno 10764 bound_to 10752
  154.4852  135.5906  153.6475 H   0  0  0  0  0  0  0  0  0  0  0  0  # atno 10765 bound_to 10752
  140.6934  134.4016  157.5217 H   0  0  0  0  0  0  0  0  0  0  0  0  # atno 11005 bound_to 11000
  144.7728  139.6696  143.7187 LP  0  0  0  0  0  0  0  0  0  0  0  0  # atno 17320 bound_to 7965
  146.2167  139.5562  142.9645 LP  0  0  0  0  0  0  0  0  0  0  0  0  # atno 17321 bound_to 7965
  139.5745  144.7480  151.3802 LP  0  0  0  0  0  0  0  0  0  0  0  0  # atno 17342 bound_to 10162
  140.7047  143.7544  150.7462 LP  0  0  0  0  0  0  0  0  0  0  0  0  # atno 17343 bound_to 10162
  155.9869  130.3971  150.3191 LP  0  0  0  0  0  0  0  0  0  0  0  0  # atno 17370 bound_to 10713
  157.1335  131.0278  151.2959 LP  0  0  0  0  0  0  0  0  0  0  0  0  # atno 17371 bound_to 10713
  139.8917  134.8774  156.2308 LP  0  0  0  0  0  0  0  0  0  0  0  0  # atno 17394 bound_to 11000
  141.0222  133.7035  156.1288 LP  0  0  0  0  0  0  0  0  0  0  0  0  # atno 17395 bound_to 11000

$$$$
