AV-unprocessed.smi:912|AV-procd|sdf|4142|dock1
  -GOLD-   22720 2 43D 1   1.00000     0.00000
 Structure written by MMmdl.
 27 27  0  0  0  0  0  0  0  0  2 V2000
  146.8508  138.9497  152.1278 C   0  0  0  0  0  0  0  0  0  0  0  0
  148.1507  138.8030  152.8239 N   0  3  0  0  0  0  0  0  0  0  0  0
  148.2023  139.0931  154.2866 C   0  0  1  0  0  0  0  0  0  0  0  0
  147.4985  140.4432  154.5840 C   0  0  0  0  0  0  0  0  0  0  0  0
  147.5185  137.9164  155.0291 C   0  0  0  0  0  0  0  0  0  0  0  0
  147.2286  136.8160  154.3243 N   0  0  0  0  0  0  0  0  0  0  0  0
  147.2384  137.9987  156.2236 O   0  0  0  0  0  0  0  0  0  0  0  0
  149.6681  139.1834  154.7625 C   0  0  0  0  0  0  0  0  0  0  0  0
  150.1688  140.2914  155.4933 C   0  0  0  0  0  0  0  0  0  0  0  0
  151.5203  140.2935  155.8935 C   0  0  0  0  0  0  0  0  0  0  0  0
  152.3787  139.2905  155.6196 N   0  0  0  0  0  0  0  0  0  0  0  0
  151.9081  138.2338  154.9270 C   0  0  0  0  0  0  0  0  0  0  0  0
  150.5758  138.1332  154.4811 C   0  0  0  0  0  0  0  0  0  0  0  0
  146.9554  138.6076  151.0984 H   0  0  0  0  0  0  0  0  0  0  0  0
  146.5300  139.9905  152.0919 H   0  0  0  0  0  0  0  0  0  0  0  0
  146.0659  138.3550  152.5950 H   0  0  0  0  0  0  0  0  0  0  0  0
  148.4667  137.8528  152.6939 H   0  0  0  0  0  0  0  0  0  0  0  0
  147.5439  140.7034  155.6419 H   0  0  0  0  0  0  0  0  0  0  0  0
  146.4412  140.4333  154.3186 H   0  0  0  0  0  0  0  0  0  0  0  0
  147.9672  141.2585  154.0319 H   0  0  0  0  0  0  0  0  0  0  0  0
  146.7569  136.0375  154.7616 H   0  0  0  0  0  0  0  0  0  0  0  0
  147.4589  136.7799  153.3413 H   0  0  0  0  0  0  0  0  0  0  0  0
  149.5549  141.1387  155.7576 H   0  0  0  0  0  0  0  0  0  0  0  0
  151.9225  141.1272  156.4497 H   0  0  0  0  0  0  0  0  0  0  0  0
  152.6146  137.4438  154.7195 H   0  0  0  0  0  0  0  0  0  0  0  0
  150.2648  137.2600  153.9263 H   0  0  0  0  0  0  0  0  0  0  0  0
  148.8095  139.4182  152.3682 H   0  0  0  0  0  0  0  0  0  0  0  0
  1  2  1  0  0  0  0
  1 14  1  0  0  0  0
  1 15  1  0  0  0  0
  1 16  1  0  0  0  0
  2  3  1  0  0  0  0
  2 17  1  0  0  0  0
  2 27  1  0  0  0  0
  3  4  1  0  0  0  0
  3  5  1  0  0  0  0
  3  8  1  0  0  0  0
  4 18  1  0  0  0  0
  4 19  1  0  0  0  0
  4 20  1  0  0  0  0
  5  6  1  0  0  0  0
  5  7  2  0  0  0  0
  6 21  1  0  0  0  0
  6 22  1  0  0  0  0
  8 13  1  0  0  0  0
  8  9  2  0  0  0  0
  9 10  1  0  0  0  0
  9 23  1  0  0  0  0
 10 11  2  0  0  0  0
 10 24  1  0  0  0  0
 11 12  1  0  0  0  0
 12 13  2  0  0  0  0
 12 25  1  0  0  0  0
 13 26  1  0  0  0  0
M  CHG  1   2   1
M  END
> <s_m_source_file>
AV-unprocessed.smi

> <i_m_source_file_index>
912

> <i_lp_mmshare_version>
43012

> <i_f3d_flags>
0

> <s_epik_input>
W0NIM11bTkhdW0NAQF0oW0NIM10pKEMoPU8pW05IMl0pYzFbY0hdW2NIXW5bY0hdW2NIXTE=

> <s_epik_cmdline>
J2VwaWtfcHl0aG9uJywgJy1waCcsICc3LjAnLCAnLXRuJywgJzgnLCAnLW1hJywgJzIwMCcsICctbWV0YWxfYmluZGluZycsICctaW1hZScsICc8aW5maWxlLm1hZT4nLCAnLW9tYWUnLCAnPG91dGZpbGUubWFlPic=

> <r_epik_Ionization_Penalty>
0.8426

> <r_epik_Ionization_Penalty_Charging>
0.842363

> <r_epik_Ionization_Penalty_Neutral>
0.000236815

> <r_epik_State_Penalty>
0.498415

> <r_epik_Charging_Adjusted_Penalty>
1.34078

> <i_epik_Tot_Q>
1

> <i_epik_Tot_abs_Q>
1

> <r_epik_Metal_State_Penalty>
0.661775

> <b_epik_Metal_Only>
0

> <s_lp_Force_Field>
OPLS_2005

> <r_lp_Energy>
11.5285

> <b_lp_Chiralities_Consistent>
1

> <s_lp_Variant>
AV-unprocessed.smi:912-3

> <Gold.Version>
5.8.1

> <Gold.Id.Protein>
6NUR|6NUR_protein|mol2

> <Gold.PLP.Fitness>
37.9005

> <Gold.PLP.PLP>
-24.2001

> <Gold.PLP.part.hbond>
-4.6320

> <Gold.PLP.part.metal>
0.0000

> <Gold.PLP.part.buried>
-2.1878

> <Gold.PLP.part.nonpolar>
-17.9293

> <Gold.PLP.part.repulsive>
0.0800

> <Gold.PLP.ligand.clash>
0.0000

> <Gold.PLP.ligand.torsion>
0.6149

> <Gold.PLP.Chemscore.Hbond>
4.9673

> <Gold.PLP.Chemscore.CHOScore>
0.0000

> <Gold.PLP.Chemscore.Metal>
0.0000

> <Gold.Chemscore.Hbonds>
donor molecule, donor type, donor heavy atom, donor atom, acceptor molecule, acceptor atom, score
      L1  H     2    17       P1  7948  2.00
      L1  H     2    27       P1  7957  1.00
      L1  H     6    22       P1  7948  0.60
      P1  H  7997  8009       L1    11  0.52

> <Gold.PLP.Chemscore.Internal.Correction>
0.0284

> <Gold.Rescore>
     Score         DG    S(hbond)    S(metal)    S(lipo)     H(rot)  DE(clash)    DE(int)     intcor
     19.21     -19.95       3.87        0.00      53.28       1.83       0.05       0.69       ----

> <Gold.Chemscore.Fitness>
19.2108

> <Gold.Chemscore.DG>
-19.9520

> <Gold.Chemscore.ZeroCoef>
-5.4800

> <Gold.Chemscore.Hbond>
3.8668

> <Gold.Chemscore.Metal>
0.0000

> <Gold.Chemscore.Lipo>
53.2812

> <Gold.Chemscore.Internal_Hbond>
0.0000

> <Gold.Chemscore.DEClash>
0.0494

> <Gold.Chemscore.DEInternal>
0.6918

> <Gold.Chemscore.Rot>
1.8270

> <Gold.Chemscore.Internal.Correction>
   9.000000E+99

> <Gold.Chemscore.Hbonds>
donor molecule, donor type, donor heavy atom, donor atom, acceptor molecule, acceptor atom, score
      L1  H     2    17       P1  7948  1.00
      L1  H     2    27       P1  7957  0.95
      L1  H     6    22       P1  7948  0.58
      P1  H  7997  8009       L1    11  0.23

> <Gold.Chemscore.Hbond.Weighted>
-12.9152

> <Gold.Chemscore.Metal.Weighted>
-0.0000

> <Gold.Chemscore.Lipo.Weighted>
-6.2339

> <Gold.Chemscore.Internal_Hbond.Weighted>
0.0000

> <Gold.Chemscore.DEClash.Weighted>
0.0494

> <Gold.Chemscore.DEInternal.Weighted>
0.6918

> <Gold.Chemscore.Rot.Weighted>
4.6771

> <Gold.Chemscore.Internal.Correction.Weighted>
   9.000000E+99

> <Gold.Protein.RotatedTorsions>
[ 6907 6896 6895 6894 ] final  112.40 input  -60.11 | X-H torsion
[ 7974 7965 7964 7962 ] final  -66.70 input  175.53 | X-H torsion
[ 8008 7997 7996 7995 ] final -149.03 input   59.86 | X-H torsion
[ 10167 10162 10161 10158 ] final -138.61 input  -65.29 | X-H torsion
[ 10718 10713 10712 10709 ] final -115.41 input   66.30 | X-H torsion
[ 10763 10752 10751 10750 ] final   22.00 input  -60.55 | X-H torsion
[ 11005 11000 10999 10996 ] final  101.43 input  -57.11 | X-H torsion

> <Gold.Protein.ActiveResidues>
 VAL166  LYS551  ARG553  GLY616  TRP617  ASP618  TYR619  PRO620  LYS621  CYS622 
 ASP623  PHE694  ASN695  SER759  ASP760  ASP761  ALA762  ILE779  LEU786  VAL792 
 PHE793  MET794  SER795  GLU796  ALA797  LYS798  CYS799  TRP800  GLU811  SER814 

> <Gold.Protein.RotatedAtoms>
  152.4918  133.8521  159.7206 H   0  0  0  0  0  0  0  0  0  0  0  0  # atno 6907 bound_to 6896
  150.9055  133.7054  159.2874 H   0  0  0  0  0  0  0  0  0  0  0  0  # atno 6908 bound_to 6896
  151.4481  135.1031  159.9742 H   0  0  0  0  0  0  0  0  0  0  0  0  # atno 6909 bound_to 6896
  145.7384  140.8965  143.0543 H   0  0  0  0  0  0  0  0  0  0  0  0  # atno 7974 bound_to 7965
  155.6011  140.0662  157.2732 H   0  0  0  0  0  0  0  0  0  0  0  0  # atno 8008 bound_to 7997
  154.4278  140.1818  156.1222 H   0  0  0  0  0  0  0  0  0  0  0  0  # atno 8009 bound_to 7997
  156.0158  140.3322  155.6991 H   0  0  0  0  0  0  0  0  0  0  0  0  # atno 8010 bound_to 7997
  139.8461  143.7259  152.2660 H   0  0  0  0  0  0  0  0  0  0  0  0  # atno 10167 bound_to 10162
  156.0894  130.6079  150.8903 H   0  0  0  0  0  0  0  0  0  0  0  0  # atno 10718 bound_to 10713
  153.0950  135.6657  153.9781 H   0  0  0  0  0  0  0  0  0  0  0  0  # atno 10763 bound_to 10752
  153.9367  135.2998  155.3445 H   0  0  0  0  0  0  0  0  0  0  0  0  # atno 10764 bound_to 10752
  154.7368  135.5098  153.9128 H   0  0  0  0  0  0  0  0  0  0  0  0  # atno 10765 bound_to 10752
  139.8773  134.9183  156.4906 H   0  0  0  0  0  0  0  0  0  0  0  0  # atno 11005 bound_to 11000
  144.6876  139.9427  143.7475 LP  0  0  0  0  0  0  0  0  0  0  0  0  # atno 17320 bound_to 7965
  146.0471  139.3476  143.0662 LP  0  0  0  0  0  0  0  0  0  0  0  0  # atno 17321 bound_to 7965
  139.7511  144.7534  151.0505 LP  0  0  0  0  0  0  0  0  0  0  0  0  # atno 17342 bound_to 10162
  140.7793  143.4859  150.9956 LP  0  0  0  0  0  0  0  0  0  0  0  0  # atno 17343 bound_to 10162
  157.6039  131.0940  150.8913 LP  0  0  0  0  0  0  0  0  0  0  0  0  # atno 17370 bound_to 10713
  156.9065  130.5265  149.5281 LP  0  0  0  0  0  0  0  0  0  0  0  0  # atno 17371 bound_to 10713
  140.8661  133.8023  155.9315 LP  0  0  0  0  0  0  0  0  0  0  0  0  # atno 17394 bound_to 11000
  140.9000  134.2390  157.5047 LP  0  0  0  0  0  0  0  0  0  0  0  0  # atno 17395 bound_to 11000

$$$$
