AV-unprocessed.smi:2886|AV-procd|sdf|11087|dock9
  -GOLD-   2272015563D 1   1.00000     0.00000
 Structure written by MMmdl.
 28 30  0  0  0  0  0  0  0  0  1 V2000
  151.1264  138.0661  154.2429 O   0  0  0  0  0  0  0  0  0  0  0  0
  150.8502  139.1768  154.6922 C   0  0  0  0  0  0  0  0  0  0  0  0
  150.0586  140.0378  154.0105 N   0  0  0  0  0  0  0  0  0  0  0  0
  149.6909  141.3005  154.4071 N   0  0  0  0  0  0  0  0  0  0  0  0
  150.1213  141.7371  155.5412 C   0  0  0  0  0  0  0  0  0  0  0  0
  150.9748  140.9461  156.4218 C   0  0  0  0  0  0  0  0  0  0  0  0
  151.4391  141.4172  157.6437 N   0  0  0  0  0  0  0  0  0  0  0  0
  151.2002  142.7065  158.2773 C   0  0  2  0  0  0  0  0  0  0  0  0
  151.6097  143.8822  157.3865 C   0  0  0  0  0  0  0  0  0  0  0  0
  152.6023  144.6272  158.2882 C   0  0  1  0  0  0  0  0  0  0  0  0
  151.9144  145.2874  159.4914 C   0  0  0  0  0  0  0  0  0  0  0  0
  151.5916  144.0786  160.3697 C   0  0  0  0  0  0  0  0  0  0  0  0
  152.1002  142.9163  159.5063 C   0  0  2  0  0  0  0  0  0  0  0  0
  153.2372  143.5293  158.9194 O   0  0  0  0  0  0  0  0  0  0  0  0
  151.3208  139.7048  155.9803 C   0  0  0  0  0  0  0  0  0  0  0  0
  152.3392  138.6831  156.9390 Cl  0  0  0  0  0  0  0  0  0  0  0  0
  149.6864  139.7607  153.1136 H   0  0  0  0  0  0  0  0  0  0  0  0
  149.8635  142.7363  155.8902 H   0  0  0  0  0  0  0  0  0  0  0  0
  151.9056  140.7444  158.2359 H   0  0  0  0  0  0  0  0  0  0  0  0
  150.1575  142.7854  158.5831 H   0  0  0  0  0  0  0  0  0  0  0  0
  152.1072  143.5419  156.4769 H   0  0  0  0  0  0  0  0  0  0  0  0
  150.7622  144.5038  157.0959 H   0  0  0  0  0  0  0  0  0  0  0  0
  153.2802  145.2881  157.7476 H   0  0  0  0  0  0  0  0  0  0  0  0
  152.5962  145.9637  160.0079 H   0  0  0  0  0  0  0  0  0  0  0  0
  151.0267  145.8510  159.2021 H   0  0  0  0  0  0  0  0  0  0  0  0
  152.1433  144.1316  161.3090 H   0  0  0  0  0  0  0  0  0  0  0  0
  150.5298  143.9934  160.6026 H   0  0  0  0  0  0  0  0  0  0  0  0
  152.3121  142.0098  160.0743 H   0  0  0  0  0  0  0  0  0  0  0  0
  1  2  2  0  0  0  0
  2 15  1  0  0  0  0
  2  3  1  0  0  0  0
  3 17  1  0  0  0  0
  3  4  1  0  0  0  0
  4  5  2  0  0  0  0
  5  6  1  0  0  0  0
  5 18  1  0  0  0  0
  6  7  1  0  0  0  0
  6 15  2  0  0  0  0
  7  8  1  0  0  0  0
  7 19  1  0  0  0  0
  8 13  1  0  0  0  0
  8  9  1  0  0  0  0
  8 20  1  0  0  0  0
  9 10  1  0  0  0  0
  9 21  1  0  0  0  0
  9 22  1  0  0  0  0
 10 14  1  0  0  0  0
 10 11  1  0  0  0  0
 10 23  1  0  0  0  0
 11 12  1  0  0  0  0
 11 24  1  0  0  0  0
 11 25  1  0  0  0  0
 12 13  1  0  0  0  0
 12 26  1  0  0  0  0
 12 27  1  0  0  0  0
 13 14  1  0  0  0  0
 13 28  1  0  0  0  0
 15 16  1  0  0  0  0
M  END
> <s_m_source_file>
AV-unprocessed.smi

> <i_m_source_file_index>
2886

> <i_lp_mmshare_version>
43012

> <i_f3d_flags>
0

> <s_epik_input>
Tz1jMVtuSF1uW2NIXWMoYzFDbClbTkhdW0NASF0oW0NIMl1bQ0BASF0yMylbQ0BASF0oTzMpW0NIMl1bQ0gyXTI=

> <s_epik_cmdline>
J2VwaWtfcHl0aG9uJywgJy1waCcsICc3LjAnLCAnLXRuJywgJzgnLCAnLW1hJywgJzIwMCcsICctbWV0YWxfYmluZGluZycsICctaW1hZScsICc8aW5maWxlLm1hZT4nLCAnLW9tYWUnLCAnPG91dGZpbGUubWFlPic=

> <r_lp_tautomer_probability>
0.986175

> <r_epik_Ionization_Penalty>
0.000975594

> <r_epik_Ionization_Penalty_Charging>
0.000940184

> <r_epik_Ionization_Penalty_Neutral>
3.54099e-05

> <r_epik_State_Penalty>
0.00620319

> <r_epik_Charging_Adjusted_Penalty>
0.00714337

> <i_epik_Tot_Q>
0

> <i_epik_Tot_abs_Q>
0

> <r_epik_Metal_State_Penalty>
0.287699

> <b_epik_Metal_Only>
0

> <s_lp_Force_Field>
OPLS_2005

> <r_lp_Energy>
54.6963

> <b_lp_Chiralities_Consistent>
1

> <s_lp_Variant>
AV-unprocessed.smi:2886-1

> <Gold.Version>
5.8.1

> <Gold.Id.Protein>
6NUR|6NUR_protein|mol2

> <Gold.PLP.Fitness>
42.5803

> <Gold.PLP.PLP>
-36.4830

> <Gold.PLP.part.hbond>
-2.6539

> <Gold.PLP.part.metal>
0.0000

> <Gold.PLP.part.buried>
-4.7586

> <Gold.PLP.part.nonpolar>
-31.4751

> <Gold.PLP.part.repulsive>
2.9266

> <Gold.PLP.ligand.clash>
0.0000

> <Gold.PLP.ligand.torsion>
0.0571

> <Gold.PLP.Chemscore.Hbond>
1.0640

> <Gold.PLP.Chemscore.CHOScore>
1.0000

> <Gold.PLP.Chemscore.Metal>
0.0000

> <Gold.Chemscore.Hbonds>
donor molecule, donor type, donor heavy atom, donor atom, acceptor molecule, acceptor atom, score
      L1  H     3    17       P1  7957  0.98
      P1  H  8011  8017       L1     4  0.12
      L1  C     5    18       P1  8028  1.00

> <Gold.PLP.Chemscore.Internal.Correction>
0.0196

> <Gold.Rescore>
     Score         DG    S(hbond)    S(metal)    S(lipo)     H(rot)  DE(clash)    DE(int)     intcor
     16.45     -16.65       0.82        0.00      94.08       1.00       0.18       0.02       ----

> <Gold.Chemscore.Fitness>
16.4538

> <Gold.Chemscore.DG>
-16.6491

> <Gold.Chemscore.ZeroCoef>
-5.4800

> <Gold.Chemscore.Hbond>
0.8150

> <Gold.Chemscore.Metal>
0.0000

> <Gold.Chemscore.Lipo>
94.0754

> <Gold.Chemscore.Internal_Hbond>
0.0000

> <Gold.Chemscore.DEClash>
0.1760

> <Gold.Chemscore.DEInternal>
0.0193

> <Gold.Chemscore.Rot>
1.0000

> <Gold.Chemscore.Internal.Correction>
   9.000000E+99

> <Gold.Chemscore.Hbonds>
donor molecule, donor type, donor heavy atom, donor atom, acceptor molecule, acceptor atom, score
      L1  H     3    17       P1  7957  0.91
      P1  H  8011  8017       L1     4  0.03

> <Gold.Chemscore.Hbond.Weighted>
-2.7222

> <Gold.Chemscore.Metal.Weighted>
-0.0000

> <Gold.Chemscore.Lipo.Weighted>
-11.0068

> <Gold.Chemscore.Internal_Hbond.Weighted>
0.0000

> <Gold.Chemscore.DEClash.Weighted>
0.1760

> <Gold.Chemscore.DEInternal.Weighted>
0.0193

> <Gold.Chemscore.Rot.Weighted>
2.5600

> <Gold.Chemscore.Internal.Correction.Weighted>
   9.000000E+99

> <Gold.Protein.RotatedTorsions>
[ 6907 6896 6895 6894 ] final  -51.68 input  -60.11 | X-H torsion
[ 7974 7965 7964 7962 ] final  115.31 input  175.53 | X-H torsion
[ 8008 7997 7996 7995 ] final  -11.32 input   59.86 | X-H torsion
[ 10167 10162 10161 10158 ] final -159.04 input  -65.29 | X-H torsion
[ 10718 10713 10712 10709 ] final -140.43 input   66.30 | X-H torsion
[ 10763 10752 10751 10750 ] final   86.98 input  -60.55 | X-H torsion
[ 11005 11000 10999 10996 ] final  158.37 input  -57.11 | X-H torsion

> <Gold.Protein.ActiveResidues>
 VAL166  LYS551  ARG553  GLY616  TRP617  ASP618  TYR619  PRO620  LYS621  CYS622 
 ASP623  PHE694  ASN695  SER759  ASP760  ASP761  ALA762  ILE779  LEU786  VAL792 
 PHE793  MET794  SER795  GLU796  ALA797  LYS798  CYS799  TRP800  GLU811  SER814 

> <Gold.Protein.RotatedAtoms>
  150.8588  134.7934  159.7066 H   0  0  0  0  0  0  0  0  0  0  0  0  # atno 6907 bound_to 6896
  152.4631  134.5134  159.9770 H   0  0  0  0  0  0  0  0  0  0  0  0  # atno 6908 bound_to 6896
  151.5241  133.3423  159.2942 H   0  0  0  0  0  0  0  0  0  0  0  0  # atno 6909 bound_to 6896
  145.1936  139.2988  143.4355 H   0  0  0  0  0  0  0  0  0  0  0  0  # atno 7974 bound_to 7965
  154.5475  140.2305  155.8539 H   0  0  0  0  0  0  0  0  0  0  0  0  # atno 8008 bound_to 7997
  156.1916  140.3075  155.9305 H   0  0  0  0  0  0  0  0  0  0  0  0  # atno 8009 bound_to 7997
  155.3136  140.0437  157.3026 H   0  0  0  0  0  0  0  0  0  0  0  0  # atno 8010 bound_to 7997
  139.6645  143.9853  152.2246 H   0  0  0  0  0  0  0  0  0  0  0  0  # atno 10167 bound_to 10162
  156.3223  130.7541  151.1641 H   0  0  0  0  0  0  0  0  0  0  0  0  # atno 10718 bound_to 10713
  153.1623  135.4560  154.9789 H   0  0  0  0  0  0  0  0  0  0  0  0  # atno 10763 bound_to 10752
  154.7906  135.3219  154.7788 H   0  0  0  0  0  0  0  0  0  0  0  0  # atno 10764 bound_to 10752
  153.8276  135.6941  153.4873 H   0  0  0  0  0  0  0  0  0  0  0  0  # atno 10765 bound_to 10752
  140.1859  134.8442  157.2857 H   0  0  0  0  0  0  0  0  0  0  0  0  # atno 11005 bound_to 11000
  146.3431  140.2156  142.8590 LP  0  0  0  0  0  0  0  0  0  0  0  0  # atno 17320 bound_to 7965
  145.0017  140.8638  143.5277 LP  0  0  0  0  0  0  0  0  0  0  0  0  # atno 17321 bound_to 7965
  139.9601  144.6563  150.8088 LP  0  0  0  0  0  0  0  0  0  0  0  0  # atno 17342 bound_to 10162
  140.7594  143.3127  151.2805 LP  0  0  0  0  0  0  0  0  0  0  0  0  # atno 17343 bound_to 10162
  157.7414  131.0504  150.5098 LP  0  0  0  0  0  0  0  0  0  0  0  0  # atno 17370 bound_to 10713
  156.5252  130.4171  149.6230 LP  0  0  0  0  0  0  0  0  0  0  0  0  # atno 17371 bound_to 10713
  140.2214  134.4018  155.7564 LP  0  0  0  0  0  0  0  0  0  0  0  0  # atno 17394 bound_to 11000
  141.2225  133.7168  156.8497 LP  0  0  0  0  0  0  0  0  0  0  0  0  # atno 17395 bound_to 11000

$$$$
