AV-unprocessed.smi:3348|AV-procd|sdf|12926|dock1
  -GOLD-   2272019353D 1   1.00000     0.00000
 Structure written by MMmdl.
 46 47  0  0  0  0  0  0  0  0  1 V2000
  147.1955  141.3696  156.3522 C   0  0  0  0  0  0  0  0  0  0  0  0
  148.6398  140.8598  156.1613 C   0  0  1  0  0  0  0  0  0  0  0  0
  148.8512  140.2188  154.7741 C   0  0  0  0  0  0  0  0  0  0  0  0
  150.0347  139.3786  154.7124 N   0  0  0  0  0  0  0  0  0  0  0  0
  150.1095  138.0259  154.4543 C   0  0  0  0  0  0  0  0  0  0  0  0
  151.4278  137.6740  154.5074 C   0  0  0  0  0  0  0  0  0  0  0  0
  152.0912  138.8952  154.8132 C   0  0  0  0  0  0  0  0  0  0  0  0
  151.2549  139.9132  154.9375 N   0  0  0  0  0  0  0  0  0  0  0  0
  149.6237  141.9309  156.3440 N   0  0  0  0  0  0  0  0  0  0  0  0
  150.7465  141.6185  157.2272 C   0  0  0  0  0  0  0  0  0  0  0  0
  150.4108  141.9807  158.6767 C   0  0  0  0  0  0  0  0  0  0  0  0
  151.4867  141.5632  159.5038 O   0  0  0  0  0  0  0  0  0  0  0  0
  152.6298  142.4107  159.4693 C   0  0  1  0  0  0  0  0  0  0  0  0
  152.2092  143.8906  159.6033 C   0  0  0  0  0  0  0  0  0  0  0  0
  151.5666  144.1775  160.9704 C   0  0  0  0  0  0  0  0  0  0  0  0
  152.5000  143.7682  162.1197 C   0  0  0  0  0  0  0  0  0  0  0  0
  152.9268  142.2968  161.9962 C   0  0  0  0  0  0  0  0  0  0  0  0
  153.5721  142.0069  160.6257 C   0  0  1  0  0  0  0  0  0  0  0  0
  154.0359  140.5466  160.5094 C   0  0  0  0  0  0  0  0  0  0  0  0
  146.4670  140.5746  156.1951 H   0  0  0  0  0  0  0  0  0  0  0  0
  146.9635  142.1719  155.6512 H   0  0  0  0  0  0  0  0  0  0  0  0
  147.0233  141.7445  157.3603 H   0  0  0  0  0  0  0  0  0  0  0  0
  148.8232  140.0890  156.9109 H   0  0  0  0  0  0  0  0  0  0  0  0
  147.9783  139.6267  154.4931 H   0  0  0  0  0  0  0  0  0  0  0  0
  148.9558  140.9947  154.0145 H   0  0  0  0  0  0  0  0  0  0  0  0
  149.2281  137.4343  154.2547 H   0  0  0  0  0  0  0  0  0  0  0  0
  151.8531  136.6935  154.3530 H   0  0  0  0  0  0  0  0  0  0  0  0
  153.1483  139.0706  154.9490 H   0  0  0  0  0  0  0  0  0  0  0  0
  149.1581  142.7686  156.6791 H   0  0  0  0  0  0  0  0  0  0  0  0
  151.0110  140.5630  157.1771 H   0  0  0  0  0  0  0  0  0  0  0  0
  151.6251  142.1810  156.9100 H   0  0  0  0  0  0  0  0  0  0  0  0
  150.2943  143.0617  158.7625 H   0  0  0  0  0  0  0  0  0  0  0  0
  149.4653  141.5272  158.9748 H   0  0  0  0  0  0  0  0  0  0  0  0
  153.1626  142.2691  158.5272 H   0  0  0  0  0  0  0  0  0  0  0  0
  153.0889  144.5239  159.4829 H   0  0  0  0  0  0  0  0  0  0  0  0
  151.5260  144.1776  158.8047 H   0  0  0  0  0  0  0  0  0  0  0  0
  151.3218  145.2368  161.0508 H   0  0  0  0  0  0  0  0  0  0  0  0
  150.6233  143.6359  161.0535 H   0  0  0  0  0  0  0  0  0  0  0  0
  153.3846  144.4062  162.1159 H   0  0  0  0  0  0  0  0  0  0  0  0
  152.0051  143.9324  163.0773 H   0  0  0  0  0  0  0  0  0  0  0  0
  153.6264  142.0532  162.7963 H   0  0  0  0  0  0  0  0  0  0  0  0
  152.0585  141.6526  162.1415 H   0  0  0  0  0  0  0  0  0  0  0  0
  154.4658  142.6284  160.5489 H   0  0  0  0  0  0  0  0  0  0  0  0
  153.1993  139.8533  160.6024 H   0  0  0  0  0  0  0  0  0  0  0  0
  154.7567  140.3016  161.2899 H   0  0  0  0  0  0  0  0  0  0  0  0
  154.5158  140.3623  159.5479 H   0  0  0  0  0  0  0  0  0  0  0  0
  1  2  1  0  0  0  0
  1 20  1  0  0  0  0
  1 21  1  0  0  0  0
  1 22  1  0  0  0  0
  2  3  1  0  0  0  0
  2  9  1  0  0  0  0
  2 23  1  0  0  0  0
  3  4  1  0  0  0  0
  3 24  1  0  0  0  0
  3 25  1  0  0  0  0
  4  8  1  0  0  0  0
  4  5  1  0  0  0  0
  5  6  2  0  0  0  0
  5 26  1  0  0  0  0
  6  7  1  0  0  0  0
  6 27  1  0  0  0  0
  7  8  2  0  0  0  0
  7 28  1  0  0  0  0
  9 10  1  0  0  0  0
  9 29  1  0  0  0  0
 10 11  1  0  0  0  0
 10 30  1  0  0  0  0
 10 31  1  0  0  0  0
 11 12  1  0  0  0  0
 11 32  1  0  0  0  0
 11 33  1  0  0  0  0
 12 13  1  0  0  0  0
 13 18  1  0  0  0  0
 13 14  1  0  0  0  0
 13 34  1  0  0  0  0
 14 15  1  0  0  0  0
 14 35  1  0  0  0  0
 14 36  1  0  0  0  0
 15 16  1  0  0  0  0
 15 37  1  0  0  0  0
 15 38  1  0  0  0  0
 16 17  1  0  0  0  0
 16 39  1  0  0  0  0
 16 40  1  0  0  0  0
 17 18  1  0  0  0  0
 17 41  1  0  0  0  0
 17 42  1  0  0  0  0
 18 19  1  0  0  0  0
 18 43  1  0  0  0  0
 19 44  1  0  0  0  0
 19 45  1  0  0  0  0
 19 46  1  0  0  0  0
M  END
> <s_m_source_file>
AV-unprocessed.smi

> <i_m_source_file_index>
3348

> <i_lp_mmshare_version>
43012

> <i_f3d_flags>
0

> <s_epik_input>
bjFbY0hdW2NIXVtjSF1uMVtDSDJdW0NAQEhdKFtDSDNdKVtOSF1bQ0gyXVtDSDJdT1tDQEBIXTJbQ0gyXVtDSDJdW0NIMl1bQ0gyXVtDQEhdMltDSDNd

> <s_epik_cmdline>
J2VwaWtfcHl0aG9uJywgJy1waCcsICc3LjAnLCAnLXRuJywgJzgnLCAnLW1hJywgJzIwMCcsICctbWV0YWxfYmluZGluZycsICctaW1hZScsICc8aW5maWxlLm1hZT4nLCAnLW9tYWUnLCAnPG91dGZpbGUubWFlPic=

> <r_lp_tautomer_probability>
1

> <r_epik_Ionization_Penalty>
2.46945

> <r_epik_Ionization_Penalty_Charging>
0

> <r_epik_Ionization_Penalty_Neutral>
2.46945

> <r_epik_State_Penalty>
2.6322

> <r_epik_Charging_Adjusted_Penalty>
2.6322

> <i_epik_Tot_Q>
0

> <i_epik_Tot_abs_Q>
0

> <r_epik_Metal_State_Penalty>
2.63217

> <b_epik_Metal_Only>
0

> <s_lp_Force_Field>
OPLS_2005

> <r_lp_Energy>
17.8462

> <b_lp_Chiralities_Consistent>
1

> <s_lp_Variant>
AV-unprocessed.smi:3348-12

> <Gold.Version>
5.8.1

> <Gold.Id.Protein>
6NUR|6NUR_protein|mol2

> <Gold.PLP.Fitness>
57.2732

> <Gold.PLP.PLP>
-51.3669

> <Gold.PLP.part.hbond>
-2.0000

> <Gold.PLP.part.metal>
0.0000

> <Gold.PLP.part.buried>
-5.7971

> <Gold.PLP.part.nonpolar>
-44.1506

> <Gold.PLP.part.repulsive>
0.0662

> <Gold.PLP.ligand.clash>
0.0000

> <Gold.PLP.ligand.torsion>
1.1174

> <Gold.PLP.Chemscore.Hbond>
1.7440

> <Gold.PLP.Chemscore.CHOScore>
0.9063

> <Gold.PLP.Chemscore.Metal>
0.0000

> <Gold.Chemscore.Hbonds>
donor molecule, donor type, donor heavy atom, donor atom, acceptor molecule, acceptor atom, score
      L1  H     9    29       P1  8028  0.32
      P1  H  7989  7998       L1     8  1.00
      L1  C     5    26       P1  7948  0.50

> <Gold.PLP.Chemscore.Internal.Correction>
0.1904

> <Gold.Rescore>
     Score         DG    S(hbond)    S(metal)    S(lipo)     H(rot)  DE(clash)    DE(int)     intcor
     21.40     -22.83       1.93        0.00     130.79       1.72       0.07       1.36       ----

> <Gold.Chemscore.Fitness>
21.4015

> <Gold.Chemscore.DG>
-22.8323

> <Gold.Chemscore.ZeroCoef>
-5.4800

> <Gold.Chemscore.Hbond>
1.9348

> <Gold.Chemscore.Metal>
0.0000

> <Gold.Chemscore.Lipo>
130.7919

> <Gold.Chemscore.Internal_Hbond>
0.0000

> <Gold.Chemscore.DEClash>
0.0688

> <Gold.Chemscore.DEInternal>
1.3619

> <Gold.Chemscore.Rot>
1.7237

> <Gold.Chemscore.Internal.Correction>
   9.000000E+99

> <Gold.Chemscore.Hbonds>
donor molecule, donor type, donor heavy atom, donor atom, acceptor molecule, acceptor atom, score
      L1  H     9    29       P1  8028  0.32
      P1  H  7989  7998       L1     8  0.17

> <Gold.Chemscore.Hbond.Weighted>
-6.4622

> <Gold.Chemscore.Metal.Weighted>
-0.0000

> <Gold.Chemscore.Lipo.Weighted>
-15.3027

> <Gold.Chemscore.Internal_Hbond.Weighted>
0.0000

> <Gold.Chemscore.DEClash.Weighted>
0.0688

> <Gold.Chemscore.DEInternal.Weighted>
1.3619

> <Gold.Chemscore.Rot.Weighted>
4.4126

> <Gold.Chemscore.Internal.Correction.Weighted>
   9.000000E+99

> <Gold.Protein.RotatedTorsions>
[ 6907 6896 6895 6894 ] final  175.35 input  -60.11 | X-H torsion
[ 7974 7965 7964 7962 ] final   37.57 input  175.53 | X-H torsion
[ 8008 7997 7996 7995 ] final -108.29 input   59.86 | X-H torsion
[ 10167 10162 10161 10158 ] final  114.64 input  -65.29 | X-H torsion
[ 10718 10713 10712 10709 ] final   96.71 input   66.30 | X-H torsion
[ 10763 10752 10751 10750 ] final  172.10 input  -60.55 | X-H torsion
[ 11005 11000 10999 10996 ] final -130.77 input  -57.11 | X-H torsion

> <Gold.Protein.ActiveResidues>
 VAL166  LYS551  ARG553  GLY616  TRP617  ASP618  TYR619  PRO620  LYS621  CYS622 
 ASP623  PHE694  ASN695  SER759  ASP760  ASP761  ALA762  ILE779  LEU786  VAL792 
 PHE793  MET794  SER795  GLU796  ALA797  LYS798  CYS799  TRP800  GLU811  SER814 

> <Gold.Protein.RotatedAtoms>
  151.7376  133.3320  159.3356 H   0  0  0  0  0  0  0  0  0  0  0  0  # atno 6907 bound_to 6896
  150.7587  134.6307  159.6194 H   0  0  0  0  0  0  0  0  0  0  0  0  # atno 6908 bound_to 6896
  152.3551  134.6953  160.0276 H   0  0  0  0  0  0  0  0  0  0  0  0  # atno 6909 bound_to 6896
  146.1128  139.5878  142.9341 H   0  0  0  0  0  0  0  0  0  0  0  0  # atno 7974 bound_to 7965
  154.9420  140.0402  157.2101 H   0  0  0  0  0  0  0  0  0  0  0  0  # atno 8008 bound_to 7997
  154.8059  140.2860  155.5866 H   0  0  0  0  0  0  0  0  0  0  0  0  # atno 8009 bound_to 7997
  156.2966  140.2546  156.2938 H   0  0  0  0  0  0  0  0  0  0  0  0  # atno 8010 bound_to 7997
  139.6374  144.7121  151.2306 H   0  0  0  0  0  0  0  0  0  0  0  0  # atno 10167 bound_to 10162
  157.6923  131.0586  150.4533 H   0  0  0  0  0  0  0  0  0  0  0  0  # atno 10718 bound_to 10713
  154.4212  135.2758  155.1974 H   0  0  0  0  0  0  0  0  0  0  0  0  # atno 10763 bound_to 10752
  154.3919  135.6064  153.5851 H   0  0  0  0  0  0  0  0  0  0  0  0  # atno 10764 bound_to 10752
  152.9833  135.5905  154.4509 H   0  0  0  0  0  0  0  0  0  0  0  0  # atno 10765 bound_to 10752
  140.9317  134.1311  157.4229 H   0  0  0  0  0  0  0  0  0  0  0  0  # atno 11005 bound_to 11000
  145.5629  141.0402  143.2216 LP  0  0  0  0  0  0  0  0  0  0  0  0  # atno 17320 bound_to 7965
  144.7526  139.7155  143.7267 LP  0  0  0  0  0  0  0  0  0  0  0  0  # atno 17321 bound_to 7965
  140.7473  143.6372  150.8369 LP  0  0  0  0  0  0  0  0  0  0  0  0  # atno 17342 bound_to 10162
  140.0004  143.5750  152.2877 LP  0  0  0  0  0  0  0  0  0  0  0  0  # atno 17343 bound_to 10162
  156.4883  130.4089  149.6421 LP  0  0  0  0  0  0  0  0  0  0  0  0  # atno 17370 bound_to 10713
  156.3441  130.7398  151.2347 LP  0  0  0  0  0  0  0  0  0  0  0  0  # atno 17371 bound_to 10713
  139.8798  135.0007  156.6025 LP  0  0  0  0  0  0  0  0  0  0  0  0  # atno 17394 bound_to 11000
  140.7854  133.8626  155.8602 LP  0  0  0  0  0  0  0  0  0  0  0  0  # atno 17395 bound_to 11000

$$$$
