#       Name:                AV-unprocessed.smi:847
#       Creating user name   scv26
#       Creation time:       Fri Mar 27 01:40:18 2020


#       File generated by GOLD software.
#

@<TRIPOS>MOLECULE
AV-unprocessed.smi:847
    55    56     1
SMALL
NO_CHARGES


@<TRIPOS>ATOM
      1 ****        -7.4667   1.6792   0.2361 C.3            1 S1                 0.0000
      2 ****        -6.0705   1.9095   0.3035 O.3            1 S1                 0.0000
      3 ****        -5.6804   2.5320   1.5163 C.3            1 S1                 0.0000
      4 ****        -4.1622   2.7334   1.5132 C.3            1 S1                 0.0000
      5 ****        -3.5330   1.4714   1.7142 O.3            1 S1                 0.0000
      6 ****        -2.1546   1.4177   1.7330 C.ar           1 S1                 0.0000
      7 ****        -1.5325   0.1638   1.8987 C.ar           1 S1                 0.0000
      8 ****        -0.1264   0.1006   1.9126 C.ar           1 S1                 0.0000
      9 ****         0.6117   1.2930   1.7627 C.ar           1 S1                 0.0000
     10 ****         2.1300   1.2782   1.7500 C.3            1 S1                 0.0000
     11 ****         2.6648   0.7587   0.4968 N.am           1 S1                 0.0000
     12 ****         2.9612  -0.5265   0.2519 C.2            1 S1                 0.0000
     13 ****         2.8755  -1.4161   1.0996 O.2            1 S1                 0.0000
     14 ****         3.4266  -0.8580  -1.1786 C.3            1 S1                 0.0000
     15 ****         4.9281  -1.1864  -1.1890 C.3            1 S1                 0.0000
     16 ****         5.1014  -2.1612  -2.3385 C.3            1 S1                 0.0000
     17 ****         3.7665  -2.8995  -2.4282 C.3            1 S1                 0.0000
     18 ****         2.7732  -2.0349  -1.7855 N.am           1 S1                 0.0000
     19 ****         1.4399  -2.2807  -1.8153 C.2            1 S1                 0.0000
     20 ****         0.9501  -3.5791  -2.4610 C.3            1 S1                 0.0000
     21 ****         0.6013  -1.5031  -1.3593 O.2            1 S1                 0.0000
     22 ****        -0.1020   2.4995   1.6061 C.ar           1 S1                 0.0000
     23 ****        -1.4501   2.5686   1.5915 N.ar           1 S1                 0.0000
     24 ****         3.2356  -0.0086  -1.8371 H              1 S1                 0.0000
     25 ****        -7.7138   1.2003  -0.7113 H              1 S1                 0.0000
     26 ****        -8.0245   2.6146   0.2960 H              1 S1                 0.0000
     27 ****        -7.7973   1.0221   1.0417 H              1 S1                 0.0000
     28 ****        -6.1753   3.5009   1.5961 H              1 S1                 0.0000
     29 ****        -5.9839   1.9362   2.3785 H              1 S1                 0.0000
     30 ****        -3.8449   3.1918   0.5750 H              1 S1                 0.0000
     31 ****        -3.8896   3.4083   2.3262 H              1 S1                 0.0000
     32 ****        -2.1231  -0.7338   2.0084 H              1 S1                 0.0000
     33 ****         0.3734  -0.8490   2.0325 H              1 S1                 0.0000
     34 ****         2.5063   2.2924   1.8867 H              1 S1                 0.0000
     35 ****         2.4950   0.7015   2.6017 H              1 S1                 0.0000
     36 ****         2.7726   1.4200  -0.2588 H              1 S1                 0.0000
     37 ****         5.5480  -0.2967  -1.3034 H              1 S1                 0.0000
     38 ****         5.2321  -1.6806  -0.2642 H              1 S1                 0.0000
     39 ****         5.2663  -1.6017  -3.2603 H              1 S1                 0.0000
     40 ****         5.9490  -2.8336  -2.2036 H              1 S1                 0.0000
     41 ****         3.5154  -3.1200  -3.4666 H              1 S1                 0.0000
     42 ****         3.8236  -3.8429  -1.8832 H              1 S1                 0.0000
     43 ****         1.4273  -4.4458  -2.0033 H              1 S1                 0.0000
     44 ****         1.1626  -3.5835  -3.5301 H              1 S1                 0.0000
     45 ****        -0.1276  -3.6875  -2.3345 H              1 S1                 0.0000
     46 ****         0.4209   3.4365   1.4826 H              1 S1                 0.0000
     47 ****        -5.8056   2.4994  -0.4593 LP             1 S1                 0.0000
     48 ****        -5.5967   1.0322   0.2265 LP             1 S1                 0.0000
     49 ****        -3.8418   0.8674   0.9795 LP             1 S1                 0.0000
     50 ****        -3.8540   1.1183   2.5930 LP             1 S1                 0.0000
     51 ****         2.5717  -1.1959   2.0265 LP             1 S1                 0.0000
     52 ****         3.1098  -2.3585   0.8609 LP             1 S1                 0.0000
     53 ****         0.8924  -0.6424  -0.9418 LP             1 S1                 0.0000
     54 ****        -0.3709  -1.7323  -1.4065 LP             1 S1                 0.0000
     55 ****        -1.9175   3.4455   1.4793 LP             1 S1                 0.0000
@<TRIPOS>BOND
    1    1    2 1     
    2    1   25 1     
    3    1   26 1     
    4    1   27 1     
    5    2    3 1     
    6    3    4 1     
    7    3   28 1     
    8    3   29 1     
    9    4    5 1     
   10    4   30 1     
   11    4   31 1     
   12    5    6 1     
   13    6   23 ar    
   14    6    7 ar    
   15    7    8 ar    
   16    7   32 1     
   17    8    9 ar    
   18    8   33 1     
   19    9   10 1     
   20    9   22 ar    
   21   10   11 1     
   22   10   34 1     
   23   10   35 1     
   24   11   12 am    
   25   11   36 1     
   26   12   13 2     
   27   12   14 1     
   28   14   24 1     
   29   14   18 1     
   30   14   15 1     
   31   15   16 1     
   32   15   37 1     
   33   15   38 1     
   34   16   17 1     
   35   16   39 1     
   36   16   40 1     
   37   17   18 1     
   38   17   41 1     
   39   17   42 1     
   40   18   19 am    
   41   19   20 1     
   42   19   21 2     
   43   20   43 1     
   44   20   44 1     
   45   20   45 1     
   46   22   23 ar    
   47   22   46 1     
   48    2   47 1     
   49    2   48 1     
   50    5   49 1     
   51    5   50 1     
   52   13   51 1     
   53   13   52 1     
   54   21   53 1     
   55   21   54 1     
   56   23   55 1     
@<TRIPOS>SUBSTRUCTURE
      1 S1             1
@<TRIPOS>SET
LONE_PAIRS      STATIC     ATOMS    <user>   **** ""
9 47 48 49 50 51 52 53 54 55
DONOR_HYDROGENS      STATIC     ATOMS    <user>   **** ""
1 36
ATOM$BLUE        STATIC     ATOMS    COLORGROUP SYSTEM
9 47 48 49 50 51 52 53 54 55
ATOM$RED        STATIC     ATOMS    COLORGROUP SYSTEM
1 36
