AV-unprocessed.smi:1727|AV-procd|sdf|6966|dock4
  -GOLD-   22720 8183D 1   1.00000     0.00000
 Structure written by MMmdl.
 50 52  0  0  0  0  0  0  0  0  2 V2000
  151.1436  141.0681  158.3643 C   0  0  0  0  0  0  0  0  0  0  0  0
  151.9844  140.2098  157.4164 C   0  0  0  0  0  0  0  0  0  0  0  0
  152.9465  139.6028  157.8868 O   0  0  0  0  0  0  0  0  0  0  0  0
  151.6495  140.1476  156.1052 N   0  0  0  0  0  0  0  0  0  0  0  0
  152.3136  139.3122  155.0969 C   0  0  0  0  0  0  0  0  0  0  0  0
  151.3652  138.1682  154.6966 C   0  0  0  0  0  0  0  0  0  0  0  0
  150.0076  138.7137  154.1956 C   0  0  0  0  0  0  0  0  0  0  0  0
  149.0519  137.6264  154.0083 N   0  0  0  0  0  0  0  0  0  0  0  0
  148.3978  136.9933  154.9920 C   0  0  0  0  0  0  0  0  0  0  0  0
  148.5285  137.2650  156.1854 O   0  0  0  0  0  0  0  0  0  0  0  0
  147.5749  136.0508  154.5033 N   0  0  0  0  0  0  0  0  0  0  0  0
  146.6895  135.2095  155.2335 C   0  0  0  0  0  0  0  0  0  0  0  0
  146.8339  135.0407  156.6346 C   0  0  0  0  0  0  0  0  0  0  0  0
  145.9933  134.1477  157.3251 C   0  0  0  0  0  0  0  0  0  0  0  0
  145.0302  133.4237  156.6018 C   0  0  0  0  0  0  0  0  0  0  0  0
  144.9256  133.5972  155.2680 N   0  3  0  0  0  0  0  0  0  0  0  0
  145.6952  134.4522  154.5488 C   0  0  0  0  0  0  0  0  0  0  0  0
  145.4631  134.5394  153.1570 N   0  0  0  0  0  0  0  0  0  0  0  0
  146.0169  133.5382  152.2525 C   0  0  0  0  0  0  0  0  0  0  0  0
  145.2731  133.7402  150.9351 C   0  0  0  0  0  0  0  0  0  0  0  0
  143.8776  134.1400  151.4050 C   0  0  0  0  0  0  0  0  0  0  0  0
  144.1406  134.9396  152.6857 C   0  0  0  0  0  0  0  0  0  0  0  0
  149.4217  139.7527  155.1758 C   0  0  0  0  0  0  0  0  0  0  0  0
  150.4657  140.8182  155.5553 C   0  0  0  0  0  0  0  0  0  0  0  0
  151.1356  142.1093  158.0404 H   0  0  0  0  0  0  0  0  0  0  0  0
  151.5526  141.0374  159.3748 H   0  0  0  0  0  0  0  0  0  0  0  0
  150.1178  140.7015  158.4097 H   0  0  0  0  0  0  0  0  0  0  0  0
  152.5469  139.9235  154.2241 H   0  0  0  0  0  0  0  0  0  0  0  0
  153.2678  138.9037  155.4264 H   0  0  0  0  0  0  0  0  0  0  0  0
  151.8329  137.5546  153.9259 H   0  0  0  0  0  0  0  0  0  0  0  0
  151.2081  137.5164  155.5575 H   0  0  0  0  0  0  0  0  0  0  0  0
  150.1696  139.2162  153.2398 H   0  0  0  0  0  0  0  0  0  0  0  0
  148.8798  137.3360  153.0568 H   0  0  0  0  0  0  0  0  0  0  0  0
  147.4941  136.0048  153.4979 H   0  0  0  0  0  0  0  0  0  0  0  0
  147.5955  135.5684  157.1889 H   0  0  0  0  0  0  0  0  0  0  0  0
  146.0960  134.0116  158.3918 H   0  0  0  0  0  0  0  0  0  0  0  0
  144.3478  132.7127  157.0444 H   0  0  0  0  0  0  0  0  0  0  0  0
  147.0937  133.6617  152.1324 H   0  0  0  0  0  0  0  0  0  0  0  0
  145.8243  132.5329  152.6297 H   0  0  0  0  0  0  0  0  0  0  0  0
  145.7250  134.5579  150.3717 H   0  0  0  0  0  0  0  0  0  0  0  0
  145.2748  132.8507  150.3044 H   0  0  0  0  0  0  0  0  0  0  0  0
  143.3218  134.7072  150.6577 H   0  0  0  0  0  0  0  0  0  0  0  0
  143.3017  133.2444  151.6423 H   0  0  0  0  0  0  0  0  0  0  0  0
  143.3646  134.7597  153.4313 H   0  0  0  0  0  0  0  0  0  0  0  0
  144.1561  136.0066  152.4617 H   0  0  0  0  0  0  0  0  0  0  0  0
  148.5459  140.2310  154.7353 H   0  0  0  0  0  0  0  0  0  0  0  0
  149.0776  139.2544  156.0836 H   0  0  0  0  0  0  0  0  0  0  0  0
  150.0266  141.5372  156.2483 H   0  0  0  0  0  0  0  0  0  0  0  0
  150.7521  141.3943  154.6742 H   0  0  0  0  0  0  0  0  0  0  0  0
  144.2169  133.0570  154.7715 H   0  0  0  0  0  0  0  0  0  0  0  0
  1  2  1  0  0  0  0
  1 25  1  0  0  0  0
  1 26  1  0  0  0  0
  1 27  1  0  0  0  0
  2  3  2  0  0  0  0
  2  4  1  0  0  0  0
  4 24  1  0  0  0  0
  4  5  1  0  0  0  0
  5  6  1  0  0  0  0
  5 28  1  0  0  0  0
  5 29  1  0  0  0  0
  6  7  1  0  0  0  0
  6 30  1  0  0  0  0
  6 31  1  0  0  0  0
  7  8  1  0  0  0  0
  7 23  1  0  0  0  0
  7 32  1  0  0  0  0
  8  9  1  0  0  0  0
  8 33  1  0  0  0  0
  9 10  2  0  0  0  0
  9 11  1  0  0  0  0
 11 12  1  0  0  0  0
 11 34  1  0  0  0  0
 12 17  1  0  0  0  0
 12 13  2  0  0  0  0
 13 14  1  0  0  0  0
 13 35  1  0  0  0  0
 14 15  2  0  0  0  0
 14 36  1  0  0  0  0
 15 16  1  0  0  0  0
 15 37  1  0  0  0  0
 16 17  2  0  0  0  0
 16 50  1  0  0  0  0
 17 18  1  0  0  0  0
 18 22  1  0  0  0  0
 18 19  1  0  0  0  0
 19 20  1  0  0  0  0
 19 38  1  0  0  0  0
 19 39  1  0  0  0  0
 20 21  1  0  0  0  0
 20 40  1  0  0  0  0
 20 41  1  0  0  0  0
 21 22  1  0  0  0  0
 21 42  1  0  0  0  0
 21 43  1  0  0  0  0
 22 44  1  0  0  0  0
 22 45  1  0  0  0  0
 23 24  1  0  0  0  0
 23 46  1  0  0  0  0
 23 47  1  0  0  0  0
 24 48  1  0  0  0  0
 24 49  1  0  0  0  0
M  CHG  1  16   1
M  END
> <s_m_source_file>
AV-unprocessed.smi

> <i_m_source_file_index>
1727

> <i_lp_mmshare_version>
43012

> <i_f3d_flags>
0

> <s_epik_input>
W0NIM11DKD1PKU4xW0NIMl1bQ0gyXVtDSF0oW0NIMl1bQ0gyXTEpW05IXUMoPU8pW05IXWMyW2NIXVtjSF1bY0hdbmMyTjNbQ0gyXVtDSDJdW0NIMl1bQ0gyXTM=

> <s_epik_cmdline>
J2VwaWtfcHl0aG9uJywgJy1waCcsICc3LjAnLCAnLXRuJywgJzgnLCAnLW1hJywgJzIwMCcsICctbWV0YWxfYmluZGluZycsICctaW1hZScsICc8aW5maWxlLm1hZT4nLCAnLW9tYWUnLCAnPG91dGZpbGUubWFlPic=

> <r_lp_tautomer_probability>
0.999994

> <r_epik_Ionization_Penalty>
1.09439

> <r_epik_Ionization_Penalty_Charging>
1.09437

> <r_epik_Ionization_Penalty_Neutral>
2.13526e-05

> <r_epik_State_Penalty>
1.15094

> <r_epik_Charging_Adjusted_Penalty>
2.24531

> <i_epik_Tot_Q>
1

> <i_epik_Tot_abs_Q>
1

> <r_epik_Metal_State_Penalty>
1.23914

> <b_epik_Metal_Only>
0

> <s_lp_Force_Field>
OPLS_2005

> <r_lp_Energy>
56.6798

> <b_lp_Chiralities_Consistent>
1

> <s_lp_Variant>
AV-unprocessed.smi:1727-2

> <Gold.Version>
5.8.1

> <Gold.Id.Protein>
6NUR|6NUR_protein|mol2

> <Gold.PLP.Fitness>
44.4247

> <Gold.PLP.PLP>
-31.6573

> <Gold.PLP.part.hbond>
-3.8629

> <Gold.PLP.part.metal>
0.0000

> <Gold.PLP.part.buried>
-3.1429

> <Gold.PLP.part.nonpolar>
-25.2443

> <Gold.PLP.part.repulsive>
0.1183

> <Gold.PLP.ligand.clash>
0.0000

> <Gold.PLP.ligand.torsion>
0.5304

> <Gold.PLP.Chemscore.Hbond>
4.4805

> <Gold.PLP.Chemscore.CHOScore>
0.0000

> <Gold.PLP.Chemscore.Metal>
0.0000

> <Gold.Chemscore.Hbonds>
donor molecule, donor type, donor heavy atom, donor atom, acceptor molecule, acceptor atom, score
      L1  H     8    33       P1  7948  1.00
      L1  H    11    34       P1  7948  0.37
      L1  H    16    50       P1 10957  1.98
      P1  H  7997  8010       L1     3  1.00

> <Gold.PLP.Chemscore.Internal.Correction>
0.3868

> <Gold.Rescore>
     Score         DG    S(hbond)    S(metal)    S(lipo)     H(rot)  DE(clash)    DE(int)     intcor
     17.34     -20.48       3.20        0.00      63.46       1.22       0.03       3.11       ----

> <Gold.Chemscore.Fitness>
17.3448

> <Gold.Chemscore.DG>
-20.4791

> <Gold.Chemscore.ZeroCoef>
-5.4800

> <Gold.Chemscore.Hbond>
3.2046

> <Gold.Chemscore.Metal>
0.0000

> <Gold.Chemscore.Lipo>
63.4597

> <Gold.Chemscore.Internal_Hbond>
0.0000

> <Gold.Chemscore.DEClash>
0.0270

> <Gold.Chemscore.DEInternal>
3.1073

> <Gold.Chemscore.Rot>
1.2222

> <Gold.Chemscore.Internal.Correction>
   9.000000E+99

> <Gold.Chemscore.Hbonds>
donor molecule, donor type, donor heavy atom, donor atom, acceptor molecule, acceptor atom, score
      L1  H     8    33       P1  7948  0.95
      L1  H    11    34       P1  7948  0.39
      L1  H    16    50       P1 10957  0.90
      P1  H  7997  8010       L1     3  0.60

> <Gold.Chemscore.Hbond.Weighted>
-10.7032

> <Gold.Chemscore.Metal.Weighted>
-0.0000

> <Gold.Chemscore.Lipo.Weighted>
-7.4248

> <Gold.Chemscore.Internal_Hbond.Weighted>
0.0000

> <Gold.Chemscore.DEClash.Weighted>
0.0270

> <Gold.Chemscore.DEInternal.Weighted>
3.1073

> <Gold.Chemscore.Rot.Weighted>
3.1289

> <Gold.Chemscore.Internal.Correction.Weighted>
   9.000000E+99

> <Gold.Protein.RotatedTorsions>
[ 6907 6896 6895 6894 ] final  -32.38 input  -60.11 | X-H torsion
[ 7974 7965 7964 7962 ] final -176.15 input  175.53 | X-H torsion
[ 8008 7997 7996 7995 ] final   47.34 input   59.86 | X-H torsion
[ 10167 10162 10161 10158 ] final  -19.75 input  -65.29 | X-H torsion
[ 10718 10713 10712 10709 ] final -140.31 input   66.30 | X-H torsion
[ 10763 10752 10751 10750 ] final   20.18 input  -60.55 | X-H torsion
[ 11005 11000 10999 10996 ] final   48.56 input  -57.11 | X-H torsion

> <Gold.Protein.ActiveResidues>
 VAL166  LYS551  ARG553  GLY616  TRP617  ASP618  TYR619  PRO620  LYS621  CYS622 
 ASP623  PHE694  ASN695  SER759  ASP760  ASP761  ALA762  ILE779  LEU786  VAL792 
 PHE793  MET794  SER795  GLU796  ALA797  LYS798  CYS799  TRP800  GLU811  SER814 

> <Gold.Protein.RotatedAtoms>
  151.0795  134.9849  159.8348 H   0  0  0  0  0  0  0  0  0  0  0  0  # atno 6907 bound_to 6896
  152.5418  134.2199  159.8793 H   0  0  0  0  0  0  0  0  0  0  0  0  # atno 6908 bound_to 6896
  151.2228  133.4449  159.2635 H   0  0  0  0  0  0  0  0  0  0  0  0  # atno 6909 bound_to 6896
  144.7127  140.1213  143.6405 H   0  0  0  0  0  0  0  0  0  0  0  0  # atno 7974 bound_to 7965
  155.3674  140.3422  155.4242 H   0  0  0  0  0  0  0  0  0  0  0  0  # atno 8008 bound_to 7997
  156.1681  140.1622  156.8530 H   0  0  0  0  0  0  0  0  0  0  0  0  # atno 8009 bound_to 7997
  154.5205  140.0768  156.8145 H   0  0  0  0  0  0  0  0  0  0  0  0  # atno 8010 bound_to 7997
  140.7271  143.4788  151.0145 H   0  0  0  0  0  0  0  0  0  0  0  0  # atno 10167 bound_to 10162
  156.3208  130.7533  151.1631 H   0  0  0  0  0  0  0  0  0  0  0  0  # atno 10718 bound_to 10713
  153.1099  135.6694  153.9519 H   0  0  0  0  0  0  0  0  0  0  0  0  # atno 10763 bound_to 10752
  153.9066  135.3030  155.3450 H   0  0  0  0  0  0  0  0  0  0  0  0  # atno 10764 bound_to 10752
  154.7519  135.5030  153.9381 H   0  0  0  0  0  0  0  0  0  0  0  0  # atno 10765 bound_to 10752
  140.1179  134.4868  155.8621 H   0  0  0  0  0  0  0  0  0  0  0  0  # atno 11005 bound_to 11000
  145.9368  139.2642  143.1292 LP  0  0  0  0  0  0  0  0  0  0  0  0  # atno 17320 bound_to 7965
  145.9465  140.8941  143.0281 LP  0  0  0  0  0  0  0  0  0  0  0  0  # atno 17321 bound_to 7965
  139.8486  143.7469  152.3178 LP  0  0  0  0  0  0  0  0  0  0  0  0  # atno 17342 bound_to 10162
  139.7643  144.7497  151.0318 LP  0  0  0  0  0  0  0  0  0  0  0  0  # atno 17343 bound_to 10162
  157.7411  131.0508  150.5118 LP  0  0  0  0  0  0  0  0  0  0  0  0  # atno 17370 bound_to 10713
  156.5270  130.4175  149.6221 LP  0  0  0  0  0  0  0  0  0  0  0  0  # atno 17371 bound_to 10713
  141.2145  133.6750  156.6833 LP  0  0  0  0  0  0  0  0  0  0  0  0  # atno 17394 bound_to 11000
  140.3003  134.8169  157.4092 LP  0  0  0  0  0  0  0  0  0  0  0  0  # atno 17395 bound_to 11000

$$$$
