AV-unprocessed.smi:276|AV-procd|sdf|2082|dock3
  -GOLD-   2262021353D 1   1.00000     0.00000
 Structure written by MMmdl.
 57 61  0  0  0  0  0  0  0  0  1 V2000
  153.6442  141.8655  160.8648 C   0  0  0  0  0  0  0  0  0  0  0  0
  153.1168  142.6247  159.7913 O   0  0  0  0  0  0  0  0  0  0  0  0
  151.8356  142.1717  159.3841 C   0  0  2  0  0  0  0  0  0  0  0  0
  151.8392  141.3069  158.1176 C   0  0  0  0  0  0  0  0  0  0  0  0
  150.5728  142.0551  157.6556 C   0  0  1  0  0  0  0  0  0  0  0  0
  149.3521  141.3484  158.0679 N   0  0  0  0  0  0  0  0  0  0  0  0
  149.3372  139.9030  157.8592 C   0  0  0  0  0  0  0  0  0  0  0  0
  148.1743  141.8944  157.6895 C   0  0  0  0  0  0  0  0  0  0  0  0
  147.8733  141.8441  156.3679 N   0  0  0  0  0  0  0  0  0  0  0  0
  146.7222  142.3562  155.9239 C   0  0  0  0  0  0  0  0  0  0  0  0
  145.7546  142.9592  156.6173 N   0  0  0  0  0  0  0  0  0  0  0  0
  146.0628  143.0299  157.9438 C   0  0  0  0  0  0  0  0  0  0  0  0
  147.2428  142.5278  158.5622 C   0  0  0  0  0  0  0  0  0  0  0  0
  147.2024  142.7800  159.9283 N   0  0  0  0  0  0  0  0  0  0  0  0
  146.0599  143.3831  160.1090 C   0  0  0  0  0  0  0  0  0  0  0  0
  145.3215  143.5956  158.9669 N   0  0  0  0  0  0  0  0  0  0  0  0
  144.0213  144.2391  158.8829 C   0  0  0  0  0  0  0  0  0  0  0  0
  143.9149  145.3204  157.7812 C   0  0  1  0  0  0  0  0  0  0  0  0
  142.5892  145.8051  157.8552 O   0  0  0  0  0  0  0  0  0  0  0  0
  144.8544  146.5386  157.9400 C   0  0  1  0  0  0  0  0  0  0  0  0
  144.6497  147.6864  156.9474 C   0  0  0  0  0  0  0  0  0  0  0  0
  145.1708  148.9083  157.6849 C   0  0  0  0  0  0  0  0  0  0  0  0
  145.2065  148.4656  159.1474 C   0  0  0  0  0  0  0  0  0  0  0  0
  144.5611  147.2007  159.1623 O   0  0  0  0  0  0  0  0  0  0  0  0
  151.0270  143.2116  158.5876 C   0  0  0  0  0  0  0  0  0  0  0  0
  151.7370  144.4345  157.9788 C   0  0  0  0  0  0  0  0  0  0  0  0
  151.2011  145.2627  159.1497 C   0  0  0  0  0  0  0  0  0  0  0  0
  150.0997  144.2115  159.3053 C   0  0  0  0  0  0  0  0  0  0  0  0
  154.6265  142.2509  161.1378 H   0  0  0  0  0  0  0  0  0  0  0  0
  153.7585  140.8159  160.5911 H   0  0  0  0  0  0  0  0  0  0  0  0
  153.0014  141.9300  161.7438 H   0  0  0  0  0  0  0  0  0  0  0  0
  151.2472  141.7367  160.1949 H   0  0  0  0  0  0  0  0  0  0  0  0
  152.6975  141.5098  157.4747 H   0  0  0  0  0  0  0  0  0  0  0  0
  151.7343  140.2380  158.3035 H   0  0  0  0  0  0  0  0  0  0  0  0
  150.6085  142.3038  156.5951 H   0  0  0  0  0  0  0  0  0  0  0  0
  148.3359  139.5117  157.6693 H   0  0  0  0  0  0  0  0  0  0  0  0
  149.7216  139.3980  158.7453 H   0  0  0  0  0  0  0  0  0  0  0  0
  149.9675  139.6293  157.0126 H   0  0  0  0  0  0  0  0  0  0  0  0
  146.5518  142.2702  154.8609 H   0  0  0  0  0  0  0  0  0  0  0  0
  145.7298  143.7045  161.0861 H   0  0  0  0  0  0  0  0  0  0  0  0
  143.2886  143.4514  158.7004 H   0  0  0  0  0  0  0  0  0  0  0  0
  143.7773  144.6672  159.8562 H   0  0  0  0  0  0  0  0  0  0  0  0
  144.0534  144.8700  156.7984 H   0  0  0  0  0  0  0  0  0  0  0  0
  142.6047  146.6664  158.2432 H   0  0  0  0  0  0  0  0  0  0  0  0
  145.9012  146.2278  157.9323 H   0  0  0  0  0  0  0  0  0  0  0  0
  145.1678  147.5270  156.0024 H   0  0  0  0  0  0  0  0  0  0  0  0
  143.5875  147.8190  156.7373 H   0  0  0  0  0  0  0  0  0  0  0  0
  146.1696  149.1827  157.3443 H   0  0  0  0  0  0  0  0  0  0  0  0
  144.5155  149.7666  157.5339 H   0  0  0  0  0  0  0  0  0  0  0  0
  146.2357  148.3499  159.4895 H   0  0  0  0  0  0  0  0  0  0  0  0
  144.7026  149.1687  159.8107 H   0  0  0  0  0  0  0  0  0  0  0  0
  152.8237  144.3697  157.9213 H   0  0  0  0  0  0  0  0  0  0  0  0
  151.3054  144.7353  157.0225 H   0  0  0  0  0  0  0  0  0  0  0  0
  151.8862  145.2875  159.9988 H   0  0  0  0  0  0  0  0  0  0  0  0
  150.8489  146.2591  158.8817 H   0  0  0  0  0  0  0  0  0  0  0  0
  149.2119  144.4877  158.7376 H   0  0  0  0  0  0  0  0  0  0  0  0
  149.8549  143.9545  160.3360 H   0  0  0  0  0  0  0  0  0  0  0  0
  1  2  1  0  0  0  0
  1 29  1  0  0  0  0
  1 30  1  0  0  0  0
  1 31  1  0  0  0  0
  2  3  1  0  0  0  0
  3 25  1  0  0  0  0
  3  4  1  0  0  0  0
  3 32  1  0  0  0  0
  4  5  1  0  0  0  0
  4 33  1  0  0  0  0
  4 34  1  0  0  0  0
  5  6  1  0  0  0  0
  5 25  1  0  0  0  0
  5 35  1  0  0  0  0
  6  7  1  0  0  0  0
  6  8  1  0  0  0  0
  7 36  1  0  0  0  0
  7 37  1  0  0  0  0
  7 38  1  0  0  0  0
  8 13  1  0  0  0  0
  8  9  2  0  0  0  0
  9 10  1  0  0  0  0
 10 11  2  0  0  0  0
 10 39  1  0  0  0  0
 11 12  1  0  0  0  0
 12 16  1  0  0  0  0
 12 13  2  0  0  0  0
 13 14  1  0  0  0  0
 14 15  2  0  0  0  0
 15 16  1  0  0  0  0
 15 40  1  0  0  0  0
 16 17  1  0  0  0  0
 17 18  1  0  0  0  0
 17 41  1  0  0  0  0
 17 42  1  0  0  0  0
 18 19  1  0  0  0  0
 18 20  1  0  0  0  0
 18 43  1  0  0  0  0
 19 44  1  0  0  0  0
 20 24  1  0  0  0  0
 20 21  1  0  0  0  0
 20 45  1  0  0  0  0
 21 22  1  0  0  0  0
 21 46  1  0  0  0  0
 21 47  1  0  0  0  0
 22 23  1  0  0  0  0
 22 48  1  0  0  0  0
 22 49  1  0  0  0  0
 23 24  1  0  0  0  0
 23 50  1  0  0  0  0
 23 51  1  0  0  0  0
 25 28  1  0  0  0  0
 25 26  1  0  0  0  0
 26 27  1  0  0  0  0
 26 52  1  0  0  0  0
 26 53  1  0  0  0  0
 27 28  1  0  0  0  0
 27 54  1  0  0  0  0
 27 55  1  0  0  0  0
 28 56  1  0  0  0  0
 28 57  1  0  0  0  0
M  END
> <s_m_source_file>
AV-unprocessed.smi

> <i_m_source_file_index>
276

> <i_lp_mmshare_version>
43012

> <i_f3d_flags>
0

> <s_epik_input>
W0NIMl0xW0NIMl1bQ0gyXUMxMltDQEhdKE9bQ0gzXSlbQ0gyXVtDQEhdMk4oW0NIM10pYyhuW2NIXW4zKWMoYzM0KW5bY0hdbjRbQ0gyXVtDQEhdKFtPSF0pW0NAQEhdNVtDSDJdW0NIMl1bQ0gyXU81

> <s_epik_cmdline>
J2VwaWtfcHl0aG9uJywgJy1waCcsICc3LjAnLCAnLXRuJywgJzgnLCAnLW1hJywgJzIwMCcsICctbWV0YWxfYmluZGluZycsICctaW1hZScsICc8aW5maWxlLm1hZT4nLCAnLW9tYWUnLCAnPG91dGZpbGUubWFlPic=

> <r_lp_tautomer_probability>
1

> <r_epik_Ionization_Penalty>
0.00204117

> <r_epik_Ionization_Penalty_Charging>
0

> <r_epik_Ionization_Penalty_Neutral>
0.00204117

> <r_epik_State_Penalty>
0.00127401

> <r_epik_Charging_Adjusted_Penalty>
0.00127401

> <i_epik_Tot_Q>
0

> <i_epik_Tot_abs_Q>
0

> <r_epik_Metal_State_Penalty>
-0

> <b_epik_Metal_Only>
0

> <s_lp_Force_Field>
OPLS_2005

> <r_lp_Energy>
59.2093

> <b_lp_Chiralities_Consistent>
1

> <s_lp_Variant>
AV-unprocessed.smi:276-13

> <Gold.Version>
5.8.1

> <Gold.Id.Protein>
6NUR|6NUR_protein|mol2

> <Gold.PLP.Fitness>
47.6974

> <Gold.PLP.PLP>
-45.1556

> <Gold.PLP.part.hbond>
-2.0000

> <Gold.PLP.part.metal>
0.0000

> <Gold.PLP.part.buried>
-6.8579

> <Gold.PLP.part.nonpolar>
-37.0494

> <Gold.PLP.part.repulsive>
0.4970

> <Gold.PLP.ligand.clash>
0.0000

> <Gold.PLP.ligand.torsion>
1.1045

> <Gold.PLP.Chemscore.Hbond>
1.2659

> <Gold.PLP.Chemscore.CHOScore>
0.0000

> <Gold.PLP.Chemscore.Metal>
0.0000

> <Gold.Chemscore.Hbonds>
donor molecule, donor type, donor heavy atom, donor atom, acceptor molecule, acceptor atom, score
      P1  H  6933  6944       L1    14  0.78
      P1  H  6934  6946       L1    14  0.66

> <Gold.PLP.Chemscore.Internal.Correction>
0.9530

> <Gold.Rescore>
     Score         DG    S(hbond)    S(metal)    S(lipo)     H(rot)  DE(clash)    DE(int)     intcor
     13.58     -14.74       0.88        0.00     113.55       2.72       0.10       1.06       ----

> <Gold.Chemscore.Fitness>
13.5802

> <Gold.Chemscore.DG>
-14.7381

> <Gold.Chemscore.ZeroCoef>
-5.4800

> <Gold.Chemscore.Hbond>
0.8768

> <Gold.Chemscore.Metal>
0.0000

> <Gold.Chemscore.Lipo>
113.5508

> <Gold.Chemscore.Internal_Hbond>
0.0000

> <Gold.Chemscore.DEClash>
0.1017

> <Gold.Chemscore.DEInternal>
1.0561

> <Gold.Chemscore.Rot>
2.7172

> <Gold.Chemscore.Internal.Correction>
   9.000000E+99

> <Gold.Chemscore.Hbonds>
donor molecule, donor type, donor heavy atom, donor atom, acceptor molecule, acceptor atom, score
      P1  H  6933  6944       L1    14  0.74
      P1  H  6934  6946       L1    14  0.11

> <Gold.Chemscore.Hbond.Weighted>
-2.9286

> <Gold.Chemscore.Metal.Weighted>
-0.0000

> <Gold.Chemscore.Lipo.Weighted>
-13.2854

> <Gold.Chemscore.Internal_Hbond.Weighted>
0.0000

> <Gold.Chemscore.DEClash.Weighted>
0.1017

> <Gold.Chemscore.DEInternal.Weighted>
1.0561

> <Gold.Chemscore.Rot.Weighted>
6.9560

> <Gold.Chemscore.Internal.Correction.Weighted>
   9.000000E+99

> <Gold.Protein.RotatedTorsions>
[ 6907 6896 6895 6894 ] final  163.25 input  -60.11 | X-H torsion
[ 7974 7965 7964 7962 ] final -127.62 input  175.53 | X-H torsion
[ 8008 7997 7996 7995 ] final   82.37 input   59.86 | X-H torsion
[ 10167 10162 10161 10158 ] final   28.65 input  -65.29 | X-H torsion
[ 10718 10713 10712 10709 ] final   99.64 input   66.30 | X-H torsion
[ 10763 10752 10751 10750 ] final   68.62 input  -60.55 | X-H torsion
[ 11005 11000 10999 10996 ] final    4.71 input  -57.11 | X-H torsion

> <Gold.Protein.ActiveResidues>
 VAL166  LYS551  ARG553  GLY616  TRP617  ASP618  TYR619  PRO620  LYS621  CYS622 
 ASP623  PHE694  ASN695  SER759  ASP760  ASP761  ALA762  ILE779  LEU786  VAL792 
 PHE793  MET794  SER795  GLU796  ALA797  LYS798  CYS799  TRP800  GLU811  SER814 

> <Gold.Protein.RotatedAtoms>
  151.9280  133.3603  159.3920 H   0  0  0  0  0  0  0  0  0  0  0  0  # atno 6907 bound_to 6896
  150.7023  134.4567  159.5371 H   0  0  0  0  0  0  0  0  0  0  0  0  # atno 6908 bound_to 6896
  152.2202  134.8420  160.0537 H   0  0  0  0  0  0  0  0  0  0  0  0  # atno 6909 bound_to 6896
  144.9752  140.7585  143.4646 H   0  0  0  0  0  0  0  0  0  0  0  0  # atno 7974 bound_to 7965
  155.9097  140.3428  155.6089 H   0  0  0  0  0  0  0  0  0  0  0  0  # atno 8008 bound_to 7997
  155.7402  140.0806  157.2268 H   0  0  0  0  0  0  0  0  0  0  0  0  # atno 8009 bound_to 7997
  154.4054  140.1572  156.2594 H   0  0  0  0  0  0  0  0  0  0  0  0  # atno 8010 bound_to 7997
  140.4834  144.0580  150.6273 H   0  0  0  0  0  0  0  0  0  0  0  0  # atno 10167 bound_to 10162
  157.6871  131.0675  150.4979 H   0  0  0  0  0  0  0  0  0  0  0  0  # atno 10718 bound_to 10713
  153.0245  135.5240  154.7163 H   0  0  0  0  0  0  0  0  0  0  0  0  # atno 10763 bound_to 10752
  154.6231  135.2891  155.0306 H   0  0  0  0  0  0  0  0  0  0  0  0  # atno 10764 bound_to 10752
  154.1285  135.6596  153.4969 H   0  0  0  0  0  0  0  0  0  0  0  0  # atno 10765 bound_to 10752
  140.5789  134.0031  155.8039 H   0  0  0  0  0  0  0  0  0  0  0  0  # atno 11005 bound_to 11000
  145.2500  139.2035  143.4947 LP  0  0  0  0  0  0  0  0  0  0  0  0  # atno 17320 bound_to 7965
  146.3393  140.2412  142.8596 LP  0  0  0  0  0  0  0  0  0  0  0  0  # atno 17321 bound_to 7965
  140.3828  143.2793  152.0150 LP  0  0  0  0  0  0  0  0  0  0  0  0  # atno 17342 bound_to 10162
  139.4837  144.6141  151.7380 LP  0  0  0  0  0  0  0  0  0  0  0  0  # atno 17343 bound_to 10162
  156.5302  130.4183  149.6205 LP  0  0  0  0  0  0  0  0  0  0  0  0  # atno 17370 bound_to 10713
  156.3076  130.7211  151.2097 LP  0  0  0  0  0  0  0  0  0  0  0  0  # atno 17371 bound_to 10713
  141.1009  133.9770  157.3081 LP  0  0  0  0  0  0  0  0  0  0  0  0  # atno 17394 bound_to 11000
  139.9326  135.0199  156.8452 LP  0  0  0  0  0  0  0  0  0  0  0  0  # atno 17395 bound_to 11000

$$$$
