AV-unprocessed.smi:47|AV-procd|sdf|436|dock1
  -GOLD-   2262016303D 1   1.00000     0.00000
 Structure written by MMmdl.
 31 33  0  0  0  0  0  0  0  0  1 V2000
  145.9825  140.4097  154.2252 O   0  0  0  0  0  0  0  0  0  0  0  0
  147.3184  140.7303  153.9007 C   0  0  2  0  0  0  0  0  0  0  0  0
  148.1933  139.4907  153.7367 C   0  0  0  0  0  0  0  0  0  0  0  0
  149.5644  139.9389  153.9700 N   0  0  0  0  0  0  0  0  0  0  0  0
  149.5137  141.2176  154.6912 C   0  0  2  0  0  0  0  0  0  0  0  0
  150.3832  141.2600  155.9098 C   0  0  0  0  0  0  0  0  0  0  0  0
  151.2706  140.2985  156.1441 N   0  0  0  0  0  0  0  0  0  0  0  0
  151.8507  140.7287  157.2830 N   0  0  0  0  0  0  0  0  0  0  0  0
  151.3199  141.8978  157.6633 C   0  0  0  0  0  0  0  0  0  0  0  0
  151.7192  142.6462  158.8572 C   0  0  0  0  0  0  0  0  0  0  0  0
  151.3814  144.0129  158.9925 C   0  0  0  0  0  0  0  0  0  0  0  0
  151.7649  144.7333  160.1405 C   0  0  0  0  0  0  0  0  0  0  0  0
  152.4876  144.0950  161.1655 C   0  0  0  0  0  0  0  0  0  0  0  0
  152.8269  142.7348  161.0416 C   0  0  0  0  0  0  0  0  0  0  0  0
  152.4451  142.0138  159.8933 C   0  0  0  0  0  0  0  0  0  0  0  0
  150.3771  142.2919  156.8071 N   0  0  0  0  0  0  0  0  0  0  0  0
  148.0365  141.4796  155.0131 C   0  0  0  0  0  0  0  0  0  0  0  0
  147.3358  141.3216  152.9839 H   0  0  0  0  0  0  0  0  0  0  0  0
  149.8500  141.9990  154.0083 H   0  0  0  0  0  0  0  0  0  0  0  0
  152.5857  140.2167  157.7493 H   0  0  0  0  0  0  0  0  0  0  0  0
  145.4363  140.6095  153.4804 H   0  0  0  0  0  0  0  0  0  0  0  0
  147.9257  138.7499  154.4915 H   0  0  0  0  0  0  0  0  0  0  0  0
  148.0788  139.0219  152.7590 H   0  0  0  0  0  0  0  0  0  0  0  0
  150.0097  140.0961  153.0719 H   0  0  0  0  0  0  0  0  0  0  0  0
  150.8281  144.5232  158.2180 H   0  0  0  0  0  0  0  0  0  0  0  0
  151.5041  145.7773  160.2342 H   0  0  0  0  0  0  0  0  0  0  0  0
  152.7816  144.6478  162.0457 H   0  0  0  0  0  0  0  0  0  0  0  0
  153.3806  142.2430  161.8277 H   0  0  0  0  0  0  0  0  0  0  0  0
  152.7150  140.9705  159.8185 H   0  0  0  0  0  0  0  0  0  0  0  0
  147.7893  142.5407  155.0572 H   0  0  0  0  0  0  0  0  0  0  0  0
  147.7780  141.0345  155.9761 H   0  0  0  0  0  0  0  0  0  0  0  0
  1  2  1  0  0  0  0
  1 21  1  0  0  0  0
  2 18  1  0  0  0  0
  2 17  1  0  0  0  0
  2  3  1  0  0  0  0
  3  4  1  0  0  0  0
  3 22  1  0  0  0  0
  3 23  1  0  0  0  0
  4  5  1  0  0  0  0
  4 24  1  0  0  0  0
  5 19  1  0  0  0  0
  5  6  1  0  0  0  0
  5 17  1  0  0  0  0
  6 16  1  0  0  0  0
  6  7  2  0  0  0  0
  7  8  1  0  0  0  0
  8 20  1  0  0  0  0
  8  9  1  0  0  0  0
  9 10  1  0  0  0  0
  9 16  2  0  0  0  0
 10 15  1  0  0  0  0
 10 11  2  0  0  0  0
 11 12  1  0  0  0  0
 11 25  1  0  0  0  0
 12 13  2  0  0  0  0
 12 26  1  0  0  0  0
 13 14  1  0  0  0  0
 13 27  1  0  0  0  0
 14 15  2  0  0  0  0
 14 28  1  0  0  0  0
 15 29  1  0  0  0  0
 17 30  1  0  0  0  0
 17 31  1  0  0  0  0
M  END
> <s_m_source_file>
AV-unprocessed.smi

> <i_m_source_file_index>
47

> <i_lp_mmshare_version>
43012

> <i_f3d_flags>
0

> <s_epik_input>
W09IXVtDQEhdMVtDSDJdW05IXVtDQEBIXShbQ0gyXTEpYzJuW25IXWMobjIpLWMzW2NIXVtjSF1bY0hdW2NIXVtjSF0z

> <s_epik_cmdline>
J2VwaWtfcHl0aG9uJywgJy1waCcsICc3LjAnLCAnLXRuJywgJzgnLCAnLW1hJywgJzIwMCcsICctbWV0YWxfYmluZGluZycsICctaW1hZScsICc8aW5maWxlLm1hZT4nLCAnLW9tYWUnLCAnPG91dGZpbGUubWFlPic=

> <r_epik_Ionization_Penalty>
1.65981

> <r_epik_Ionization_Penalty_Charging>
0

> <r_epik_Ionization_Penalty_Neutral>
1.65981

> <r_epik_State_Penalty>
2.0492

> <r_epik_Charging_Adjusted_Penalty>
2.0492

> <i_epik_Tot_Q>
0

> <i_epik_Tot_abs_Q>
0

> <r_epik_Metal_State_Penalty>
2.54641

> <b_epik_Metal_Only>
0

> <s_lp_Force_Field>
OPLS_2005

> <r_lp_Energy>
26.3825

> <b_lp_Chiralities_Consistent>
1

> <s_lp_Variant>
AV-unprocessed.smi:47-14

> <Gold.Version>
5.8.1

> <Gold.Id.Protein>
6NUR|6NUR_protein|mol2

> <Gold.PLP.Fitness>
41.8226

> <Gold.PLP.PLP>
-36.9066

> <Gold.PLP.part.hbond>
-2.5433

> <Gold.PLP.part.metal>
0.0000

> <Gold.PLP.part.buried>
-4.8842

> <Gold.PLP.part.nonpolar>
-29.8556

> <Gold.PLP.part.repulsive>
0.6629

> <Gold.PLP.ligand.clash>
0.0000

> <Gold.PLP.ligand.torsion>
0.3211

> <Gold.PLP.Chemscore.Hbond>
1.8480

> <Gold.PLP.Chemscore.CHOScore>
0.0000

> <Gold.PLP.Chemscore.Metal>
0.0000

> <Gold.Chemscore.Hbonds>
donor molecule, donor type, donor heavy atom, donor atom, acceptor molecule, acceptor atom, score
      L1  H     1    21       P1 10175  1.00
      L1  H     4    24       P1  7957  0.83

> <Gold.PLP.Chemscore.Internal.Correction>
0.0143

> <Gold.Rescore>
     Score         DG    S(hbond)    S(metal)    S(lipo)     H(rot)  DE(clash)    DE(int)     intcor
     18.61     -18.98       1.93        0.00      92.66       1.48       0.22       0.16       ----

> <Gold.Chemscore.Fitness>
18.6100

> <Gold.Chemscore.DG>
-18.9809

> <Gold.Chemscore.ZeroCoef>
-5.4800

> <Gold.Chemscore.Hbond>
1.9296

> <Gold.Chemscore.Metal>
0.0000

> <Gold.Chemscore.Lipo>
92.6596

> <Gold.Chemscore.Internal_Hbond>
0.0000

> <Gold.Chemscore.DEClash>
0.2154

> <Gold.Chemscore.DEInternal>
0.1555

> <Gold.Chemscore.Rot>
1.4786

> <Gold.Chemscore.Internal.Correction>
   9.000000E+99

> <Gold.Chemscore.Hbonds>
donor molecule, donor type, donor heavy atom, donor atom, acceptor molecule, acceptor atom, score
      L1  H     1    21       P1 10175  0.86
      L1  H     4    24       P1  7957  0.81

> <Gold.Chemscore.Hbond.Weighted>
-6.4450

> <Gold.Chemscore.Metal.Weighted>
-0.0000

> <Gold.Chemscore.Lipo.Weighted>
-10.8412

> <Gold.Chemscore.Internal_Hbond.Weighted>
0.0000

> <Gold.Chemscore.DEClash.Weighted>
0.2154

> <Gold.Chemscore.DEInternal.Weighted>
0.1555

> <Gold.Chemscore.Rot.Weighted>
3.7853

> <Gold.Chemscore.Internal.Correction.Weighted>
   9.000000E+99

> <Gold.Protein.RotatedTorsions>
[ 6907 6896 6895 6894 ] final   11.63 input  -60.11 | X-H torsion
[ 7974 7965 7964 7962 ] final -161.15 input  175.53 | X-H torsion
[ 8008 7997 7996 7995 ] final  -82.70 input   59.86 | X-H torsion
[ 10167 10162 10161 10158 ] final -130.76 input  -65.29 | X-H torsion
[ 10718 10713 10712 10709 ] final  -27.92 input   66.30 | X-H torsion
[ 10763 10752 10751 10750 ] final  -30.01 input  -60.55 | X-H torsion
[ 11005 11000 10999 10996 ] final   -7.54 input  -57.11 | X-H torsion

> <Gold.Protein.ActiveResidues>
 VAL166  LYS551  ARG553  GLY616  TRP617  ASP618  TYR619  PRO620  LYS621  CYS622 
 ASP623  PHE694  ASN695  SER759  ASP760  ASP761  ALA762  ILE779  LEU786  VAL792 
 PHE793  MET794  SER795  GLU796  ALA797  LYS798  CYS799  TRP800  GLU811  SER814 

> <Gold.Protein.RotatedAtoms>
  151.7574  135.0818  160.0340 H   0  0  0  0  0  0  0  0  0  0  0  0  # atno 6907 bound_to 6896
  152.3376  133.6025  159.5862 H   0  0  0  0  0  0  0  0  0  0  0  0  # atno 6908 bound_to 6896
  150.7460  133.9688  159.3581 H   0  0  0  0  0  0  0  0  0  0  0  0  # atno 6909 bound_to 6896
  144.7401  140.3439  143.6129 H   0  0  0  0  0  0  0  0  0  0  0  0  # atno 7974 bound_to 7965
  154.6113  140.0629  156.9497 H   0  0  0  0  0  0  0  0  0  0  0  0  # atno 8008 bound_to 7997
  155.1968  140.3312  155.4331 H   0  0  0  0  0  0  0  0  0  0  0  0  # atno 8009 bound_to 7997
  156.2378  140.1871  156.7055 H   0  0  0  0  0  0  0  0  0  0  0  0  # atno 8010 bound_to 7997
  139.9259  143.6328  152.2542 H   0  0  0  0  0  0  0  0  0  0  0  0  # atno 10167 bound_to 10162
  156.4319  130.4447  149.7112 H   0  0  0  0  0  0  0  0  0  0  0  0  # atno 10718 bound_to 10713
  153.7740  135.6910  153.4901 H   0  0  0  0  0  0  0  0  0  0  0  0  # atno 10763 bound_to 10752
  153.1855  135.4490  155.0082 H   0  0  0  0  0  0  0  0  0  0  0  0  # atno 10764 bound_to 10752
  154.8107  135.3376  154.7247 H   0  0  0  0  0  0  0  0  0  0  0  0  # atno 10765 bound_to 10752
  140.7138  133.8886  155.8770 H   0  0  0  0  0  0  0  0  0  0  0  0  # atno 11005 bound_to 11000
  145.7346  139.1746  143.2411 LP  0  0  0  0  0  0  0  0  0  0  0  0  # atno 17320 bound_to 7965
  146.1180  140.7344  142.9471 LP  0  0  0  0  0  0  0  0  0  0  0  0  # atno 17321 bound_to 7965
  139.6822  144.7654  151.1588 LP  0  0  0  0  0  0  0  0  0  0  0  0  # atno 17342 bound_to 10162
  140.7650  143.5708  150.8998 LP  0  0  0  0  0  0  0  0  0  0  0  0  # atno 17343 bound_to 10162
  156.4011  130.7675  151.2683 LP  0  0  0  0  0  0  0  0  0  0  0  0  # atno 17370 bound_to 10713
  157.7508  131.0239  150.3855 LP  0  0  0  0  0  0  0  0  0  0  0  0  # atno 17371 bound_to 10713
  141.0062  134.1083  157.4268 LP  0  0  0  0  0  0  0  0  0  0  0  0  # atno 17394 bound_to 11000
  139.8865  135.0082  156.6501 LP  0  0  0  0  0  0  0  0  0  0  0  0  # atno 17395 bound_to 11000

$$$$
