#       Name:                AV-unprocessed.smi:2569
#       Creating user name   scv26
#       Creation time:       Fri Mar 27 14:11:52 2020


#       File generated by GOLD software.
#

@<TRIPOS>MOLECULE
AV-unprocessed.smi:2569
    45    47     1
SMALL
NO_CHARGES


@<TRIPOS>ATOM
      1 ****        -1.4957   3.8056  -2.2532 C.3            1 S1                 0.0000
      2 ****        -1.5065   2.4727  -1.5255 C.ar           1 S1                 0.0000
      3 ****        -2.2060   2.3622  -0.3028 C.ar           1 S1                 0.0000
      4 ****        -2.2382   1.1413   0.4059 C.ar           1 S1                 0.0000
      5 ****        -2.8496   0.8141   1.6038 N.2            1 S1                 0.0000
      6 ****        -2.5125  -0.4653   1.7362 C.2            1 S1                 0.0000
      7 ****        -1.7457  -1.0048   0.7689 N.pl3          1 S1                 0.0000
      8 ****        -1.2468  -2.3677   0.7067 C.3            1 S1                 0.0000
      9 ****         0.2895  -2.4420   0.8095 C.3            1 S1                 0.0000
     10 ****         0.6742  -3.8016   0.7740 O.3            1 S1                 0.0000
     11 ****         0.8662  -1.7666   2.0721 C.3            1 S1                 0.0000
     12 ****         2.3123  -1.6484   2.0137 N.pl3          1 S1                 0.0000
     13 ****         3.1198  -2.5870   2.5654 N.2            1 S1                 0.0000
     14 ****         4.3442  -2.2052   2.3388 N.2            1 S1                 0.0000
     15 ****         4.3784  -1.0142   1.6364 N.2            1 S1                 0.0000
     16 ****         3.0980  -0.7148   1.4616 C.2            1 S1                 0.0000
     17 ****         2.5753   0.4888   0.7473 C.3            1 S1                 0.0000
     18 ****        -1.5465   0.0238  -0.1465 C.ar           1 S1                 0.0000
     19 ****        -0.8531   0.1201  -1.3662 C.ar           1 S1                 0.0000
     20 ****        -0.8271   1.3483  -2.0588 C.ar           1 S1                 0.0000
     21 ****        -0.0653   1.4429  -3.3688 C.3            1 S1                 0.0000
     22 ****        -2.0805   4.5561  -1.7204 H              1 S1                 0.0000
     23 ****        -1.9201   3.6993  -3.2517 H              1 S1                 0.0000
     24 ****        -0.4765   4.1809  -2.3477 H              1 S1                 0.0000
     25 ****        -2.7250   3.2179   0.1032 H              1 S1                 0.0000
     26 ****        -2.8333  -1.0417   2.5919 H              1 S1                 0.0000
     27 ****        -1.7058  -2.9427   1.5125 H              1 S1                 0.0000
     28 ****        -1.5870  -2.8124  -0.2296 H              1 S1                 0.0000
     29 ****         0.7201  -1.9665  -0.0713 H              1 S1                 0.0000
     30 ****         1.6180  -3.8488   0.8027 H              1 S1                 0.0000
     31 ****         0.4626  -0.7621   2.1975 H              1 S1                 0.0000
     32 ****         0.5858  -2.3220   2.9684 H              1 S1                 0.0000
     33 ****         3.3995   1.1122   0.3995 H              1 S1                 0.0000
     34 ****         1.9501   1.0819   1.4150 H              1 S1                 0.0000
     35 ****         1.9807   0.1869  -0.1149 H              1 S1                 0.0000
     36 ****        -0.3421  -0.7431  -1.7654 H              1 S1                 0.0000
     37 ****         0.4071   0.4935  -3.6228 H              1 S1                 0.0000
     38 ****         0.7180   2.1982  -3.3015 H              1 S1                 0.0000
     39 ****        -0.7375   1.7113  -4.1842 H              1 S1                 0.0000
     40 ****        -3.3998   1.3885   2.2099 LP             1 S1                 0.0000
     41 ****         0.3412  -4.2241  -0.0690 LP             1 S1                 0.0000
     42 ****         0.2888  -4.2815   1.5621 LP             1 S1                 0.0000
     43 ****         2.8316  -3.4119   3.0517 LP             1 S1                 0.0000
     44 ****         5.1559  -2.7088   2.6348 LP             1 S1                 0.0000
     45 ****         5.1800  -0.4997   1.3319 LP             1 S1                 0.0000
@<TRIPOS>BOND
    1    1    2 1     
    2    1   22 1     
    3    1   23 1     
    4    1   24 1     
    5    2   20 ar    
    6    2    3 ar    
    7    3    4 ar    
    8    3   25 1     
    9    4   18 ar    
   10    4    5 1     
   11    5    6 2     
   12    6    7 1     
   13    6   26 1     
   14    7    8 1     
   15    7   18 1     
   16    8    9 1     
   17    8   27 1     
   18    8   28 1     
   19    9   10 1     
   20    9   11 1     
   21    9   29 1     
   22   10   30 1     
   23   11   12 1     
   24   11   31 1     
   25   11   32 1     
   26   12   16 1     
   27   12   13 1     
   28   13   14 2     
   29   14   15 1     
   30   15   16 2     
   31   16   17 1     
   32   17   33 1     
   33   17   34 1     
   34   17   35 1     
   35   18   19 ar    
   36   19   20 ar    
   37   19   36 1     
   38   20   21 1     
   39   21   37 1     
   40   21   38 1     
   41   21   39 1     
   42    5   40 1     
   43   10   41 1     
   44   10   42 1     
   45   13   43 1     
   46   14   44 1     
   47   15   45 1     
@<TRIPOS>SUBSTRUCTURE
      1 S1             1
@<TRIPOS>SET
LONE_PAIRS      STATIC     ATOMS    <user>   **** ""
6 40 41 42 43 44 45
DONOR_HYDROGENS      STATIC     ATOMS    <user>   **** ""
1 30
ATOM$BLUE        STATIC     ATOMS    COLORGROUP SYSTEM
6 40 41 42 43 44 45
ATOM$RED        STATIC     ATOMS    COLORGROUP SYSTEM
1 30
