AV-unprocessed.smi:9|AV-procd|sdf|52|dock7
  -GOLD-   2262015173D 1   1.00000     0.00000
 Structure written by MMmdl.
 35 37  0  0  0  0  0  0  0  0  1 V2000
  145.2910  135.6006  150.8554 O   0  0  0  0  0  0  0  0  0  0  0  0
  145.4440  136.2006  151.9171 C   0  0  0  0  0  0  0  0  0  0  0  0
  145.0258  135.7256  153.1156 N   0  0  0  0  0  0  0  0  0  0  0  0
  145.2069  136.4218  154.3381 C   0  0  0  0  0  0  0  0  0  0  0  0
  144.6340  135.6364  155.5074 C   0  0  0  0  0  0  0  0  0  0  0  0
  144.8123  136.2866  156.6583 F   0  0  0  0  0  0  0  0  0  0  0  0
  143.3259  135.4404  155.3403 F   0  0  0  0  0  0  0  0  0  0  0  0
  145.2292  134.4474  155.6077 F   0  0  0  0  0  0  0  0  0  0  0  0
  145.7849  137.5870  154.4805 N   0  0  0  0  0  0  0  0  0  0  0  0
  146.2140  138.0909  153.2688 C   0  0  0  0  0  0  0  0  0  0  0  0
  146.1061  137.5240  152.0257 C   0  0  0  0  0  0  0  0  0  0  0  0
  146.6685  138.3368  151.0492 N   0  0  0  0  0  0  0  0  0  0  0  0
  147.0964  139.3784  151.7598 C   0  0  0  0  0  0  0  0  0  0  0  0
  146.8540  139.3120  153.0834 N   0  0  0  0  0  0  0  0  0  0  0  0
  147.2067  140.3029  154.0911 C   0  0  0  0  0  0  0  0  0  0  0  0
  148.7312  140.4570  154.3297 C   0  0  2  0  0  0  0  0  0  0  0  0
  149.2842  141.0462  153.1673 O   0  0  0  0  0  0  0  0  0  0  0  0
  149.4195  139.0983  154.5888 C   0  0  0  0  0  0  0  0  0  0  0  0
  150.8590  139.2752  155.0826 C   0  0  0  0  0  0  0  0  0  0  0  0
  150.8944  140.2385  156.2741 C   0  0  0  0  0  0  0  0  0  0  0  0
  150.3548  141.4908  155.8754 O   0  0  0  0  0  0  0  0  0  0  0  0
  148.9800  141.4355  155.5025 C   0  0  0  0  0  0  0  0  0  0  0  0
  144.5629  134.8284  153.1332 H   0  0  0  0  0  0  0  0  0  0  0  0
  147.5964  140.2199  151.3027 H   0  0  0  0  0  0  0  0  0  0  0  0
  146.7685  141.2593  153.8021 H   0  0  0  0  0  0  0  0  0  0  0  0
  146.7149  140.0183  155.0223 H   0  0  0  0  0  0  0  0  0  0  0  0
  149.5219  140.3552  152.5680 H   0  0  0  0  0  0  0  0  0  0  0  0
  148.8580  138.5517  155.3477 H   0  0  0  0  0  0  0  0  0  0  0  0
  149.4110  138.4763  153.6930 H   0  0  0  0  0  0  0  0  0  0  0  0
  151.2788  138.3096  155.3657 H   0  0  0  0  0  0  0  0  0  0  0  0
  151.4843  139.6639  154.2783 H   0  0  0  0  0  0  0  0  0  0  0  0
  150.3386  139.8378  157.1234 H   0  0  0  0  0  0  0  0  0  0  0  0
  151.9222  140.3872  156.6053 H   0  0  0  0  0  0  0  0  0  0  0  0
  148.6421  142.4404  155.2458 H   0  0  0  0  0  0  0  0  0  0  0  0
  148.4010  141.1309  156.3758 H   0  0  0  0  0  0  0  0  0  0  0  0
  1  2  2  0  0  0  0
  2 11  1  0  0  0  0
  2  3  1  0  0  0  0
  3 23  1  0  0  0  0
  3  4  1  0  0  0  0
  4  5  1  0  0  0  0
  4  9  2  0  0  0  0
  5  6  1  0  0  0  0
  5  7  1  0  0  0  0
  5  8  1  0  0  0  0
  9 10  1  0  0  0  0
 10 14  1  0  0  0  0
 10 11  2  0  0  0  0
 11 12  1  0  0  0  0
 12 13  2  0  0  0  0
 13 14  1  0  0  0  0
 13 24  1  0  0  0  0
 14 15  1  0  0  0  0
 15 16  1  0  0  0  0
 15 25  1  0  0  0  0
 15 26  1  0  0  0  0
 16 22  1  0  0  0  0
 16 17  1  0  0  0  0
 16 18  1  0  0  0  0
 17 27  1  0  0  0  0
 18 19  1  0  0  0  0
 18 28  1  0  0  0  0
 18 29  1  0  0  0  0
 19 20  1  0  0  0  0
 19 30  1  0  0  0  0
 19 31  1  0  0  0  0
 20 21  1  0  0  0  0
 20 32  1  0  0  0  0
 20 33  1  0  0  0  0
 21 22  1  0  0  0  0
 22 34  1  0  0  0  0
 22 35  1  0  0  0  0
M  END
> <s_m_source_file>
AV-unprocessed.smi

> <i_m_source_file_index>
9

> <i_lp_mmshare_version>
43012

> <i_f3d_flags>
0

> <s_epik_input>
RkMoRikoRiljKG4xKVtuSF1jKD1PKWMoYzEyKW5bY0hdbjJbQ0gyXVtDQEBdMyhbT0hdKVtDSDJdW0NIMl1bQ0gyXU9bQ0gyXTM=

> <s_epik_cmdline>
J2VwaWtfcHl0aG9uJywgJy1waCcsICc3LjAnLCAnLXRuJywgJzgnLCAnLW1hJywgJzIwMCcsICctbWV0YWxfYmluZGluZycsICctaW1hZScsICc8aW5maWxlLm1hZT4nLCAnLW9tYWUnLCAnPG91dGZpbGUubWFlPic=

> <r_lp_tautomer_probability>
0.85571

> <r_epik_Ionization_Penalty>
0.770127

> <r_epik_Ionization_Penalty_Charging>
0.770101

> <r_epik_Ionization_Penalty_Neutral>
2.64604e-05

> <r_epik_State_Penalty>
2.30539

> <r_epik_Charging_Adjusted_Penalty>
3.07549

> <i_epik_Tot_Q>
0

> <i_epik_Tot_abs_Q>
0

> <r_epik_Metal_State_Penalty>
2.4903

> <b_epik_Metal_Only>
0

> <s_lp_Force_Field>
OPLS_2005

> <r_lp_Energy>
27.1686

> <b_lp_Chiralities_Consistent>
1

> <s_lp_Variant>
AV-unprocessed.smi:9-4

> <Gold.Version>
5.8.1

> <Gold.Id.Protein>
6NUR|6NUR_protein|mol2

> <Gold.PLP.Fitness>
38.2241

> <Gold.PLP.PLP>
-28.7711

> <Gold.PLP.part.hbond>
-3.2756

> <Gold.PLP.part.metal>
0.0000

> <Gold.PLP.part.buried>
-2.4545

> <Gold.PLP.part.nonpolar>
-26.4124

> <Gold.PLP.part.repulsive>
1.4932

> <Gold.PLP.ligand.clash>
0.0000

> <Gold.PLP.ligand.torsion>
0.1053

> <Gold.PLP.Chemscore.Hbond>
2.6456

> <Gold.PLP.Chemscore.CHOScore>
0.5738

> <Gold.PLP.Chemscore.Metal>
0.0000

> <Gold.Chemscore.Hbonds>
donor molecule, donor type, donor heavy atom, donor atom, acceptor molecule, acceptor atom, score
      L1  H    17    27       P1  7957  0.65
      P1  H  7954  7966       L1    12  1.00
      P1  H  8011  8017       L1    17  1.00
      L1  C    13    24       P1  7957  0.62

> <Gold.PLP.Chemscore.Internal.Correction>
0.0054

> <Gold.Rescore>
     Score         DG    S(hbond)    S(metal)    S(lipo)     H(rot)  DE(clash)    DE(int)     intcor
      9.06     -11.50       1.90        0.00      43.86       2.14       2.20       0.24       ----

> <Gold.Chemscore.Fitness>
9.0618

> <Gold.Chemscore.DG>
-11.5011

> <Gold.Chemscore.ZeroCoef>
-5.4800

> <Gold.Chemscore.Hbond>
1.9043

> <Gold.Chemscore.Metal>
0.0000

> <Gold.Chemscore.Lipo>
43.8643

> <Gold.Chemscore.Internal_Hbond>
0.0000

> <Gold.Chemscore.DEClash>
2.1968

> <Gold.Chemscore.DEInternal>
0.2425

> <Gold.Chemscore.Rot>
2.1373

> <Gold.Chemscore.Internal.Correction>
   9.000000E+99

> <Gold.Chemscore.Hbonds>
donor molecule, donor type, donor heavy atom, donor atom, acceptor molecule, acceptor atom, score
      L1  H    17    27       P1  7957  0.64
      P1  H  7954  7966       L1    12  0.49
      P1  H  8011  8017       L1    17  0.30

> <Gold.Chemscore.Hbond.Weighted>
-6.3604

> <Gold.Chemscore.Metal.Weighted>
-0.0000

> <Gold.Chemscore.Lipo.Weighted>
-5.1321

> <Gold.Chemscore.Internal_Hbond.Weighted>
0.0000

> <Gold.Chemscore.DEClash.Weighted>
2.1968

> <Gold.Chemscore.DEInternal.Weighted>
0.2425

> <Gold.Chemscore.Rot.Weighted>
5.4714

> <Gold.Chemscore.Internal.Correction.Weighted>
   9.000000E+99

> <Gold.Protein.RotatedTorsions>
[ 6907 6896 6895 6894 ] final  -59.49 input  -60.11 | X-H torsion
[ 7974 7965 7964 7962 ] final -155.57 input  175.53 | X-H torsion
[ 8008 7997 7996 7995 ] final  -29.14 input   59.86 | X-H torsion
[ 10167 10162 10161 10158 ] final  139.01 input  -65.29 | X-H torsion
[ 10718 10713 10712 10709 ] final  161.77 input   66.30 | X-H torsion
[ 10763 10752 10751 10750 ] final  166.43 input  -60.55 | X-H torsion
[ 11005 11000 10999 10996 ] final  -94.60 input  -57.11 | X-H torsion

> <Gold.Protein.ActiveResidues>
 VAL166  LYS551  ARG553  GLY616  TRP617  ASP618  TYR619  PRO620  LYS621  CYS622 
 ASP623  PHE694  ASN695  SER759  ASP760  ASP761  ALA762  ILE779  LEU786  VAL792 
 PHE793  MET794  SER795  GLU796  ALA797  LYS798  CYS799  TRP800  GLU811  SER814 

> <Gold.Protein.RotatedAtoms>
  150.7926  134.6962  159.6523 H   0  0  0  0  0  0  0  0  0  0  0  0  # atno 6907 bound_to 6896
  152.4034  134.6244  160.0069 H   0  0  0  0  0  0  0  0  0  0  0  0  # atno 6908 bound_to 6896
  151.6509  133.3284  159.3188 H   0  0  0  0  0  0  0  0  0  0  0  0  # atno 6909 bound_to 6896
  144.7634  140.4231  143.5960 H   0  0  0  0  0  0  0  0  0  0  0  0  # atno 7974 bound_to 7965
  154.4302  140.1826  156.1201 H   0  0  0  0  0  0  0  0  0  0  0  0  # atno 8008 bound_to 7997
  156.0150  140.3346  155.6954 H   0  0  0  0  0  0  0  0  0  0  0  0  # atno 8009 bound_to 7997
  155.6057  140.0645  157.2711 H   0  0  0  0  0  0  0  0  0  0  0  0  # atno 8010 bound_to 7997
  139.5092  144.6320  151.5794 H   0  0  0  0  0  0  0  0  0  0  0  0  # atno 10167 bound_to 10162
  157.1319  131.0519  151.2367 H   0  0  0  0  0  0  0  0  0  0  0  0  # atno 10718 bound_to 10713
  154.3388  135.2754  155.2433 H   0  0  0  0  0  0  0  0  0  0  0  0  # atno 10763 bound_to 10752
  154.4713  135.5882  153.6327 H   0  0  0  0  0  0  0  0  0  0  0  0  # atno 10764 bound_to 10752
  152.9859  135.6089  154.3588 H   0  0  0  0  0  0  0  0  0  0  0  0  # atno 10765 bound_to 10752
  141.1466  133.7968  157.0321 H   0  0  0  0  0  0  0  0  0  0  0  0  # atno 11005 bound_to 11000
  145.6547  139.1571  143.2842 LP  0  0  0  0  0  0  0  0  0  0  0  0  # atno 17320 bound_to 7965
  146.1719  140.6633  142.9229 LP  0  0  0  0  0  0  0  0  0  0  0  0  # atno 17321 bound_to 7965
  140.6055  143.9531  150.6416 LP  0  0  0  0  0  0  0  0  0  0  0  0  # atno 17342 bound_to 10162
  140.2757  143.3424  152.1197 LP  0  0  0  0  0  0  0  0  0  0  0  0  # atno 17343 bound_to 10162
  157.4385  130.7530  149.7049 LP  0  0  0  0  0  0  0  0  0  0  0  0  # atno 17370 bound_to 10713
  155.9806  130.4028  150.3518 LP  0  0  0  0  0  0  0  0  0  0  0  0  # atno 17371 bound_to 10713
  140.0747  134.9682  157.1526 LP  0  0  0  0  0  0  0  0  0  0  0  0  # atno 17394 bound_to 11000
  140.3660  134.2442  155.7182 LP  0  0  0  0  0  0  0  0  0  0  0  0  # atno 17395 bound_to 11000

$$$$
