AV-unprocessed.smi:3144|AV-procd|sdf|11978|dock10
  -GOLD-   2272017383D 1   1.00000     0.00000
 Structure written by MMmdl.
 40 41  0  0  0  0  0  0  0  0  2 V2000
  143.8027  133.1345  151.0789 C   0  0  0  0  0  0  0  0  0  0  0  0
  144.4022  134.4535  151.4739 C   0  0  0  0  0  0  0  0  0  0  0  0
  144.1752  135.1921  152.6697 C   0  0  0  0  0  0  0  0  0  0  0  0
  144.8586  136.3245  152.7121 N   0  0  0  0  0  0  0  0  0  0  0  0
  145.5435  136.3485  151.5498 N   0  0  0  0  0  0  0  0  0  0  0  0
  146.4153  137.4685  151.2537 C   0  0  0  0  0  0  0  0  0  0  0  0
  146.5009  138.4472  152.4336 C   0  0  0  0  0  0  0  0  0  0  0  0
  147.9010  138.8206  152.7110 N   0  3  0  0  0  0  0  0  0  0  0  0
  148.1570  139.1921  154.1171 C   0  0  0  0  0  0  0  0  0  0  0  0
  149.6427  139.5170  154.3582 C   0  0  0  0  0  0  0  0  0  0  0  0
  150.4911  138.2287  154.3806 C   0  0  0  0  0  0  0  0  0  0  0  0
  151.9803  138.5312  154.6144 C   0  0  0  0  0  0  0  0  0  0  0  0
  152.1883  139.3337  155.9074 C   0  0  0  0  0  0  0  0  0  0  0  0
  151.3483  140.6195  155.9000 C   0  0  0  0  0  0  0  0  0  0  0  0
  149.8603  140.3126  155.6644 C   0  0  0  0  0  0  0  0  0  0  0  0
  145.2879  135.2315  150.7830 C   0  0  0  0  0  0  0  0  0  0  0  0
  143.5886  132.5121  151.9480 H   0  0  0  0  0  0  0  0  0  0  0  0
  144.4697  132.5631  150.4330 H   0  0  0  0  0  0  0  0  0  0  0  0
  142.8648  133.2659  150.5389 H   0  0  0  0  0  0  0  0  0  0  0  0
  143.5369  134.9398  153.5037 H   0  0  0  0  0  0  0  0  0  0  0  0
  147.4042  137.0809  151.0039 H   0  0  0  0  0  0  0  0  0  0  0  0
  146.0395  137.9756  150.3640 H   0  0  0  0  0  0  0  0  0  0  0  0
  145.9239  139.3466  152.2142 H   0  0  0  0  0  0  0  0  0  0  0  0
  146.0693  137.9967  153.3285 H   0  0  0  0  0  0  0  0  0  0  0  0
  148.4943  138.0386  152.4724 H   0  0  0  0  0  0  0  0  0  0  0  0
  147.5327  140.0435  154.3918 H   0  0  0  0  0  0  0  0  0  0  0  0
  147.8548  138.3579  154.7520 H   0  0  0  0  0  0  0  0  0  0  0  0
  149.9937  140.1270  153.5238 H   0  0  0  0  0  0  0  0  0  0  0  0
  150.1296  137.5621  155.1650 H   0  0  0  0  0  0  0  0  0  0  0  0
  150.3757  137.6877  153.4406 H   0  0  0  0  0  0  0  0  0  0  0  0
  152.5463  137.6002  154.6605 H   0  0  0  0  0  0  0  0  0  0  0  0
  152.3772  139.0922  153.7671 H   0  0  0  0  0  0  0  0  0  0  0  0
  151.9122  138.7213  156.7666 H   0  0  0  0  0  0  0  0  0  0  0  0
  153.2439  139.5790  156.0288 H   0  0  0  0  0  0  0  0  0  0  0  0
  151.4740  141.1499  156.8442 H   0  0  0  0  0  0  0  0  0  0  0  0
  151.7118  141.2890  155.1191 H   0  0  0  0  0  0  0  0  0  0  0  0
  149.3030  141.2493  155.6371 H   0  0  0  0  0  0  0  0  0  0  0  0
  149.4690  139.7471  156.5112 H   0  0  0  0  0  0  0  0  0  0  0  0
  145.7513  135.0835  149.8186 H   0  0  0  0  0  0  0  0  0  0  0  0
  148.1474  139.6044  152.1238 H   0  0  0  0  0  0  0  0  0  0  0  0
  1  2  1  0  0  0  0
  1 17  1  0  0  0  0
  1 18  1  0  0  0  0
  1 19  1  0  0  0  0
  2 16  2  0  0  0  0
  2  3  1  0  0  0  0
  3  4  2  0  0  0  0
  3 20  1  0  0  0  0
  4  5  1  0  0  0  0
  5  6  1  0  0  0  0
  5 16  1  0  0  0  0
  6  7  1  0  0  0  0
  6 21  1  0  0  0  0
  6 22  1  0  0  0  0
  7  8  1  0  0  0  0
  7 23  1  0  0  0  0
  7 24  1  0  0  0  0
  8  9  1  0  0  0  0
  8 25  1  0  0  0  0
  8 40  1  0  0  0  0
  9 10  1  0  0  0  0
  9 26  1  0  0  0  0
  9 27  1  0  0  0  0
 10 15  1  0  0  0  0
 10 11  1  0  0  0  0
 10 28  1  0  0  0  0
 11 12  1  0  0  0  0
 11 29  1  0  0  0  0
 11 30  1  0  0  0  0
 12 13  1  0  0  0  0
 12 31  1  0  0  0  0
 12 32  1  0  0  0  0
 13 14  1  0  0  0  0
 13 33  1  0  0  0  0
 13 34  1  0  0  0  0
 14 15  1  0  0  0  0
 14 35  1  0  0  0  0
 14 36  1  0  0  0  0
 15 37  1  0  0  0  0
 15 38  1  0  0  0  0
 16 39  1  0  0  0  0
M  CHG  1   8   1
M  END
> <s_m_source_file>
AV-unprocessed.smi

> <i_m_source_file_index>
3144

> <i_lp_mmshare_version>
43012

> <i_f3d_flags>
0

> <s_epik_input>
W0NIM11jMVtjSF1ubihbY0hdMSlbQ0gyXVtDSDJdW05IXVtDSDJdW0NIXTJbQ0gyXVtDSDJdW0NIMl1bQ0gyXVtDSDJdMg==

> <s_epik_cmdline>
J2VwaWtfcHl0aG9uJywgJy1waCcsICc3LjAnLCAnLXRuJywgJzgnLCAnLW1hJywgJzIwMCcsICctbWV0YWxfYmluZGluZycsICctaW1hZScsICc8aW5maWxlLm1hZT4nLCAnLW9tYWUnLCAnPG91dGZpbGUubWFlPic=

> <r_lp_tautomer_probability>
1

> <r_epik_Ionization_Penalty>
0.0017464

> <r_epik_Ionization_Penalty_Charging>
0.00174052

> <r_epik_Ionization_Penalty_Neutral>
5.87243e-06

> <r_epik_State_Penalty>
-0

> <r_epik_Charging_Adjusted_Penalty>
0.00174052

> <i_epik_Tot_Q>
1

> <i_epik_Tot_abs_Q>
1

> <r_epik_Metal_State_Penalty>
-0

> <b_epik_Metal_Only>
0

> <s_lp_Force_Field>
OPLS_2005

> <r_lp_Energy>
13.1437

> <b_lp_Chiralities_Consistent>
1

> <s_lp_Variant>
AV-unprocessed.smi:3144-1

> <Gold.Version>
5.8.1

> <Gold.Id.Protein>
6NUR|6NUR_protein|mol2

> <Gold.PLP.Fitness>
45.0585

> <Gold.PLP.PLP>
-35.2375

> <Gold.PLP.part.hbond>
-2.0000

> <Gold.PLP.part.metal>
0.0000

> <Gold.PLP.part.buried>
-0.5280

> <Gold.PLP.part.nonpolar>
-33.7170

> <Gold.PLP.part.repulsive>
0.2010

> <Gold.PLP.ligand.clash>
0.0000

> <Gold.PLP.ligand.torsion>
0.6463

> <Gold.PLP.Chemscore.Hbond>
2.6880

> <Gold.PLP.Chemscore.CHOScore>
1.0000

> <Gold.PLP.Chemscore.Metal>
0.0000

> <Gold.Chemscore.Hbonds>
donor molecule, donor type, donor heavy atom, donor atom, acceptor molecule, acceptor atom, score
      L1  H     8    25       P1  7948  2.00
      L1  H     8    40       P1  7957  0.69
      L1  C    16    39       P1  7921  1.00

> <Gold.PLP.Chemscore.Internal.Correction>
0.0497

> <Gold.Rescore>
     Score         DG    S(hbond)    S(metal)    S(lipo)     H(rot)  DE(clash)    DE(int)     intcor
     15.77     -17.57       1.72        0.00      87.22       1.50       1.19       0.60       ----

> <Gold.Chemscore.Fitness>
15.7719

> <Gold.Chemscore.DG>
-17.5663

> <Gold.Chemscore.ZeroCoef>
-5.4800

> <Gold.Chemscore.Hbond>
1.7159

> <Gold.Chemscore.Metal>
0.0000

> <Gold.Chemscore.Lipo>
87.2165

> <Gold.Chemscore.Internal_Hbond>
0.0000

> <Gold.Chemscore.DEClash>
1.1930

> <Gold.Chemscore.DEInternal>
0.6014

> <Gold.Chemscore.Rot>
1.5036

> <Gold.Chemscore.Internal.Correction>
   9.000000E+99

> <Gold.Chemscore.Hbonds>
donor molecule, donor type, donor heavy atom, donor atom, acceptor molecule, acceptor atom, score
      L1  H     8    25       P1  7948  0.99
      L1  H     8    40       P1  7957  0.70

> <Gold.Chemscore.Hbond.Weighted>
-5.7312

> <Gold.Chemscore.Metal.Weighted>
-0.0000

> <Gold.Chemscore.Lipo.Weighted>
-10.2043

> <Gold.Chemscore.Internal_Hbond.Weighted>
0.0000

> <Gold.Chemscore.DEClash.Weighted>
1.1930

> <Gold.Chemscore.DEInternal.Weighted>
0.6014

> <Gold.Chemscore.Rot.Weighted>
3.8492

> <Gold.Chemscore.Internal.Correction.Weighted>
   9.000000E+99

> <Gold.Protein.RotatedTorsions>
[ 6907 6896 6895 6894 ] final  118.08 input  -60.11 | X-H torsion
[ 7974 7965 7964 7962 ] final  129.83 input  175.53 | X-H torsion
[ 8008 7997 7996 7995 ] final  132.43 input   59.86 | X-H torsion
[ 10167 10162 10161 10158 ] final  108.75 input  -65.29 | X-H torsion
[ 10718 10713 10712 10709 ] final   22.63 input   66.30 | X-H torsion
[ 10763 10752 10751 10750 ] final   83.54 input  -60.55 | X-H torsion
[ 11005 11000 10999 10996 ] final  166.93 input  -57.11 | X-H torsion

> <Gold.Protein.ActiveResidues>
 VAL166  LYS551  ARG553  GLY616  TRP617  ASP618  TYR619  PRO620  LYS621  CYS622 
 ASP623  PHE694  ASN695  SER759  ASP760  ASP761  ALA762  ILE779  LEU786  VAL792 
 PHE793  MET794  SER795  GLU796  ALA797  LYS798  CYS799  TRP800  GLU811  SER814 

> <Gold.Protein.RotatedAtoms>
  152.4568  133.7740  159.6813 H   0  0  0  0  0  0  0  0  0  0  0  0  # atno 6907 bound_to 6896
  150.8497  133.7796  159.3036 H   0  0  0  0  0  0  0  0  0  0  0  0  # atno 6908 bound_to 6896
  151.5395  135.1071  159.9974 H   0  0  0  0  0  0  0  0  0  0  0  0  # atno 6909 bound_to 6896
  145.0244  139.4103  143.5181 H   0  0  0  0  0  0  0  0  0  0  0  0  # atno 7974 bound_to 7965
  156.2982  140.2546  156.3088 H   0  0  0  0  0  0  0  0  0  0  0  0  # atno 8008 bound_to 7997
  154.9346  140.0397  157.2084 H   0  0  0  0  0  0  0  0  0  0  0  0  # atno 8009 bound_to 7997
  154.8185  140.2856  155.5808 H   0  0  0  0  0  0  0  0  0  0  0  0  # atno 8010 bound_to 7997
  139.6821  144.7117  151.1497 H   0  0  0  0  0  0  0  0  0  0  0  0  # atno 10167 bound_to 10162
  157.1550  130.6691  149.6024 H   0  0  0  0  0  0  0  0  0  0  0  0  # atno 10718 bound_to 10713
  153.1300  135.4687  154.9333 H   0  0  0  0  0  0  0  0  0  0  0  0  # atno 10763 bound_to 10752
  154.7655  135.3143  154.8297 H   0  0  0  0  0  0  0  0  0  0  0  0  # atno 10764 bound_to 10752
  153.8841  135.6891  153.4819 H   0  0  0  0  0  0  0  0  0  0  0  0  # atno 10765 bound_to 10752
  140.2715  134.7823  157.3679 H   0  0  0  0  0  0  0  0  0  0  0  0  # atno 11005 bound_to 11000
  146.3490  139.9759  142.8701 LP  0  0  0  0  0  0  0  0  0  0  0  0  # atno 17320 bound_to 7965
  145.1853  140.9786  143.4242 LP  0  0  0  0  0  0  0  0  0  0  0  0  # atno 17321 bound_to 7965
  140.7656  143.5683  150.9023 LP  0  0  0  0  0  0  0  0  0  0  0  0  # atno 17342 bound_to 10162
  139.9356  143.6442  152.3066 LP  0  0  0  0  0  0  0  0  0  0  0  0  # atno 17343 bound_to 10162
  155.9764  130.4731  150.6523 LP  0  0  0  0  0  0  0  0  0  0  0  0  # atno 17370 bound_to 10713
  157.4186  131.0833  151.1153 LP  0  0  0  0  0  0  0  0  0  0  0  0  # atno 17371 bound_to 10713
  140.1369  134.5022  155.8061 LP  0  0  0  0  0  0  0  0  0  0  0  0  # atno 17394 bound_to 11000
  141.2177  133.6810  156.7140 LP  0  0  0  0  0  0  0  0  0  0  0  0  # atno 17395 bound_to 11000

$$$$
