AV-unprocessed.smi:334|AV-procd|sdf|2362|dock3
  -GOLD-   2262022273D 1   1.00000     0.00000
 Structure written by MMmdl.
 44 46  0  0  0  0  0  0  0  0  3 V2000
  144.8851  134.9118  154.2287 C   0  0  0  0  0  0  0  0  0  0  0  0
  146.0131  135.1468  153.2102 C   0  0  2  0  0  0  0  0  0  0  0  0
  146.2906  136.5819  153.1619 N   0  0  0  0  0  0  0  0  0  0  0  0
  146.8336  137.3158  154.1459 C   0  0  0  0  0  0  0  0  0  0  0  0
  147.1863  136.8449  155.2280 O   0  0  0  0  0  0  0  0  0  0  0  0
  147.0247  138.8073  153.8357 C   0  0  0  0  0  0  0  0  0  0  0  0
  148.1701  139.4091  154.5389 N   0  0  0  0  0  0  0  0  0  0  0  0
  149.4148  138.7627  154.4042 C   0  0  0  0  0  0  0  0  0  0  0  0
  150.5286  139.2209  155.0083 C   0  0  0  0  0  0  0  0  0  0  0  0
  151.7972  138.5409  154.8639 N   0  3  0  0  0  0  0  0  0  0  0  0
  152.7971  139.0490  155.3610 O   0  0  0  0  0  0  0  0  0  0  0  0
  151.8374  137.4791  154.2497 O   0  5  0  0  0  0  0  0  0  0  0  0
  150.4131  140.4205  155.8150 C   0  0  0  0  0  0  0  0  0  0  0  0
  149.2247  141.0410  155.9510 C   0  0  0  0  0  0  0  0  0  0  0  0
  148.0126  140.5373  155.2968 C   0  0  0  0  0  0  0  0  0  0  0  0
  146.9224  141.0953  155.4234 O   0  0  0  0  0  0  0  0  0  0  0  0
  145.6510  134.6172  151.7991 C   0  0  2  0  0  0  0  0  0  0  0  0
  144.1284  134.6125  151.5152 C   0  0  0  0  0  0  0  0  0  0  0  0
  143.8504  133.1623  151.0817 C   0  0  1  0  0  0  0  0  0  0  0  0
  144.4827  132.9059  149.7019 C   0  0  0  0  0  0  0  0  0  0  0  0
  145.9876  132.8612  150.0248 C   0  0  0  0  0  0  0  0  0  0  0  0
  146.0188  133.1319  151.5414 C   0  0  2  0  0  0  0  0  0  0  0  0
  144.7748  132.3838  152.0082 C   0  0  0  0  0  0  0  0  0  0  0  0
  144.6649  133.8514  154.3499 H   0  0  0  0  0  0  0  0  0  0  0  0
  143.9636  135.4084  153.9228 H   0  0  0  0  0  0  0  0  0  0  0  0
  145.1598  135.2981  155.2109 H   0  0  0  0  0  0  0  0  0  0  0  0
  146.8933  134.6109  153.5688 H   0  0  0  0  0  0  0  0  0  0  0  0
  146.0433  137.0577  152.3062 H   0  0  0  0  0  0  0  0  0  0  0  0
  147.1391  138.9181  152.7563 H   0  0  0  0  0  0  0  0  0  0  0  0
  146.1067  139.3454  154.0799 H   0  0  0  0  0  0  0  0  0  0  0  0
  149.3940  137.8743  153.7891 H   0  0  0  0  0  0  0  0  0  0  0  0
  151.2777  140.8296  156.3163 H   0  0  0  0  0  0  0  0  0  0  0  0
  149.1608  141.9326  156.5573 H   0  0  0  0  0  0  0  0  0  0  0  0
  146.1593  135.2447  151.0651 H   0  0  0  0  0  0  0  0  0  0  0  0
  143.5523  134.8414  152.4124 H   0  0  0  0  0  0  0  0  0  0  0  0
  143.8468  135.3368  150.7500 H   0  0  0  0  0  0  0  0  0  0  0  0
  142.7979  132.8834  151.1396 H   0  0  0  0  0  0  0  0  0  0  0  0
  144.1498  131.9517  149.2915 H   0  0  0  0  0  0  0  0  0  0  0  0
  144.2338  133.6864  148.9818 H   0  0  0  0  0  0  0  0  0  0  0  0
  146.3967  131.8753  149.8002 H   0  0  0  0  0  0  0  0  0  0  0  0
  146.5596  133.5951  149.4559 H   0  0  0  0  0  0  0  0  0  0  0  0
  146.9481  132.8018  152.0044 H   0  0  0  0  0  0  0  0  0  0  0  0
  144.5513  132.5258  153.0669 H   0  0  0  0  0  0  0  0  0  0  0  0
  144.8057  131.3146  151.7906 H   0  0  0  0  0  0  0  0  0  0  0  0
  1  2  1  0  0  0  0
  1 24  1  0  0  0  0
  1 25  1  0  0  0  0
  1 26  1  0  0  0  0
  2  3  1  0  0  0  0
  2 17  1  0  0  0  0
  2 27  1  0  0  0  0
  3  4  1  0  0  0  0
  3 28  1  0  0  0  0
  4  5  2  0  0  0  0
  4  6  1  0  0  0  0
  6  7  1  0  0  0  0
  6 29  1  0  0  0  0
  6 30  1  0  0  0  0
  7 15  1  0  0  0  0
  7  8  1  0  0  0  0
  8  9  2  0  0  0  0
  8 31  1  0  0  0  0
  9 10  1  0  0  0  0
  9 13  1  0  0  0  0
 10 11  2  0  0  0  0
 10 12  1  0  0  0  0
 13 14  2  0  0  0  0
 13 32  1  0  0  0  0
 14 15  1  0  0  0  0
 14 33  1  0  0  0  0
 15 16  2  0  0  0  0
 17 22  1  0  0  0  0
 17 18  1  0  0  0  0
 17 34  1  0  0  0  0
 18 19  1  0  0  0  0
 18 35  1  0  0  0  0
 18 36  1  0  0  0  0
 19 23  1  0  0  0  0
 19 20  1  0  0  0  0
 19 37  1  0  0  0  0
 20 21  1  0  0  0  0
 20 38  1  0  0  0  0
 20 39  1  0  0  0  0
 21 22  1  0  0  0  0
 21 40  1  0  0  0  0
 21 41  1  0  0  0  0
 22 23  1  0  0  0  0
 22 42  1  0  0  0  0
 23 43  1  0  0  0  0
 23 44  1  0  0  0  0
M  CHG  1  10   1
M  CHG  1  12  -1
M  END
> <s_m_source_file>
AV-unprocessed.smi

> <i_m_source_file_index>
334

> <i_lp_mmshare_version>
43012

> <i_f3d_flags>
0

> <s_epik_input>
W0NIMl0xW0NIMl1bQ0BIXShbQ0gyXTIpW0NAQEhdKFtDSDJdW0NAQEhdMTIpW0NASF0oW0NIM10pW05IXUMoPU8pW0NIMl1uM1tjSF1jKFtOK10oPU8pW08tXSlbY0hdW2NIXWMzPU8=

> <s_epik_cmdline>
J2VwaWtfcHl0aG9uJywgJy1waCcsICc3LjAnLCAnLXRuJywgJzgnLCAnLW1hJywgJzIwMCcsICctbWV0YWxfYmluZGluZycsICctaW1hZScsICc8aW5maWxlLm1hZT4nLCAnLW9tYWUnLCAnPG91dGZpbGUubWFlPic=

> <r_lp_tautomer_probability>
1

> <r_epik_Ionization_Penalty>
2.17081e-08

> <r_epik_Ionization_Penalty_Charging>
8.1195e-11

> <r_epik_Ionization_Penalty_Neutral>
2.16269e-08

> <r_epik_State_Penalty>
-0

> <r_epik_Charging_Adjusted_Penalty>
8.1195e-11

> <i_epik_Tot_Q>
0

> <i_epik_Tot_abs_Q>
2

> <r_epik_Metal_State_Penalty>
-0

> <b_epik_Metal_Only>
0

> <s_lp_Force_Field>
OPLS_2005

> <r_lp_Energy>
62.1866

> <b_lp_Chiralities_Consistent>
1

> <s_lp_Variant>
AV-unprocessed.smi:334-1

> <Gold.Version>
5.8.1

> <Gold.Id.Protein>
6NUR|6NUR_protein|mol2

> <Gold.PLP.Fitness>
46.7291

> <Gold.PLP.PLP>
-40.4044

> <Gold.PLP.part.hbond>
-3.0000

> <Gold.PLP.part.metal>
0.0000

> <Gold.PLP.part.buried>
-0.8449

> <Gold.PLP.part.nonpolar>
-35.6538

> <Gold.PLP.part.repulsive>
0.3853

> <Gold.PLP.ligand.clash>
0.0000

> <Gold.PLP.ligand.torsion>
1.3020

> <Gold.PLP.Chemscore.Hbond>
1.9600

> <Gold.PLP.Chemscore.CHOScore>
1.0000

> <Gold.PLP.Chemscore.Metal>
0.0000

> <Gold.Chemscore.Hbonds>
donor molecule, donor type, donor heavy atom, donor atom, acceptor molecule, acceptor atom, score
      P1  H  7997  8009       L1    11  0.93
      P1  H 10752 10763       L1    12  0.75
      L1  C     8    31       P1  7948  0.97

> <Gold.PLP.Chemscore.Internal.Correction>
0.0488

> <Gold.Rescore>
     Score         DG    S(hbond)    S(metal)    S(lipo)     H(rot)  DE(clash)    DE(int)     intcor
     15.95     -17.30       1.82        0.00      87.34       1.75       0.41       0.94       ----

> <Gold.Chemscore.Fitness>
15.9512

> <Gold.Chemscore.DG>
-17.3018

> <Gold.Chemscore.ZeroCoef>
-5.4800

> <Gold.Chemscore.Hbond>
1.8192

> <Gold.Chemscore.Metal>
0.0000

> <Gold.Chemscore.Lipo>
87.3424

> <Gold.Chemscore.Internal_Hbond>
0.0000

> <Gold.Chemscore.DEClash>
0.4099

> <Gold.Chemscore.DEInternal>
0.9407

> <Gold.Chemscore.Rot>
1.7474

> <Gold.Chemscore.Internal.Correction>
   9.000000E+99

> <Gold.Chemscore.Hbonds>
donor molecule, donor type, donor heavy atom, donor atom, acceptor molecule, acceptor atom, score
      P1  H  7997  8009       L1    11  0.89
      P1  H 10752 10763       L1    12  0.71

> <Gold.Chemscore.Hbond.Weighted>
-6.0760

> <Gold.Chemscore.Metal.Weighted>
-0.0000

> <Gold.Chemscore.Lipo.Weighted>
-10.2191

> <Gold.Chemscore.Internal_Hbond.Weighted>
0.0000

> <Gold.Chemscore.DEClash.Weighted>
0.4099

> <Gold.Chemscore.DEInternal.Weighted>
0.9407

> <Gold.Chemscore.Rot.Weighted>
4.4733

> <Gold.Chemscore.Internal.Correction.Weighted>
   9.000000E+99

> <Gold.Protein.RotatedTorsions>
[ 6907 6896 6895 6894 ] final -128.15 input  -60.11 | X-H torsion
[ 7974 7965 7964 7962 ] final   71.06 input  175.53 | X-H torsion
[ 8008 7997 7996 7995 ] final -140.50 input   59.86 | X-H torsion
[ 10167 10162 10161 10158 ] final -167.51 input  -65.29 | X-H torsion
[ 10718 10713 10712 10709 ] final -110.75 input   66.30 | X-H torsion
[ 10763 10752 10751 10750 ] final   41.36 input  -60.55 | X-H torsion
[ 11005 11000 10999 10996 ] final    4.07 input  -57.11 | X-H torsion

> <Gold.Protein.ActiveResidues>
 VAL166  LYS551  ARG553  GLY616  TRP617  ASP618  TYR619  PRO620  LYS621  CYS622 
 ASP623  PHE694  ASN695  SER759  ASP760  ASP761  ALA762  ILE779  LEU786  VAL792 
 PHE793  MET794  SER795  GLU796  ALA797  LYS798  CYS799  TRP800  GLU811  SER814 

> <Gold.Protein.RotatedAtoms>
  150.9148  133.6953  159.2845 H   0  0  0  0  0  0  0  0  0  0  0  0  # atno 6907 bound_to 6896
  151.4427  135.1020  159.9684 H   0  0  0  0  0  0  0  0  0  0  0  0  # atno 6908 bound_to 6896
  152.4949  133.8552  159.7277 H   0  0  0  0  0  0  0  0  0  0  0  0  # atno 6909 bound_to 6896
  145.7704  139.2841  143.1324 H   0  0  0  0  0  0  0  0  0  0  0  0  # atno 7974 bound_to 7965
  155.4623  140.0546  157.2989 H   0  0  0  0  0  0  0  0  0  0  0  0  # atno 8008 bound_to 7997
  154.4732  140.2049  155.9897 H   0  0  0  0  0  0  0  0  0  0  0  0  # atno 8009 bound_to 7997
  156.1090  140.3207  155.8050 H   0  0  0  0  0  0  0  0  0  0  0  0  # atno 8010 bound_to 7997
  139.6045  144.0942  152.1778 H   0  0  0  0  0  0  0  0  0  0  0  0  # atno 10167 bound_to 10162
  156.0608  130.5832  150.8280 H   0  0  0  0  0  0  0  0  0  0  0  0  # atno 10718 bound_to 10713
  152.9910  135.6164  154.2775 H   0  0  0  0  0  0  0  0  0  0  0  0  # atno 10763 bound_to 10752
  154.2505  135.2785  155.2820 H   0  0  0  0  0  0  0  0  0  0  0  0  # atno 10764 bound_to 10752
  154.5292  135.5793  153.6802 H   0  0  0  0  0  0  0  0  0  0  0  0  # atno 10765 bound_to 10752
  140.5861  133.9968  155.8068 H   0  0  0  0  0  0  0  0  0  0  0  0  # atno 11005 bound_to 11000
  146.0175  140.8379  142.9940 LP  0  0  0  0  0  0  0  0  0  0  0  0  # atno 17320 bound_to 7965
  144.6813  140.2580  143.7323 LP  0  0  0  0  0  0  0  0  0  0  0  0  # atno 17321 bound_to 7965
  140.0546  144.5905  150.7309 LP  0  0  0  0  0  0  0  0  0  0  0  0  # atno 17342 bound_to 10162
  140.7274  143.2651  151.4072 LP  0  0  0  0  0  0  0  0  0  0  0  0  # atno 17343 bound_to 10162
  157.5616  131.0946  150.9551 LP  0  0  0  0  0  0  0  0  0  0  0  0  # atno 17370 bound_to 10713
  156.9788  130.5519  149.5295 LP  0  0  0  0  0  0  0  0  0  0  0  0  # atno 17371 bound_to 10713
  141.0965  133.9835  157.3151 LP  0  0  0  0  0  0  0  0  0  0  0  0  # atno 17394 bound_to 11000
  139.9295  135.0200  156.8351 LP  0  0  0  0  0  0  0  0  0  0  0  0  # atno 17395 bound_to 11000

$$$$
