#       Name:                AV-unprocessed.smi:1485
#       Creating user name   scv26
#       Creation time:       Fri Mar 27 06:09:40 2020


#       File generated by GOLD software.
#

@<TRIPOS>MOLECULE
AV-unprocessed.smi:1485
    51    52     1
SMALL
NO_CHARGES


@<TRIPOS>ATOM
      1 ****        -2.3363   2.8376  -1.8847 C.3            1 S1                 0.0000
      2 ****        -1.8998   1.4914  -1.9377 O.3            1 S1                 0.0000
      3 ****        -2.1819   0.8735  -3.1833 C.3            1 S1                 0.0000
      4 ****        -1.6715  -0.5761  -3.1603 C.3            1 S1                 0.0000
      5 ****        -0.2055  -0.6351  -3.1651 N.am           1 S1                 0.0000
      6 ****         0.3591  -0.5968  -1.9021 N.2            1 S1                 0.0000
      7 ****         1.6444  -0.6310  -1.7610 C.2            1 S1                 0.0000
      8 ****         2.2856  -0.5588  -0.4196 C.2            1 S1                 0.0000
      9 ****         3.4995  -0.7041  -0.2674 O.2            1 S1                 0.0000
     10 ****         1.4417  -0.3196   0.5997 N.am           1 S1                 0.0000
     11 ****         1.8042  -0.1905   2.0090 C.3            1 S1                 0.0000
     12 ****         1.7674  -1.5600   2.7171 C.3            1 S1                 0.0000
     13 ****         0.3328  -2.0969   2.8629 C.3            1 S1                 0.0000
     14 ****        -0.5792  -1.0783   3.5657 C.3            1 S1                 0.0000
     15 ****        -0.5761   0.2812   2.8411 C.3            1 S1                 0.0000
     16 ****        -1.4844   1.2973   3.5472 C.3            1 S1                 0.0000
     17 ****         0.8654   0.8150   2.7047 C.3            1 S1                 0.0000
     18 ****         2.5171  -0.7319  -2.9182 C.2            1 S1                 0.0000
     19 ****         1.9531  -0.7496  -4.1461 C.2            1 S1                 0.0000
     20 ****         0.5025  -0.6808  -4.3340 C.2            1 S1                 0.0000
     21 ****        -0.0321  -0.6615  -5.4423 O.2            1 S1                 0.0000
     22 ****        -2.1058   3.2579  -0.9059 H              1 S1                 0.0000
     23 ****        -3.4141   2.9091  -2.0363 H              1 S1                 0.0000
     24 ****        -1.8346   3.4445  -2.6392 H              1 S1                 0.0000
     25 ****        -3.2596   0.8765  -3.3517 H              1 S1                 0.0000
     26 ****        -1.7234   1.4297  -4.0026 H              1 S1                 0.0000
     27 ****        -2.0650  -1.0917  -2.2824 H              1 S1                 0.0000
     28 ****        -2.0777  -1.1195  -4.0151 H              1 S1                 0.0000
     29 ****         0.4626  -0.2115   0.3763 H              1 S1                 0.0000
     30 ****         2.8189   0.2061   2.0716 H              1 S1                 0.0000
     31 ****         2.3850  -2.2823   2.1817 H              1 S1                 0.0000
     32 ****         2.2111  -1.4599   3.7084 H              1 S1                 0.0000
     33 ****        -0.0742  -2.3355   1.8794 H              1 S1                 0.0000
     34 ****         0.3438  -3.0314   3.4243 H              1 S1                 0.0000
     35 ****        -1.5949  -1.4721   3.6150 H              1 S1                 0.0000
     36 ****        -0.2491  -0.9469   4.5971 H              1 S1                 0.0000
     37 ****        -0.9807   0.1294   1.8395 H              1 S1                 0.0000
     38 ****        -1.1386   1.5021   4.5608 H              1 S1                 0.0000
     39 ****        -2.5086   0.9296   3.6124 H              1 S1                 0.0000
     40 ****        -1.5087   2.2434   3.0056 H              1 S1                 0.0000
     41 ****         1.2601   1.0386   3.6970 H              1 S1                 0.0000
     42 ****         0.8658   1.7603   2.1602 H              1 S1                 0.0000
     43 ****         3.5904  -0.7841  -2.8077 H              1 S1                 0.0000
     44 ****         2.5901  -0.8187  -5.0157 H              1 S1                 0.0000
     45 ****        -2.3598   0.9771  -1.2139 LP             1 S1                 0.0000
     46 ****        -0.9116   1.4692  -1.7859 LP             1 S1                 0.0000
     47 ****        -0.2291  -0.5424  -1.0952 LP             1 S1                 0.0000
     48 ****         4.0856  -0.8764  -1.0591 LP             1 S1                 0.0000
     49 ****         3.8987  -0.6497   0.6479 LP             1 S1                 0.0000
     50 ****        -1.0280  -0.6103  -5.5162 LP             1 S1                 0.0000
     51 ****         0.5295  -0.6969  -6.2689 LP             1 S1                 0.0000
@<TRIPOS>BOND
    1    1    2 1     
    2    1   22 1     
    3    1   23 1     
    4    1   24 1     
    5    2    3 1     
    6    3    4 1     
    7    3   25 1     
    8    3   26 1     
    9    4    5 1     
   10    4   27 1     
   11    4   28 1     
   12    5   20 am    
   13    5    6 1     
   14    6    7 2     
   15    7    8 1     
   16    7   18 1     
   17    8    9 2     
   18    8   10 am    
   19   10   11 1     
   20   10   29 1     
   21   11   17 1     
   22   11   12 1     
   23   11   30 1     
   24   12   13 1     
   25   12   31 1     
   26   12   32 1     
   27   13   14 1     
   28   13   33 1     
   29   13   34 1     
   30   14   15 1     
   31   14   35 1     
   32   14   36 1     
   33   15   16 1     
   34   15   17 1     
   35   15   37 1     
   36   16   38 1     
   37   16   39 1     
   38   16   40 1     
   39   17   41 1     
   40   17   42 1     
   41   18   19 2     
   42   18   43 1     
   43   19   20 1     
   44   19   44 1     
   45   20   21 2     
   46    2   45 1     
   47    2   46 1     
   48    6   47 1     
   49    9   48 1     
   50    9   49 1     
   51   21   50 1     
   52   21   51 1     
@<TRIPOS>SUBSTRUCTURE
      1 S1             1
@<TRIPOS>SET
LONE_PAIRS      STATIC     ATOMS    <user>   **** ""
7 45 46 47 48 49 50 51
DONOR_HYDROGENS      STATIC     ATOMS    <user>   **** ""
1 29
ATOM$BLUE        STATIC     ATOMS    COLORGROUP SYSTEM
7 45 46 47 48 49 50 51
ATOM$RED        STATIC     ATOMS    COLORGROUP SYSTEM
1 29
