AV-unprocessed.smi:3272|AV-procd|sdf|12519|dock4
  -GOLD-   2272018433D 1   1.00000     0.00000
 Structure written by MMmdl.
 35 36  0  0  0  0  0  0  0  0  1 V2000
  145.4699  130.7614  151.2718 C   0  0  0  0  0  0  0  0  0  0  0  0
  144.5367  131.6582  150.4499 C   0  0  0  0  0  0  0  0  0  0  0  0
  144.8126  133.0645  150.6695 N   0  0  0  0  0  0  0  0  0  0  0  0
  145.8042  133.6276  151.4479 C   0  0  0  0  0  0  0  0  0  0  0  0
  145.6480  134.9792  151.3238 C   0  0  0  0  0  0  0  0  0  0  0  0
  146.3990  136.0290  151.9107 N   0  0  0  0  0  0  0  0  0  0  0  0
  145.9472  136.9974  152.7245 C   0  0  0  0  0  0  0  0  0  0  0  0
  144.7811  137.1175  153.1007 O   0  0  0  0  0  0  0  0  0  0  0  0
  146.9318  137.8360  153.0778 N   0  0  0  0  0  0  0  0  0  0  0  0
  146.7769  139.0091  153.9330 C   0  0  0  0  0  0  0  0  0  0  0  0
  148.0233  139.9134  153.8955 C   0  0  1  0  0  0  0  0  0  0  0  0
  147.9472  141.1585  154.7589 C   0  0  0  0  0  0  0  0  0  0  0  0
  149.4177  141.5426  154.8923 C   0  0  0  0  0  0  0  0  0  0  0  0
  150.1485  140.3213  154.8259 O   0  0  0  0  0  0  0  0  0  0  0  0
  149.2823  139.2527  154.4556 C   0  0  0  0  0  0  0  0  0  0  0  0
  144.5427  135.1630  150.4530 C   0  0  0  0  0  0  0  0  0  0  0  0
  144.0425  134.0008  150.0620 N   0  0  0  0  0  0  0  0  0  0  0  0
  145.2419  129.7088  151.1047 H   0  0  0  0  0  0  0  0  0  0  0  0
  145.3664  130.9595  152.3391 H   0  0  0  0  0  0  0  0  0  0  0  0
  146.5138  130.9223  151.0001 H   0  0  0  0  0  0  0  0  0  0  0  0
  144.6395  131.4409  149.3860 H   0  0  0  0  0  0  0  0  0  0  0  0
  143.4971  131.4618  150.7145 H   0  0  0  0  0  0  0  0  0  0  0  0
  146.5103  133.0263  152.0011 H   0  0  0  0  0  0  0  0  0  0  0  0
  147.3809  136.0510  151.6771 H   0  0  0  0  0  0  0  0  0  0  0  0
  147.8587  137.6559  152.7204 H   0  0  0  0  0  0  0  0  0  0  0  0
  145.8825  139.5732  153.6626 H   0  0  0  0  0  0  0  0  0  0  0  0
  146.6156  138.6564  154.9519 H   0  0  0  0  0  0  0  0  0  0  0  0
  148.2207  140.2152  152.8654 H   0  0  0  0  0  0  0  0  0  0  0  0
  147.3420  141.9520  154.3196 H   0  0  0  0  0  0  0  0  0  0  0  0
  147.5340  140.9169  155.7393 H   0  0  0  0  0  0  0  0  0  0  0  0
  149.7231  142.1736  154.0568 H   0  0  0  0  0  0  0  0  0  0  0  0
  149.6237  142.0822  155.8169 H   0  0  0  0  0  0  0  0  0  0  0  0
  149.0497  138.6744  155.3510 H   0  0  0  0  0  0  0  0  0  0  0  0
  149.7591  138.5853  153.7374 H   0  0  0  0  0  0  0  0  0  0  0  0
  144.0953  136.0802  150.0992 H   0  0  0  0  0  0  0  0  0  0  0  0
  1  2  1  0  0  0  0
  1 18  1  0  0  0  0
  1 19  1  0  0  0  0
  1 20  1  0  0  0  0
  2  3  1  0  0  0  0
  2 21  1  0  0  0  0
  2 22  1  0  0  0  0
  3 17  1  0  0  0  0
  3  4  1  0  0  0  0
  4  5  2  0  0  0  0
  4 23  1  0  0  0  0
  5  6  1  0  0  0  0
  5 16  1  0  0  0  0
  6  7  1  0  0  0  0
  6 24  1  0  0  0  0
  7  8  2  0  0  0  0
  7  9  1  0  0  0  0
  9 10  1  0  0  0  0
  9 25  1  0  0  0  0
 10 11  1  0  0  0  0
 10 26  1  0  0  0  0
 10 27  1  0  0  0  0
 11 15  1  0  0  0  0
 11 12  1  0  0  0  0
 11 28  1  0  0  0  0
 12 13  1  0  0  0  0
 12 29  1  0  0  0  0
 12 30  1  0  0  0  0
 13 14  1  0  0  0  0
 13 31  1  0  0  0  0
 13 32  1  0  0  0  0
 14 15  1  0  0  0  0
 15 33  1  0  0  0  0
 15 34  1  0  0  0  0
 16 17  2  0  0  0  0
 16 35  1  0  0  0  0
M  END
> <s_m_source_file>
AV-unprocessed.smi

> <i_m_source_file_index>
3272

> <i_lp_mmshare_version>
43012

> <i_f3d_flags>
0

> <s_epik_input>
W0NIM11bQ0gyXW4xW2NIXWMoW2NIXW4xKVtOSF1DKD1PKVtOSF1bQ0gyXVtDQEBIXTJbQ0gyXVtDSDJdT1tDSDJdMg==

> <s_epik_cmdline>
J2VwaWtfcHl0aG9uJywgJy1waCcsICc3LjAnLCAnLXRuJywgJzgnLCAnLW1hJywgJzIwMCcsICctbWV0YWxfYmluZGluZycsICctaW1hZScsICc8aW5maWxlLm1hZT4nLCAnLW9tYWUnLCAnPG91dGZpbGUubWFlPic=

> <r_lp_tautomer_probability>
1

> <r_epik_Ionization_Penalty>
0.000182896

> <r_epik_Ionization_Penalty_Charging>
0

> <r_epik_Ionization_Penalty_Neutral>
0.000182896

> <r_epik_State_Penalty>
-0

> <r_epik_Charging_Adjusted_Penalty>
0

> <i_epik_Tot_Q>
0

> <i_epik_Tot_abs_Q>
0

> <r_epik_Metal_State_Penalty>
-0

> <b_epik_Metal_Only>
0

> <s_lp_Force_Field>
OPLS_2005

> <r_lp_Energy>
22.1585

> <b_lp_Chiralities_Consistent>
1

> <s_lp_Variant>
AV-unprocessed.smi:3272-2

> <Gold.Version>
5.8.1

> <Gold.Id.Protein>
6NUR|6NUR_protein|mol2

> <Gold.PLP.Fitness>
40.5616

> <Gold.PLP.PLP>
-30.3563

> <Gold.PLP.part.hbond>
-3.0000

> <Gold.PLP.part.metal>
0.0000

> <Gold.PLP.part.buried>
-2.8715

> <Gold.PLP.part.nonpolar>
-24.9481

> <Gold.PLP.part.repulsive>
0.6568

> <Gold.PLP.ligand.clash>
0.0000

> <Gold.PLP.ligand.torsion>
0.6367

> <Gold.PLP.Chemscore.Hbond>
2.8240

> <Gold.PLP.Chemscore.CHOScore>
1.0000

> <Gold.PLP.Chemscore.Metal>
0.0000

> <Gold.Chemscore.Hbonds>
donor molecule, donor type, donor heavy atom, donor atom, acceptor molecule, acceptor atom, score
      L1  H     6    24       P1  7948  1.00
      L1  H     9    25       P1  7948  0.85
      P1  H  7989  7998       L1    14  0.88
      L1  C    16    35       P1 10171  1.00

> <Gold.PLP.Chemscore.Internal.Correction>
0.0068

> <Gold.Rescore>
     Score         DG    S(hbond)    S(metal)    S(lipo)     H(rot)  DE(clash)    DE(int)     intcor
     17.18     -17.80       2.36        0.00      68.67       1.41       0.07       0.54       ----

> <Gold.Chemscore.Fitness>
17.1848

> <Gold.Chemscore.DG>
-17.7977

> <Gold.Chemscore.ZeroCoef>
-5.4800

> <Gold.Chemscore.Hbond>
2.3603

> <Gold.Chemscore.Metal>
0.0000

> <Gold.Chemscore.Lipo>
68.6724

> <Gold.Chemscore.Internal_Hbond>
0.0000

> <Gold.Chemscore.DEClash>
0.0748

> <Gold.Chemscore.DEInternal>
0.5380

> <Gold.Chemscore.Rot>
1.4064

> <Gold.Chemscore.Internal.Correction>
   9.000000E+99

> <Gold.Chemscore.Hbonds>
donor molecule, donor type, donor heavy atom, donor atom, acceptor molecule, acceptor atom, score
      L1  H     6    24       P1  7948  0.96
      L1  H     9    25       P1  7948  0.81
      P1  H  7989  7998       L1    14  0.18

> <Gold.Chemscore.Hbond.Weighted>
-7.8834

> <Gold.Chemscore.Metal.Weighted>
-0.0000

> <Gold.Chemscore.Lipo.Weighted>
-8.0347

> <Gold.Chemscore.Internal_Hbond.Weighted>
0.0000

> <Gold.Chemscore.DEClash.Weighted>
0.0748

> <Gold.Chemscore.DEInternal.Weighted>
0.5380

> <Gold.Chemscore.Rot.Weighted>
3.6004

> <Gold.Chemscore.Internal.Correction.Weighted>
   9.000000E+99

> <Gold.Protein.RotatedTorsions>
[ 6907 6896 6895 6894 ] final   86.87 input  -60.11 | X-H torsion
[ 7974 7965 7964 7962 ] final   73.32 input  175.53 | X-H torsion
[ 8008 7997 7996 7995 ] final  157.34 input   59.86 | X-H torsion
[ 10167 10162 10161 10158 ] final -147.71 input  -65.29 | X-H torsion
[ 10718 10713 10712 10709 ] final   26.33 input   66.30 | X-H torsion
[ 10763 10752 10751 10750 ] final   59.11 input  -60.55 | X-H torsion
[ 11005 11000 10999 10996 ] final  -10.69 input  -57.11 | X-H torsion

> <Gold.Protein.ActiveResidues>
 VAL166  LYS551  ARG553  GLY616  TRP617  ASP618  TYR619  PRO620  LYS621  CYS622 
 ASP623  PHE694  ASN695  SER759  ASP760  ASP761  ALA762  ILE779  LEU786  VAL792 
 PHE793  MET794  SER795  GLU796  ALA797  LYS798  CYS799  TRP800  GLU811  SER814 

> <Gold.Protein.RotatedAtoms>
  152.5402  134.2364  159.8844 H   0  0  0  0  0  0  0  0  0  0  0  0  # atno 6907 bound_to 6896
  151.2333  133.4432  159.2612 H   0  0  0  0  0  0  0  0  0  0  0  0  # atno 6908 bound_to 6896
  151.0695  134.9802  159.8357 H   0  0  0  0  0  0  0  0  0  0  0  0  # atno 6909 bound_to 6896
  145.7423  139.2726  143.1479 H   0  0  0  0  0  0  0  0  0  0  0  0  # atno 7974 bound_to 7965
  156.2370  140.1888  156.7093 H   0  0  0  0  0  0  0  0  0  0  0  0  # atno 8008 bound_to 7997
  154.6125  140.0620  156.9538 H   0  0  0  0  0  0  0  0  0  0  0  0  # atno 8009 bound_to 7997
  155.1994  140.3291  155.4348 H   0  0  0  0  0  0  0  0  0  0  0  0  # atno 8010 bound_to 7997
  139.7598  143.8394  152.2604 H   0  0  0  0  0  0  0  0  0  0  0  0  # atno 10167 bound_to 10162
  157.2054  130.6909  149.6206 H   0  0  0  0  0  0  0  0  0  0  0  0  # atno 10718 bound_to 10713
  152.9886  135.5583  154.5660 H   0  0  0  0  0  0  0  0  0  0  0  0  # atno 10763 bound_to 10752
  154.5070  135.2800  155.1376 H   0  0  0  0  0  0  0  0  0  0  0  0  # atno 10764 bound_to 10752
  154.2783  135.6349  153.5390 H   0  0  0  0  0  0  0  0  0  0  0  0  # atno 10765 bound_to 10752
  140.7474  133.8620  155.9016 H   0  0  0  0  0  0  0  0  0  0  0  0  # atno 11005 bound_to 11000
  146.0436  140.8140  142.9816 LP  0  0  0  0  0  0  0  0  0  0  0  0  # atno 17320 bound_to 7965
  144.6868  140.2947  143.7272 LP  0  0  0  0  0  0  0  0  0  0  0  0  # atno 17321 bound_to 7965
  139.8397  144.7216  150.9346 LP  0  0  0  0  0  0  0  0  0  0  0  0  # atno 17342 bound_to 10162
  140.7806  143.3994  151.1174 LP  0  0  0  0  0  0  0  0  0  0  0  0  # atno 17343 bound_to 10162
  155.9696  130.4569  150.5941 LP  0  0  0  0  0  0  0  0  0  0  0  0  # atno 17370 bound_to 10713
  157.3726  131.0768  151.1545 LP  0  0  0  0  0  0  0  0  0  0  0  0  # atno 17371 bound_to 10713
  140.9782  134.1441  157.4517 LP  0  0  0  0  0  0  0  0  0  0  0  0  # atno 17394 bound_to 11000
  139.8794  135.0002  156.5995 LP  0  0  0  0  0  0  0  0  0  0  0  0  # atno 17395 bound_to 11000

$$$$
