AV-unprocessed.smi:1044|AV-procd|sdf|4542|dock7
  -GOLD-   22720 2563D 1   1.00000     0.00000
 Structure written by MMmdl.
 45 46  0  0  0  0  0  0  0  0  1 V2000
  145.0849  133.6261  150.3209 C   0  0  0  0  0  0  0  0  0  0  0  0
  145.5098  132.7137  151.4737 C   0  0  0  0  0  0  0  0  0  0  0  0
  146.7638  133.1676  151.9743 O   0  0  0  0  0  0  0  0  0  0  0  0
  147.6355  132.2440  152.5193 C   0  0  0  0  0  0  0  0  0  0  0  0
  147.3806  130.9250  152.3295 N   0  0  0  0  0  0  0  0  0  0  0  0
  148.2288  130.0227  152.8641 C   0  0  0  0  0  0  0  0  0  0  0  0
  149.3625  130.3822  153.6159 C   0  0  0  0  0  0  0  0  0  0  0  0
  149.6292  131.7494  153.8139 C   0  0  0  0  0  0  0  0  0  0  0  0
  148.7566  132.7086  153.2453 C   0  0  0  0  0  0  0  0  0  0  0  0
  148.9243  134.1113  153.4056 N   0  0  0  0  0  0  0  0  0  0  0  0
  149.3850  134.7761  154.4784 C   0  0  0  0  0  0  0  0  0  0  0  0
  149.7720  134.2530  155.5232 O   0  0  0  0  0  0  0  0  0  0  0  0
  149.3943  136.0987  154.2586 N   0  0  0  0  0  0  0  0  0  0  0  0
  149.8660  137.1179  155.1920 C   0  0  2  0  0  0  0  0  0  0  0  0
  149.6582  138.5155  154.5954 C   0  0  0  0  0  0  0  0  0  0  0  0
  150.2025  139.5644  155.5691 C   0  0  0  0  0  0  0  0  0  0  0  0
  151.6804  139.3048  155.9064 C   0  0  0  0  0  0  0  0  0  0  0  0
  151.8907  137.9283  156.4002 N   0  0  0  0  0  0  0  0  0  0  0  0
  153.3753  137.5863  157.2288 S   0  0  0  0  0  0  0  0  0  0  0  0
  152.8622  137.5127  158.9948 C   0  0  0  0  0  0  0  0  0  0  0  0
  153.8306  136.2542  156.8022 O   0  0  0  0  0  0  0  0  0  0  0  0
  154.2605  138.7504  157.0709 O   0  0  0  0  0  0  0  0  0  0  0  0
  151.3516  136.8778  155.5144 C   0  0  0  0  0  0  0  0  0  0  0  0
  144.1232  133.3148  149.9128 H   0  0  0  0  0  0  0  0  0  0  0  0
  145.8158  133.6008  149.5122 H   0  0  0  0  0  0  0  0  0  0  0  0
  144.9886  134.6596  150.6546 H   0  0  0  0  0  0  0  0  0  0  0  0
  144.7534  132.7396  152.2599 H   0  0  0  0  0  0  0  0  0  0  0  0
  145.5900  131.6863  151.1151 H   0  0  0  0  0  0  0  0  0  0  0  0
  147.9925  128.9830  152.6937 H   0  0  0  0  0  0  0  0  0  0  0  0
  150.0096  129.6266  154.0360 H   0  0  0  0  0  0  0  0  0  0  0  0
  150.4839  132.0351  154.4074 H   0  0  0  0  0  0  0  0  0  0  0  0
  148.7389  134.6652  152.5820 H   0  0  0  0  0  0  0  0  0  0  0  0
  149.0579  136.4288  153.3658 H   0  0  0  0  0  0  0  0  0  0  0  0
  149.3060  137.0618  156.1274 H   0  0  0  0  0  0  0  0  0  0  0  0
  150.1699  138.5997  153.6354 H   0  0  0  0  0  0  0  0  0  0  0  0
  148.5991  138.6950  154.4069 H   0  0  0  0  0  0  0  0  0  0  0  0
  150.0886  140.5619  155.1441 H   0  0  0  0  0  0  0  0  0  0  0  0
  149.6127  139.5519  156.4868 H   0  0  0  0  0  0  0  0  0  0  0  0
  152.3058  139.4639  155.0272 H   0  0  0  0  0  0  0  0  0  0  0  0
  152.0031  140.0232  156.6596 H   0  0  0  0  0  0  0  0  0  0  0  0
  153.7450  137.3777  159.6191 H   0  0  0  0  0  0  0  0  0  0  0  0
  152.1837  136.6764  159.1555 H   0  0  0  0  0  0  0  0  0  0  0  0
  152.3660  138.4435  159.2689 H   0  0  0  0  0  0  0  0  0  0  0  0
  151.4669  135.9036  155.9878 H   0  0  0  0  0  0  0  0  0  0  0  0
  151.9445  136.8531  154.5990 H   0  0  0  0  0  0  0  0  0  0  0  0
  1  2  1  0  0  0  0
  1 24  1  0  0  0  0
  1 25  1  0  0  0  0
  1 26  1  0  0  0  0
  2  3  1  0  0  0  0
  2 27  1  0  0  0  0
  2 28  1  0  0  0  0
  3  4  1  0  0  0  0
  4  9  1  0  0  0  0
  4  5  2  0  0  0  0
  5  6  1  0  0  0  0
  6  7  2  0  0  0  0
  6 29  1  0  0  0  0
  7  8  1  0  0  0  0
  7 30  1  0  0  0  0
  8  9  2  0  0  0  0
  8 31  1  0  0  0  0
  9 10  1  0  0  0  0
 10 11  1  0  0  0  0
 10 32  1  0  0  0  0
 11 12  2  0  0  0  0
 11 13  1  0  0  0  0
 13 14  1  0  0  0  0
 13 33  1  0  0  0  0
 14 23  1  0  0  0  0
 14 15  1  0  0  0  0
 14 34  1  0  0  0  0
 15 16  1  0  0  0  0
 15 35  1  0  0  0  0
 15 36  1  0  0  0  0
 16 17  1  0  0  0  0
 16 37  1  0  0  0  0
 16 38  1  0  0  0  0
 17 18  1  0  0  0  0
 17 39  1  0  0  0  0
 17 40  1  0  0  0  0
 18 19  1  0  0  0  0
 18 23  1  0  0  0  0
 19 20  1  0  0  0  0
 19 21  2  0  0  0  0
 19 22  2  0  0  0  0
 20 41  1  0  0  0  0
 20 42  1  0  0  0  0
 20 43  1  0  0  0  0
 23 44  1  0  0  0  0
 23 45  1  0  0  0  0
M  END
> <s_m_source_file>
AV-unprocessed.smi

> <i_m_source_file_index>
1044

> <i_lp_mmshare_version>
43012

> <i_f3d_flags>
0

> <s_epik_input>
W0NIM11bQ0gyXU9jMW5bY0hdW2NIXVtjSF1jMVtOSF1DKD1PKVtOSF1bQ0BASF0yW0NIMl1bQ0gyXVtDSDJdTihbQ0gyXTIpUyg9TykoPU8pW0NIM10=

> <s_epik_cmdline>
J2VwaWtfcHl0aG9uJywgJy1waCcsICc3LjAnLCAnLXRuJywgJzgnLCAnLW1hJywgJzIwMCcsICctbWV0YWxfYmluZGluZycsICctaW1hZScsICc8aW5maWxlLm1hZT4nLCAnLW9tYWUnLCAnPG91dGZpbGUubWFlPic=

> <r_lp_tautomer_probability>
1

> <r_epik_Ionization_Penalty>
0.000106941

> <r_epik_Ionization_Penalty_Charging>
0

> <r_epik_Ionization_Penalty_Neutral>
0.000106941

> <r_epik_State_Penalty>
-0

> <r_epik_Charging_Adjusted_Penalty>
0

> <i_epik_Tot_Q>
0

> <i_epik_Tot_abs_Q>
0

> <r_epik_Metal_State_Penalty>
-0

> <b_epik_Metal_Only>
0

> <s_lp_Force_Field>
OPLS_2005

> <r_lp_Energy>
2.99573

> <b_lp_Chiralities_Consistent>
1

> <s_lp_Variant>
AV-unprocessed.smi:1044-1

> <Gold.Version>
5.8.1

> <Gold.Id.Protein>
6NUR|6NUR_protein|mol2

> <Gold.PLP.Fitness>
40.0948

> <Gold.PLP.PLP>
-30.3880

> <Gold.PLP.part.hbond>
-3.4633

> <Gold.PLP.part.metal>
0.0000

> <Gold.PLP.part.buried>
-4.8153

> <Gold.PLP.part.nonpolar>
-23.5415

> <Gold.PLP.part.repulsive>
0.3072

> <Gold.PLP.ligand.clash>
0.0000

> <Gold.PLP.ligand.torsion>
0.9766

> <Gold.PLP.Chemscore.Hbond>
3.6320

> <Gold.PLP.Chemscore.CHOScore>
0.0000

> <Gold.PLP.Chemscore.Metal>
0.0000

> <Gold.Chemscore.Hbonds>
donor molecule, donor type, donor heavy atom, donor atom, acceptor molecule, acceptor atom, score
      L1  H    10    32       P1  7948  0.49
      L1  H    13    33       P1  7948  0.89
      P1  H  7997  8008       L1    22  0.26
      P1  H 10752 10764       L1    21  1.00

> <Gold.PLP.Chemscore.Internal.Correction>
0.7640

> <Gold.Rescore>
     Score         DG    S(hbond)    S(metal)    S(lipo)     H(rot)  DE(clash)    DE(int)     intcor
     17.77     -19.52       3.47        0.00      59.79       1.77       0.03       1.72       ----

> <Gold.Chemscore.Fitness>
17.7663

> <Gold.Chemscore.DG>
-19.5196

> <Gold.Chemscore.ZeroCoef>
-5.4800

> <Gold.Chemscore.Hbond>
3.4665

> <Gold.Chemscore.Metal>
0.0000

> <Gold.Chemscore.Lipo>
59.7915

> <Gold.Chemscore.Internal_Hbond>
0.0000

> <Gold.Chemscore.DEClash>
0.0294

> <Gold.Chemscore.DEInternal>
1.7239

> <Gold.Chemscore.Rot>
1.7711

> <Gold.Chemscore.Internal.Correction>
   9.000000E+99

> <Gold.Chemscore.Hbonds>
donor molecule, donor type, donor heavy atom, donor atom, acceptor molecule, acceptor atom, score
      L1  H    10    32       P1  7948  0.03
      L1  H    13    33       P1  7948  0.81
      P1  H  7997  8008       L1    22  0.26
      P1  H 10752 10764       L1    21  0.95

> <Gold.Chemscore.Hbond.Weighted>
-11.5780

> <Gold.Chemscore.Metal.Weighted>
-0.0000

> <Gold.Chemscore.Lipo.Weighted>
-6.9956

> <Gold.Chemscore.Internal_Hbond.Weighted>
0.0000

> <Gold.Chemscore.DEClash.Weighted>
0.0294

> <Gold.Chemscore.DEInternal.Weighted>
1.7239

> <Gold.Chemscore.Rot.Weighted>
4.5340

> <Gold.Chemscore.Internal.Correction.Weighted>
   9.000000E+99

> <Gold.Protein.RotatedTorsions>
[ 6907 6896 6895 6894 ] final  -88.26 input  -60.11 | X-H torsion
[ 7974 7965 7964 7962 ] final  -60.36 input  175.53 | X-H torsion
[ 8008 7997 7996 7995 ] final  -83.70 input   59.86 | X-H torsion
[ 10167 10162 10161 10158 ] final   10.79 input  -65.29 | X-H torsion
[ 10718 10713 10712 10709 ] final -145.30 input   66.30 | X-H torsion
[ 10763 10752 10751 10750 ] final   27.13 input  -60.55 | X-H torsion
[ 11005 11000 10999 10996 ] final  -99.89 input  -57.11 | X-H torsion

> <Gold.Protein.ActiveResidues>
 VAL166  LYS551  ARG553  GLY616  TRP617  ASP618  TYR619  PRO620  LYS621  CYS622 
 ASP623  PHE694  ASN695  SER759  ASP760  ASP761  ALA762  ILE779  LEU786  VAL792 
 PHE793  MET794  SER795  GLU796  ALA797  LYS798  CYS799  TRP800  GLU811  SER814 

> <Gold.Protein.RotatedAtoms>
  150.6868  134.2769  159.4610 H   0  0  0  0  0  0  0  0  0  0  0  0  # atno 6907 bound_to 6896
  152.0686  134.9545  160.0584 H   0  0  0  0  0  0  0  0  0  0  0  0  # atno 6908 bound_to 6896
  152.0944  133.4182  159.4595 H   0  0  0  0  0  0  0  0  0  0  0  0  # atno 6909 bound_to 6896
  145.8164  140.8567  143.0155 H   0  0  0  0  0  0  0  0  0  0  0  0  # atno 7974 bound_to 7965
  154.6219  140.0615  156.9626 H   0  0  0  0  0  0  0  0  0  0  0  0  # atno 8008 bound_to 7997
  155.1804  140.3298  155.4358 H   0  0  0  0  0  0  0  0  0  0  0  0  # atno 8009 bound_to 7997
  156.2436  140.1898  156.6900 H   0  0  0  0  0  0  0  0  0  0  0  0  # atno 8010 bound_to 7997
  140.6172  143.8282  150.7132 H   0  0  0  0  0  0  0  0  0  0  0  0  # atno 10167 bound_to 10162
  156.3808  130.7836  151.2028 H   0  0  0  0  0  0  0  0  0  0  0  0  # atno 10718 bound_to 10713
  153.0576  135.6544  154.0539 H   0  0  0  0  0  0  0  0  0  0  0  0  # atno 10763 bound_to 10752
  154.0214  135.2919  155.3382 H   0  0  0  0  0  0  0  0  0  0  0  0  # atno 10764 bound_to 10752
  154.6899  135.5287  153.8446 H   0  0  0  0  0  0  0  0  0  0  0  0  # atno 10765 bound_to 10752
  141.1292  133.8356  157.1030 H   0  0  0  0  0  0  0  0  0  0  0  0  # atno 11005 bound_to 11000
  144.6752  140.0470  143.7479 LP  0  0  0  0  0  0  0  0  0  0  0  0  # atno 17320 bound_to 7965
  145.9722  139.2878  143.1092 LP  0  0  0  0  0  0  0  0  0  0  0  0  # atno 17321 bound_to 7965
  140.1864  143.4072  152.1895 LP  0  0  0  0  0  0  0  0  0  0  0  0  # atno 17342 bound_to 10162
  139.5408  144.7255  151.4739 LP  0  0  0  0  0  0  0  0  0  0  0  0  # atno 17343 bound_to 10162
  157.7492  131.0345  150.4318 LP  0  0  0  0  0  0  0  0  0  0  0  0  # atno 17370 bound_to 10713
  156.4562  130.4022  149.6605 LP  0  0  0  0  0  0  0  0  0  0  0  0  # atno 17371 bound_to 10713
  140.0321  134.9896  157.0801 LP  0  0  0  0  0  0  0  0  0  0  0  0  # atno 17394 bound_to 11000
  140.4268  134.1822  155.7166 LP  0  0  0  0  0  0  0  0  0  0  0  0  # atno 17395 bound_to 11000

$$$$
