AV-unprocessed.smi:652|AV-procd|sdf|3203|dock1
  -GOLD-   22720 0133D 1   1.00000     0.00000
 Structure written by MMmdl.
 48 49  0  0  0  0  0  0  0  0  2 V2000
  151.9278  144.1554  158.9167 C   0  0  0  0  0  0  0  0  0  0  0  0
  151.7485  142.6501  159.1685 C   0  0  0  0  0  0  0  0  0  0  0  0
  152.6837  142.1457  160.2755 C   0  0  0  0  0  0  0  0  0  0  0  0
  151.9945  141.8948  157.9432 N   0  0  0  0  0  0  0  0  0  0  0  0
  151.1189  141.0712  157.3455 C   0  0  0  0  0  0  0  0  0  0  0  0
  149.9853  140.8605  157.7777 O   0  0  0  0  0  0  0  0  0  0  0  0
  151.6059  140.3795  156.0689 C   0  0  0  0  0  0  0  0  0  0  0  0
  150.5619  139.4079  155.4828 C   0  0  0  0  0  0  0  0  0  0  0  0
  149.5892  140.0207  154.5786 N   0  0  0  0  0  0  0  0  0  0  0  0
  149.0485  141.2493  155.1501 C   0  0  0  0  0  0  0  0  0  0  0  0
  148.0311  141.9211  154.2126 C   0  0  0  0  0  0  0  0  0  0  0  0
  146.9817  141.0073  153.9105 O   0  0  0  0  0  0  0  0  0  0  0  0
  147.4511  139.7966  153.3222 C   0  0  2  0  0  0  0  0  0  0  0  0
  146.2458  138.9035  152.9880 C   0  0  0  0  0  0  0  0  0  0  0  0
  146.6474  137.6076  152.4597 N   0  0  0  0  0  0  0  0  0  0  0  0
  145.6988  136.5972  152.2561 C   0  0  0  0  0  0  0  0  0  0  0  0
  144.3198  136.7369  152.5358 C   0  0  0  0  0  0  0  0  0  0  0  0
  143.4755  135.6412  152.2873 C   0  0  0  0  0  0  0  0  0  0  0  0
  144.0613  134.4707  151.7739 C   0  0  0  0  0  0  0  0  0  0  0  0
  145.3826  134.3572  151.5126 N   0  0  0  0  0  0  0  0  0  0  0  0
  146.1641  135.4233  151.7608 N   0  3  0  0  0  0  0  0  0  0  0  0
  148.4840  139.1234  154.2516 C   0  0  0  0  0  0  0  0  0  0  0  0
  151.7384  144.7288  159.8245 H   0  0  0  0  0  0  0  0  0  0  0  0
  151.2373  144.5150  158.1532 H   0  0  0  0  0  0  0  0  0  0  0  0
  152.9409  144.3848  158.5842 H   0  0  0  0  0  0  0  0  0  0  0  0
  150.7223  142.4727  159.4960 H   0  0  0  0  0  0  0  0  0  0  0  0
  152.4989  142.6710  161.2130 H   0  0  0  0  0  0  0  0  0  0  0  0
  153.7311  142.2953  160.0112 H   0  0  0  0  0  0  0  0  0  0  0  0
  152.5352  141.0814  160.4609 H   0  0  0  0  0  0  0  0  0  0  0  0
  152.9027  142.0072  157.5165 H   0  0  0  0  0  0  0  0  0  0  0  0
  151.8552  141.1366  155.3238 H   0  0  0  0  0  0  0  0  0  0  0  0
  152.5306  139.8555  156.3099 H   0  0  0  0  0  0  0  0  0  0  0  0
  151.0687  138.5876  154.9716 H   0  0  0  0  0  0  0  0  0  0  0  0
  150.0241  138.9536  156.3166 H   0  0  0  0  0  0  0  0  0  0  0  0
  148.5695  141.0335  156.1065 H   0  0  0  0  0  0  0  0  0  0  0  0
  149.8592  141.9483  155.3589 H   0  0  0  0  0  0  0  0  0  0  0  0
  147.6065  142.8068  154.6853 H   0  0  0  0  0  0  0  0  0  0  0  0
  148.5139  142.2494  153.2910 H   0  0  0  0  0  0  0  0  0  0  0  0
  147.9446  140.0496  152.3821 H   0  0  0  0  0  0  0  0  0  0  0  0
  145.6442  138.7534  153.8855 H   0  0  0  0  0  0  0  0  0  0  0  0
  145.6126  139.4066  152.2562 H   0  0  0  0  0  0  0  0  0  0  0  0
  147.6323  137.3855  152.4254 H   0  0  0  0  0  0  0  0  0  0  0  0
  143.9061  137.6532  152.9294 H   0  0  0  0  0  0  0  0  0  0  0  0
  142.4149  135.6951  152.4837 H   0  0  0  0  0  0  0  0  0  0  0  0
  143.4550  133.6010  151.5671 H   0  0  0  0  0  0  0  0  0  0  0  0
  148.8601  138.2264  153.7607 H   0  0  0  0  0  0  0  0  0  0  0  0
  147.9979  138.7961  155.1718 H   0  0  0  0  0  0  0  0  0  0  0  0
  147.1628  135.3451  151.5671 H   0  0  0  0  0  0  0  0  0  0  0  0
  1  2  1  0  0  0  0
  1 23  1  0  0  0  0
  1 24  1  0  0  0  0
  1 25  1  0  0  0  0
  2  3  1  0  0  0  0
  2  4  1  0  0  0  0
  2 26  1  0  0  0  0
  3 27  1  0  0  0  0
  3 28  1  0  0  0  0
  3 29  1  0  0  0  0
  4  5  1  0  0  0  0
  4 30  1  0  0  0  0
  5  6  2  0  0  0  0
  5  7  1  0  0  0  0
  7  8  1  0  0  0  0
  7 31  1  0  0  0  0
  7 32  1  0  0  0  0
  8  9  1  0  0  0  0
  8 33  1  0  0  0  0
  8 34  1  0  0  0  0
  9 22  1  0  0  0  0
  9 10  1  0  0  0  0
 10 11  1  0  0  0  0
 10 35  1  0  0  0  0
 10 36  1  0  0  0  0
 11 12  1  0  0  0  0
 11 37  1  0  0  0  0
 11 38  1  0  0  0  0
 12 13  1  0  0  0  0
 13 14  1  0  0  0  0
 13 22  1  0  0  0  0
 13 39  1  0  0  0  0
 14 15  1  0  0  0  0
 14 40  1  0  0  0  0
 14 41  1  0  0  0  0
 15 16  1  0  0  0  0
 15 42  1  0  0  0  0
 16 21  1  0  0  0  0
 16 17  2  0  0  0  0
 17 18  1  0  0  0  0
 17 43  1  0  0  0  0
 18 19  2  0  0  0  0
 18 44  1  0  0  0  0
 19 20  1  0  0  0  0
 19 45  1  0  0  0  0
 20 21  2  0  0  0  0
 21 48  1  0  0  0  0
 22 46  1  0  0  0  0
 22 47  1  0  0  0  0
M  CHG  1  21   1
M  END
> <s_m_source_file>
AV-unprocessed.smi

> <i_m_source_file_index>
652

> <i_lp_mmshare_version>
43012

> <i_f3d_flags>
0

> <s_epik_input>
W0NIM11bQ0hdKFtDSDNdKVtOSF1DKD1PKVtDSDJdW0NIMl1OMVtDSDJdW0NIMl1PW0NASF0oW0NIMl0xKVtDSDJdW05IXWMyW2NIXVtjSF1bY0hdbm4y

> <s_epik_cmdline>
J2VwaWtfcHl0aG9uJywgJy1waCcsICc3LjAnLCAnLXRuJywgJzgnLCAnLW1hJywgJzIwMCcsICctbWV0YWxfYmluZGluZycsICctaW1hZScsICc8aW5maWxlLm1hZT4nLCAnLW9tYWUnLCAnPG91dGZpbGUubWFlPic=

> <r_epik_Ionization_Penalty>
2.70989

> <r_epik_Ionization_Penalty_Charging>
2.3023

> <r_epik_Ionization_Penalty_Neutral>
0.407592

> <r_epik_State_Penalty>
2.65305

> <r_epik_Charging_Adjusted_Penalty>
4.95534

> <i_epik_Tot_Q>
1

> <i_epik_Tot_abs_Q>
1

> <r_epik_Metal_State_Penalty>
2.66064

> <b_epik_Metal_Only>
0

> <s_lp_Force_Field>
OPLS_2005

> <r_lp_Energy>
34.9838

> <b_lp_Chiralities_Consistent>
1

> <s_lp_Variant>
AV-unprocessed.smi:652-12

> <Gold.Version>
5.8.1

> <Gold.Id.Protein>
6NUR|6NUR_protein|mol2

> <Gold.PLP.Fitness>
47.8979

> <Gold.PLP.PLP>
-37.0842

> <Gold.PLP.part.hbond>
-2.1559

> <Gold.PLP.part.metal>
0.0000

> <Gold.PLP.part.buried>
-0.9248

> <Gold.PLP.part.nonpolar>
-34.2192

> <Gold.PLP.part.repulsive>
0.6007

> <Gold.PLP.ligand.clash>
0.0000

> <Gold.PLP.ligand.torsion>
0.2944

> <Gold.PLP.Chemscore.Hbond>
3.7440

> <Gold.PLP.Chemscore.CHOScore>
0.0000

> <Gold.PLP.Chemscore.Metal>
0.0000

> <Gold.Chemscore.Hbonds>
donor molecule, donor type, donor heavy atom, donor atom, acceptor molecule, acceptor atom, score
      L1  H    15    42       P1  7948  1.92
      L1  H    21    48       P1  7948  1.82

> <Gold.PLP.Chemscore.Internal.Correction>
0.1705

> <Gold.Rescore>
     Score         DG    S(hbond)    S(metal)    S(lipo)     H(rot)  DE(clash)    DE(int)     intcor
     15.67     -16.25       1.74        0.00      92.28       2.28       0.19       0.38       ----

> <Gold.Chemscore.Fitness>
15.6731

> <Gold.Chemscore.DG>
-16.2513

> <Gold.Chemscore.ZeroCoef>
-5.4800

> <Gold.Chemscore.Hbond>
1.7373

> <Gold.Chemscore.Metal>
0.0000

> <Gold.Chemscore.Lipo>
92.2844

> <Gold.Chemscore.Internal_Hbond>
0.0000

> <Gold.Chemscore.DEClash>
0.1941

> <Gold.Chemscore.DEInternal>
0.3842

> <Gold.Chemscore.Rot>
2.2768

> <Gold.Chemscore.Internal.Correction>
   9.000000E+99

> <Gold.Chemscore.Hbonds>
donor molecule, donor type, donor heavy atom, donor atom, acceptor molecule, acceptor atom, score
      L1  H    15    42       P1  7948  0.92
      L1  H    21    48       P1  7948  0.83

> <Gold.Chemscore.Hbond.Weighted>
-5.8027

> <Gold.Chemscore.Metal.Weighted>
-0.0000

> <Gold.Chemscore.Lipo.Weighted>
-10.7973

> <Gold.Chemscore.Internal_Hbond.Weighted>
0.0000

> <Gold.Chemscore.DEClash.Weighted>
0.1941

> <Gold.Chemscore.DEInternal.Weighted>
0.3842

> <Gold.Chemscore.Rot.Weighted>
5.8286

> <Gold.Chemscore.Internal.Correction.Weighted>
   9.000000E+99

> <Gold.Protein.RotatedTorsions>
[ 6907 6896 6895 6894 ] final -104.16 input  -60.11 | X-H torsion
[ 7974 7965 7964 7962 ] final -153.03 input  175.53 | X-H torsion
[ 8008 7997 7996 7995 ] final   67.05 input   59.86 | X-H torsion
[ 10167 10162 10161 10158 ] final -126.30 input  -65.29 | X-H torsion
[ 10718 10713 10712 10709 ] final   82.43 input   66.30 | X-H torsion
[ 10763 10752 10751 10750 ] final   10.59 input  -60.55 | X-H torsion
[ 11005 11000 10999 10996 ] final   25.31 input  -57.11 | X-H torsion

> <Gold.Protein.ActiveResidues>
 VAL166  LYS551  ARG553  GLY616  TRP617  ASP618  TYR619  PRO620  LYS621  CYS622 
 ASP623  PHE694  ASN695  SER759  ASP760  ASP761  ALA762  ILE779  LEU786  VAL792 
 PHE793  MET794  SER795  GLU796  ALA797  LYS798  CYS799  TRP800  GLU811  SER814 

> <Gold.Protein.RotatedAtoms>
  150.7274  134.0319  159.3736 H   0  0  0  0  0  0  0  0  0  0  0  0  # atno 6907 bound_to 6896
  151.8289  135.0626  160.0443 H   0  0  0  0  0  0  0  0  0  0  0  0  # atno 6908 bound_to 6896
  152.2948  133.5561  159.5617 H   0  0  0  0  0  0  0  0  0  0  0  0  # atno 6909 bound_to 6896
  144.7762  140.4581  143.5872 H   0  0  0  0  0  0  0  0  0  0  0  0  # atno 7974 bound_to 7965
  155.6868  140.3496  155.4877 H   0  0  0  0  0  0  0  0  0  0  0  0  # atno 8008 bound_to 7997
  155.9559  140.1128  157.0960 H   0  0  0  0  0  0  0  0  0  0  0  0  # atno 8009 bound_to 7997
  154.4132  140.1185  156.5100 H   0  0  0  0  0  0  0  0  0  0  0  0  # atno 8010 bound_to 7997
  139.9729  143.5826  152.2406 H   0  0  0  0  0  0  0  0  0  0  0  0  # atno 10167 bound_to 10162
  157.6857  131.0047  150.2373 H   0  0  0  0  0  0  0  0  0  0  0  0  # atno 10718 bound_to 10713
  153.2016  135.6857  153.8224 H   0  0  0  0  0  0  0  0  0  0  0  0  # atno 10763 bound_to 10752
  153.7488  135.3227  155.3318 H   0  0  0  0  0  0  0  0  0  0  0  0  # atno 10764 bound_to 10752
  154.8174  135.4676  154.0785 H   0  0  0  0  0  0  0  0  0  0  0  0  # atno 10765 bound_to 10752
  140.3492  134.2247  155.7681 H   0  0  0  0  0  0  0  0  0  0  0  0  # atno 11005 bound_to 11000
  145.6179  139.1520  143.3039 LP  0  0  0  0  0  0  0  0  0  0  0  0  # atno 17320 bound_to 7965
  146.1943  140.6291  142.9131 LP  0  0  0  0  0  0  0  0  0  0  0  0  # atno 17321 bound_to 7965
  139.6467  144.7658  151.2229 LP  0  0  0  0  0  0  0  0  0  0  0  0  # atno 17342 bound_to 10162
  140.7516  143.6227  150.8498 LP  0  0  0  0  0  0  0  0  0  0  0  0  # atno 17343 bound_to 10162
  156.2994  130.3756  149.7764 LP  0  0  0  0  0  0  0  0  0  0  0  0  # atno 17370 bound_to 10713
  156.5399  130.8295  151.3265 LP  0  0  0  0  0  0  0  0  0  0  0  0  # atno 17371 bound_to 10713
  141.2017  133.7956  157.0428 LP  0  0  0  0  0  0  0  0  0  0  0  0  # atno 17394 bound_to 11000
  140.0717  134.9698  157.1478 LP  0  0  0  0  0  0  0  0  0  0  0  0  # atno 17395 bound_to 11000

$$$$
