AV-unprocessed.smi:171|AV-procd|sdf|1421|dock5
  -GOLD-   2262019193D 1   1.00000     0.00000
 Structure written by MMmdl.
 56 59  0  0  0  0  0  0  0  0  1 V2000
  152.6803  141.9783  160.4705 C   0  0  0  0  0  0  0  0  0  0  0  0
  152.4055  142.1731  158.9710 C   0  0  0  0  0  0  0  0  0  0  0  0
  152.3629  143.6710  158.6309 C   0  0  0  0  0  0  0  0  0  0  0  0
  151.1193  141.4688  158.4788 C   0  0  0  0  0  0  0  0  0  0  0  0
  151.0801  141.1439  156.9543 C   0  0  1  0  0  0  0  0  0  0  0  0
  151.9150  139.9143  156.5166 C   0  0  0  0  0  0  0  0  0  0  0  0
  152.8900  139.5486  157.1694 O   0  0  0  0  0  0  0  0  0  0  0  0
  151.5429  139.2627  155.4000 N   0  0  0  0  0  0  0  0  0  0  0  0
  150.3754  139.5743  154.5714 C   0  0  0  0  0  0  0  0  0  0  0  0
  149.6651  140.8858  154.9687 C   0  0  0  0  0  0  0  0  0  0  0  0
  149.7090  141.0874  156.4153 N   0  0  0  0  0  0  0  0  0  0  0  0
  148.7335  140.3970  157.0670 C   0  0  0  0  0  0  0  0  0  0  0  0
  147.5456  140.9877  157.3661 N   0  0  0  0  0  0  0  0  0  0  0  0
  146.5992  140.3085  158.0200 C   0  0  0  0  0  0  0  0  0  0  0  0
  146.6321  139.0514  158.4657 N   0  0  0  0  0  0  0  0  0  0  0  0
  147.8227  138.4544  158.1728 C   0  0  0  0  0  0  0  0  0  0  0  0
  148.9154  139.0488  157.4810 C   0  0  0  0  0  0  0  0  0  0  0  0
  149.9537  138.1336  157.3576 N   0  0  0  0  0  0  0  0  0  0  0  0
  149.5025  137.0606  157.9480 C   0  0  0  0  0  0  0  0  0  0  0  0
  148.2356  137.1689  158.4763 N   0  0  0  0  0  0  0  0  0  0  0  0
  147.4963  136.1394  159.1910 C   0  0  0  0  0  0  0  0  0  0  0  0
  147.6388  136.2375  160.7329 C   0  0  2  0  0  0  0  0  0  0  0  0
  148.8836  136.8513  161.0234 O   0  0  0  0  0  0  0  0  0  0  0  0
  147.6153  134.8799  161.4321 C   0  0  0  0  0  0  0  0  0  0  0  0
  147.0252  135.2039  162.7957 C   0  0  0  0  0  0  0  0  0  0  0  0
  146.0238  136.1523  162.4743 O   0  0  0  0  0  0  0  0  0  0  0  0
  146.5325  137.0366  161.4794 C   0  0  2  0  0  0  0  0  0  0  0  0
  145.3459  137.5328  160.6386 C   0  0  0  0  0  0  0  0  0  0  0  0
  151.8505  142.3420  161.0773 H   0  0  0  0  0  0  0  0  0  0  0  0
  153.5762  142.5184  160.7776 H   0  0  0  0  0  0  0  0  0  0  0  0
  152.8434  140.9289  160.7142 H   0  0  0  0  0  0  0  0  0  0  0  0
  153.2482  141.7475  158.4245 H   0  0  0  0  0  0  0  0  0  0  0  0
  151.5393  144.1699  159.1430 H   0  0  0  0  0  0  0  0  0  0  0  0
  152.2348  143.8304  157.5599 H   0  0  0  0  0  0  0  0  0  0  0  0
  153.2877  144.1681  158.9256 H   0  0  0  0  0  0  0  0  0  0  0  0
  150.9354  140.5711  159.0708 H   0  0  0  0  0  0  0  0  0  0  0  0
  150.2937  142.1387  158.7218 H   0  0  0  0  0  0  0  0  0  0  0  0
  151.5363  141.9922  156.4425 H   0  0  0  0  0  0  0  0  0  0  0  0
  152.0971  138.4668  155.1190 H   0  0  0  0  0  0  0  0  0  0  0  0
  150.6665  139.6002  153.5210 H   0  0  0  0  0  0  0  0  0  0  0  0
  149.6787  138.7425  154.6803 H   0  0  0  0  0  0  0  0  0  0  0  0
  150.1739  141.7287  154.4995 H   0  0  0  0  0  0  0  0  0  0  0  0
  148.6475  140.9012  154.5766 H   0  0  0  0  0  0  0  0  0  0  0  0
  145.6860  140.8505  158.2155 H   0  0  0  0  0  0  0  0  0  0  0  0
  150.0886  136.1559  158.0189 H   0  0  0  0  0  0  0  0  0  0  0  0
  146.4476  136.2092  158.8993 H   0  0  0  0  0  0  0  0  0  0  0  0
  147.8530  135.1725  158.8353 H   0  0  0  0  0  0  0  0  0  0  0  0
  149.4453  136.7617  160.2689 H   0  0  0  0  0  0  0  0  0  0  0  0
  146.9375  134.2018  160.9121 H   0  0  0  0  0  0  0  0  0  0  0  0
  148.5906  134.3943  161.4896 H   0  0  0  0  0  0  0  0  0  0  0  0
  146.6079  134.3294  163.2951 H   0  0  0  0  0  0  0  0  0  0  0  0
  147.7706  135.6578  163.4507 H   0  0  0  0  0  0  0  0  0  0  0  0
  146.9674  137.8937  161.9971 H   0  0  0  0  0  0  0  0  0  0  0  0
  145.6695  138.2306  159.8662 H   0  0  0  0  0  0  0  0  0  0  0  0
  144.6239  138.0550  161.2664 H   0  0  0  0  0  0  0  0  0  0  0  0
  144.8208  136.7076  160.1570 H   0  0  0  0  0  0  0  0  0  0  0  0
  1  2  1  0  0  0  0
  1 29  1  0  0  0  0
  1 30  1  0  0  0  0
  1 31  1  0  0  0  0
  2  3  1  0  0  0  0
  2  4  1  0  0  0  0
  2 32  1  0  0  0  0
  3 33  1  0  0  0  0
  3 34  1  0  0  0  0
  3 35  1  0  0  0  0
  4  5  1  0  0  0  0
  4 36  1  0  0  0  0
  4 37  1  0  0  0  0
  5 11  1  0  0  0  0
  5  6  1  0  0  0  0
  5 38  1  0  0  0  0
  6  7  2  0  0  0  0
  6  8  1  0  0  0  0
  8  9  1  0  0  0  0
  8 39  1  0  0  0  0
  9 10  1  0  0  0  0
  9 40  1  0  0  0  0
  9 41  1  0  0  0  0
 10 11  1  0  0  0  0
 10 42  1  0  0  0  0
 10 43  1  0  0  0  0
 11 12  1  0  0  0  0
 12 17  1  0  0  0  0
 12 13  2  0  0  0  0
 13 14  1  0  0  0  0
 14 15  2  0  0  0  0
 14 44  1  0  0  0  0
 15 16  1  0  0  0  0
 16 20  1  0  0  0  0
 16 17  2  0  0  0  0
 17 18  1  0  0  0  0
 18 19  2  0  0  0  0
 19 20  1  0  0  0  0
 19 45  1  0  0  0  0
 20 21  1  0  0  0  0
 21 22  1  0  0  0  0
 21 46  1  0  0  0  0
 21 47  1  0  0  0  0
 22 27  1  0  0  0  0
 22 23  1  0  0  0  0
 22 24  1  0  0  0  0
 23 48  1  0  0  0  0
 24 25  1  0  0  0  0
 24 49  1  0  0  0  0
 24 50  1  0  0  0  0
 25 26  1  0  0  0  0
 25 51  1  0  0  0  0
 25 52  1  0  0  0  0
 26 27  1  0  0  0  0
 27 28  1  0  0  0  0
 27 53  1  0  0  0  0
 28 54  1  0  0  0  0
 28 55  1  0  0  0  0
 28 56  1  0  0  0  0
M  END
> <s_m_source_file>
AV-unprocessed.smi

> <i_m_source_file_index>
171

> <i_lp_mmshare_version>
43012

> <i_f3d_flags>
0

> <s_epik_input>
W0NIM11bQ0hdKFtDSDNdKVtDSDJdW0NAQEhdMUMoPU8pW05IXVtDSDJdW0NIMl1OMWMobltjSF1uMiljKGMyMyluW2NIXW4zW0NIMl1bQ0BAXTQoW09IXSlbQ0gyXVtDSDJdT1tDQEhdNFtDSDNd

> <s_epik_cmdline>
J2VwaWtfcHl0aG9uJywgJy1waCcsICc3LjAnLCAnLXRuJywgJzgnLCAnLW1hJywgJzIwMCcsICctbWV0YWxfYmluZGluZycsICctaW1hZScsICc8aW5maWxlLm1hZT4nLCAnLW9tYWUnLCAnPG91dGZpbGUubWFlPic=

> <r_lp_tautomer_probability>
1

> <r_epik_Ionization_Penalty>
0.000670584

> <r_epik_Ionization_Penalty_Charging>
0

> <r_epik_Ionization_Penalty_Neutral>
0.000670584

> <r_epik_State_Penalty>
0.000304767

> <r_epik_Charging_Adjusted_Penalty>
0.000304767

> <i_epik_Tot_Q>
0

> <i_epik_Tot_abs_Q>
0

> <r_epik_Metal_State_Penalty>
-0

> <b_epik_Metal_Only>
0

> <s_lp_Force_Field>
OPLS_2005

> <r_lp_Energy>
45.2633

> <b_lp_Chiralities_Consistent>
1

> <s_lp_Variant>
AV-unprocessed.smi:171-8

> <Gold.Version>
5.8.1

> <Gold.Id.Protein>
6NUR|6NUR_protein|mol2

> <Gold.PLP.Fitness>
43.5501

> <Gold.PLP.PLP>
-40.9594

> <Gold.PLP.part.hbond>
-2.8924

> <Gold.PLP.part.metal>
0.0000

> <Gold.PLP.part.buried>
-3.4580

> <Gold.PLP.part.nonpolar>
-35.1339

> <Gold.PLP.part.repulsive>
0.2396

> <Gold.PLP.ligand.clash>
0.0000

> <Gold.PLP.ligand.torsion>
1.8845

> <Gold.PLP.Chemscore.Hbond>
1.9920

> <Gold.PLP.Chemscore.CHOScore>
0.0000

> <Gold.PLP.Chemscore.Metal>
0.0000

> <Gold.Chemscore.Hbonds>
donor molecule, donor type, donor heavy atom, donor atom, acceptor molecule, acceptor atom, score
      P1  H  6931  6943       L1    23  1.00
      P1  H  7997  8009       L1     7  1.00

> <Gold.PLP.Chemscore.Internal.Correction>
0.3837

> <Gold.Rescore>
     Score         DG    S(hbond)    S(metal)    S(lipo)     H(rot)  DE(clash)    DE(int)     intcor
     11.04     -16.40       1.83        0.00      98.00       2.61       0.14       5.21       ----

> <Gold.Chemscore.Fitness>
11.0437

> <Gold.Chemscore.DG>
-16.3973

> <Gold.Chemscore.ZeroCoef>
-5.4800

> <Gold.Chemscore.Hbond>
1.8343

> <Gold.Chemscore.Metal>
0.0000

> <Gold.Chemscore.Lipo>
97.9977

> <Gold.Chemscore.Internal_Hbond>
0.0000

> <Gold.Chemscore.DEClash>
0.1423

> <Gold.Chemscore.DEInternal>
5.2113

> <Gold.Chemscore.Rot>
2.6074

> <Gold.Chemscore.Internal.Correction>
   9.000000E+99

> <Gold.Chemscore.Hbonds>
donor molecule, donor type, donor heavy atom, donor atom, acceptor molecule, acceptor atom, score
      P1  H  6931  6943       L1    23  0.87
      P1  H  7997  8009       L1     7  0.94

> <Gold.Chemscore.Hbond.Weighted>
-6.1264

> <Gold.Chemscore.Metal.Weighted>
-0.0000

> <Gold.Chemscore.Lipo.Weighted>
-11.4657

> <Gold.Chemscore.Internal_Hbond.Weighted>
0.0000

> <Gold.Chemscore.DEClash.Weighted>
0.1423

> <Gold.Chemscore.DEInternal.Weighted>
5.2113

> <Gold.Chemscore.Rot.Weighted>
6.6748

> <Gold.Chemscore.Internal.Correction.Weighted>
   9.000000E+99

> <Gold.Protein.RotatedTorsions>
[ 6907 6896 6895 6894 ] final   54.28 input  -60.11 | X-H torsion
[ 7974 7965 7964 7962 ] final -155.86 input  175.53 | X-H torsion
[ 8008 7997 7996 7995 ] final  178.40 input   59.86 | X-H torsion
[ 10167 10162 10161 10158 ] final  -45.98 input  -65.29 | X-H torsion
[ 10718 10713 10712 10709 ] final  118.78 input   66.30 | X-H torsion
[ 10763 10752 10751 10750 ] final   58.16 input  -60.55 | X-H torsion
[ 11005 11000 10999 10996 ] final    9.23 input  -57.11 | X-H torsion

> <Gold.Protein.ActiveResidues>
 VAL166  LYS551  ARG553  GLY616  TRP617  ASP618  TYR619  PRO620  LYS621  CYS622 
 ASP623  PHE694  ASN695  SER759  ASP760  ASP761  ALA762  ILE779  LEU786  VAL792 
 PHE793  MET794  SER795  GLU796  ALA797  LYS798  CYS799  TRP800  GLU811  SER814 

> <Gold.Protein.RotatedAtoms>
  152.3423  134.7118  160.0260 H   0  0  0  0  0  0  0  0  0  0  0  0  # atno 6907 bound_to 6896
  151.7499  133.3321  159.3397 H   0  0  0  0  0  0  0  0  0  0  0  0  # atno 6908 bound_to 6896
  150.7487  134.6134  159.6142 H   0  0  0  0  0  0  0  0  0  0  0  0  # atno 6909 bound_to 6896
  144.7620  140.4190  143.5970 H   0  0  0  0  0  0  0  0  0  0  0  0  # atno 7974 bound_to 7965
  156.0551  140.1334  157.0006 H   0  0  0  0  0  0  0  0  0  0  0  0  # atno 8008 bound_to 7997
  154.4453  140.1003  156.6504 H   0  0  0  0  0  0  0  0  0  0  0  0  # atno 8009 bound_to 7997
  155.5464  140.3462  155.4460 H   0  0  0  0  0  0  0  0  0  0  0  0  # atno 8010 bound_to 7997
  140.6836  143.2853  151.3716 H   0  0  0  0  0  0  0  0  0  0  0  0  # atno 10167 bound_to 10162
  157.6006  131.1051  150.7805 H   0  0  0  0  0  0  0  0  0  0  0  0  # atno 10718 bound_to 10713
  152.9865  135.5616  154.5507 H   0  0  0  0  0  0  0  0  0  0  0  0  # atno 10763 bound_to 10752
  154.4944  135.2794  155.1473 H   0  0  0  0  0  0  0  0  0  0  0  0  # atno 10764 bound_to 10752
  154.2929  135.6322  153.5445 H   0  0  0  0  0  0  0  0  0  0  0  0  # atno 10765 bound_to 10752
  140.5281  134.0493  155.7865 H   0  0  0  0  0  0  0  0  0  0  0  0  # atno 11005 bound_to 11000
  145.6590  139.1578  143.2819 LP  0  0  0  0  0  0  0  0  0  0  0  0  # atno 17320 bound_to 7965
  146.1692  140.6672  142.9241 LP  0  0  0  0  0  0  0  0  0  0  0  0  # atno 17321 bound_to 7965
  139.6177  144.0969  152.2361 LP  0  0  0  0  0  0  0  0  0  0  0  0  # atno 17342 bound_to 10162
  140.0404  144.6012  150.7416 LP  0  0  0  0  0  0  0  0  0  0  0  0  # atno 17343 bound_to 10162
  156.8204  130.4982  149.5344 LP  0  0  0  0  0  0  0  0  0  0  0  0  # atno 17370 bound_to 10713
  156.1079  130.6018  151.0000 LP  0  0  0  0  0  0  0  0  0  0  0  0  # atno 17371 bound_to 10713
  141.1297  133.9323  157.2562 LP  0  0  0  0  0  0  0  0  0  0  0  0  # atno 17394 bound_to 11000
  139.9569  135.0163  156.9153 LP  0  0  0  0  0  0  0  0  0  0  0  0  # atno 17395 bound_to 11000

$$$$
