AV-unprocessed.smi:652|AV-procd|sdf|3193|dock9
  -GOLD-   22720 0123D 1   1.00000     0.00000
 Structure written by MMmdl.
 48 49  0  0  0  0  0  0  0  0  2 V2000
  147.5444  127.4498  150.8663 C   0  0  0  0  0  0  0  0  0  0  0  0
  146.9689  128.2514  152.0440 C   0  0  0  0  0  0  0  0  0  0  0  0
  145.6293  128.9068  151.6825 C   0  0  0  0  0  0  0  0  0  0  0  0
  147.9140  129.2807  152.4677 N   0  0  0  0  0  0  0  0  0  0  0  0
  148.4256  129.4089  153.7018 C   0  0  0  0  0  0  0  0  0  0  0  0
  148.1422  128.6538  154.6323 O   0  0  0  0  0  0  0  0  0  0  0  0
  149.4030  130.5725  153.9006 C   0  0  0  0  0  0  0  0  0  0  0  0
  148.7608  131.8143  154.5555 C   0  0  0  0  0  0  0  0  0  0  0  0
  149.7695  132.7751  155.0786 N   0  3  2  0  0  0  0  0  0  0  0  0
  150.9003  132.1175  155.7786 C   0  0  0  0  0  0  0  0  0  0  0  0
  150.4985  131.6829  157.2002 C   0  0  0  0  0  0  0  0  0  0  0  0
  150.0158  132.8087  157.9235 O   0  0  0  0  0  0  0  0  0  0  0  0
  148.8541  133.3829  157.3317 C   0  0  1  0  0  0  0  0  0  0  0  0
  148.3794  134.5387  158.2228 C   0  0  0  0  0  0  0  0  0  0  0  0
  147.7842  134.0524  159.4597 N   0  0  0  0  0  0  0  0  0  0  0  0
  147.6622  134.8910  160.5754 C   0  0  0  0  0  0  0  0  0  0  0  0
  147.2149  134.3433  161.7941 C   0  0  0  0  0  0  0  0  0  0  0  0
  147.0969  135.2100  162.8942 C   0  0  0  0  0  0  0  0  0  0  0  0
  147.4360  136.5601  162.6913 C   0  0  0  0  0  0  0  0  0  0  0  0
  147.8616  137.0324  161.4980 N   0  0  0  0  0  0  0  0  0  0  0  0
  147.9729  136.2060  160.4515 N   0  0  0  0  0  0  0  0  0  0  0  0
  149.2190  133.8735  155.9141 C   0  0  0  0  0  0  0  0  0  0  0  0
  146.8528  126.6681  150.5512 H   0  0  0  0  0  0  0  0  0  0  0  0
  148.4834  126.9659  151.1374 H   0  0  0  0  0  0  0  0  0  0  0  0
  147.7361  128.0907  150.0050 H   0  0  0  0  0  0  0  0  0  0  0  0
  146.7887  127.5668  152.8749 H   0  0  0  0  0  0  0  0  0  0  0  0
  144.8945  128.1578  151.3863 H   0  0  0  0  0  0  0  0  0  0  0  0
  145.7398  129.6089  150.8552 H   0  0  0  0  0  0  0  0  0  0  0  0
  145.2167  129.4530  152.5314 H   0  0  0  0  0  0  0  0  0  0  0  0
  148.2009  129.9461  151.7645 H   0  0  0  0  0  0  0  0  0  0  0  0
  150.2299  130.2177  154.5172 H   0  0  0  0  0  0  0  0  0  0  0  0
  149.8198  130.8246  152.9259 H   0  0  0  0  0  0  0  0  0  0  0  0
  148.0820  132.3061  153.8586 H   0  0  0  0  0  0  0  0  0  0  0  0
  148.1484  131.4819  155.3953 H   0  0  0  0  0  0  0  0  0  0  0  0
  151.2720  131.2690  155.2031 H   0  0  0  0  0  0  0  0  0  0  0  0
  151.7249  132.8289  155.8406 H   0  0  0  0  0  0  0  0  0  0  0  0
  149.7439  130.8954  157.1777 H   0  0  0  0  0  0  0  0  0  0  0  0
  151.3631  131.2755  157.7241 H   0  0  0  0  0  0  0  0  0  0  0  0
  148.0601  132.6366  157.2748 H   0  0  0  0  0  0  0  0  0  0  0  0
  149.2095  135.2089  158.4505 H   0  0  0  0  0  0  0  0  0  0  0  0
  147.6308  135.1236  157.6864 H   0  0  0  0  0  0  0  0  0  0  0  0
  147.4802  133.0912  159.5153 H   0  0  0  0  0  0  0  0  0  0  0  0
  146.9684  133.2954  161.8845 H   0  0  0  0  0  0  0  0  0  0  0  0
  146.7584  134.8543  163.8560 H   0  0  0  0  0  0  0  0  0  0  0  0
  147.3656  137.2740  163.4986 H   0  0  0  0  0  0  0  0  0  0  0  0
  149.9801  134.6517  155.9887 H   0  0  0  0  0  0  0  0  0  0  0  0
  148.3614  134.3431  155.4346 H   0  0  0  0  0  0  0  0  0  0  0  0
  150.1680  133.2103  154.2588 H   0  0  0  0  0  0  0  0  0  0  0  0
  1  2  1  0  0  0  0
  1 23  1  0  0  0  0
  1 24  1  0  0  0  0
  1 25  1  0  0  0  0
  2  3  1  0  0  0  0
  2  4  1  0  0  0  0
  2 26  1  0  0  0  0
  3 27  1  0  0  0  0
  3 28  1  0  0  0  0
  3 29  1  0  0  0  0
  4  5  1  0  0  0  0
  4 30  1  0  0  0  0
  5  6  2  0  0  0  0
  5  7  1  0  0  0  0
  7  8  1  0  0  0  0
  7 31  1  0  0  0  0
  7 32  1  0  0  0  0
  8  9  1  0  0  0  0
  8 33  1  0  0  0  0
  8 34  1  0  0  0  0
  9 22  1  0  0  0  0
  9 10  1  0  0  0  0
  9 48  1  0  0  0  0
 10 11  1  0  0  0  0
 10 35  1  0  0  0  0
 10 36  1  0  0  0  0
 11 12  1  0  0  0  0
 11 37  1  0  0  0  0
 11 38  1  0  0  0  0
 12 13  1  0  0  0  0
 13 14  1  0  0  0  0
 13 22  1  0  0  0  0
 13 39  1  0  0  0  0
 14 15  1  0  0  0  0
 14 40  1  0  0  0  0
 14 41  1  0  0  0  0
 15 16  1  0  0  0  0
 15 42  1  0  0  0  0
 16 21  1  0  0  0  0
 16 17  2  0  0  0  0
 17 18  1  0  0  0  0
 17 43  1  0  0  0  0
 18 19  2  0  0  0  0
 18 44  1  0  0  0  0
 19 20  1  0  0  0  0
 19 45  1  0  0  0  0
 20 21  2  0  0  0  0
 22 46  1  0  0  0  0
 22 47  1  0  0  0  0
M  CHG  1   9   1
M  END
> <s_m_source_file>
AV-unprocessed.smi

> <i_m_source_file_index>
652

> <i_lp_mmshare_version>
43012

> <i_f3d_flags>
0

> <s_epik_input>
W0NIM11bQ0hdKFtDSDNdKVtOSF1DKD1PKVtDSDJdW0NIMl1OMVtDSDJdW0NIMl1PW0NASF0oW0NIMl0xKVtDSDJdW05IXWMyW2NIXVtjSF1bY0hdbm4y

> <s_epik_cmdline>
J2VwaWtfcHl0aG9uJywgJy1waCcsICc3LjAnLCAnLXRuJywgJzgnLCAnLW1hJywgJzIwMCcsICctbWV0YWxfYmluZGluZycsICctaW1hZScsICc8aW5maWxlLm1hZT4nLCAnLW9tYWUnLCAnPG91dGZpbGUubWFlPic=

> <r_lp_tautomer_probability>
0.999978

> <r_epik_Ionization_Penalty>
0.433079

> <r_epik_Ionization_Penalty_Charging>
0.413784

> <r_epik_Ionization_Penalty_Neutral>
0.0192945

> <r_epik_State_Penalty>
0.425138

> <r_epik_Charging_Adjusted_Penalty>
0.838922

> <i_epik_Tot_Q>
1

> <i_epik_Tot_abs_Q>
1

> <r_epik_Metal_State_Penalty>
0.422073

> <b_epik_Metal_Only>
0

> <s_lp_Force_Field>
OPLS_2005

> <r_lp_Energy>
24.1608

> <b_lp_Chiralities_Consistent>
1

> <s_lp_Variant>
AV-unprocessed.smi:652-2

> <Gold.Version>
5.8.1

> <Gold.Id.Protein>
6NUR|6NUR_protein|mol2

> <Gold.PLP.Fitness>
50.6750

> <Gold.PLP.PLP>
-40.6511

> <Gold.PLP.part.hbond>
-4.0000

> <Gold.PLP.part.metal>
0.0000

> <Gold.PLP.part.buried>
-6.2299

> <Gold.PLP.part.nonpolar>
-31.2359

> <Gold.PLP.part.repulsive>
0.1312

> <Gold.PLP.ligand.clash>
0.0000

> <Gold.PLP.ligand.torsion>
0.6878

> <Gold.PLP.Chemscore.Hbond>
3.7613

> <Gold.PLP.Chemscore.CHOScore>
0.0000

> <Gold.PLP.Chemscore.Metal>
0.0000

> <Gold.Chemscore.Hbonds>
donor molecule, donor type, donor heavy atom, donor atom, acceptor molecule, acceptor atom, score
      L1  H     4    30       P1 10747  1.00
      P1  H  6896  6907       L1    12  1.00
      P1  H  6931  6943       L1    20  1.00
      P1  H  6934  6947       L1    20  0.48

> <Gold.PLP.Chemscore.Internal.Correction>
0.1157

> <Gold.Rescore>
     Score         DG    S(hbond)    S(metal)    S(lipo)     H(rot)  DE(clash)    DE(int)     intcor
     19.54     -20.17       3.08        0.00      87.11       2.26       0.00       0.63       ----

> <Gold.Chemscore.Fitness>
19.5379

> <Gold.Chemscore.DG>
-20.1702

> <Gold.Chemscore.ZeroCoef>
-5.4800

> <Gold.Chemscore.Hbond>
3.0785

> <Gold.Chemscore.Metal>
0.0000

> <Gold.Chemscore.Lipo>
87.1116

> <Gold.Chemscore.Internal_Hbond>
0.0000

> <Gold.Chemscore.DEClash>
0.0000

> <Gold.Chemscore.DEInternal>
0.6323

> <Gold.Chemscore.Rot>
2.2594

> <Gold.Chemscore.Internal.Correction>
   9.000000E+99

> <Gold.Chemscore.Hbonds>
donor molecule, donor type, donor heavy atom, donor atom, acceptor molecule, acceptor atom, score
      L1  H     4    30       P1 10747  0.82
      P1  H  6896  6907       L1    12  0.88
      P1  H  6931  6943       L1    20  0.44
      P1  H  6934  6947       L1    20  0.38

> <Gold.Chemscore.Hbond.Weighted>
-10.2823

> <Gold.Chemscore.Metal.Weighted>
-0.0000

> <Gold.Chemscore.Lipo.Weighted>
-10.1921

> <Gold.Chemscore.Internal_Hbond.Weighted>
0.0000

> <Gold.Chemscore.DEClash.Weighted>
0.0000

> <Gold.Chemscore.DEInternal.Weighted>
0.6323

> <Gold.Chemscore.Rot.Weighted>
5.7841

> <Gold.Chemscore.Internal.Correction.Weighted>
   9.000000E+99

> <Gold.Protein.RotatedTorsions>
[ 6907 6896 6895 6894 ] final -116.36 input  -60.11 | X-H torsion
[ 7974 7965 7964 7962 ] final  -24.19 input  175.53 | X-H torsion
[ 8008 7997 7996 7995 ] final  173.79 input   59.86 | X-H torsion
[ 10167 10162 10161 10158 ] final -134.21 input  -65.29 | X-H torsion
[ 10718 10713 10712 10709 ] final  -66.66 input   66.30 | X-H torsion
[ 10763 10752 10751 10750 ] final  147.79 input  -60.55 | X-H torsion
[ 11005 11000 10999 10996 ] final  -42.89 input  -57.11 | X-H torsion

> <Gold.Protein.ActiveResidues>
 VAL166  LYS551  ARG553  GLY616  TRP617  ASP618  TYR619  PRO620  LYS621  CYS622 
 ASP623  PHE694  ASN695  SER759  ASP760  ASP761  ALA762  ILE779  LEU786  VAL792 
 PHE793  MET794  SER795  GLU796  ALA797  LYS798  CYS799  TRP800  GLU811  SER814 

> <Gold.Protein.RotatedAtoms>
  150.8050  133.8527  159.3209 H   0  0  0  0  0  0  0  0  0  0  0  0  # atno 6907 bound_to 6896
  151.6329  135.1019  160.0135 H   0  0  0  0  0  0  0  0  0  0  0  0  # atno 6908 bound_to 6896
  152.4140  133.6968  159.6457 H   0  0  0  0  0  0  0  0  0  0  0  0  # atno 6909 bound_to 6896
  146.1570  140.4719  142.8587 H   0  0  0  0  0  0  0  0  0  0  0  0  # atno 7974 bound_to 7965
  156.1040  140.1451  156.9429 H   0  0  0  0  0  0  0  0  0  0  0  0  # atno 8008 bound_to 7997
  154.4721  140.0906  156.7216 H   0  0  0  0  0  0  0  0  0  0  0  0  # atno 8009 bound_to 7997
  155.4711  140.3442  155.4328 H   0  0  0  0  0  0  0  0  0  0  0  0  # atno 8010 bound_to 7997
  139.8903  143.6730  152.2613 H   0  0  0  0  0  0  0  0  0  0  0  0  # atno 10167 bound_to 10162
  156.0600  130.4265  150.1741 H   0  0  0  0  0  0  0  0  0  0  0  0  # atno 10718 bound_to 10713
  154.0440  135.2887  155.3350 H   0  0  0  0  0  0  0  0  0  0  0  0  # atno 10763 bound_to 10752
  154.6911  135.5226  153.8397 H   0  0  0  0  0  0  0  0  0  0  0  0  # atno 10764 bound_to 10752
  153.0588  135.6605  154.0642 H   0  0  0  0  0  0  0  0  0  0  0  0  # atno 10765 bound_to 10752
  141.0346  133.6805  156.2657 H   0  0  0  0  0  0  0  0  0  0  0  0  # atno 11005 bound_to 11000
  144.7976  140.6152  143.6500 LP  0  0  0  0  0  0  0  0  0  0  0  0  # atno 17320 bound_to 7965
  145.4684  139.1506  143.3827 LP  0  0  0  0  0  0  0  0  0  0  0  0  # atno 17321 bound_to 7965
  139.7115  144.7619  151.1104 LP  0  0  0  0  0  0  0  0  0  0  0  0  # atno 17342 bound_to 10162
  140.7728  143.5324  150.9407 LP  0  0  0  0  0  0  0  0  0  0  0  0  # atno 17343 bound_to 10162
  156.9811  130.9864  151.3437 LP  0  0  0  0  0  0  0  0  0  0  0  0  # atno 17370 bound_to 10713
  157.5601  130.8240  149.8254 LP  0  0  0  0  0  0  0  0  0  0  0  0  # atno 17371 bound_to 10713
  140.6345  134.5230  157.5563 LP  0  0  0  0  0  0  0  0  0  0  0  0  # atno 17394 bound_to 11000
  139.9232  134.8108  156.1148 LP  0  0  0  0  0  0  0  0  0  0  0  0  # atno 17395 bound_to 11000

$$$$
