AV-unprocessed.smi:3168|AV-procd|sdf|12102|dock9
  -GOLD-   2272017533D 1   1.00000     0.00000
 Structure written by MMmdl.
 33 34  0  0  0  0  0  0  0  0  1 V2000
  151.3162  137.7253  154.3805 C   0  0  0  0  0  0  0  0  0  0  0  0
  150.7196  138.5947  155.5065 C   0  0  1  0  0  0  0  0  0  0  0  0
  151.7883  139.3473  156.3211 C   0  0  0  0  0  0  0  0  0  0  0  0
  152.9341  139.4792  155.8889 O   0  0  0  0  0  0  0  0  0  0  0  0
  151.4021  139.8250  157.5153 N   0  0  0  0  0  0  0  0  0  0  0  0
  152.2556  140.5525  158.4467 C   0  0  0  0  0  0  0  0  0  0  0  0
  151.6100  141.8767  158.8855 C   0  0  1  0  0  0  0  0  0  0  0  0
  152.4459  142.6619  159.8940 C   0  0  0  0  0  0  0  0  0  0  0  0
  151.9434  144.0701  159.6731 C   0  0  0  0  0  0  0  0  0  0  0  0
  151.7499  144.0982  158.1596 C   0  0  0  0  0  0  0  0  0  0  0  0
  151.4618  142.7566  157.7731 O   0  0  0  0  0  0  0  0  0  0  0  0
  149.7068  139.5140  154.9973 N   0  0  0  0  0  0  0  0  0  0  0  0
  148.5540  139.2067  154.3033 C   0  0  0  0  0  0  0  0  0  0  0  0
  147.8957  140.3781  154.0607 C   0  0  0  0  0  0  0  0  0  0  0  0
  148.7292  141.3636  154.6583 C   0  0  0  0  0  0  0  0  0  0  0  0
  149.8076  140.8450  155.2220 N   0  0  0  0  0  0  0  0  0  0  0  0
  152.0026  136.9776  154.7794 H   0  0  0  0  0  0  0  0  0  0  0  0
  151.8648  138.3224  153.6509 H   0  0  0  0  0  0  0  0  0  0  0  0
  150.5302  137.1918  153.8452 H   0  0  0  0  0  0  0  0  0  0  0  0
  150.2186  137.9205  156.2027 H   0  0  0  0  0  0  0  0  0  0  0  0
  150.4459  139.6718  157.8005 H   0  0  0  0  0  0  0  0  0  0  0  0
  152.4726  139.9308  159.3169 H   0  0  0  0  0  0  0  0  0  0  0  0
  153.2110  140.7448  157.9581 H   0  0  0  0  0  0  0  0  0  0  0  0
  150.6206  141.6990  159.3105 H   0  0  0  0  0  0  0  0  0  0  0  0
  152.3127  142.3146  160.9191 H   0  0  0  0  0  0  0  0  0  0  0  0
  153.5069  142.6023  159.6471 H   0  0  0  0  0  0  0  0  0  0  0  0
  150.9862  144.2094  160.1781 H   0  0  0  0  0  0  0  0  0  0  0  0
  152.6340  144.8347  160.0296 H   0  0  0  0  0  0  0  0  0  0  0  0
  150.9544  144.7790  157.8566 H   0  0  0  0  0  0  0  0  0  0  0  0
  152.6694  144.4101  157.6635 H   0  0  0  0  0  0  0  0  0  0  0  0
  148.2994  138.1897  154.0434 H   0  0  0  0  0  0  0  0  0  0  0  0
  146.9596  140.5102  153.5389 H   0  0  0  0  0  0  0  0  0  0  0  0
  148.5820  142.4326  154.7029 H   0  0  0  0  0  0  0  0  0  0  0  0
  1  2  1  0  0  0  0
  1 17  1  0  0  0  0
  1 18  1  0  0  0  0
  1 19  1  0  0  0  0
  2  3  1  0  0  0  0
  2 12  1  0  0  0  0
  2 20  1  0  0  0  0
  3  4  2  0  0  0  0
  3  5  1  0  0  0  0
  5  6  1  0  0  0  0
  5 21  1  0  0  0  0
  6  7  1  0  0  0  0
  6 22  1  0  0  0  0
  6 23  1  0  0  0  0
  7 11  1  0  0  0  0
  7  8  1  0  0  0  0
  7 24  1  0  0  0  0
  8  9  1  0  0  0  0
  8 25  1  0  0  0  0
  8 26  1  0  0  0  0
  9 10  1  0  0  0  0
  9 27  1  0  0  0  0
  9 28  1  0  0  0  0
 10 11  1  0  0  0  0
 10 29  1  0  0  0  0
 10 30  1  0  0  0  0
 12 16  1  0  0  0  0
 12 13  1  0  0  0  0
 13 14  2  0  0  0  0
 13 31  1  0  0  0  0
 14 15  1  0  0  0  0
 14 32  1  0  0  0  0
 15 16  2  0  0  0  0
 15 33  1  0  0  0  0
M  END
> <s_m_source_file>
AV-unprocessed.smi

> <i_m_source_file_index>
3168

> <i_lp_mmshare_version>
43012

> <i_f3d_flags>
0

> <s_epik_input>
bjFbY0hdW2NIXVtjSF1uMVtDQEhdKFtDSDNdKUMoPU8pW05IXVtDSDJdW0NAQEhdMltDSDJdW0NIMl1bQ0gyXU8y

> <s_epik_cmdline>
J2VwaWtfcHl0aG9uJywgJy1waCcsICc3LjAnLCAnLXRuJywgJzgnLCAnLW1hJywgJzIwMCcsICctbWV0YWxfYmluZGluZycsICctaW1hZScsICc8aW5maWxlLm1hZT4nLCAnLW9tYWUnLCAnPG91dGZpbGUubWFlPic=

> <r_lp_tautomer_probability>
1

> <r_epik_Ionization_Penalty>
4.14877e-05

> <r_epik_Ionization_Penalty_Charging>
0

> <r_epik_Ionization_Penalty_Neutral>
4.14877e-05

> <r_epik_State_Penalty>
-0

> <r_epik_Charging_Adjusted_Penalty>
0

> <i_epik_Tot_Q>
0

> <i_epik_Tot_abs_Q>
0

> <r_epik_Metal_State_Penalty>
-0

> <b_epik_Metal_Only>
0

> <s_lp_Force_Field>
OPLS_2005

> <r_lp_Energy>
21.2002

> <b_lp_Chiralities_Consistent>
1

> <s_lp_Variant>
AV-unprocessed.smi:3168-4

> <Gold.Version>
5.8.1

> <Gold.Id.Protein>
6NUR|6NUR_protein|mol2

> <Gold.PLP.Fitness>
41.6299

> <Gold.PLP.PLP>
-34.8823

> <Gold.PLP.part.hbond>
-1.7568

> <Gold.PLP.part.metal>
0.0000

> <Gold.PLP.part.buried>
-0.2426

> <Gold.PLP.part.nonpolar>
-32.4547

> <Gold.PLP.part.repulsive>
0.2462

> <Gold.PLP.ligand.clash>
0.0000

> <Gold.PLP.ligand.torsion>
0.3963

> <Gold.PLP.Chemscore.Hbond>
1.1097

> <Gold.PLP.Chemscore.CHOScore>
1.3673

> <Gold.PLP.Chemscore.Metal>
0.0000

> <Gold.Chemscore.Hbonds>
donor molecule, donor type, donor heavy atom, donor atom, acceptor molecule, acceptor atom, score
      P1  H  7997  8008       L1     4  1.00
      L1  C    15    33       P1  8028  1.00

> <Gold.PLP.Chemscore.Internal.Correction>
0.1095

> <Gold.Rescore>
     Score         DG    S(hbond)    S(metal)    S(lipo)     H(rot)  DE(clash)    DE(int)     intcor
     13.43     -15.09       1.00        0.00      88.80       1.61       0.07       1.60       ----

> <Gold.Chemscore.Fitness>
13.4251

> <Gold.Chemscore.DG>
-15.0893

> <Gold.Chemscore.ZeroCoef>
-5.4800

> <Gold.Chemscore.Hbond>
0.9999

> <Gold.Chemscore.Metal>
0.0000

> <Gold.Chemscore.Lipo>
88.8001

> <Gold.Chemscore.Internal_Hbond>
0.0000

> <Gold.Chemscore.DEClash>
0.0650

> <Gold.Chemscore.DEInternal>
1.5992

> <Gold.Chemscore.Rot>
1.6094

> <Gold.Chemscore.Internal.Correction>
   9.000000E+99

> <Gold.Chemscore.Hbonds>
donor molecule, donor type, donor heavy atom, donor atom, acceptor molecule, acceptor atom, score
      P1  H  7997  8008       L1     4  0.99

> <Gold.Chemscore.Hbond.Weighted>
-3.3398

> <Gold.Chemscore.Metal.Weighted>
-0.0000

> <Gold.Chemscore.Lipo.Weighted>
-10.3896

> <Gold.Chemscore.Internal_Hbond.Weighted>
0.0000

> <Gold.Chemscore.DEClash.Weighted>
0.0650

> <Gold.Chemscore.DEInternal.Weighted>
1.5992

> <Gold.Chemscore.Rot.Weighted>
4.1201

> <Gold.Chemscore.Internal.Correction.Weighted>
   9.000000E+99

> <Gold.Protein.RotatedTorsions>
[ 6907 6896 6895 6894 ] final  153.34 input  -60.11 | X-H torsion
[ 7974 7965 7964 7962 ] final  121.79 input  175.53 | X-H torsion
[ 8008 7997 7996 7995 ] final  -48.56 input   59.86 | X-H torsion
[ 10167 10162 10161 10158 ] final -178.53 input  -65.29 | X-H torsion
[ 10718 10713 10712 10709 ] final  178.62 input   66.30 | X-H torsion
[ 10763 10752 10751 10750 ] final  176.55 input  -60.55 | X-H torsion
[ 11005 11000 10999 10996 ] final  171.58 input  -57.11 | X-H torsion

> <Gold.Protein.ActiveResidues>
 VAL166  LYS551  ARG553  GLY616  TRP617  ASP618  TYR619  PRO620  LYS621  CYS622 
 ASP623  PHE694  ASN695  SER759  ASP760  ASP761  ALA762  ILE779  LEU786  VAL792 
 PHE793  MET794  SER795  GLU796  ALA797  LYS798  CYS799  TRP800  GLU811  SER814 

> <Gold.Protein.RotatedAtoms>
  152.0740  133.4120  159.4471 H   0  0  0  0  0  0  0  0  0  0  0  0  # atno 6907 bound_to 6896
  150.6863  134.3058  159.4735 H   0  0  0  0  0  0  0  0  0  0  0  0  # atno 6908 bound_to 6896
  152.0893  134.9417  160.0623 H   0  0  0  0  0  0  0  0  0  0  0  0  # atno 6909 bound_to 6896
  145.1151  139.3426  143.4743 H   0  0  0  0  0  0  0  0  0  0  0  0  # atno 7974 bound_to 7965
  154.4031  140.1318  156.4359 H   0  0  0  0  0  0  0  0  0  0  0  0  # atno 8008 bound_to 7997
  155.7506  140.3488  155.5128 H   0  0  0  0  0  0  0  0  0  0  0  0  # atno 8009 bound_to 7997
  155.8953  140.1010  157.1379 H   0  0  0  0  0  0  0  0  0  0  0  0  # atno 8010 bound_to 7997
  139.5428  144.2317  152.0929 H   0  0  0  0  0  0  0  0  0  0  0  0  # atno 10167 bound_to 10162
  156.8879  130.9837  151.3053 H   0  0  0  0  0  0  0  0  0  0  0  0  # atno 10718 bound_to 10713
  154.4826  135.2775  155.1559 H   0  0  0  0  0  0  0  0  0  0  0  0  # atno 10763 bound_to 10752
  154.3263  135.6199  153.5534 H   0  0  0  0  0  0  0  0  0  0  0  0  # atno 10764 bound_to 10752
  152.9877  135.5754  154.5230 H   0  0  0  0  0  0  0  0  0  0  0  0  # atno 10765 bound_to 10752
  140.3206  134.7441  157.4061 H   0  0  0  0  0  0  0  0  0  0  0  0  # atno 11005 bound_to 11000
  146.3524  140.1087  142.8605 LP  0  0  0  0  0  0  0  0  0  0  0  0  # atno 17320 bound_to 7965
  145.0803  140.9216  143.4829 LP  0  0  0  0  0  0  0  0  0  0  0  0  # atno 17321 bound_to 7965
  140.1798  144.4855  150.6534 LP  0  0  0  0  0  0  0  0  0  0  0  0  # atno 17342 bound_to 10162
  140.6665  143.2270  151.5731 LP  0  0  0  0  0  0  0  0  0  0  0  0  # atno 17343 bound_to 10162
  157.6102  130.8577  149.8939 LP  0  0  0  0  0  0  0  0  0  0  0  0  # atno 17370 bound_to 10713
  156.0644  130.3694  150.0911 LP  0  0  0  0  0  0  0  0  0  0  0  0  # atno 17371 bound_to 10713
  140.0945  134.5555  155.8411 LP  0  0  0  0  0  0  0  0  0  0  0  0  # atno 17394 bound_to 11000
  141.2087  133.6677  156.6392 LP  0  0  0  0  0  0  0  0  0  0  0  0  # atno 17395 bound_to 11000

$$$$
