#       Name:                AV-unprocessed.smi:607
#       Creating user name   scv26
#       Creation time:       Thu Mar 26 23:56:17 2020


#       File generated by GOLD software.
#

@<TRIPOS>MOLECULE
AV-unprocessed.smi:607
    46    47     1
SMALL
NO_CHARGES


@<TRIPOS>ATOM
      1 ****        -1.1932   2.7127   1.6449 C.3            1 S1                 0.0000
      2 ****        -1.7287   1.3208   1.4643 C.2            1 S1                 0.0000
      3 ****        -3.0153   1.1528   1.2128 N.2            1 S1                 0.0000
      4 ****        -3.1719  -0.1803   1.1003 N.pl3          1 S1                 0.0000
      5 ****        -4.4889  -0.7191   0.8209 C.3            1 S1                 0.0000
      6 ****        -1.9811  -0.8578   1.2772 C.2            1 S1                 0.0000
      7 ****        -1.9097  -2.3500   1.1882 C.3            1 S1                 0.0000
      8 ****        -1.0145   0.0869   1.5194 C.2            1 S1                 0.0000
      9 ****         0.4697  -0.0839   1.7772 C.3            1 S1                 0.0000
     10 ****         0.7370  -0.8667   3.0768 C.3            1 S1                 0.0000
     11 ****         1.1460  -0.7030   0.5428 C.2            1 S1                 0.0000
     12 ****         1.7547  -1.7701   0.6234 O.2            1 S1                 0.0000
     13 ****         1.0234  -0.0136  -0.6041 N.am           1 S1                 0.0000
     14 ****         1.5099  -0.4171  -1.9250 C.3            1 S1                 0.0000
     15 ****         0.9902  -1.7484  -2.2914 C.1            1 S1                 0.0000
     16 ****         0.5814  -2.7920  -2.5790 N.1            1 S1                 0.0000
     17 ****         1.0758   0.6406  -2.9505 C.3            1 S1                 0.0000
     18 ****         2.1512   1.7356  -2.9305 C.3            1 S1                 0.0000
     19 ****         3.3793   1.1270  -2.2415 C.3            1 S1                 0.0000
     20 ****         3.0445  -0.3481  -2.0039 C.3            1 S1                 0.0000
     21 ****        -0.5325   2.9839   0.8213 H              1 S1                 0.0000
     22 ****        -0.6228   2.7939   2.5701 H              1 S1                 0.0000
     23 ****        -1.9932   3.4530   1.6860 H              1 S1                 0.0000
     24 ****        -4.4761  -1.2393  -0.1372 H              1 S1                 0.0000
     25 ****        -5.2318   0.0789   0.7785 H              1 S1                 0.0000
     26 ****        -4.7714  -1.4217   1.6053 H              1 S1                 0.0000
     27 ****        -0.8801  -2.7041   1.1622 H              1 S1                 0.0000
     28 ****        -2.4000  -2.7102   0.2835 H              1 S1                 0.0000
     29 ****        -2.4002  -2.8106   2.0459 H              1 S1                 0.0000
     30 ****         0.9365   0.8933   1.9052 H              1 S1                 0.0000
     31 ****         0.3094  -1.8689   3.0482 H              1 S1                 0.0000
     32 ****         0.3042  -0.3499   3.9338 H              1 S1                 0.0000
     33 ****         1.8064  -0.9681   3.2659 H              1 S1                 0.0000
     34 ****         0.5064   0.8530  -0.5669 H              1 S1                 0.0000
     35 ****         1.0538   0.1923  -3.9452 H              1 S1                 0.0000
     36 ****         0.0764   1.0345  -2.7602 H              1 S1                 0.0000
     37 ****         2.3827   2.0715  -3.9417 H              1 S1                 0.0000
     38 ****         1.8025   2.6043  -2.3709 H              1 S1                 0.0000
     39 ****         4.2872   1.2464  -2.8336 H              1 S1                 0.0000
     40 ****         3.5455   1.6243  -1.2852 H              1 S1                 0.0000
     41 ****         3.5504  -0.7529  -1.1271 H              1 S1                 0.0000
     42 ****         3.3864  -0.9286  -2.8621 H              1 S1                 0.0000
     43 ****        -3.7175   1.8594   1.1254 LP             1 S1                 0.0000
     44 ****         1.8144  -2.2467   1.5006 LP             1 S1                 0.0000
     45 ****         2.1894  -2.1603  -0.1882 LP             1 S1                 0.0000
     46 ****         0.2281  -3.6939  -2.8275 LP             1 S1                 0.0000
@<TRIPOS>BOND
    1    1    2 1     
    2    1   21 1     
    3    1   22 1     
    4    1   23 1     
    5    2    8 1     
    6    2    3 2     
    7    3    4 1     
    8    4    5 1     
    9    4    6 1     
   10    5   24 1     
   11    5   25 1     
   12    5   26 1     
   13    6    7 1     
   14    6    8 2     
   15    7   27 1     
   16    7   28 1     
   17    7   29 1     
   18    8    9 1     
   19    9   10 1     
   20    9   11 1     
   21    9   30 1     
   22   10   31 1     
   23   10   32 1     
   24   10   33 1     
   25   11   12 2     
   26   11   13 am    
   27   13   14 1     
   28   13   34 1     
   29   14   20 1     
   30   14   15 1     
   31   14   17 1     
   32   15   16 3     
   33   17   18 1     
   34   17   35 1     
   35   17   36 1     
   36   18   19 1     
   37   18   37 1     
   38   18   38 1     
   39   19   20 1     
   40   19   39 1     
   41   19   40 1     
   42   20   41 1     
   43   20   42 1     
   44    3   43 1     
   45   12   44 1     
   46   12   45 1     
   47   16   46 1     
@<TRIPOS>SUBSTRUCTURE
      1 S1             1
@<TRIPOS>SET
LONE_PAIRS      STATIC     ATOMS    <user>   **** ""
4 43 44 45 46
DONOR_HYDROGENS      STATIC     ATOMS    <user>   **** ""
1 34
ATOM$BLUE        STATIC     ATOMS    COLORGROUP SYSTEM
4 43 44 45 46
ATOM$RED        STATIC     ATOMS    COLORGROUP SYSTEM
1 34
