AV-unprocessed.smi:1596|AV-procd|sdf|6416|dock3
  -GOLD-   22720 7 53D 1   1.00000     0.00000
 Structure written by MMmdl.
 49 50  0  0  0  0  0  0  0  0  2 V2000
  152.0352  144.9084  160.1398 C   0  0  0  0  0  0  0  0  0  0  0  0
  152.5689  143.9309  159.0816 C   0  0  0  0  0  0  0  0  0  0  0  0
  152.6587  142.5504  159.5634 N   0  0  0  0  0  0  0  0  0  0  0  0
  153.4294  142.2607  160.7728 C   0  0  0  0  0  0  0  0  0  0  0  0
  152.6826  142.6135  162.0676 C   0  0  0  0  0  0  0  0  0  0  0  0
  152.1582  141.4912  158.7670 C   0  0  0  0  0  0  0  0  0  0  0  0
  151.5959  141.6756  157.4787 C   0  0  0  0  0  0  0  0  0  0  0  0
  151.1203  140.5656  156.7507 C   0  0  0  0  0  0  0  0  0  0  0  0
  151.2150  139.2710  157.3012 C   0  0  0  0  0  0  0  0  0  0  0  0
  150.7078  138.1842  156.5381 N   0  0  0  0  0  0  0  0  0  0  0  0
  150.4888  136.9172  156.9304 C   0  0  0  0  0  0  0  0  0  0  0  0
  150.7458  136.4647  158.0457 O   0  0  0  0  0  0  0  0  0  0  0  0
  149.9664  136.1842  155.9366 N   0  0  0  0  0  0  0  0  0  0  0  0
  149.6206  134.7684  156.0259 C   0  0  2  0  0  0  0  0  0  0  0  0
  150.8051  133.9547  156.5878 C   0  0  0  0  0  0  0  0  0  0  0  0
  150.4884  132.4506  156.6212 C   0  0  0  0  0  0  0  0  0  0  0  0
  150.0772  131.9390  155.2299 C   0  0  1  0  0  0  0  0  0  0  0  0
  149.7258  130.5743  155.3137 O   0  0  0  0  0  0  0  0  0  0  0  0
  148.8896  132.7432  154.6732 C   0  0  0  0  0  0  0  0  0  0  0  0
  149.2083  134.2468  154.6364 C   0  0  0  0  0  0  0  0  0  0  0  0
  151.7747  139.1360  158.5933 C   0  0  0  0  0  0  0  0  0  0  0  0
  152.2150  140.2274  159.2552 N   0  3  0  0  0  0  0  0  0  0  0  0
  152.0107  145.9234  159.7432 H   0  0  0  0  0  0  0  0  0  0  0  0
  152.6634  144.9196  161.0307 H   0  0  0  0  0  0  0  0  0  0  0  0
  151.0215  144.6564  160.4477 H   0  0  0  0  0  0  0  0  0  0  0  0
  151.9123  143.9592  158.2116 H   0  0  0  0  0  0  0  0  0  0  0  0
  153.5413  144.2648  158.7186 H   0  0  0  0  0  0  0  0  0  0  0  0
  153.6732  141.1980  160.7861 H   0  0  0  0  0  0  0  0  0  0  0  0
  154.3918  142.7704  160.7354 H   0  0  0  0  0  0  0  0  0  0  0  0
  153.3145  142.4232  162.9353 H   0  0  0  0  0  0  0  0  0  0  0  0
  151.7808  142.0148  162.1874 H   0  0  0  0  0  0  0  0  0  0  0  0
  152.3939  143.6641  162.0952 H   0  0  0  0  0  0  0  0  0  0  0  0
  151.5114  142.6535  157.0302 H   0  0  0  0  0  0  0  0  0  0  0  0
  150.6889  140.7127  155.7714 H   0  0  0  0  0  0  0  0  0  0  0  0
  150.5236  138.3848  155.5659 H   0  0  0  0  0  0  0  0  0  0  0  0
  149.7930  136.6367  155.0510 H   0  0  0  0  0  0  0  0  0  0  0  0
  148.7654  134.6521  156.6947 H   0  0  0  0  0  0  0  0  0  0  0  0
  151.6928  134.1225  155.9759 H   0  0  0  0  0  0  0  0  0  0  0  0
  151.0545  134.2962  157.5932 H   0  0  0  0  0  0  0  0  0  0  0  0
  151.3570  131.8989  156.9824 H   0  0  0  0  0  0  0  0  0  0  0  0
  149.6854  132.2678  157.3369 H   0  0  0  0  0  0  0  0  0  0  0  0
  150.9241  132.0255  154.5477 H   0  0  0  0  0  0  0  0  0  0  0  0
  149.6989  130.2164  154.4394 H   0  0  0  0  0  0  0  0  0  0  0  0
  148.6369  132.3951  153.6709 H   0  0  0  0  0  0  0  0  0  0  0  0
  148.0060  132.5771  155.2913 H   0  0  0  0  0  0  0  0  0  0  0  0
  148.3386  134.7962  154.2737 H   0  0  0  0  0  0  0  0  0  0  0  0
  150.0100  134.4279  153.9188 H   0  0  0  0  0  0  0  0  0  0  0  0
  151.8793  138.2075  159.1338 H   0  0  0  0  0  0  0  0  0  0  0  0
  152.6127  140.0910  160.1846 H   0  0  0  0  0  0  0  0  0  0  0  0
  1  2  1  0  0  0  0
  1 23  1  0  0  0  0
  1 24  1  0  0  0  0
  1 25  1  0  0  0  0
  2  3  1  0  0  0  0
  2 26  1  0  0  0  0
  2 27  1  0  0  0  0
  3  4  1  0  0  0  0
  3  6  1  0  0  0  0
  4  5  1  0  0  0  0
  4 28  1  0  0  0  0
  4 29  1  0  0  0  0
  5 30  1  0  0  0  0
  5 31  1  0  0  0  0
  5 32  1  0  0  0  0
  6 22  1  0  0  0  0
  6  7  2  0  0  0  0
  7  8  1  0  0  0  0
  7 33  1  0  0  0  0
  8  9  2  0  0  0  0
  8 34  1  0  0  0  0
  9 10  1  0  0  0  0
  9 21  1  0  0  0  0
 10 11  1  0  0  0  0
 10 35  1  0  0  0  0
 11 12  2  0  0  0  0
 11 13  1  0  0  0  0
 13 14  1  0  0  0  0
 13 36  1  0  0  0  0
 14 20  1  0  0  0  0
 14 15  1  0  0  0  0
 14 37  1  0  0  0  0
 15 16  1  0  0  0  0
 15 38  1  0  0  0  0
 15 39  1  0  0  0  0
 16 17  1  0  0  0  0
 16 40  1  0  0  0  0
 16 41  1  0  0  0  0
 17 18  1  0  0  0  0
 17 19  1  0  0  0  0
 17 42  1  0  0  0  0
 18 43  1  0  0  0  0
 19 20  1  0  0  0  0
 19 44  1  0  0  0  0
 19 45  1  0  0  0  0
 20 46  1  0  0  0  0
 20 47  1  0  0  0  0
 21 22  2  0  0  0  0
 21 48  1  0  0  0  0
 22 49  1  0  0  0  0
M  CHG  1  22   1
M  END
> <s_m_source_file>
AV-unprocessed.smi

> <i_m_source_file_index>
1596

> <i_lp_mmshare_version>
43012

> <i_f3d_flags>
0

> <s_epik_input>
W0NIM11bQ0gyXU4oW0NIMl1bQ0gzXSljMVtjSF1bY0hdYyhbY0hdbjEpW05IXUMoPU8pW05IXVtDQEBIXTJbQ0gyXVtDSDJdW0NAQEhdKFtPSF0pW0NIMl1bQ0gyXTI=

> <s_epik_cmdline>
J2VwaWtfcHl0aG9uJywgJy1waCcsICc3LjAnLCAnLXRuJywgJzgnLCAnLW1hJywgJzIwMCcsICctbWV0YWxfYmluZGluZycsICctaW1hZScsICc8aW5maWxlLm1hZT4nLCAnLW9tYWUnLCAnPG91dGZpbGUubWFlPic=

> <r_lp_tautomer_probability>
0.999994

> <r_epik_Ionization_Penalty>
0.224167

> <r_epik_Ionization_Penalty_Charging>
0.224146

> <r_epik_Ionization_Penalty_Neutral>
2.1696e-05

> <r_epik_State_Penalty>
0.0144855

> <r_epik_Charging_Adjusted_Penalty>
0.238631

> <i_epik_Tot_Q>
1

> <i_epik_Tot_abs_Q>
1

> <r_epik_Metal_State_Penalty>
0.0446449

> <b_epik_Metal_Only>
0

> <s_lp_Force_Field>
OPLS_2005

> <r_lp_Energy>
22.6617

> <b_lp_Chiralities_Consistent>
1

> <s_lp_Variant>
AV-unprocessed.smi:1596-1

> <Gold.Version>
5.8.1

> <Gold.Id.Protein>
6NUR|6NUR_protein|mol2

> <Gold.PLP.Fitness>
42.8003

> <Gold.PLP.PLP>
-42.8649

> <Gold.PLP.part.hbond>
-1.0000

> <Gold.PLP.part.metal>
0.0000

> <Gold.PLP.part.buried>
-6.2528

> <Gold.PLP.part.nonpolar>
-35.8853

> <Gold.PLP.part.repulsive>
0.2096

> <Gold.PLP.ligand.clash>
0.0000

> <Gold.PLP.ligand.torsion>
0.3709

> <Gold.PLP.Chemscore.Hbond>
0.1820

> <Gold.PLP.Chemscore.CHOScore>
0.0000

> <Gold.PLP.Chemscore.Metal>
0.0000

> <Gold.Chemscore.Hbonds>
donor molecule, donor type, donor heavy atom, donor atom, acceptor molecule, acceptor atom, score
      P1  H  6896  6908       L1    12  0.25

> <Gold.PLP.Chemscore.Internal.Correction>
0.1313

> <Gold.Rescore>
     Score         DG    S(hbond)    S(metal)    S(lipo)     H(rot)  DE(clash)    DE(int)     intcor
     13.02     -16.45       1.57        0.00      89.12       1.83       0.48       2.94       ----

> <Gold.Chemscore.Fitness>
13.0222

> <Gold.Chemscore.DG>
-16.4499

> <Gold.Chemscore.ZeroCoef>
-5.4800

> <Gold.Chemscore.Hbond>
1.5664

> <Gold.Chemscore.Metal>
0.0000

> <Gold.Chemscore.Lipo>
89.1205

> <Gold.Chemscore.Internal_Hbond>
0.0000

> <Gold.Chemscore.DEClash>
0.4836

> <Gold.Chemscore.DEInternal>
2.9440

> <Gold.Chemscore.Rot>
1.8317

> <Gold.Chemscore.Internal.Correction>
   9.000000E+99

> <Gold.Chemscore.Hbonds>
donor molecule, donor type, donor heavy atom, donor atom, acceptor molecule, acceptor atom, score
      P1  H  6896  6908       L1    12  0.24

> <Gold.Chemscore.Hbond.Weighted>
-5.2319

> <Gold.Chemscore.Metal.Weighted>
-0.0000

> <Gold.Chemscore.Lipo.Weighted>
-10.4271

> <Gold.Chemscore.Internal_Hbond.Weighted>
0.0000

> <Gold.Chemscore.DEClash.Weighted>
0.4836

> <Gold.Chemscore.DEInternal.Weighted>
2.9440

> <Gold.Chemscore.Rot.Weighted>
4.6892

> <Gold.Chemscore.Internal.Correction.Weighted>
   9.000000E+99

> <Gold.Protein.RotatedTorsions>
[ 6907 6896 6895 6894 ] final -172.15 input  -60.11 | X-H torsion
[ 7974 7965 7964 7962 ] final   35.11 input  175.53 | X-H torsion
[ 8008 7997 7996 7995 ] final -156.38 input   59.86 | X-H torsion
[ 10167 10162 10161 10158 ] final  -80.62 input  -65.29 | X-H torsion
[ 10718 10713 10712 10709 ] final  -45.90 input   66.30 | X-H torsion
[ 10763 10752 10751 10750 ] final -150.34 input  -60.55 | X-H torsion
[ 11005 11000 10999 10996 ] final -102.30 input  -57.11 | X-H torsion

> <Gold.Protein.ActiveResidues>
 VAL166  LYS551  ARG553  GLY616  TRP617  ASP618  TYR619  PRO620  LYS621  CYS622 
 ASP623  PHE694  ASN695  SER759  ASP760  ASP761  ALA762  ILE779  LEU786  VAL792 
 PHE793  MET794  SER795  GLU796  ALA797  LYS798  CYS799  TRP800  GLU811  SER814 

> <Gold.Protein.RotatedAtoms>
  151.5354  133.3442  159.2925 H   0  0  0  0  0  0  0  0  0  0  0  0  # atno 6907 bound_to 6896
  150.8568  134.7911  159.7063 H   0  0  0  0  0  0  0  0  0  0  0  0  # atno 6908 bound_to 6896
  152.4599  134.5216  159.9836 H   0  0  0  0  0  0  0  0  0  0  0  0  # atno 6909 bound_to 6896
  146.1306  139.6184  142.9229 H   0  0  0  0  0  0  0  0  0  0  0  0  # atno 7974 bound_to 7965
  155.7162  140.0784  157.2350 H   0  0  0  0  0  0  0  0  0  0  0  0  # atno 8008 bound_to 7997
  154.4051  140.1621  156.2405 H   0  0  0  0  0  0  0  0  0  0  0  0  # atno 8009 bound_to 7997
  155.9238  140.3396  155.6196 H   0  0  0  0  0  0  0  0  0  0  0  0  # atno 8010 bound_to 7997
  140.4487  143.2490  151.8521 H   0  0  0  0  0  0  0  0  0  0  0  0  # atno 10167 bound_to 10162
  156.2237  130.4168  149.8961 H   0  0  0  0  0  0  0  0  0  0  0  0  # atno 10718 bound_to 10713
  154.8124  135.3287  154.7268 H   0  0  0  0  0  0  0  0  0  0  0  0  # atno 10763 bound_to 10752
  153.7914  135.6910  153.4875 H   0  0  0  0  0  0  0  0  0  0  0  0  # atno 10764 bound_to 10752
  153.1914  135.4549  155.0100 H   0  0  0  0  0  0  0  0  0  0  0  0  # atno 10765 bound_to 10752
  141.1195  133.8547  157.1341 H   0  0  0  0  0  0  0  0  0  0  0  0  # atno 11005 bound_to 11000
  145.5269  141.0429  143.2404 LP  0  0  0  0  0  0  0  0  0  0  0  0  # atno 17320 bound_to 7965
  144.7686  139.6786  143.7204 LP  0  0  0  0  0  0  0  0  0  0  0  0  # atno 17321 bound_to 7965
  139.4795  144.5145  151.8886 LP  0  0  0  0  0  0  0  0  0  0  0  0  # atno 17342 bound_to 10162
  140.4233  144.2214  150.5887 LP  0  0  0  0  0  0  0  0  0  0  0  0  # atno 17343 bound_to 10162
  156.6599  130.8778  151.3545 LP  0  0  0  0  0  0  0  0  0  0  0  0  # atno 17370 bound_to 10713
  157.7100  130.9429  150.1057 LP  0  0  0  0  0  0  0  0  0  0  0  0  # atno 17371 bound_to 10713
  140.0141  134.9975  157.0457 LP  0  0  0  0  0  0  0  0  0  0  0  0  # atno 17394 bound_to 11000
  140.4549  134.1544  155.7185 LP  0  0  0  0  0  0  0  0  0  0  0  0  # atno 17395 bound_to 11000

$$$$
