#       Name:                AV-unprocessed.smi:1180
#       Creating user name   scv26
#       Creation time:       Fri Mar 27 03:55:32 2020


#       File generated by GOLD software.
#

@<TRIPOS>MOLECULE
AV-unprocessed.smi:1180
    45    46     1
SMALL
NO_CHARGES


@<TRIPOS>ATOM
      1 ****        -5.8063  -0.6416  -1.7568 C.3            1 S1                 0.0000
      2 ****        -4.2950  -0.6133  -1.6854 C.2            1 S1                 0.0000
      3 ****        -3.7400   0.5848  -2.1042 N.pl3          1 S1                 0.0000
      4 ****        -2.3618   0.7048  -2.0768 C.2            1 S1                 0.0000
      5 ****        -1.8358   2.0474  -2.5534 C.3            1 S1                 0.0000
      6 ****        -1.5764  -0.3156  -1.6475 C.2            1 S1                 0.0000
      7 ****        -0.0518  -0.2232  -1.5920 C.3            1 S1                 0.0000
      8 ****         0.5433   0.4174  -0.3347 C.2            1 S1                 0.0000
      9 ****        -0.1842   0.9357   0.5131 O.2            1 S1                 0.0000
     10 ****         1.8793   0.3698  -0.2275 N.am           1 S1                 0.0000
     11 ****         2.6510   0.9003   0.8912 C.3            1 S1                 0.0000
     12 ****         2.6204  -0.0368   2.1142 C.3            1 S1                 0.0000
     13 ****         3.4581   0.4515   3.2902 C.3            1 S1                 0.0000
     14 ****         4.0792  -0.8235   3.8715 C.3            1 S1                 0.0000
     15 ****         3.4729  -1.8980   3.1669 O.3            1 S1                 0.0000
     16 ****         3.1802  -1.4354   1.8601 C.3            1 S1                 0.0000
     17 ****        -2.2286  -1.5693  -1.2012 C.2            1 S1                 0.0000
     18 ****        -1.5721  -2.5231  -0.7851 O.2            1 S1                 0.0000
     19 ****        -3.6299  -1.6437  -1.2589 N.2            1 S1                 0.0000
     20 ****        -4.2870   1.3698  -2.4271 H              1 S1                 0.0000
     21 ****        -6.1849  -1.6525  -1.6005 H              1 S1                 0.0000
     22 ****        -6.1512  -0.2965  -2.7321 H              1 S1                 0.0000
     23 ****        -6.2319   0.0049  -0.9888 H              1 S1                 0.0000
     24 ****        -1.2205   1.9208  -3.4444 H              1 S1                 0.0000
     25 ****        -1.2293   2.5169  -1.7786 H              1 S1                 0.0000
     26 ****        -2.6481   2.7316  -2.8023 H              1 S1                 0.0000
     27 ****         0.2952   0.3527  -2.4499 H              1 S1                 0.0000
     28 ****         0.3894  -1.2119  -1.7255 H              1 S1                 0.0000
     29 ****         2.3995  -0.0738  -0.9707 H              1 S1                 0.0000
     30 ****         3.6781   1.0401   0.5528 H              1 S1                 0.0000
     31 ****         2.2795   1.8897   1.1632 H              1 S1                 0.0000
     32 ****         1.5917  -0.1469   2.4617 H              1 S1                 0.0000
     33 ****         4.2437   1.1389   2.9738 H              1 S1                 0.0000
     34 ****         2.8383   0.9713   4.0218 H              1 S1                 0.0000
     35 ****         5.1553  -0.8397   3.6932 H              1 S1                 0.0000
     36 ****         3.9120  -0.9185   4.9446 H              1 S1                 0.0000
     37 ****         2.4695  -2.0887   1.3532 H              1 S1                 0.0000
     38 ****         4.0975  -1.3964   1.2701 H              1 S1                 0.0000
     39 ****        -1.1759   0.9416   0.3849 LP             1 S1                 0.0000
     40 ****         0.2168   1.3507   1.3298 LP             1 S1                 0.0000
     41 ****         2.6303  -2.1768   3.6277 LP             1 S1                 0.0000
     42 ****         4.1009  -2.6749   3.1220 LP             1 S1                 0.0000
     43 ****        -0.5748  -2.4630  -0.7423 LP             1 S1                 0.0000
     44 ****        -2.0358  -3.3584  -0.4896 LP             1 S1                 0.0000
     45 ****        -4.1071  -2.4758  -0.9764 LP             1 S1                 0.0000
@<TRIPOS>BOND
    1    1   21 1     
    2    1   22 1     
    3    1   23 1     
    4    1    2 1     
    5    2    3 1     
    6    2   19 2     
    7    3    4 1     
    8    3   20 1     
    9    4    6 2     
   10    4    5 1     
   11    5   24 1     
   12    5   25 1     
   13    5   26 1     
   14    6   17 1     
   15    6    7 1     
   16    7    8 1     
   17    7   27 1     
   18    7   28 1     
   19    8    9 2     
   20    8   10 am    
   21   10   11 1     
   22   10   29 1     
   23   11   12 1     
   24   11   30 1     
   25   11   31 1     
   26   12   16 1     
   27   12   13 1     
   28   12   32 1     
   29   13   14 1     
   30   13   33 1     
   31   13   34 1     
   32   14   15 1     
   33   14   35 1     
   34   14   36 1     
   35   15   16 1     
   36   16   37 1     
   37   16   38 1     
   38   17   18 2     
   39   17   19 1     
   40    9   39 1     
   41    9   40 1     
   42   15   41 1     
   43   15   42 1     
   44   18   43 1     
   45   18   44 1     
   46   19   45 1     
@<TRIPOS>SUBSTRUCTURE
      1 S1             1
@<TRIPOS>SET
LONE_PAIRS      STATIC     ATOMS    <user>   **** ""
7 39 40 41 42 43 44 45
DONOR_HYDROGENS      STATIC     ATOMS    <user>   **** ""
2 20 29
ATOM$BLUE        STATIC     ATOMS    COLORGROUP SYSTEM
7 39 40 41 42 43 44 45
ATOM$RED        STATIC     ATOMS    COLORGROUP SYSTEM
2 20 29
