AV-unprocessed.smi:2802|AV-procd|sdf|10805|dock9
  -GOLD-   2272015243D 1   1.00000     0.00000
 Structure written by MMmdl.
 47 48  0  0  0  0  0  0  0  0  1 V2000
  146.2891  142.9651  154.0764 C   0  0  0  0  0  0  0  0  0  0  0  0
  146.7694  141.6220  154.6458 C   0  0  2  0  0  0  0  0  0  0  0  0
  145.8789  141.1653  155.8139 C   0  0  0  0  0  0  0  0  0  0  0  0
  146.2977  139.8026  156.4097 C   0  0  0  0  0  0  0  0  0  0  0  0
  145.5321  139.5960  157.7341 C   0  0  0  0  0  0  0  0  0  0  0  0
  145.8874  138.6412  155.4769 C   0  0  0  0  0  0  0  0  0  0  0  0
  147.8205  139.7919  156.7277 C   0  0  0  0  0  0  0  0  0  0  0  0
  148.8035  140.3738  155.6616 C   0  0  2  0  0  0  0  0  0  0  0  0
  149.1034  139.3664  154.5127 C   0  0  0  0  0  0  0  0  0  0  0  0
  150.1261  139.8269  153.6498 O   0  0  0  0  0  0  0  0  0  0  0  0
  150.0586  140.7307  156.3454 N   0  0  0  0  0  0  0  0  0  0  0  0
  150.2494  141.6227  157.3340 C   0  0  0  0  0  0  0  0  0  0  0  0
  149.3448  142.2921  157.8350 O   0  0  0  0  0  0  0  0  0  0  0  0
  151.6938  141.7668  157.8272 C   0  0  0  0  0  0  0  0  0  0  0  0
  151.8456  142.9258  158.7986 C   0  0  0  0  0  0  0  0  0  0  0  0
  151.6459  144.2561  158.3753 C   0  0  0  0  0  0  0  0  0  0  0  0
  151.8091  145.2970  159.3094 C   0  0  0  0  0  0  0  0  0  0  0  0
  152.1665  144.9622  160.6309 C   0  0  0  0  0  0  0  0  0  0  0  0
  152.3579  143.6922  161.0485 N   0  0  0  0  0  0  0  0  0  0  0  0
  152.1995  142.7000  160.1462 C   0  0  0  0  0  0  0  0  0  0  0  0
  148.2355  141.7054  155.1058 C   0  0  0  0  0  0  0  0  0  0  0  0
  146.3324  143.7548  154.8270 H   0  0  0  0  0  0  0  0  0  0  0  0
  145.2592  142.8962  153.7247 H   0  0  0  0  0  0  0  0  0  0  0  0
  146.9039  143.2751  153.2309 H   0  0  0  0  0  0  0  0  0  0  0  0
  146.6948  140.8975  153.8364 H   0  0  0  0  0  0  0  0  0  0  0  0
  145.9174  141.9277  156.5936 H   0  0  0  0  0  0  0  0  0  0  0  0
  144.8376  141.1223  155.4912 H   0  0  0  0  0  0  0  0  0  0  0  0
  145.7938  138.6451  158.2001 H   0  0  0  0  0  0  0  0  0  0  0  0
  144.4527  139.5983  157.5769 H   0  0  0  0  0  0  0  0  0  0  0  0
  145.7535  140.3832  158.4557 H   0  0  0  0  0  0  0  0  0  0  0  0
  146.2613  137.6855  155.8458 H   0  0  0  0  0  0  0  0  0  0  0  0
  146.2401  138.7605  154.4570 H   0  0  0  0  0  0  0  0  0  0  0  0
  144.8020  138.5581  155.4114 H   0  0  0  0  0  0  0  0  0  0  0  0
  147.9549  140.3822  157.6363 H   0  0  0  0  0  0  0  0  0  0  0  0
  148.1208  138.7811  157.0061 H   0  0  0  0  0  0  0  0  0  0  0  0
  149.3976  138.3940  154.9072 H   0  0  0  0  0  0  0  0  0  0  0  0
  148.2314  139.1897  153.8910 H   0  0  0  0  0  0  0  0  0  0  0  0
  149.8612  139.6639  152.7574 H   0  0  0  0  0  0  0  0  0  0  0  0
  150.8777  140.2349  156.0255 H   0  0  0  0  0  0  0  0  0  0  0  0
  151.9995  140.8366  158.3074 H   0  0  0  0  0  0  0  0  0  0  0  0
  152.3627  141.9216  156.9793 H   0  0  0  0  0  0  0  0  0  0  0  0
  151.3769  144.4768  157.3528 H   0  0  0  0  0  0  0  0  0  0  0  0
  151.6661  146.3273  159.0196 H   0  0  0  0  0  0  0  0  0  0  0  0
  152.3022  145.7359  161.3722 H   0  0  0  0  0  0  0  0  0  0  0  0
  152.3649  141.6960  160.5090 H   0  0  0  0  0  0  0  0  0  0  0  0
  148.8586  142.0687  154.2875 H   0  0  0  0  0  0  0  0  0  0  0  0
  148.2985  142.4720  155.8806 H   0  0  0  0  0  0  0  0  0  0  0  0
  1  2  1  0  0  0  0
  1 22  1  0  0  0  0
  1 23  1  0  0  0  0
  1 24  1  0  0  0  0
  2 21  1  0  0  0  0
  2  3  1  0  0  0  0
  2 25  1  0  0  0  0
  3  4  1  0  0  0  0
  3 26  1  0  0  0  0
  3 27  1  0  0  0  0
  4  5  1  0  0  0  0
  4  6  1  0  0  0  0
  4  7  1  0  0  0  0
  5 28  1  0  0  0  0
  5 29  1  0  0  0  0
  5 30  1  0  0  0  0
  6 31  1  0  0  0  0
  6 32  1  0  0  0  0
  6 33  1  0  0  0  0
  7  8  1  0  0  0  0
  7 34  1  0  0  0  0
  7 35  1  0  0  0  0
  8  9  1  0  0  0  0
  8 11  1  0  0  0  0
  8 21  1  0  0  0  0
  9 10  1  0  0  0  0
  9 36  1  0  0  0  0
  9 37  1  0  0  0  0
 10 38  1  0  0  0  0
 11 12  1  0  0  0  0
 11 39  1  0  0  0  0
 12 13  2  0  0  0  0
 12 14  1  0  0  0  0
 14 15  1  0  0  0  0
 14 40  1  0  0  0  0
 14 41  1  0  0  0  0
 15 20  1  0  0  0  0
 15 16  2  0  0  0  0
 16 17  1  0  0  0  0
 16 42  1  0  0  0  0
 17 18  2  0  0  0  0
 17 43  1  0  0  0  0
 18 19  1  0  0  0  0
 18 44  1  0  0  0  0
 19 20  2  0  0  0  0
 20 45  1  0  0  0  0
 21 46  1  0  0  0  0
 21 47  1  0  0  0  0
M  END
> <s_m_source_file>
AV-unprocessed.smi

> <i_m_source_file_index>
2802

> <i_lp_mmshare_version>
43012

> <i_f3d_flags>
0

> <s_epik_input>
W0NIM11DMShbQ0gzXSlbQ0gyXVtDQEBIXShbQ0gzXSlbQ0gyXVtDQF0oW0NIMl0xKShbQ0gyXVtPSF0pW05IXUMoPU8pW0NIMl1jMltjSF1bY0hdW2NIXW5bY0hdMg==

> <s_epik_cmdline>
J2VwaWtfcHl0aG9uJywgJy1waCcsICc3LjAnLCAnLXRuJywgJzgnLCAnLW1hJywgJzIwMCcsICctbWV0YWxfYmluZGluZycsICctaW1hZScsICc8aW5maWxlLm1hZT4nLCAnLW9tYWUnLCAnPG91dGZpbGUubWFlPic=

> <r_epik_Ionization_Penalty>
0.004793

> <r_epik_Ionization_Penalty_Charging>
0

> <r_epik_Ionization_Penalty_Neutral>
0.004793

> <r_epik_State_Penalty>
0.00347421

> <r_epik_Charging_Adjusted_Penalty>
0.00347421

> <i_epik_Tot_Q>
0

> <i_epik_Tot_abs_Q>
0

> <r_epik_Metal_State_Penalty>
-0

> <b_epik_Metal_Only>
0

> <s_lp_Force_Field>
OPLS_2005

> <r_lp_Energy>
22.6418

> <b_lp_Chiralities_Consistent>
1

> <s_lp_Variant>
AV-unprocessed.smi:2802-3

> <Gold.Version>
5.8.1

> <Gold.Id.Protein>
6NUR|6NUR_protein|mol2

> <Gold.PLP.Fitness>
42.0138

> <Gold.PLP.PLP>
-36.7510

> <Gold.PLP.part.hbond>
-2.0000

> <Gold.PLP.part.metal>
0.0000

> <Gold.PLP.part.buried>
-5.7925

> <Gold.PLP.part.nonpolar>
-29.9673

> <Gold.PLP.part.repulsive>
0.2948

> <Gold.PLP.ligand.clash>
0.0000

> <Gold.PLP.ligand.torsion>
0.1474

> <Gold.PLP.Chemscore.Hbond>
1.8480

> <Gold.PLP.Chemscore.CHOScore>
0.0000

> <Gold.PLP.Chemscore.Metal>
0.0000

> <Gold.Chemscore.Hbonds>
donor molecule, donor type, donor heavy atom, donor atom, acceptor molecule, acceptor atom, score
      L1  H    10    38       P1  7957  1.00
      P1  H  7989  7998       L1    10  0.82

> <Gold.PLP.Chemscore.Internal.Correction>
0.0135

> <Gold.Rescore>
     Score         DG    S(hbond)    S(metal)    S(lipo)     H(rot)  DE(clash)    DE(int)     intcor
     15.11     -16.41       1.53        0.00      93.51       2.00       0.03       1.28       ----

> <Gold.Chemscore.Fitness>
15.1100

> <Gold.Chemscore.DG>
-16.4126

> <Gold.Chemscore.ZeroCoef>
-5.4800

> <Gold.Chemscore.Hbond>
1.5324

> <Gold.Chemscore.Metal>
0.0000

> <Gold.Chemscore.Lipo>
93.5123

> <Gold.Chemscore.Internal_Hbond>
0.0000

> <Gold.Chemscore.DEClash>
0.0269

> <Gold.Chemscore.DEInternal>
1.2757

> <Gold.Chemscore.Rot>
2.0026

> <Gold.Chemscore.Internal.Correction>
   9.000000E+99

> <Gold.Chemscore.Hbonds>
donor molecule, donor type, donor heavy atom, donor atom, acceptor molecule, acceptor atom, score
      L1  H    10    38       P1  7957  0.98
      P1  H  7989  7998       L1    10  0.32

> <Gold.Chemscore.Hbond.Weighted>
-5.1183

> <Gold.Chemscore.Metal.Weighted>
-0.0000

> <Gold.Chemscore.Lipo.Weighted>
-10.9409

> <Gold.Chemscore.Internal_Hbond.Weighted>
0.0000

> <Gold.Chemscore.DEClash.Weighted>
0.0269

> <Gold.Chemscore.DEInternal.Weighted>
1.2757

> <Gold.Chemscore.Rot.Weighted>
5.1267

> <Gold.Chemscore.Internal.Correction.Weighted>
   9.000000E+99

> <Gold.Protein.RotatedTorsions>
[ 6907 6896 6895 6894 ] final -138.57 input  -60.11 | X-H torsion
[ 7974 7965 7964 7962 ] final  131.37 input  175.53 | X-H torsion
[ 8008 7997 7996 7995 ] final  -28.05 input   59.86 | X-H torsion
[ 10167 10162 10161 10158 ] final  -17.32 input  -65.29 | X-H torsion
[ 10718 10713 10712 10709 ] final -144.87 input   66.30 | X-H torsion
[ 10763 10752 10751 10750 ] final -151.75 input  -60.55 | X-H torsion
[ 11005 11000 10999 10996 ] final  -96.35 input  -57.11 | X-H torsion

> <Gold.Protein.ActiveResidues>
 VAL166  LYS551  ARG553  GLY616  TRP617  ASP618  TYR619  PRO620  LYS621  CYS622 
 ASP623  PHE694  ASN695  SER759  ASP760  ASP761  ALA762  ILE779  LEU786  VAL792 
 PHE793  MET794  SER795  GLU796  ALA797  LYS798  CYS799  TRP800  GLU811  SER814 

> <Gold.Protein.RotatedAtoms>
  151.0367  133.5742  159.2654 H   0  0  0  0  0  0  0  0  0  0  0  0  # atno 6907 bound_to 6896
  151.2804  135.0711  159.9177 H   0  0  0  0  0  0  0  0  0  0  0  0  # atno 6908 bound_to 6896
  152.5356  134.0082  159.7980 H   0  0  0  0  0  0  0  0  0  0  0  0  # atno 6909 bound_to 6896
  145.0081  139.4247  143.5259 H   0  0  0  0  0  0  0  0  0  0  0  0  # atno 7974 bound_to 7965
  154.4349  140.1856  156.1029 H   0  0  0  0  0  0  0  0  0  0  0  0  # atno 8008 bound_to 7997
  156.0278  140.3334  155.7081 H   0  0  0  0  0  0  0  0  0  0  0  0  # atno 8009 bound_to 7997
  155.5883  140.0628  157.2756 H   0  0  0  0  0  0  0  0  0  0  0  0  # atno 8010 bound_to 7997
  140.7245  143.5027  150.9849 H   0  0  0  0  0  0  0  0  0  0  0  0  # atno 10167 bound_to 10162
  156.3754  130.7810  151.1995 H   0  0  0  0  0  0  0  0  0  0  0  0  # atno 10718 bound_to 10713
  154.8038  135.3252  154.7483 H   0  0  0  0  0  0  0  0  0  0  0  0  # atno 10763 bound_to 10752
  153.8146  135.6893  153.4840 H   0  0  0  0  0  0  0  0  0  0  0  0  # atno 10764 bound_to 10752
  153.1770  135.4601  154.9923 H   0  0  0  0  0  0  0  0  0  0  0  0  # atno 10765 bound_to 10752
  141.1414  133.8091  157.0559 H   0  0  0  0  0  0  0  0  0  0  0  0  # atno 11005 bound_to 11000
  146.3465  139.9508  142.8729 LP  0  0  0  0  0  0  0  0  0  0  0  0  # atno 17320 bound_to 7965
  145.2061  140.9875  143.4127 LP  0  0  0  0  0  0  0  0  0  0  0  0  # atno 17321 bound_to 7965
  139.8737  143.7159  152.3164 LP  0  0  0  0  0  0  0  0  0  0  0  0  # atno 17342 bound_to 10162
  139.7417  144.7557  151.0642 LP  0  0  0  0  0  0  0  0  0  0  0  0  # atno 17343 bound_to 10162
  157.7488  131.0360  150.4388 LP  0  0  0  0  0  0  0  0  0  0  0  0  # atno 17370 bound_to 10713
  156.4622  130.4034  149.6569 LP  0  0  0  0  0  0  0  0  0  0  0  0  # atno 17371 bound_to 10713
  140.0602  134.9759  157.1291 LP  0  0  0  0  0  0  0  0  0  0  0  0  # atno 17394 bound_to 11000
  140.3860  134.2236  155.7168 LP  0  0  0  0  0  0  0  0  0  0  0  0  # atno 17395 bound_to 11000

$$$$
