AV-unprocessed.smi:33|AV-procd|sdf|201|dock3
  -GOLD-   2262015473D 1   1.00000     0.00000
 Structure written by MMmdl.
 67 72  0  0  0  0  0  0  0  0  1 V2000
  152.9536  132.3815  157.8808 O   0  0  0  0  0  0  0  0  0  0  0  0
  153.0364  131.6664  156.8801 C   0  0  0  0  0  0  0  0  0  0  0  0
  151.9701  131.2627  156.1623 O   0  0  0  0  0  0  0  0  0  0  0  0
  150.6731  131.7281  156.4975 C   0  0  0  0  0  0  0  0  0  0  0  0
  150.1905  132.7001  155.4142 C   0  0  2  0  0  0  0  0  0  0  0  0
  150.7896  133.9761  155.5739 O   0  0  0  0  0  0  0  0  0  0  0  0
  150.0254  134.9133  154.8826 C   0  0  2  0  0  0  0  0  0  0  0  0
  150.0621  136.1946  155.6480 N   0  0  0  0  0  0  0  0  0  0  0  0
  149.2743  136.5568  156.7180 C   0  0  0  0  0  0  0  0  0  0  0  0
  149.5117  137.7420  157.2118 N   0  0  0  0  0  0  0  0  0  0  0  0
  150.5384  138.2365  156.4175 C   0  0  0  0  0  0  0  0  0  0  0  0
  151.2702  139.4546  156.3928 C   0  0  0  0  0  0  0  0  0  0  0  0
  151.0415  140.4694  157.2596 N   0  0  0  0  0  0  0  0  0  0  0  0
  149.6834  141.0324  157.2880 C   0  0  0  0  0  0  0  0  0  0  0  0
  149.2798  141.5976  158.3063 O   0  0  0  0  0  0  0  0  0  0  0  0
  148.7709  140.8816  156.1037 C   0  0  0  0  0  0  0  0  0  0  0  0
  149.1921  141.3162  154.8277 C   0  0  0  0  0  0  0  0  0  0  0  0
  148.3482  141.1621  153.7108 C   0  0  0  0  0  0  0  0  0  0  0  0
  147.0861  140.5560  153.8589 C   0  0  0  0  0  0  0  0  0  0  0  0
  146.6715  140.0949  155.1230 C   0  0  0  0  0  0  0  0  0  0  0  0
  147.5146  140.2489  156.2405 C   0  0  0  0  0  0  0  0  0  0  0  0
  152.1717  140.9224  158.0842 C   0  0  0  0  0  0  0  0  0  0  0  0
  153.0891  140.1402  158.3405 O   0  0  0  0  0  0  0  0  0  0  0  0
  152.1844  142.3095  158.6622 C   0  0  0  0  0  0  0  0  0  0  0  0
  151.8232  143.4137  157.8593 C   0  0  0  0  0  0  0  0  0  0  0  0
  151.8246  144.7145  158.3990 C   0  0  0  0  0  0  0  0  0  0  0  0
  152.1671  144.9173  159.7496 C   0  0  0  0  0  0  0  0  0  0  0  0
  152.5001  143.8177  160.5631 C   0  0  0  0  0  0  0  0  0  0  0  0
  152.5007  142.5169  160.0239 C   0  0  0  0  0  0  0  0  0  0  0  0
  152.2378  139.5978  155.4499 N   0  0  0  0  0  0  0  0  0  0  0  0
  152.4723  138.6081  154.5836 C   0  0  0  0  0  0  0  0  0  0  0  0
  151.8681  137.4218  154.4883 N   0  0  0  0  0  0  0  0  0  0  0  0
  150.8956  137.2734  155.4344 C   0  0  0  0  0  0  0  0  0  0  0  0
  148.5887  134.3696  154.7857 C   0  0  1  0  0  0  0  0  0  0  0  0
  148.1772  134.2070  153.4433 O   0  0  0  0  0  0  0  0  0  0  0  0
  148.6927  133.0093  155.4647 C   0  0  2  0  0  0  0  0  0  0  0  0
  148.2692  133.1099  156.7257 F   0  0  0  0  0  0  0  0  0  0  0  0
  154.3289  131.1578  156.3366 C   0  0  0  0  0  0  0  0  0  0  0  0
  154.3269  130.3918  155.1472 C   0  0  0  0  0  0  0  0  0  0  0  0
  155.5312  129.8945  154.6121 C   0  0  0  0  0  0  0  0  0  0  0  0
  156.7523  130.1565  155.2600 C   0  0  0  0  0  0  0  0  0  0  0  0
  156.7678  130.9165  156.4441 C   0  0  0  0  0  0  0  0  0  0  0  0
  155.5646  131.4151  156.9806 C   0  0  0  0  0  0  0  0  0  0  0  0
  149.9946  130.8762  156.5593 H   0  0  0  0  0  0  0  0  0  0  0  0
  150.6826  132.2154  157.4737 H   0  0  0  0  0  0  0  0  0  0  0  0
  150.4418  132.3173  154.4233 H   0  0  0  0  0  0  0  0  0  0  0  0
  150.4765  135.1442  153.9161 H   0  0  0  0  0  0  0  0  0  0  0  0
  148.5130  135.9080  157.1264 H   0  0  0  0  0  0  0  0  0  0  0  0
  150.1589  141.7820  154.7020 H   0  0  0  0  0  0  0  0  0  0  0  0
  148.6703  141.5079  152.7398 H   0  0  0  0  0  0  0  0  0  0  0  0
  146.4394  140.4381  153.0020 H   0  0  0  0  0  0  0  0  0  0  0  0
  145.7075  139.6210  155.2351 H   0  0  0  0  0  0  0  0  0  0  0  0
  147.1885  139.8860  157.2048 H   0  0  0  0  0  0  0  0  0  0  0  0
  151.5592  143.2704  156.8214 H   0  0  0  0  0  0  0  0  0  0  0  0
  151.5625  145.5571  157.7761 H   0  0  0  0  0  0  0  0  0  0  0  0
  152.1681  145.9150  160.1630 H   0  0  0  0  0  0  0  0  0  0  0  0
  152.7548  143.9716  161.6013 H   0  0  0  0  0  0  0  0  0  0  0  0
  152.7543  141.6801  160.6588 H   0  0  0  0  0  0  0  0  0  0  0  0
  153.2553  138.7931  153.8630 H   0  0  0  0  0  0  0  0  0  0  0  0
  147.8808  135.0238  155.2976 H   0  0  0  0  0  0  0  0  0  0  0  0
  148.2307  135.0443  153.0087 H   0  0  0  0  0  0  0  0  0  0  0  0
  148.0844  132.2357  154.9945 H   0  0  0  0  0  0  0  0  0  0  0  0
  153.4015  130.1764  154.6325 H   0  0  0  0  0  0  0  0  0  0  0  0
  155.5171  129.3104  153.7035 H   0  0  0  0  0  0  0  0  0  0  0  0
  157.6755  129.7752  154.8494 H   0  0  0  0  0  0  0  0  0  0  0  0
  157.7043  131.1176  156.9431 H   0  0  0  0  0  0  0  0  0  0  0  0
  155.6121  131.9931  157.8919 H   0  0  0  0  0  0  0  0  0  0  0  0
  1  2  2  0  0  0  0
  2  3  1  0  0  0  0
  2 38  1  0  0  0  0
  3  4  1  0  0  0  0
  4  5  1  0  0  0  0
  4 44  1  0  0  0  0
  4 45  1  0  0  0  0
  5 36  1  0  0  0  0
  5  6  1  0  0  0  0
  5 46  1  0  0  0  0
  6  7  1  0  0  0  0
  7  8  1  0  0  0  0
  7 34  1  0  0  0  0
  7 47  1  0  0  0  0
  8 33  1  0  0  0  0
  8  9  1  0  0  0  0
  9 10  2  0  0  0  0
  9 48  1  0  0  0  0
 10 11  1  0  0  0  0
 11 33  2  0  0  0  0
 11 12  1  0  0  0  0
 12 13  1  0  0  0  0
 12 30  2  0  0  0  0
 13 14  1  0  0  0  0
 13 22  1  0  0  0  0
 14 15  2  0  0  0  0
 14 16  1  0  0  0  0
 16 21  1  0  0  0  0
 16 17  2  0  0  0  0
 17 18  1  0  0  0  0
 17 49  1  0  0  0  0
 18 19  2  0  0  0  0
 18 50  1  0  0  0  0
 19 20  1  0  0  0  0
 19 51  1  0  0  0  0
 20 21  2  0  0  0  0
 20 52  1  0  0  0  0
 21 53  1  0  0  0  0
 22 23  2  0  0  0  0
 22 24  1  0  0  0  0
 24 29  1  0  0  0  0
 24 25  2  0  0  0  0
 25 26  1  0  0  0  0
 25 54  1  0  0  0  0
 26 27  2  0  0  0  0
 26 55  1  0  0  0  0
 27 28  1  0  0  0  0
 27 56  1  0  0  0  0
 28 29  2  0  0  0  0
 28 57  1  0  0  0  0
 29 58  1  0  0  0  0
 30 31  1  0  0  0  0
 31 32  2  0  0  0  0
 31 59  1  0  0  0  0
 32 33  1  0  0  0  0
 34 35  1  0  0  0  0
 34 36  1  0  0  0  0
 34 60  1  0  0  0  0
 35 61  1  0  0  0  0
 36 37  1  0  0  0  0
 36 62  1  0  0  0  0
 38 43  1  0  0  0  0
 38 39  2  0  0  0  0
 39 40  1  0  0  0  0
 39 63  1  0  0  0  0
 40 41  2  0  0  0  0
 40 64  1  0  0  0  0
 41 42  1  0  0  0  0
 41 65  1  0  0  0  0
 42 43  2  0  0  0  0
 42 66  1  0  0  0  0
 43 67  1  0  0  0  0
M  END
> <s_m_source_file>
AV-unprocessed.smi

> <i_m_source_file_index>
33

> <i_lp_mmshare_version>
43012

> <i_f3d_flags>
0

> <s_epik_input>
W2NIXTFbY0hdW2NIXVtjSF1bY0hdYzFDKD1PKU9bQ0gyXVtDQEBIXTJPW0NASF0oW0NAQEhdKFtPSF0pW0NAQEhdMkYpbihbY0hdbjMpYyhjMzQpbltjSF1uYzROKEMoPU8pYzVbY0hdW2NIXVtjSF1bY0hdW2NIXTUpQyg9TyljNltjSF1bY0hdW2NIXVtjSF1bY0hdNg==

> <s_epik_cmdline>
J2VwaWtfcHl0aG9uJywgJy1waCcsICc3LjAnLCAnLXRuJywgJzgnLCAnLW1hJywgJzIwMCcsICctbWV0YWxfYmluZGluZycsICctaW1hZScsICc8aW5maWxlLm1hZT4nLCAnLW9tYWUnLCAnPG91dGZpbGUubWFlPic=

> <r_lp_tautomer_probability>
1

> <r_epik_Ionization_Penalty>
0.00067664

> <r_epik_Ionization_Penalty_Charging>
0

> <r_epik_Ionization_Penalty_Neutral>
0.00067664

> <r_epik_State_Penalty>
0.000428095

> <r_epik_Charging_Adjusted_Penalty>
0.000428095

> <i_epik_Tot_Q>
0

> <i_epik_Tot_abs_Q>
0

> <r_epik_Metal_State_Penalty>
-0

> <b_epik_Metal_Only>
0

> <s_epik_Chemistry_Notes>
This compound has an ester and may undergo hydrolysis at high or low pH. This compound contains an acetal/aminal-like group ( X-CH(R)-Y where X, Y are N, S, or O) that may be acid/base labile, releasing an aldehyde.

> <s_lp_Force_Field>
OPLS_2005

> <r_lp_Energy>
66.4626

> <b_lp_Chiralities_Consistent>
1

> <s_lp_Variant>
AV-unprocessed.smi:33-3

> <Gold.Version>
5.8.1

> <Gold.Id.Protein>
6NUR|6NUR_protein|mol2

> <Gold.PLP.Fitness>
72.1793

> <Gold.PLP.PLP>
-64.8978

> <Gold.PLP.part.hbond>
-4.4329

> <Gold.PLP.part.metal>
0.0000

> <Gold.PLP.part.buried>
-7.9706

> <Gold.PLP.part.nonpolar>
-52.7182

> <Gold.PLP.part.repulsive>
0.2376

> <Gold.PLP.ligand.clash>
0.0000

> <Gold.PLP.ligand.torsion>
4.5310

> <Gold.PLP.Chemscore.Hbond>
3.8738

> <Gold.PLP.Chemscore.CHOScore>
0.0000

> <Gold.PLP.Chemscore.Metal>
0.0000

> <Gold.Chemscore.Hbonds>
donor molecule, donor type, donor heavy atom, donor atom, acceptor molecule, acceptor atom, score
      L1  H    35    61       P1  7948  1.00
      P1  H  6896  6908       L1     1  1.00
      P1  H  7989  7998       L1    30  0.02
      P1  H  7997  8008       L1    23  1.00
      P1  H 10752 10764       L1    32  0.86

> <Gold.PLP.Chemscore.Internal.Correction>
4.7220

> <Gold.Rescore>
     Score         DG    S(hbond)    S(metal)    S(lipo)     H(rot)  DE(clash)    DE(int)     intcor
     20.81     -26.77       3.47        0.00     137.98       2.52       0.11       5.84       ----

> <Gold.Chemscore.Fitness>
20.8119

> <Gold.Chemscore.DG>
-26.7656

> <Gold.Chemscore.ZeroCoef>
-5.4800

> <Gold.Chemscore.Hbond>
3.4747

> <Gold.Chemscore.Metal>
0.0000

> <Gold.Chemscore.Lipo>
137.9777

> <Gold.Chemscore.Internal_Hbond>
0.0000

> <Gold.Chemscore.DEClash>
0.1090

> <Gold.Chemscore.DEInternal>
5.8447

> <Gold.Chemscore.Rot>
2.5247

> <Gold.Chemscore.Internal.Correction>
   9.000000E+99

> <Gold.Chemscore.Hbonds>
donor molecule, donor type, donor heavy atom, donor atom, acceptor molecule, acceptor atom, score
      L1  H    35    61       P1  7948  0.87
      P1  H  6896  6908       L1     1  0.93
      P1  H  7997  8008       L1    23  0.85
      P1  H 10752 10764       L1    32  0.61

> <Gold.Chemscore.Hbond.Weighted>
-11.6055

> <Gold.Chemscore.Metal.Weighted>
-0.0000

> <Gold.Chemscore.Lipo.Weighted>
-16.1434

> <Gold.Chemscore.Internal_Hbond.Weighted>
0.0000

> <Gold.Chemscore.DEClash.Weighted>
0.1090

> <Gold.Chemscore.DEInternal.Weighted>
5.8447

> <Gold.Chemscore.Rot.Weighted>
6.4633

> <Gold.Chemscore.Internal.Correction.Weighted>
   9.000000E+99

> <Gold.Protein.RotatedTorsions>
[ 6907 6896 6895 6894 ] final   26.22 input  -60.11 | X-H torsion
[ 7974 7965 7964 7962 ] final    3.81 input  175.53 | X-H torsion
[ 8008 7997 7996 7995 ] final  -84.82 input   59.86 | X-H torsion
[ 10167 10162 10161 10158 ] final   91.93 input  -65.29 | X-H torsion
[ 10718 10713 10712 10709 ] final   99.61 input   66.30 | X-H torsion
[ 10763 10752 10751 10750 ] final  -79.48 input  -60.55 | X-H torsion
[ 11005 11000 10999 10996 ] final  155.06 input  -57.11 | X-H torsion

> <Gold.Protein.ActiveResidues>
 VAL166  LYS551  ARG553  GLY616  TRP617  ASP618  TYR619  PRO620  LYS621  CYS622 
 ASP623  PHE694  ASN695  SER759  ASP760  ASP761  ALA762  ILE779  LEU786  VAL792 
 PHE793  MET794  SER795  GLU796  ALA797  LYS798  CYS799  TRP800  GLU811  SER814 

> <Gold.Protein.RotatedAtoms>
  151.9841  135.0013  160.0558 H   0  0  0  0  0  0  0  0  0  0  0  0  # atno 6907 bound_to 6896
  152.1669  133.4613  159.4897 H   0  0  0  0  0  0  0  0  0  0  0  0  # atno 6908 bound_to 6896
  150.6896  134.1920  159.4332 H   0  0  0  0  0  0  0  0  0  0  0  0  # atno 6909 bound_to 6896
  146.2445  140.0629  142.8367 H   0  0  0  0  0  0  0  0  0  0  0  0  # atno 7974 bound_to 7965
  154.6340  140.0600  156.9766 H   0  0  0  0  0  0  0  0  0  0  0  0  # atno 8008 bound_to 7997
  155.1621  140.3283  155.4391 H   0  0  0  0  0  0  0  0  0  0  0  0  # atno 8009 bound_to 7997
  156.2497  140.1929  156.6727 H   0  0  0  0  0  0  0  0  0  0  0  0  # atno 8010 bound_to 7997
  139.8326  144.6680  150.9381 H   0  0  0  0  0  0  0  0  0  0  0  0  # atno 10167 bound_to 10162
  157.6872  131.0674  150.4974 H   0  0  0  0  0  0  0  0  0  0  0  0  # atno 10718 bound_to 10713
  154.5392  135.5694  153.6824 H   0  0  0  0  0  0  0  0  0  0  0  0  # atno 10763 bound_to 10752
  152.9959  135.6223  154.2525 H   0  0  0  0  0  0  0  0  0  0  0  0  # atno 10764 bound_to 10752
  154.2455  135.2861  155.2817 H   0  0  0  0  0  0  0  0  0  0  0  0  # atno 10765 bound_to 10752
  140.1547  134.8651  157.2499 H   0  0  0  0  0  0  0  0  0  0  0  0  # atno 11005 bound_to 11000
  145.0884  140.9268  143.4784 LP  0  0  0  0  0  0  0  0  0  0  0  0  # atno 17320 bound_to 7965
  145.0797  139.2969  143.5790 LP  0  0  0  0  0  0  0  0  0  0  0  0  # atno 17321 bound_to 7965
  140.7805  143.3987  151.1186 LP  0  0  0  0  0  0  0  0  0  0  0  0  # atno 17342 bound_to 10162
  139.7639  143.8594  152.3106 LP  0  0  0  0  0  0  0  0  0  0  0  0  # atno 17343 bound_to 10162
  156.5298  130.4182  149.6207 LP  0  0  0  0  0  0  0  0  0  0  0  0  # atno 17370 bound_to 10713
  156.3080  130.7213  151.2099 LP  0  0  0  0  0  0  0  0  0  0  0  0  # atno 17371 bound_to 10713
  140.2562  134.3625  155.7423 LP  0  0  0  0  0  0  0  0  0  0  0  0  # atno 17394 bound_to 11000
  141.2203  133.7344  156.9011 LP  0  0  0  0  0  0  0  0  0  0  0  0  # atno 17395 bound_to 11000

$$$$
