#       Name:                AV-unprocessed.smi:1225
#       Creating user name   scv26
#       Creation time:       Fri Mar 27 04:20:59 2020


#       File generated by GOLD software.
#

@<TRIPOS>MOLECULE
AV-unprocessed.smi:1225
    53    55     1
SMALL
NO_CHARGES


@<TRIPOS>ATOM
      1 ****        -2.1107   7.4981  -0.7103 C.3            1 S1                 0.0000
      2 ****        -1.3612   6.2218  -0.5343 C.2            1 S1                 0.0000
      3 ****        -0.1085   6.1570  -0.0781 N.2            1 S1                 0.0000
      4 ****         0.3677   4.8464  -0.0093 C.2            1 S1                 0.0000
      5 ****        -0.5452   3.9023  -0.4106 C.2            1 S1                 0.0000
      6 ****        -0.3561   2.4207  -0.4565 C.3            1 S1                 0.0000
      7 ****        -0.3680   1.8122   0.8987 N.4            1 S1                 1.0000
      8 ****        -1.7204   1.7996   1.5040 C.3            1 S1                 0.0000
      9 ****         0.2750   0.4745   0.9443 C.3            1 S1                 0.0000
     10 ****         1.8168   0.5684   0.9984 C.3            1 S1                 0.0000
     11 ****         2.1939   1.2144   2.1975 O.3            1 S1                 0.0000
     12 ****         2.5222  -0.8012   0.9609 C.3            1 S1                 0.0000
     13 ****         2.1955  -1.5634  -0.2302 N.pl3          1 S1                 0.0000
     14 ****         2.7025  -1.3902  -1.4660 C.2            1 S1                 0.0000
     15 ****         2.2582  -2.1975  -2.4245 N.2            1 S1                 0.0000
     16 ****         1.3647  -2.9933  -1.7283 C.ar           1 S1                 0.0000
     17 ****         0.5492  -4.0583  -2.1690 C.ar           1 S1                 0.0000
     18 ****        -0.3019  -4.7395  -1.2700 C.ar           1 S1                 0.0000
     19 ****        -1.1606  -5.8804  -1.7870 C.3            1 S1                 0.0000
     20 ****        -0.3462  -4.3571   0.0948 C.ar           1 S1                 0.0000
     21 ****        -1.2506  -5.0771   1.0794 C.3            1 S1                 0.0000
     22 ****         0.4600  -3.2936   0.5514 C.ar           1 S1                 0.0000
     23 ****         1.3039  -2.6241  -0.3527 C.ar           1 S1                 0.0000
     24 ****        -2.0431   4.6446  -0.9122 S.3            1 S1                 0.0000
     25 ****        -1.5604   8.3317  -0.2724 H              1 S1                 0.0000
     26 ****        -3.0839   7.4296  -0.2242 H              1 S1                 0.0000
     27 ****        -2.2619   7.6972  -1.7712 H              1 S1                 0.0000
     28 ****         1.3737   4.6739   0.3439 H              1 S1                 0.0000
     29 ****        -1.1250   1.9547  -1.0746 H              1 S1                 0.0000
     30 ****         0.5898   2.2155  -0.9563 H              1 S1                 0.0000
     31 ****        -2.3980   1.1652   0.9313 H              1 S1                 0.0000
     32 ****        -2.1447   2.8026   1.5461 H              1 S1                 0.0000
     33 ****        -1.6828   1.4237   2.5269 H              1 S1                 0.0000
     34 ****        -0.0662  -0.0764   1.8224 H              1 S1                 0.0000
     35 ****        -0.0589  -0.1002   0.0793 H              1 S1                 0.0000
     36 ****         2.1899   1.1683   0.1689 H              1 S1                 0.0000
     37 ****         1.9646   0.6590   2.9275 H              1 S1                 0.0000
     38 ****         3.6049  -0.6705   0.9944 H              1 S1                 0.0000
     39 ****         2.2539  -1.3931   1.8368 H              1 S1                 0.0000
     40 ****         3.4358  -0.6246  -1.6746 H              1 S1                 0.0000
     41 ****         0.5839  -4.3503  -3.2084 H              1 S1                 0.0000
     42 ****        -0.9052  -6.8111  -1.2799 H              1 S1                 0.0000
     43 ****        -1.0185  -6.0330  -2.8572 H              1 S1                 0.0000
     44 ****        -2.2172  -5.6716  -1.6173 H              1 S1                 0.0000
     45 ****        -1.1474  -4.6711   2.0859 H              1 S1                 0.0000
     46 ****        -1.0032  -6.1380   1.1207 H              1 S1                 0.0000
     47 ****        -2.2947  -4.9764   0.7828 H              1 S1                 0.0000
     48 ****         0.4341  -2.9935   1.5884 H              1 S1                 0.0000
     49 ****         0.1987   2.4055   1.4883 H              1 S1                 0.0000
     50 ****         0.4291   6.9580   0.1852 LP             1 S1                 0.0000
     51 ****         1.7123   2.0873   2.2750 LP             1 S1                 0.0000
     52 ****         3.1806   1.3771   2.1958 LP             1 S1                 0.0000
     53 ****         2.5047  -2.2231  -3.3933 LP             1 S1                 0.0000
@<TRIPOS>BOND
    1    1    2 1     
    2    1   25 1     
    3    1   26 1     
    4    1   27 1     
    5    2   24 1     
    6    2    3 2     
    7    3    4 1     
    8    4    5 2     
    9    4   28 1     
   10    5    6 1     
   11    5   24 1     
   12    6    7 1     
   13    6   29 1     
   14    6   30 1     
   15    7    8 1     
   16    7    9 1     
   17    7   49 1     
   18    8   31 1     
   19    8   32 1     
   20    8   33 1     
   21    9   10 1     
   22    9   34 1     
   23    9   35 1     
   24   10   11 1     
   25   10   12 1     
   26   10   36 1     
   27   11   37 1     
   28   12   13 1     
   29   12   38 1     
   30   12   39 1     
   31   13   23 1     
   32   13   14 1     
   33   14   15 2     
   34   14   40 1     
   35   15   16 1     
   36   16   23 ar    
   37   16   17 ar    
   38   17   18 ar    
   39   17   41 1     
   40   18   19 1     
   41   18   20 ar    
   42   19   42 1     
   43   19   43 1     
   44   19   44 1     
   45   20   21 1     
   46   20   22 ar    
   47   21   45 1     
   48   21   46 1     
   49   21   47 1     
   50   22   23 ar    
   51   22   48 1     
   52    3   50 1     
   53   11   51 1     
   54   11   52 1     
   55   15   53 1     
@<TRIPOS>SUBSTRUCTURE
      1 S1             1
@<TRIPOS>SET
LONE_PAIRS      STATIC     ATOMS    <user>   **** ""
4 50 51 52 53
DONOR_HYDROGENS      STATIC     ATOMS    <user>   **** ""
2 49 37
ATOM$BLUE        STATIC     ATOMS    COLORGROUP SYSTEM
4 50 51 52 53
ATOM$RED        STATIC     ATOMS    COLORGROUP SYSTEM
2 49 37
