AV-unprocessed.smi:438|AV-procd|sdf|2572|dock6
  -GOLD-   2262022553D 1   1.00000     0.00000
 Structure written by MMmdl.
 47 48  0  0  0  0  0  0  0  0  2 V2000
  147.6909  133.4853  158.7109 C   0  0  0  0  0  0  0  0  0  0  0  0
  148.0166  134.7861  159.4222 C   0  0  0  0  0  0  0  0  0  0  0  0
  149.1986  135.4247  159.0111 N   0  0  0  0  0  0  0  0  0  0  0  0
  149.5363  136.5352  159.5470 C   0  0  0  0  0  0  0  0  0  0  0  0
  151.0577  137.3583  159.0337 S   0  0  0  0  0  0  0  0  0  0  0  0
  150.5090  138.9133  158.2641 C   0  0  0  0  0  0  0  0  0  0  0  0
  151.6504  139.9135  158.0827 C   0  0  0  0  0  0  0  0  0  0  0  0
  152.4577  139.7634  157.1654 O   0  0  0  0  0  0  0  0  0  0  0  0
  151.7010  140.9309  158.9570 N   0  0  0  0  0  0  0  0  0  0  0  0
  152.6436  142.0509  158.9220 C   0  0  1  0  0  0  0  0  0  0  0  0
  151.8744  143.3625  158.6647 C   0  0  0  0  0  0  0  0  0  0  0  0
  151.0411  143.7976  159.8826 C   0  0  0  0  0  0  0  0  0  0  0  0
  151.9094  143.9062  161.1435 C   0  0  0  0  0  0  0  0  0  0  0  0
  152.6477  142.5877  161.4218 C   0  0  0  0  0  0  0  0  0  0  0  0
  153.4996  142.1509  160.2129 C   0  0  1  0  0  0  0  0  0  0  0  0
  154.3012  140.8744  160.5191 C   0  0  0  0  0  0  0  0  0  0  0  0
  148.7986  137.1721  160.5175 N   0  5  0  0  0  0  0  0  0  0  0  0
  147.6514  136.6051  160.9876 C   0  0  0  0  0  0  0  0  0  0  0  0
  146.9728  137.1351  161.8667 O   0  0  0  0  0  0  0  0  0  0  0  0
  147.2323  135.3189  160.4026 C   0  0  0  0  0  0  0  0  0  0  0  0
  145.9372  134.6743  160.8993 C   0  0  0  0  0  0  0  0  0  0  0  0
  146.0038  134.2399  162.3735 C   0  0  0  0  0  0  0  0  0  0  0  0
  144.9278  133.3836  162.6954 O   0  0  0  0  0  0  0  0  0  0  0  0
  147.7069  132.6503  159.4112 H   0  0  0  0  0  0  0  0  0  0  0  0
  148.4136  133.2807  157.9217 H   0  0  0  0  0  0  0  0  0  0  0  0
  146.7070  133.5357  158.2452 H   0  0  0  0  0  0  0  0  0  0  0  0
  149.7644  139.3676  158.9178 H   0  0  0  0  0  0  0  0  0  0  0  0
  150.0042  138.7097  157.3188 H   0  0  0  0  0  0  0  0  0  0  0  0
  150.9893  140.9651  159.6726 H   0  0  0  0  0  0  0  0  0  0  0  0
  153.3207  141.9102  158.0777 H   0  0  0  0  0  0  0  0  0  0  0  0
  152.5864  144.1522  158.4219 H   0  0  0  0  0  0  0  0  0  0  0  0
  151.2302  143.2570  157.7903 H   0  0  0  0  0  0  0  0  0  0  0  0
  150.5560  144.7524  159.6785 H   0  0  0  0  0  0  0  0  0  0  0  0
  150.2420  143.0783  160.0596 H   0  0  0  0  0  0  0  0  0  0  0  0
  152.6323  144.7139  161.0222 H   0  0  0  0  0  0  0  0  0  0  0  0
  151.2887  144.1724  161.9994 H   0  0  0  0  0  0  0  0  0  0  0  0
  153.2825  142.7074  162.3006 H   0  0  0  0  0  0  0  0  0  0  0  0
  151.9253  141.8088  161.6694 H   0  0  0  0  0  0  0  0  0  0  0  0
  154.2341  142.9390  160.0405 H   0  0  0  0  0  0  0  0  0  0  0  0
  153.6495  140.0395  160.7776 H   0  0  0  0  0  0  0  0  0  0  0  0
  154.9796  141.0318  161.3578 H   0  0  0  0  0  0  0  0  0  0  0  0
  154.9040  140.5756  159.6610 H   0  0  0  0  0  0  0  0  0  0  0  0
  145.6646  133.8188  160.2829 H   0  0  0  0  0  0  0  0  0  0  0  0
  145.1213  135.3857  160.7676 H   0  0  0  0  0  0  0  0  0  0  0  0
  146.9441  133.7335  162.5922 H   0  0  0  0  0  0  0  0  0  0  0  0
  145.9546  135.1143  163.0227 H   0  0  0  0  0  0  0  0  0  0  0  0
  144.6616  133.5585  163.5850 H   0  0  0  0  0  0  0  0  0  0  0  0
  1 24  1  0  0  0  0
  1 25  1  0  0  0  0
  1 26  1  0  0  0  0
  1  2  1  0  0  0  0
  2 20  2  0  0  0  0
  2  3  1  0  0  0  0
  3  4  2  0  0  0  0
  4  5  1  0  0  0  0
  4 17  1  0  0  0  0
  5  6  1  0  0  0  0
  6  7  1  0  0  0  0
  6 27  1  0  0  0  0
  6 28  1  0  0  0  0
  7  8  2  0  0  0  0
  7  9  1  0  0  0  0
  9 10  1  0  0  0  0
  9 29  1  0  0  0  0
 10 15  1  0  0  0  0
 10 11  1  0  0  0  0
 10 30  1  0  0  0  0
 11 12  1  0  0  0  0
 11 31  1  0  0  0  0
 11 32  1  0  0  0  0
 12 13  1  0  0  0  0
 12 33  1  0  0  0  0
 12 34  1  0  0  0  0
 13 14  1  0  0  0  0
 13 35  1  0  0  0  0
 13 36  1  0  0  0  0
 14 15  1  0  0  0  0
 14 37  1  0  0  0  0
 14 38  1  0  0  0  0
 15 16  1  0  0  0  0
 15 39  1  0  0  0  0
 16 40  1  0  0  0  0
 16 41  1  0  0  0  0
 16 42  1  0  0  0  0
 17 18  1  0  0  0  0
 18 19  2  0  0  0  0
 18 20  1  0  0  0  0
 20 21  1  0  0  0  0
 21 22  1  0  0  0  0
 21 43  1  0  0  0  0
 21 44  1  0  0  0  0
 22 23  1  0  0  0  0
 22 45  1  0  0  0  0
 22 46  1  0  0  0  0
 23 47  1  0  0  0  0
M  CHG  1  17  -1
M  END
> <s_m_source_file>
AV-unprocessed.smi

> <i_m_source_file_index>
438

> <i_lp_mmshare_version>
43012

> <i_f3d_flags>
0

> <s_epik_input>
W09IXVtDSDJdW0NIMl1jMWMoW09IXSluYyhuYzFbQ0gzXSlTW0NIMl1DKD1PKVtOSF1bQ0BASF0yW0NIMl1bQ0gyXVtDSDJdW0NIMl1bQ0BIXTJbQ0gzXQ==

> <s_epik_cmdline>
J2VwaWtfcHl0aG9uJywgJy1waCcsICc3LjAnLCAnLXRuJywgJzgnLCAnLW1hJywgJzIwMCcsICctbWV0YWxfYmluZGluZycsICctaW1hZScsICc8aW5maWxlLm1hZT4nLCAnLW9tYWUnLCAnPG91dGZpbGUubWFlPic=

> <r_lp_tautomer_probability>
1

> <r_epik_Ionization_Penalty>
3.69231

> <r_epik_Ionization_Penalty_Charging>
0.00434774

> <r_epik_Ionization_Penalty_Neutral>
3.68796

> <r_epik_State_Penalty>
2.13826

> <r_epik_Charging_Adjusted_Penalty>
2.14261

> <i_epik_Tot_Q>
-1

> <i_epik_Tot_abs_Q>
1

> <r_epik_Metal_State_Penalty>
0.260979

> <b_epik_Metal_Only>
0

> <s_lp_Force_Field>
OPLS_2005

> <r_lp_Energy>
18.1923

> <b_lp_Chiralities_Consistent>
1

> <s_lp_Variant>
AV-unprocessed.smi:438-10

> <Gold.Version>
5.8.1

> <Gold.Id.Protein>
6NUR|6NUR_protein|mol2

> <Gold.PLP.Fitness>
52.9173

> <Gold.PLP.PLP>
-42.3619

> <Gold.PLP.part.hbond>
-5.3092

> <Gold.PLP.part.metal>
0.0000

> <Gold.PLP.part.buried>
-4.8654

> <Gold.PLP.part.nonpolar>
-34.0880

> <Gold.PLP.part.repulsive>
0.1501

> <Gold.PLP.ligand.clash>
0.0000

> <Gold.PLP.ligand.torsion>
0.3803

> <Gold.PLP.Chemscore.Hbond>
3.7630

> <Gold.PLP.Chemscore.CHOScore>
0.0000

> <Gold.PLP.Chemscore.Metal>
0.0000

> <Gold.Chemscore.Hbonds>
donor molecule, donor type, donor heavy atom, donor atom, acceptor molecule, acceptor atom, score
      P1  H  6896  6907       L1     3  1.00
      P1  H  6931  6943       L1    17  1.17
      P1  H  6934  6947       L1    19  0.44
      P1  H  7997  8010       L1     8  1.00

> <Gold.PLP.Chemscore.Internal.Correction>
0.0269

> <Gold.Rescore>
     Score         DG    S(hbond)    S(metal)    S(lipo)     H(rot)  DE(clash)    DE(int)     intcor
     17.47     -17.95       2.29        0.00     102.30       2.79       0.04       0.44       ----

> <Gold.Chemscore.Fitness>
17.4722

> <Gold.Chemscore.DG>
-17.9535

> <Gold.Chemscore.ZeroCoef>
-5.4800

> <Gold.Chemscore.Hbond>
2.2916

> <Gold.Chemscore.Metal>
0.0000

> <Gold.Chemscore.Lipo>
102.2964

> <Gold.Chemscore.Internal_Hbond>
0.0000

> <Gold.Chemscore.DEClash>
0.0402

> <Gold.Chemscore.DEInternal>
0.4410

> <Gold.Chemscore.Rot>
2.7927

> <Gold.Chemscore.Internal.Correction>
   9.000000E+99

> <Gold.Chemscore.Hbonds>
donor molecule, donor type, donor heavy atom, donor atom, acceptor molecule, acceptor atom, score
      P1  H  6896  6907       L1     3  0.22
      P1  H  6931  6943       L1    17  0.10
      P1  H  6934  6947       L1    19  0.03
      P1  H  7997  8010       L1     8  0.94

> <Gold.Chemscore.Hbond.Weighted>
-7.6540

> <Gold.Chemscore.Metal.Weighted>
-0.0000

> <Gold.Chemscore.Lipo.Weighted>
-11.9687

> <Gold.Chemscore.Internal_Hbond.Weighted>
0.0000

> <Gold.Chemscore.DEClash.Weighted>
0.0402

> <Gold.Chemscore.DEInternal.Weighted>
0.4410

> <Gold.Chemscore.Rot.Weighted>
7.1492

> <Gold.Chemscore.Internal.Correction.Weighted>
   9.000000E+99

> <Gold.Protein.RotatedTorsions>
[ 6907 6896 6895 6894 ] final  -88.24 input  -60.11 | X-H torsion
[ 7974 7965 7964 7962 ] final -124.60 input  175.53 | X-H torsion
[ 8008 7997 7996 7995 ] final   53.51 input   59.86 | X-H torsion
[ 10167 10162 10161 10158 ] final -102.90 input  -65.29 | X-H torsion
[ 10718 10713 10712 10709 ] final  -27.53 input   66.30 | X-H torsion
[ 10763 10752 10751 10750 ] final  -55.15 input  -60.55 | X-H torsion
[ 11005 11000 10999 10996 ] final   64.81 input  -57.11 | X-H torsion

> <Gold.Protein.ActiveResidues>
 VAL166  LYS551  ARG553  GLY616  TRP617  ASP618  TYR619  PRO620  LYS621  CYS622 
 ASP623  PHE694  ASN695  SER759  ASP760  ASP761  ALA762  ILE779  LEU786  VAL792 
 PHE793  MET794  SER795  GLU796  ALA797  LYS798  CYS799  TRP800  GLU811  SER814 

> <Gold.Protein.RotatedAtoms>
  150.6868  134.2771  159.4611 H   0  0  0  0  0  0  0  0  0  0  0  0  # atno 6907 bound_to 6896
  152.0689  134.9544  160.0584 H   0  0  0  0  0  0  0  0  0  0  0  0  # atno 6908 bound_to 6896
  152.0942  133.4181  159.4594 H   0  0  0  0  0  0  0  0  0  0  0  0  # atno 6909 bound_to 6896
  145.0064  140.7867  143.4465 H   0  0  0  0  0  0  0  0  0  0  0  0  # atno 7974 bound_to 7965
  155.4694  140.3464  155.4323 H   0  0  0  0  0  0  0  0  0  0  0  0  # atno 8008 bound_to 7997
  156.1110  140.1461  156.9367 H   0  0  0  0  0  0  0  0  0  0  0  0  # atno 8009 bound_to 7997
  154.4756  140.0886  156.7233 H   0  0  0  0  0  0  0  0  0  0  0  0  # atno 8010 bound_to 7997
  140.2257  143.3643  152.0931 H   0  0  0  0  0  0  0  0  0  0  0  0  # atno 10167 bound_to 10162
  156.4369  130.4456  149.7079 H   0  0  0  0  0  0  0  0  0  0  0  0  # atno 10718 bound_to 10713
  154.1861  135.6435  153.5047 H   0  0  0  0  0  0  0  0  0  0  0  0  # atno 10763 bound_to 10752
  153.0046  135.5417  154.6463 H   0  0  0  0  0  0  0  0  0  0  0  0  # atno 10764 bound_to 10752
  154.5840  135.2928  155.0676 H   0  0  0  0  0  0  0  0  0  0  0  0  # atno 10765 bound_to 10752
  139.9935  134.6554  156.0051 H   0  0  0  0  0  0  0  0  0  0  0  0  # atno 11005 bound_to 11000
  145.2083  139.2217  143.5156 LP  0  0  0  0  0  0  0  0  0  0  0  0  # atno 17320 bound_to 7965
  146.3462  140.1915  142.8589 LP  0  0  0  0  0  0  0  0  0  0  0  0  # atno 17321 bound_to 7965
  139.5128  144.6922  151.5728 LP  0  0  0  0  0  0  0  0  0  0  0  0  # atno 17342 bound_to 10162
  140.6222  143.9236  150.6535 LP  0  0  0  0  0  0  0  0  0  0  0  0  # atno 17343 bound_to 10162
  156.3959  130.7650  151.2655 LP  0  0  0  0  0  0  0  0  0  0  0  0  # atno 17370 bound_to 10713
  157.7507  131.0254  150.3918 LP  0  0  0  0  0  0  0  0  0  0  0  0  # atno 17371 bound_to 10713
  141.1585  133.6540  156.4240 LP  0  0  0  0  0  0  0  0  0  0  0  0  # atno 17394 bound_to 11000
  140.4863  134.6617  157.5192 LP  0  0  0  0  0  0  0  0  0  0  0  0  # atno 17395 bound_to 11000

$$$$
