#       Name:                AV-unprocessed.smi:2909
#       Creating user name   scv26
#       Creation time:       Fri Mar 27 16:06:35 2020


#       File generated by GOLD software.
#

@<TRIPOS>MOLECULE
AV-unprocessed.smi:2909
    47    48     1
SMALL
NO_CHARGES


@<TRIPOS>ATOM
      1 ****        -3.4109   2.1845  -4.1913 C.3            1 S1                 0.0000
      2 ****        -3.2004   1.9195  -2.7297 C.2            1 S1                 0.0000
      3 ****        -2.7938   2.8380  -1.7180 C.2            1 S1                 0.0000
      4 ****        -2.7560   2.0882  -0.5755 C.2            1 S1                 0.0000
      5 ****        -2.3979   2.4457   0.8337 C.3            1 S1                 0.0000
      6 ****        -0.8829   2.5454   1.0389 C.2            1 S1                 0.0000
      7 ****        -0.4121   3.4952   1.6639 O.2            1 S1                 0.0000
      8 ****        -0.1336   1.5520   0.5338 N.am           1 S1                 0.0000
      9 ****         1.3188   1.4351   0.6415 C.3            1 S1                 0.0000
     10 ****         1.8763   0.6317  -0.5442 C.3            1 S1                 0.0000
     11 ****         1.4717  -0.8521  -0.4882 C.3            1 S1                 0.0000
     12 ****         1.8775  -1.5335   0.8425 C.3            1 S1                 0.0000
     13 ****         1.4373  -3.0263   0.8974 C.3            1 S1                 0.0000
     14 ****         1.8198  -3.7136   2.2225 C.3            1 S1                 0.0000
     15 ****         2.0026  -3.8563  -0.2717 C.3            1 S1                 0.0000
     16 ****         1.3186  -0.7103   2.0298 C.3            1 S1                 0.0000
     17 ****         1.7275   0.7720   1.9687 C.3            1 S1                 0.0000
     18 ****        -3.1321   0.8152  -0.9409 N.pl3          1 S1                 0.0000
     19 ****        -3.4034   0.6998  -2.2538 N.2            1 S1                 0.0000
     20 ****        -3.2075   0.0268  -0.3136 H              1 S1                 0.0000
     21 ****        -3.0437   3.1724  -4.4695 H              1 S1                 0.0000
     22 ****        -4.4693   2.1394  -4.4482 H              1 S1                 0.0000
     23 ****        -2.8864   1.4516  -4.8050 H              1 S1                 0.0000
     24 ****        -2.5606   3.8880  -1.8171 H              1 S1                 0.0000
     25 ****        -2.7958   1.7034   1.5264 H              1 S1                 0.0000
     26 ****        -2.8608   3.3972   1.0984 H              1 S1                 0.0000
     27 ****        -0.6081   0.8139   0.0341 H              1 S1                 0.0000
     28 ****         1.7509   2.4368   0.6011 H              1 S1                 0.0000
     29 ****         1.5450   1.0725  -1.4853 H              1 S1                 0.0000
     30 ****         2.9647   0.7030  -0.5442 H              1 S1                 0.0000
     31 ****         0.3951  -0.9454  -0.6366 H              1 S1                 0.0000
     32 ****         1.9412  -1.3521  -1.3341 H              1 S1                 0.0000
     33 ****         2.9663  -1.5055   0.9083 H              1 S1                 0.0000
     34 ****         0.3496  -3.0610   0.8201 H              1 S1                 0.0000
     35 ****         2.8889  -3.6289   2.4194 H              1 S1                 0.0000
     36 ****         1.5715  -4.7751   2.2009 H              1 S1                 0.0000
     37 ****         1.2841  -3.2915   3.0721 H              1 S1                 0.0000
     38 ****         3.0896  -3.7851  -0.3193 H              1 S1                 0.0000
     39 ****         1.6000  -3.5383  -1.2327 H              1 S1                 0.0000
     40 ****         1.7464  -4.9109  -0.1660 H              1 S1                 0.0000
     41 ****         0.2311  -0.7907   2.0546 H              1 S1                 0.0000
     42 ****         1.6772  -1.1104   2.9772 H              1 S1                 0.0000
     43 ****         2.8092   0.8470   2.0865 H              1 S1                 0.0000
     44 ****         1.2957   1.3127   2.8118 H              1 S1                 0.0000
     45 ****        -1.0179   4.1986   2.0359 LP             1 S1                 0.0000
     46 ****         0.5762   3.5637   1.7999 LP             1 S1                 0.0000
     47 ****        -3.6914  -0.1168  -2.7540 LP             1 S1                 0.0000
@<TRIPOS>BOND
    1    1   21 1     
    2    1   22 1     
    3    1   23 1     
    4    1    2 1     
    5    2   19 2     
    6    2    3 1     
    7    3    4 2     
    8    3   24 1     
    9    4   18 1     
   10    4    5 1     
   11    5    6 1     
   12    5   25 1     
   13    5   26 1     
   14    6    7 2     
   15    6    8 am    
   16    8    9 1     
   17    8   27 1     
   18    9   17 1     
   19    9   10 1     
   20    9   28 1     
   21   10   11 1     
   22   10   29 1     
   23   10   30 1     
   24   11   12 1     
   25   11   31 1     
   26   11   32 1     
   27   12   13 1     
   28   12   16 1     
   29   12   33 1     
   30   13   14 1     
   31   13   15 1     
   32   13   34 1     
   33   14   35 1     
   34   14   36 1     
   35   14   37 1     
   36   15   38 1     
   37   15   39 1     
   38   15   40 1     
   39   16   17 1     
   40   16   41 1     
   41   16   42 1     
   42   17   43 1     
   43   17   44 1     
   44   18   19 1     
   45   18   20 1     
   46    7   45 1     
   47    7   46 1     
   48   19   47 1     
@<TRIPOS>SUBSTRUCTURE
      1 S1             1
@<TRIPOS>SET
LONE_PAIRS      STATIC     ATOMS    <user>   **** ""
3 45 46 47
DONOR_HYDROGENS      STATIC     ATOMS    <user>   **** ""
2 27 20
ATOM$BLUE        STATIC     ATOMS    COLORGROUP SYSTEM
3 45 46 47
ATOM$RED        STATIC     ATOMS    COLORGROUP SYSTEM
2 27 20
