AV-unprocessed.smi:142|AV-procd|sdf|1189|dock1
  -GOLD-   2262018343D 1   1.00000     0.00000
 Structure written by MMmdl.
 52 55  0  0  0  0  0  0  0  0  1 V2000
  150.7405  139.5523  154.9828 C   0  0  0  0  0  0  0  0  0  0  0  0
  151.6536  139.0817  156.1230 C   0  0  2  0  0  0  0  0  0  0  0  0
  151.1156  137.8477  156.6926 N   0  0  0  0  0  0  0  0  0  0  0  0
  151.1157  136.6513  156.0855 C   0  0  0  0  0  0  0  0  0  0  0  0
  151.5577  136.4729  154.9495 O   0  0  0  0  0  0  0  0  0  0  0  0
  150.5200  135.4892  156.8949 C   0  0  0  0  0  0  0  0  0  0  0  0
  150.3896  134.2411  156.1118 N   0  0  0  0  0  0  0  0  0  0  0  0
  149.5055  134.2276  155.0047 C   0  0  0  0  0  0  0  0  0  0  0  0
  148.8688  135.2327  154.6841 O   0  0  0  0  0  0  0  0  0  0  0  0
  149.4031  132.9571  154.2957 C   0  0  0  0  0  0  0  0  0  0  0  0
  148.5924  132.8543  153.2290 F   0  0  0  0  0  0  0  0  0  0  0  0
  150.1089  131.8790  154.6952 C   0  0  0  0  0  0  0  0  0  0  0  0
  150.9641  131.9050  155.7824 N   0  0  0  0  0  0  0  0  0  0  0  0
  151.7344  130.6809  156.2296 C   0  0  2  0  0  0  0  0  0  0  0  0
  153.2453  130.9741  156.2639 C   0  0  0  0  0  0  0  0  0  0  0  0
  153.8270  129.8100  155.4873 C   0  0  0  0  0  0  0  0  0  0  0  0
  152.7014  129.4900  154.5152 C   0  0  0  0  0  0  0  0  0  0  0  0
  151.5383  129.6363  155.3192 O   0  0  0  0  0  0  0  0  0  0  0  0
  151.1187  133.0990  156.5198 C   0  0  0  0  0  0  0  0  0  0  0  0
  151.8690  133.1394  157.4975 O   0  0  0  0  0  0  0  0  0  0  0  0
  151.8513  140.1888  157.1552 C   0  0  0  0  0  0  0  0  0  0  0  0
  152.6772  139.9514  158.2747 C   0  0  0  0  0  0  0  0  0  0  0  0
  152.8845  140.9585  159.2369 C   0  0  0  0  0  0  0  0  0  0  0  0
  152.2685  142.2171  159.0867 C   0  0  0  0  0  0  0  0  0  0  0  0
  152.4729  143.2308  160.0459 C   0  0  0  0  0  0  0  0  0  0  0  0
  151.8532  144.4860  159.8888 C   0  0  0  0  0  0  0  0  0  0  0  0
  151.0281  144.7312  158.7743 C   0  0  0  0  0  0  0  0  0  0  0  0
  150.8220  143.7233  157.8124 C   0  0  0  0  0  0  0  0  0  0  0  0
  151.4403  142.4649  157.9642 C   0  0  0  0  0  0  0  0  0  0  0  0
  151.2384  141.4539  157.0030 C   0  0  0  0  0  0  0  0  0  0  0  0
  151.1544  140.4310  154.4871 H   0  0  0  0  0  0  0  0  0  0  0  0
  149.7486  139.8157  155.3515 H   0  0  0  0  0  0  0  0  0  0  0  0
  150.6206  138.7757  154.2268 H   0  0  0  0  0  0  0  0  0  0  0  0
  152.6283  138.8499  155.6890 H   0  0  0  0  0  0  0  0  0  0  0  0
  150.7308  137.9061  157.6242 H   0  0  0  0  0  0  0  0  0  0  0  0
  151.1349  135.3224  157.7811 H   0  0  0  0  0  0  0  0  0  0  0  0
  149.5585  135.8103  157.2977 H   0  0  0  0  0  0  0  0  0  0  0  0
  149.9841  130.9682  154.1301 H   0  0  0  0  0  0  0  0  0  0  0  0
  151.3114  130.3980  157.1955 H   0  0  0  0  0  0  0  0  0  0  0  0
  153.4583  131.9150  155.7539 H   0  0  0  0  0  0  0  0  0  0  0  0
  153.6101  131.0350  157.2895 H   0  0  0  0  0  0  0  0  0  0  0  0
  154.7656  130.0538  154.9893 H   0  0  0  0  0  0  0  0  0  0  0  0
  153.9998  128.9629  156.1524 H   0  0  0  0  0  0  0  0  0  0  0  0
  152.6837  130.2070  153.6932 H   0  0  0  0  0  0  0  0  0  0  0  0
  152.7757  128.4864  154.0962 H   0  0  0  0  0  0  0  0  0  0  0  0
  153.1562  138.9913  158.3996 H   0  0  0  0  0  0  0  0  0  0  0  0
  153.5185  140.7598  160.0887 H   0  0  0  0  0  0  0  0  0  0  0  0
  153.1043  143.0512  160.9040 H   0  0  0  0  0  0  0  0  0  0  0  0
  152.0102  145.2608  160.6246 H   0  0  0  0  0  0  0  0  0  0  0  0
  150.5526  145.6937  158.6562 H   0  0  0  0  0  0  0  0  0  0  0  0
  150.1876  143.9200  156.9602 H   0  0  0  0  0  0  0  0  0  0  0  0
  150.6113  141.6547  156.1466 H   0  0  0  0  0  0  0  0  0  0  0  0
  1  2  1  0  0  0  0
  1 31  1  0  0  0  0
  1 32  1  0  0  0  0
  1 33  1  0  0  0  0
  2  3  1  0  0  0  0
  2 21  1  0  0  0  0
  2 34  1  0  0  0  0
  3  4  1  0  0  0  0
  3 35  1  0  0  0  0
  4  5  2  0  0  0  0
  4  6  1  0  0  0  0
  6  7  1  0  0  0  0
  6 36  1  0  0  0  0
  6 37  1  0  0  0  0
  7 19  1  0  0  0  0
  7  8  1  0  0  0  0
  8  9  2  0  0  0  0
  8 10  1  0  0  0  0
 10 11  1  0  0  0  0
 10 12  2  0  0  0  0
 12 13  1  0  0  0  0
 12 38  1  0  0  0  0
 13 14  1  0  0  0  0
 13 19  1  0  0  0  0
 14 18  1  0  0  0  0
 14 15  1  0  0  0  0
 14 39  1  0  0  0  0
 15 16  1  0  0  0  0
 15 40  1  0  0  0  0
 15 41  1  0  0  0  0
 16 17  1  0  0  0  0
 16 42  1  0  0  0  0
 16 43  1  0  0  0  0
 17 18  1  0  0  0  0
 17 44  1  0  0  0  0
 17 45  1  0  0  0  0
 19 20  2  0  0  0  0
 21 30  1  0  0  0  0
 21 22  2  0  0  0  0
 22 23  1  0  0  0  0
 22 46  1  0  0  0  0
 23 24  2  0  0  0  0
 23 47  1  0  0  0  0
 24 29  1  0  0  0  0
 24 25  1  0  0  0  0
 25 26  2  0  0  0  0
 25 48  1  0  0  0  0
 26 27  1  0  0  0  0
 26 49  1  0  0  0  0
 27 28  2  0  0  0  0
 27 50  1  0  0  0  0
 28 29  1  0  0  0  0
 28 51  1  0  0  0  0
 29 30  2  0  0  0  0
 30 52  1  0  0  0  0
M  END
> <s_m_source_file>
AV-unprocessed.smi

> <i_m_source_file_index>
142

> <i_lp_mmshare_version>
43012

> <i_f3d_flags>
0

> <s_epik_input>
W2NIXTFbY0hdW2NIXVtjSF1jKGMxMilbY0hdYyhbY0hdW2NIXTIpW0NASF0oW0NIM10pW05IXUMoPU8pW0NIMl1uM2MoPU8pYyhGKVtjSF1uKGMzPU8pW0NAQEhdNFtDSDJdW0NIMl1bQ0gyXU80

> <s_epik_cmdline>
J2VwaWtfcHl0aG9uJywgJy1waCcsICc3LjAnLCAnLXRuJywgJzgnLCAnLW1hJywgJzIwMCcsICctbWV0YWxfYmluZGluZycsICctaW1hZScsICc8aW5maWxlLm1hZT4nLCAnLW9tYWUnLCAnPG91dGZpbGUubWFlPic=

> <r_lp_tautomer_probability>
1

> <r_epik_Ionization_Penalty>
3.35688e-08

> <r_epik_Ionization_Penalty_Charging>
3.59856e-09

> <r_epik_Ionization_Penalty_Neutral>
2.99702e-08

> <r_epik_State_Penalty>
-0

> <r_epik_Charging_Adjusted_Penalty>
3.59856e-09

> <i_epik_Tot_Q>
0

> <i_epik_Tot_abs_Q>
0

> <r_epik_Metal_State_Penalty>
-0

> <b_epik_Metal_Only>
0

> <s_epik_Chemistry_Notes>
This compound contains an acetal/aminal-like group ( X-CH(R)-Y where X, Y are N, S, or O) that may be acid/base labile, releasing an aldehyde.

> <s_lp_Force_Field>
OPLS_2005

> <r_lp_Energy>
31.3548

> <b_lp_Chiralities_Consistent>
1

> <s_lp_Variant>
AV-unprocessed.smi:142-1

> <Gold.Version>
5.8.1

> <Gold.Id.Protein>
6NUR|6NUR_protein|mol2

> <Gold.PLP.Fitness>
62.1108

> <Gold.PLP.PLP>
-57.1639

> <Gold.PLP.part.hbond>
-2.0000

> <Gold.PLP.part.metal>
0.0000

> <Gold.PLP.part.buried>
-4.7360

> <Gold.PLP.part.nonpolar>
-51.2457

> <Gold.PLP.part.repulsive>
1.4097

> <Gold.PLP.ligand.clash>
0.0000

> <Gold.PLP.ligand.torsion>
0.2641

> <Gold.PLP.Chemscore.Hbond>
1.7840

> <Gold.PLP.Chemscore.CHOScore>
0.0000

> <Gold.PLP.Chemscore.Metal>
0.0000

> <Gold.Chemscore.Hbonds>
donor molecule, donor type, donor heavy atom, donor atom, acceptor molecule, acceptor atom, score
      P1  H  6896  6907       L1    20  0.74
      P1  H 10752 10765       L1     5  1.00

> <Gold.PLP.Chemscore.Internal.Correction>
0.1232

> <Gold.Rescore>
     Score         DG    S(hbond)    S(metal)    S(lipo)     H(rot)  DE(clash)    DE(int)     intcor
     20.37     -22.74       1.85        0.00     138.98       2.02       0.03       2.35       ----

> <Gold.Chemscore.Fitness>
20.3662

> <Gold.Chemscore.DG>
-22.7434

> <Gold.Chemscore.ZeroCoef>
-5.4800

> <Gold.Chemscore.Hbond>
1.8467

> <Gold.Chemscore.Metal>
0.0000

> <Gold.Chemscore.Lipo>
138.9756

> <Gold.Chemscore.Internal_Hbond>
0.0000

> <Gold.Chemscore.DEClash>
0.0271

> <Gold.Chemscore.DEInternal>
2.3501

> <Gold.Chemscore.Rot>
2.0175

> <Gold.Chemscore.Internal.Correction>
   9.000000E+99

> <Gold.Chemscore.Hbonds>
donor molecule, donor type, donor heavy atom, donor atom, acceptor molecule, acceptor atom, score
      P1  H  6896  6907       L1    20  0.74
      P1  H 10752 10765       L1     5  1.00

> <Gold.Chemscore.Hbond.Weighted>
-6.1681

> <Gold.Chemscore.Metal.Weighted>
-0.0000

> <Gold.Chemscore.Lipo.Weighted>
-16.2601

> <Gold.Chemscore.Internal_Hbond.Weighted>
0.0000

> <Gold.Chemscore.DEClash.Weighted>
0.0271

> <Gold.Chemscore.DEInternal.Weighted>
2.3501

> <Gold.Chemscore.Rot.Weighted>
5.1648

> <Gold.Chemscore.Internal.Correction.Weighted>
   9.000000E+99

> <Gold.Protein.RotatedTorsions>
[ 6907 6896 6895 6894 ] final -169.15 input  -60.11 | X-H torsion
[ 7974 7965 7964 7962 ] final   -1.75 input  175.53 | X-H torsion
[ 8008 7997 7996 7995 ] final -131.06 input   59.86 | X-H torsion
[ 10167 10162 10161 10158 ] final  -61.84 input  -65.29 | X-H torsion
[ 10718 10713 10712 10709 ] final -112.88 input   66.30 | X-H torsion
[ 10763 10752 10751 10750 ] final  171.18 input  -60.55 | X-H torsion
[ 11005 11000 10999 10996 ] final  -55.18 input  -57.11 | X-H torsion

> <Gold.Protein.ActiveResidues>
 VAL166  LYS551  ARG553  GLY616  TRP617  ASP618  TYR619  PRO620  LYS621  CYS622 
 ASP623  PHE694  ASN695  SER759  ASP760  ASP761  ALA762  ILE779  LEU786  VAL792 
 PHE793  MET794  SER795  GLU796  ALA797  LYS798  CYS799  TRP800  GLU811  SER814 

> <Gold.Protein.RotatedAtoms>
  151.4869  133.3533  159.2846 H   0  0  0  0  0  0  0  0  0  0  0  0  # atno 6907 bound_to 6896
  150.8860  134.8260  159.7270 H   0  0  0  0  0  0  0  0  0  0  0  0  # atno 6908 bound_to 6896
  152.4793  134.4773  159.9706 H   0  0  0  0  0  0  0  0  0  0  0  0  # atno 6909 bound_to 6896
  146.2413  140.1468  142.8334 H   0  0  0  0  0  0  0  0  0  0  0  0  # atno 7974 bound_to 7965
  155.3060  140.0455  157.3032 H   0  0  0  0  0  0  0  0  0  0  0  0  # atno 8008 bound_to 7997
  154.5460  140.2302  155.8530 H   0  0  0  0  0  0  0  0  0  0  0  0  # atno 8009 bound_to 7997
  156.1924  140.3047  155.9366 H   0  0  0  0  0  0  0  0  0  0  0  0  # atno 8010 bound_to 7997
  140.5979  143.2355  151.5995 H   0  0  0  0  0  0  0  0  0  0  0  0  # atno 10167 bound_to 10162
  156.0732  130.5943  150.8567 H   0  0  0  0  0  0  0  0  0  0  0  0  # atno 10718 bound_to 10713
  154.4082  135.2756  155.2054 H   0  0  0  0  0  0  0  0  0  0  0  0  # atno 10763 bound_to 10752
  154.4050  135.6035  153.5923 H   0  0  0  0  0  0  0  0  0  0  0  0  # atno 10764 bound_to 10752
  152.9831  135.5935  154.4360 H   0  0  0  0  0  0  0  0  0  0  0  0  # atno 10765 bound_to 10752
  141.1061  133.6613  156.4431 H   0  0  0  0  0  0  0  0  0  0  0  0  # atno 11005 bound_to 11000
  145.0201  140.8786  143.5172 LP  0  0  0  0  0  0  0  0  0  0  0  0  # atno 17320 bound_to 7965
  145.1515  139.2511  143.5438 LP  0  0  0  0  0  0  0  0  0  0  0  0  # atno 17321 bound_to 7965
  139.5270  144.3028  152.1059 LP  0  0  0  0  0  0  0  0  0  0  0  0  # atno 17342 bound_to 10162
  140.2203  144.4473  150.6345 LP  0  0  0  0  0  0  0  0  0  0  0  0  # atno 17343 bound_to 10162
  157.5814  131.0946  150.9265 LP  0  0  0  0  0  0  0  0  0  0  0  0  # atno 17370 bound_to 10713
  156.9460  130.5402  149.5281 LP  0  0  0  0  0  0  0  0  0  0  0  0  # atno 17371 bound_to 10713
  140.4897  134.6587  157.5206 LP  0  0  0  0  0  0  0  0  0  0  0  0  # atno 17394 bound_to 11000
  139.9932  134.6952  155.9653 LP  0  0  0  0  0  0  0  0  0  0  0  0  # atno 17395 bound_to 11000

$$$$
