AV-unprocessed.smi:1807|AV-procd|sdf|7301|dock1
  -GOLD-   22720 8553D 1   1.00000     0.00000
 Structure written by MMmdl.
 44 45  0  0  0  0  0  0  0  0  1 V2000
  147.6686  140.3723  153.8962 C   0  0  0  0  0  0  0  0  0  0  0  0
  148.8505  139.9270  154.7757 C   0  0  2  0  0  0  0  0  0  0  0  0
  149.7998  141.1113  155.0496 C   0  0  0  0  0  0  0  0  0  0  0  0
  150.9825  140.7025  155.9407 C   0  0  0  0  0  0  0  0  0  0  0  0
  151.7576  139.5298  155.3251 C   0  0  0  0  0  0  0  0  0  0  0  0
  150.8272  138.3394  155.0561 C   0  0  0  0  0  0  0  0  0  0  0  0
  149.6303  138.7358  154.1657 C   0  0  1  0  0  0  0  0  0  0  0  0
  148.7520  137.5808  153.9999 N   0  0  0  0  0  0  0  0  0  0  0  0
  147.9577  137.0652  154.9496 C   0  0  0  0  0  0  0  0  0  0  0  0
  147.9369  137.4704  156.1126 O   0  0  0  0  0  0  0  0  0  0  0  0
  147.0424  135.9168  154.5093 C   0  0  0  0  0  0  0  0  0  0  0  0
  147.0782  135.7033  153.0660 N   0  0  0  0  0  0  0  0  0  0  0  0
  146.5720  134.5117  152.5285 C   0  0  0  0  0  0  0  0  0  0  0  0
  146.0012  133.4961  153.3427 C   0  0  0  0  0  0  0  0  0  0  0  0
  145.6085  132.5527  152.4358 C   0  0  0  0  0  0  0  0  0  0  0  0
  145.9442  133.0177  151.1791 N   0  0  0  0  0  0  0  0  0  0  0  0
  145.7145  132.3883  149.8905 C   0  0  0  0  0  0  0  0  0  0  0  0
  144.2538  132.5199  149.4490 C   0  0  0  0  0  0  0  0  0  0  0  0
  143.4285  133.1993  150.2505 N   0  0  0  0  0  0  0  0  0  0  0  0
  143.8717  132.0042  148.4009 O   0  0  0  0  0  0  0  0  0  0  0  0
  146.5570  134.2199  151.2364 N   0  0  0  0  0  0  0  0  0  0  0  0
  148.0062  140.6755  152.9049 H   0  0  0  0  0  0  0  0  0  0  0  0
  147.1461  141.2189  154.3421 H   0  0  0  0  0  0  0  0  0  0  0  0
  146.9373  139.5738  153.7686 H   0  0  0  0  0  0  0  0  0  0  0  0
  148.4407  139.6065  155.7349 H   0  0  0  0  0  0  0  0  0  0  0  0
  150.1777  141.5058  154.1052 H   0  0  0  0  0  0  0  0  0  0  0  0
  149.2527  141.9259  155.5255 H   0  0  0  0  0  0  0  0  0  0  0  0
  151.6493  141.5525  156.0875 H   0  0  0  0  0  0  0  0  0  0  0  0
  150.6165  140.4209  156.9289 H   0  0  0  0  0  0  0  0  0  0  0  0
  152.2263  139.8472  154.3925 H   0  0  0  0  0  0  0  0  0  0  0  0
  152.5654  139.2262  155.9915 H   0  0  0  0  0  0  0  0  0  0  0  0
  151.3944  137.5315  154.5922 H   0  0  0  0  0  0  0  0  0  0  0  0
  150.4612  137.9497  156.0068 H   0  0  0  0  0  0  0  0  0  0  0  0
  150.0082  139.0433  153.1884 H   0  0  0  0  0  0  0  0  0  0  0  0
  148.7051  137.1757  153.0763 H   0  0  0  0  0  0  0  0  0  0  0  0
  147.3006  134.9921  155.0284 H   0  0  0  0  0  0  0  0  0  0  0  0
  146.0195  136.1603  154.7966 H   0  0  0  0  0  0  0  0  0  0  0  0
  147.7094  136.2638  152.5124 H   0  0  0  0  0  0  0  0  0  0  0  0
  145.8856  133.4683  154.4162 H   0  0  0  0  0  0  0  0  0  0  0  0
  145.1157  131.6022  152.5774 H   0  0  0  0  0  0  0  0  0  0  0  0
  146.3731  132.8450  149.1500 H   0  0  0  0  0  0  0  0  0  0  0  0
  145.9863  131.3340  149.9552 H   0  0  0  0  0  0  0  0  0  0  0  0
  142.4560  133.3060  150.0019 H   0  0  0  0  0  0  0  0  0  0  0  0
  143.7814  133.5996  151.1077 H   0  0  0  0  0  0  0  0  0  0  0  0
  1  2  1  0  0  0  0
  1 22  1  0  0  0  0
  1 23  1  0  0  0  0
  1 24  1  0  0  0  0
  2  7  1  0  0  0  0
  2  3  1  0  0  0  0
  2 25  1  0  0  0  0
  3  4  1  0  0  0  0
  3 26  1  0  0  0  0
  3 27  1  0  0  0  0
  4  5  1  0  0  0  0
  4 28  1  0  0  0  0
  4 29  1  0  0  0  0
  5  6  1  0  0  0  0
  5 30  1  0  0  0  0
  5 31  1  0  0  0  0
  6  7  1  0  0  0  0
  6 32  1  0  0  0  0
  6 33  1  0  0  0  0
  7  8  1  0  0  0  0
  7 34  1  0  0  0  0
  8  9  1  0  0  0  0
  8 35  1  0  0  0  0
  9 10  2  0  0  0  0
  9 11  1  0  0  0  0
 11 12  1  0  0  0  0
 11 36  1  0  0  0  0
 11 37  1  0  0  0  0
 12 13  1  0  0  0  0
 12 38  1  0  0  0  0
 13 21  2  0  0  0  0
 13 14  1  0  0  0  0
 14 15  2  0  0  0  0
 14 39  1  0  0  0  0
 15 16  1  0  0  0  0
 15 40  1  0  0  0  0
 16 17  1  0  0  0  0
 16 21  1  0  0  0  0
 17 18  1  0  0  0  0
 17 41  1  0  0  0  0
 17 42  1  0  0  0  0
 18 19  1  0  0  0  0
 18 20  2  0  0  0  0
 19 43  1  0  0  0  0
 19 44  1  0  0  0  0
M  END
> <s_m_source_file>
AV-unprocessed.smi

> <i_m_source_file_index>
1807

> <i_lp_mmshare_version>
43012

> <i_f3d_flags>
0

> <s_epik_input>
W0NIM11bQ0BASF0xW0NIMl1bQ0gyXVtDSDJdW0NIMl1bQ0BIXTFbTkhdQyg9TylbQ0gyXVtOSF1jMltjSF1bY0hdbihuMilbQ0gyXUMoPU8pW05IMl0=

> <s_epik_cmdline>
J2VwaWtfcHl0aG9uJywgJy1waCcsICc3LjAnLCAnLXRuJywgJzgnLCAnLW1hJywgJzIwMCcsICctbWV0YWxfYmluZGluZycsICctaW1hZScsICc8aW5maWxlLm1hZT4nLCAnLW9tYWUnLCAnPG91dGZpbGUubWFlPic=

> <r_lp_tautomer_probability>
1

> <r_epik_Ionization_Penalty>
0.000167642

> <r_epik_Ionization_Penalty_Charging>
0

> <r_epik_Ionization_Penalty_Neutral>
0.000167642

> <r_epik_State_Penalty>
-0

> <r_epik_Charging_Adjusted_Penalty>
0

> <i_epik_Tot_Q>
0

> <i_epik_Tot_abs_Q>
0

> <r_epik_Metal_State_Penalty>
-0

> <b_epik_Metal_Only>
0

> <s_lp_Force_Field>
OPLS_2005

> <r_lp_Energy>
5.76299

> <b_lp_Chiralities_Consistent>
1

> <s_lp_Variant>
AV-unprocessed.smi:1807-1

> <Gold.Version>
5.8.1

> <Gold.Id.Protein>
6NUR|6NUR_protein|mol2

> <Gold.PLP.Fitness>
45.0801

> <Gold.PLP.PLP>
-35.4674

> <Gold.PLP.part.hbond>
-3.5980

> <Gold.PLP.part.metal>
0.0000

> <Gold.PLP.part.buried>
-4.4879

> <Gold.PLP.part.nonpolar>
-27.7807

> <Gold.PLP.part.repulsive>
0.5434

> <Gold.PLP.ligand.clash>
0.0000

> <Gold.PLP.ligand.torsion>
0.4869

> <Gold.PLP.Chemscore.Hbond>
3.5124

> <Gold.PLP.Chemscore.CHOScore>
0.0000

> <Gold.PLP.Chemscore.Metal>
0.0000

> <Gold.Chemscore.Hbonds>
donor molecule, donor type, donor heavy atom, donor atom, acceptor molecule, acceptor atom, score
      L1  H     8    35       P1  7948  1.00
      L1  H    12    38       P1  7948  0.56
      L1  H    19    43       P1 10186  1.00
      P1  H 10785 10796       L1    20  0.51

> <Gold.PLP.Chemscore.Internal.Correction>
0.0491

> <Gold.Rescore>
     Score         DG    S(hbond)    S(metal)    S(lipo)     H(rot)  DE(clash)    DE(int)     intcor
     17.33     -18.77       3.71        0.00      65.46       2.64       0.17       1.26       ----

> <Gold.Chemscore.Fitness>
17.3291

> <Gold.Chemscore.DG>
-18.7654

> <Gold.Chemscore.ZeroCoef>
-5.4800

> <Gold.Chemscore.Hbond>
3.7057

> <Gold.Chemscore.Metal>
0.0000

> <Gold.Chemscore.Lipo>
65.4580

> <Gold.Chemscore.Internal_Hbond>
0.0000

> <Gold.Chemscore.DEClash>
0.1726

> <Gold.Chemscore.DEInternal>
1.2637

> <Gold.Chemscore.Rot>
2.6369

> <Gold.Chemscore.Internal.Correction>
   9.000000E+99

> <Gold.Chemscore.Hbonds>
donor molecule, donor type, donor heavy atom, donor atom, acceptor molecule, acceptor atom, score
      L1  H     8    35       P1  7948  0.94
      L1  H    12    38       P1  7948  0.55
      L1  H    19    43       P1 10186  0.94
      P1  H 10785 10796       L1    20  0.39

> <Gold.Chemscore.Hbond.Weighted>
-12.3771

> <Gold.Chemscore.Metal.Weighted>
-0.0000

> <Gold.Chemscore.Lipo.Weighted>
-7.6586

> <Gold.Chemscore.Internal_Hbond.Weighted>
0.0000

> <Gold.Chemscore.DEClash.Weighted>
0.1726

> <Gold.Chemscore.DEInternal.Weighted>
1.2637

> <Gold.Chemscore.Rot.Weighted>
6.7504

> <Gold.Chemscore.Internal.Correction.Weighted>
   9.000000E+99

> <Gold.Protein.RotatedTorsions>
[ 6907 6896 6895 6894 ] final  -19.53 input  -60.11 | X-H torsion
[ 7974 7965 7964 7962 ] final -102.90 input  175.53 | X-H torsion
[ 8008 7997 7996 7995 ] final  -82.74 input   59.86 | X-H torsion
[ 10167 10162 10161 10158 ] final -148.64 input  -65.29 | X-H torsion
[ 10718 10713 10712 10709 ] final  -10.80 input   66.30 | X-H torsion
[ 10763 10752 10751 10750 ] final   53.35 input  -60.55 | X-H torsion
[ 11005 11000 10999 10996 ] final -101.96 input  -57.11 | X-H torsion

> <Gold.Protein.ActiveResidues>
 VAL166  LYS551  ARG553  GLY616  TRP617  ASP618  TYR619  PRO620  LYS621  CYS622 
 ASP623  PHE694  ASN695  SER759  ASP760  ASP761  ALA762  ILE779  LEU786  VAL792 
 PHE793  MET794  SER795  GLU796  ALA797  LYS798  CYS799  TRP800  GLU811  SER814 

> <Gold.Protein.RotatedAtoms>
  151.2617  135.0656  159.9100 H   0  0  0  0  0  0  0  0  0  0  0  0  # atno 6907 bound_to 6896
  152.5365  134.0224  159.7998 H   0  0  0  0  0  0  0  0  0  0  0  0  # atno 6908 bound_to 6896
  151.0448  133.5625  159.2679 H   0  0  0  0  0  0  0  0  0  0  0  0  # atno 6909 bound_to 6896
  145.2628  140.9274  143.3031 H   0  0  0  0  0  0  0  0  0  0  0  0  # atno 7974 bound_to 7965
  154.6118  140.0629  156.9503 H   0  0  0  0  0  0  0  0  0  0  0  0  # atno 8008 bound_to 7997
  155.1961  140.3311  155.4332 H   0  0  0  0  0  0  0  0  0  0  0  0  # atno 8009 bound_to 7997
  156.2381  140.1872  156.7048 H   0  0  0  0  0  0  0  0  0  0  0  0  # atno 8010 bound_to 7997
  139.7514  143.8513  152.2587 H   0  0  0  0  0  0  0  0  0  0  0  0  # atno 10167 bound_to 10162
  156.6683  130.5002  149.6008 H   0  0  0  0  0  0  0  0  0  0  0  0  # atno 10718 bound_to 10713
  152.9795  135.5782  154.4727 H   0  0  0  0  0  0  0  0  0  0  0  0  # atno 10763 bound_to 10752
  154.4287  135.2773  155.1929 H   0  0  0  0  0  0  0  0  0  0  0  0  # atno 10764 bound_to 10752
  154.3646  135.6181  153.5762 H   0  0  0  0  0  0  0  0  0  0  0  0  # atno 10765 bound_to 10752
  141.1209  133.8520  157.1298 H   0  0  0  0  0  0  0  0  0  0  0  0  # atno 11005 bound_to 11000
  144.9403  139.4196  143.6452 LP  0  0  0  0  0  0  0  0  0  0  0  0  # atno 17320 bound_to 7965
  146.3270  139.8360  142.8899 LP  0  0  0  0  0  0  0  0  0  0  0  0  # atno 17321 bound_to 7965
  139.8492  144.7172  150.9235 LP  0  0  0  0  0  0  0  0  0  0  0  0  # atno 17342 bound_to 10162
  140.7798  143.3914  151.1304 LP  0  0  0  0  0  0  0  0  0  0  0  0  # atno 17343 bound_to 10162
  156.1958  130.6589  151.1113 LP  0  0  0  0  0  0  0  0  0  0  0  0  # atno 17370 bound_to 10713
  157.7086  131.0745  150.6581 LP  0  0  0  0  0  0  0  0  0  0  0  0  # atno 17371 bound_to 10713
  140.0166  134.9964  157.0506 LP  0  0  0  0  0  0  0  0  0  0  0  0  # atno 17394 bound_to 11000
  140.4509  134.1583  155.7181 LP  0  0  0  0  0  0  0  0  0  0  0  0  # atno 17395 bound_to 11000

$$$$
