AV-unprocessed.smi:37|AV-procd|sdf|325|dock4
  -GOLD-   2262016153D 1   1.00000     0.00000
 Structure written by MMmdl.
 43 44  0  0  0  0  0  0  0  0  2 V2000
  147.5438  134.4144  162.2627 C   0  0  0  0  0  0  0  0  0  0  0  0
  147.3973  135.9368  162.3909 C   0  0  0  0  0  0  0  0  0  0  0  0
  147.3946  136.6157  161.0249 C   0  0  0  0  0  0  0  0  0  0  0  0
  146.4150  137.2453  160.6255 O   0  0  0  0  0  0  0  0  0  0  0  0
  148.5407  136.4129  160.3478 O   0  0  0  0  0  0  0  0  0  0  0  0
  148.7907  137.0884  159.1221 C   0  0  0  0  0  0  0  0  0  0  0  0
  149.9143  136.3740  158.3540 C   0  0  2  0  0  0  0  0  0  0  0  0
  151.1608  136.7602  158.9281 O   0  0  0  0  0  0  0  0  0  0  0  0
  152.0012  137.2611  157.9378 C   0  0  2  0  0  0  0  0  0  0  0  0
  152.9417  138.3058  158.5047 N   0  0  0  0  0  0  0  0  0  0  0  0
  152.3878  139.4183  159.1118 C   0  0  0  0  0  0  0  0  0  0  0  0
  153.1587  140.3971  159.6274 C   0  0  0  0  0  0  0  0  0  0  0  0
  152.5854  141.4604  160.2168 F   0  0  0  0  0  0  0  0  0  0  0  0
  154.6132  140.2917  159.5405 C   0  0  0  0  0  0  0  0  0  0  0  0
  155.3128  141.1799  160.0252 O   0  0  0  0  0  0  0  0  0  0  0  0
  155.1357  139.1979  158.9153 N   0  5  0  0  0  0  0  0  0  0  0  0
  154.3597  138.2082  158.3836 C   0  0  0  0  0  0  0  0  0  0  0  0
  154.8364  137.2363  157.7988 O   0  0  0  0  0  0  0  0  0  0  0  0
  151.1359  137.7105  156.7502 C   0  0  2  0  0  0  0  0  0  0  0  0
  150.4163  139.5697  156.8529 Br  0  0  0  0  0  0  0  0  0  0  0  0
  149.9746  136.7390  156.8592 C   0  0  1  0  0  0  0  0  0  0  0  0
  150.2384  135.5564  156.1124 O   0  0  0  0  0  0  0  0  0  0  0  0
  149.2923  134.6084  155.9758 C   0  0  0  0  0  0  0  0  0  0  0  0
  148.1245  134.6888  156.3564 O   0  0  0  0  0  0  0  0  0  0  0  0
  149.8148  133.3538  155.2805 C   0  0  0  0  0  0  0  0  0  0  0  0
  149.0461  133.0441  153.9891 C   0  0  0  0  0  0  0  0  0  0  0  0
  147.5354  133.9430  163.2452 H   0  0  0  0  0  0  0  0  0  0  0  0
  148.4793  134.1413  161.7728 H   0  0  0  0  0  0  0  0  0  0  0  0
  146.7253  133.9859  161.6832 H   0  0  0  0  0  0  0  0  0  0  0  0
  146.4707  136.1805  162.9115 H   0  0  0  0  0  0  0  0  0  0  0  0
  148.2142  136.3432  162.9879 H   0  0  0  0  0  0  0  0  0  0  0  0
  147.8961  137.1888  158.5063 H   0  0  0  0  0  0  0  0  0  0  0  0
  149.1106  138.1017  159.3659 H   0  0  0  0  0  0  0  0  0  0  0  0
  149.7990  135.2968  158.4846 H   0  0  0  0  0  0  0  0  0  0  0  0
  152.6453  136.4290  157.6490 H   0  0  0  0  0  0  0  0  0  0  0  0
  151.3137  139.5068  159.1839 H   0  0  0  0  0  0  0  0  0  0  0  0
  151.6915  137.6257  155.8160 H   0  0  0  0  0  0  0  0  0  0  0  0
  149.0466  137.1982  156.5207 H   0  0  0  0  0  0  0  0  0  0  0  0
  150.8748  133.4866  155.0634 H   0  0  0  0  0  0  0  0  0  0  0  0
  149.7366  132.5115  155.9687 H   0  0  0  0  0  0  0  0  0  0  0  0
  149.4139  132.1237  153.5355 H   0  0  0  0  0  0  0  0  0  0  0  0
  149.1601  133.8418  153.2541 H   0  0  0  0  0  0  0  0  0  0  0  0
  147.9811  132.9139  154.1833 H   0  0  0  0  0  0  0  0  0  0  0  0
  1  2  1  0  0  0  0
  1 27  1  0  0  0  0
  1 28  1  0  0  0  0
  1 29  1  0  0  0  0
  2  3  1  0  0  0  0
  2 30  1  0  0  0  0
  2 31  1  0  0  0  0
  3  4  2  0  0  0  0
  3  5  1  0  0  0  0
  5  6  1  0  0  0  0
  6  7  1  0  0  0  0
  6 32  1  0  0  0  0
  6 33  1  0  0  0  0
  7 21  1  0  0  0  0
  7  8  1  0  0  0  0
  7 34  1  0  0  0  0
  8  9  1  0  0  0  0
  9 10  1  0  0  0  0
  9 19  1  0  0  0  0
  9 35  1  0  0  0  0
 10 17  1  0  0  0  0
 10 11  1  0  0  0  0
 11 12  2  0  0  0  0
 11 36  1  0  0  0  0
 12 13  1  0  0  0  0
 12 14  1  0  0  0  0
 14 15  2  0  0  0  0
 14 16  1  0  0  0  0
 16 17  1  0  0  0  0
 17 18  2  0  0  0  0
 19 20  1  0  0  0  0
 19 21  1  0  0  0  0
 19 37  1  0  0  0  0
 21 22  1  0  0  0  0
 21 38  1  0  0  0  0
 22 23  1  0  0  0  0
 23 24  2  0  0  0  0
 23 25  1  0  0  0  0
 25 26  1  0  0  0  0
 25 39  1  0  0  0  0
 25 40  1  0  0  0  0
 26 41  1  0  0  0  0
 26 42  1  0  0  0  0
 26 43  1  0  0  0  0
M  CHG  1  16  -1
M  END
> <s_m_source_file>
AV-unprocessed.smi

> <i_m_source_file_index>
37

> <i_lp_mmshare_version>
43012

> <i_f3d_flags>
0

> <s_epik_input>
W0NIM11bQ0gyXUMoPU8pT1tDSDJdW0NAQEhdMU9bQ0BASF0objJbY0hdYyhGKWMoPU8pW25IXWMyPU8pW0NAQEhdKEJyKVtDQEhdMU9DKD1PKVtDSDJdW0NIM10=

> <s_epik_cmdline>
J2VwaWtfcHl0aG9uJywgJy1waCcsICc3LjAnLCAnLXRuJywgJzgnLCAnLW1hJywgJzIwMCcsICctbWV0YWxfYmluZGluZycsICctaW1hZScsICc8aW5maWxlLm1hZT4nLCAnLW9tYWUnLCAnPG91dGZpbGUubWFlPic=

> <r_epik_Ionization_Penalty>
1.08158

> <r_epik_Ionization_Penalty_Charging>
9.05154e-09

> <r_epik_Ionization_Penalty_Neutral>
1.08158

> <r_epik_State_Penalty>
1.13706

> <r_epik_Charging_Adjusted_Penalty>
1.13706

> <i_epik_Tot_Q>
-1

> <i_epik_Tot_abs_Q>
1

> <r_epik_Metal_State_Penalty>
0.00343535

> <b_epik_Metal_Only>
0

> <s_epik_Chemistry_Notes>
This compound has an ester and may undergo hydrolysis at high or low pH. This compound contains an acetal/aminal-like group ( X-CH(R)-Y where X, Y are N, S, or O) that may be acid/base labile, releasing an aldehyde.

> <s_lp_Force_Field>
OPLS_2005

> <r_lp_Energy>
32.7064

> <b_lp_Chiralities_Consistent>
1

> <s_lp_Variant>
AV-unprocessed.smi:37-23

> <Gold.Version>
5.8.1

> <Gold.Id.Protein>
6NUR|6NUR_protein|mol2

> <Gold.PLP.Fitness>
44.7700

> <Gold.PLP.PLP>
-34.8710

> <Gold.PLP.part.hbond>
-4.0943

> <Gold.PLP.part.metal>
0.0000

> <Gold.PLP.part.buried>
-2.9051

> <Gold.PLP.part.nonpolar>
-27.4503

> <Gold.PLP.part.repulsive>
0.0606

> <Gold.PLP.ligand.clash>
0.0000

> <Gold.PLP.ligand.torsion>
0.4408

> <Gold.PLP.Chemscore.Hbond>
3.5293

> <Gold.PLP.Chemscore.CHOScore>
0.0000

> <Gold.PLP.Chemscore.Metal>
0.0000

> <Gold.Chemscore.Hbonds>
donor molecule, donor type, donor heavy atom, donor atom, acceptor molecule, acceptor atom, score
      P1  H  6896  6909       L1     8  0.77
      P1  H  6934  6947       L1     4  0.85
      P1  H  7997  8008       L1    16  1.49

> <Gold.PLP.Chemscore.Internal.Correction>
0.1927

> <Gold.Rescore>
     Score         DG    S(hbond)    S(metal)    S(lipo)     H(rot)  DE(clash)    DE(int)     intcor
      5.21      -7.55       0.95        0.00      62.18       3.27       1.54       0.81       ----

> <Gold.Chemscore.Fitness>
5.2077

> <Gold.Chemscore.DG>
-7.5544

> <Gold.Chemscore.ZeroCoef>
-5.4800

> <Gold.Chemscore.Hbond>
0.9471

> <Gold.Chemscore.Metal>
0.0000

> <Gold.Chemscore.Lipo>
62.1753

> <Gold.Chemscore.Internal_Hbond>
0.0000

> <Gold.Chemscore.DEClash>
1.5351

> <Gold.Chemscore.DEInternal>
0.8117

> <Gold.Chemscore.Rot>
3.2669

> <Gold.Chemscore.Internal.Correction>
   9.000000E+99

> <Gold.Chemscore.Hbonds>
donor molecule, donor type, donor heavy atom, donor atom, acceptor molecule, acceptor atom, score
      P1  H  6896  6909       L1     8  0.11
      P1  H  6934  6947       L1     4  0.14
      P1  H  7997  8008       L1    16  0.02

> <Gold.Chemscore.Hbond.Weighted>
-3.1633

> <Gold.Chemscore.Metal.Weighted>
-0.0000

> <Gold.Chemscore.Lipo.Weighted>
-7.2745

> <Gold.Chemscore.Internal_Hbond.Weighted>
0.0000

> <Gold.Chemscore.DEClash.Weighted>
1.5351

> <Gold.Chemscore.DEInternal.Weighted>
0.8117

> <Gold.Chemscore.Rot.Weighted>
8.3634

> <Gold.Chemscore.Internal.Correction.Weighted>
   9.000000E+99

> <Gold.Protein.RotatedTorsions>
[ 6907 6896 6895 6894 ] final  111.71 input  -60.11 | X-H torsion
[ 7974 7965 7964 7962 ] final -130.48 input  175.53 | X-H torsion
[ 8008 7997 7996 7995 ] final -150.42 input   59.86 | X-H torsion
[ 10167 10162 10161 10158 ] final  -27.83 input  -65.29 | X-H torsion
[ 10718 10713 10712 10709 ] final  -53.72 input   66.30 | X-H torsion
[ 10763 10752 10751 10750 ] final  -75.39 input  -60.55 | X-H torsion
[ 11005 11000 10999 10996 ] final  113.01 input  -57.11 | X-H torsion

> <Gold.Protein.ActiveResidues>
 VAL166  LYS551  ARG553  GLY616  TRP617  ASP618  TYR619  PRO620  LYS621  CYS622 
 ASP623  PHE694  ASN695  SER759  ASP760  ASP761  ALA762  ILE779  LEU786  VAL792 
 PHE793  MET794  SER795  GLU796  ALA797  LYS798  CYS799  TRP800  GLU811  SER814 

> <Gold.Protein.RotatedAtoms>
  152.4955  133.8620  159.7254 H   0  0  0  0  0  0  0  0  0  0  0  0  # atno 6907 bound_to 6896
  150.9129  133.6966  159.2857 H   0  0  0  0  0  0  0  0  0  0  0  0  # atno 6908 bound_to 6896
  151.4370  135.1020  159.9711 H   0  0  0  0  0  0  0  0  0  0  0  0  # atno 6909 bound_to 6896
  144.9470  140.7303  143.4811 H   0  0  0  0  0  0  0  0  0  0  0  0  # atno 7974 bound_to 7965
  155.6232  140.0683  157.2672 H   0  0  0  0  0  0  0  0  0  0  0  0  # atno 8008 bound_to 7997
  154.4224  140.1780  156.1442 H   0  0  0  0  0  0  0  0  0  0  0  0  # atno 8009 bound_to 7997
  155.9992  140.3337  155.6832 H   0  0  0  0  0  0  0  0  0  0  0  0  # atno 8010 bound_to 7997
  140.7274  143.4061  151.1184 H   0  0  0  0  0  0  0  0  0  0  0  0  # atno 10167 bound_to 10162
  156.1511  130.4151  149.9943 H   0  0  0  0  0  0  0  0  0  0  0  0  # atno 10718 bound_to 10713
  154.4859  135.5833  153.6423 H   0  0  0  0  0  0  0  0  0  0  0  0  # atno 10763 bound_to 10752
  152.9854  135.6101  154.3187 H   0  0  0  0  0  0  0  0  0  0  0  0  # atno 10764 bound_to 10752
  154.3082  135.2845  155.2558 H   0  0  0  0  0  0  0  0  0  0  0  0  # atno 10765 bound_to 10752
  139.8942  134.9541  156.6674 H   0  0  0  0  0  0  0  0  0  0  0  0  # atno 11005 bound_to 11000
  145.2902  139.1886  143.4744 LP  0  0  0  0  0  0  0  0  0  0  0  0  # atno 17320 bound_to 7965
  146.3307  140.2878  142.8613 LP  0  0  0  0  0  0  0  0  0  0  0  0  # atno 17321 bound_to 7965
  139.7687  143.8526  152.3116 LP  0  0  0  0  0  0  0  0  0  0  0  0  # atno 17342 bound_to 10162
  139.8437  144.7198  150.9299 LP  0  0  0  0  0  0  0  0  0  0  0  0  # atno 17343 bound_to 10162
  156.7800  130.9218  151.3646 LP  0  0  0  0  0  0  0  0  0  0  0  0  # atno 17370 bound_to 10713
  157.6658  130.9006  149.9928 LP  0  0  0  0  0  0  0  0  0  0  0  0  # atno 17371 bound_to 10713
  140.7400  133.8986  155.8271 LP  0  0  0  0  0  0  0  0  0  0  0  0  # atno 17394 bound_to 11000
  141.0085  134.1053  157.4245 LP  0  0  0  0  0  0  0  0  0  0  0  0  # atno 17395 bound_to 11000

$$$$
