AV-unprocessed.smi:209|AV-procd|sdf|1608|dock10
  -GOLD-   2262019523D 1   1.00000     0.00000
 Structure written by MMmdl.
 48 52  0  0  0  0  0  0  0  0  1 V2000
  150.9632  144.4385  158.9346 O   0  0  0  0  0  0  0  0  0  0  0  0
  150.9406  143.3343  158.3954 C   0  0  0  0  0  0  0  0  0  0  0  0
  150.3275  143.0150  157.2493 N   0  0  0  0  0  0  0  0  0  0  0  0
  150.5766  141.6340  156.8473 C   0  0  0  0  0  0  0  0  0  0  0  0
  151.8189  141.2855  157.6818 C   0  0  1  0  0  0  0  0  0  0  0  0
  151.5981  142.0868  158.9563 C   0  0  1  0  0  0  0  0  0  0  0  0
  152.9109  142.1701  159.7367 C   0  0  0  0  0  0  0  0  0  0  0  0
  153.3192  140.7145  160.0663 C   0  0  0  0  0  0  0  0  0  0  0  0
  153.3259  139.7912  158.8172 C   0  0  0  0  0  0  0  0  0  0  0  0
  152.0874  139.8945  158.0299 N   0  0  0  0  0  0  0  0  0  0  0  0
  152.0406  139.0507  156.9754 C   0  0  0  0  0  0  0  0  0  0  0  0
  152.7983  139.2879  155.8722 N   0  0  0  0  0  0  0  0  0  0  0  0
  152.7345  138.4551  154.8286 C   0  0  0  0  0  0  0  0  0  0  0  0
  151.9931  137.3541  154.6825 N   0  0  0  0  0  0  0  0  0  0  0  0
  151.2292  137.1196  155.7884 C   0  0  0  0  0  0  0  0  0  0  0  0
  151.1928  137.9132  156.9682 C   0  0  0  0  0  0  0  0  0  0  0  0
  150.2976  137.3727  157.8813 N   0  0  0  0  0  0  0  0  0  0  0  0
  149.8329  136.3131  157.2769 C   0  0  0  0  0  0  0  0  0  0  0  0
  150.3315  136.0895  156.0125 N   0  0  0  0  0  0  0  0  0  0  0  0
  149.9912  134.9903  155.1218 C   0  0  0  0  0  0  0  0  0  0  0  0
  150.2705  133.5970  155.7156 C   0  0  0  0  0  0  0  0  0  0  0  0
  150.0337  132.5383  154.6192 C   0  0  0  0  0  0  0  0  0  0  0  0
  150.4590  131.2483  155.0115 O   0  0  0  0  0  0  0  0  0  0  0  0
  151.5855  133.4814  156.5001 C   0  0  0  0  0  0  0  0  0  0  0  0
  150.9135  132.9597  157.6676 O   0  0  0  0  0  0  0  0  0  0  0  0
  149.6376  133.3039  157.0837 C   0  0  0  0  0  0  0  0  0  0  0  0
  152.6954  141.6790  157.1612 H   0  0  0  0  0  0  0  0  0  0  0  0
  150.8440  141.6006  159.5790 H   0  0  0  0  0  0  0  0  0  0  0  0
  149.8123  143.6688  156.6774 H   0  0  0  0  0  0  0  0  0  0  0  0
  149.7179  141.0170  157.1169 H   0  0  0  0  0  0  0  0  0  0  0  0
  150.7554  141.5439  155.7755 H   0  0  0  0  0  0  0  0  0  0  0  0
  153.6837  142.6622  159.1446 H   0  0  0  0  0  0  0  0  0  0  0  0
  152.7849  142.7496  160.6518 H   0  0  0  0  0  0  0  0  0  0  0  0
  154.2984  140.7000  160.5450 H   0  0  0  0  0  0  0  0  0  0  0  0
  152.6181  140.3090  160.7971 H   0  0  0  0  0  0  0  0  0  0  0  0
  154.1782  140.0547  158.1893 H   0  0  0  0  0  0  0  0  0  0  0  0
  153.4741  138.7560  159.1273 H   0  0  0  0  0  0  0  0  0  0  0  0
  153.3676  138.7076  153.9906 H   0  0  0  0  0  0  0  0  0  0  0  0
  149.1084  135.6619  157.7431 H   0  0  0  0  0  0  0  0  0  0  0  0
  148.9406  135.0829  154.8435 H   0  0  0  0  0  0  0  0  0  0  0  0
  150.5527  135.1315  154.1973 H   0  0  0  0  0  0  0  0  0  0  0  0
  148.9761  132.4643  154.3651 H   0  0  0  0  0  0  0  0  0  0  0  0
  150.5616  132.8040  153.7028 H   0  0  0  0  0  0  0  0  0  0  0  0
  151.2724  131.3306  155.4853 H   0  0  0  0  0  0  0  0  0  0  0  0
  152.3030  132.7767  156.0785 H   0  0  0  0  0  0  0  0  0  0  0  0
  152.0647  134.4395  156.7064 H   0  0  0  0  0  0  0  0  0  0  0  0
  149.1998  134.1763  157.5701 H   0  0  0  0  0  0  0  0  0  0  0  0
  148.9368  132.4683  157.0834 H   0  0  0  0  0  0  0  0  0  0  0  0
  1  2  2  0  0  0  0
  2  6  1  0  0  0  0
  2  3  1  0  0  0  0
  3  4  1  0  0  0  0
  3 29  1  0  0  0  0
  4  5  1  0  0  0  0
  4 30  1  0  0  0  0
  4 31  1  0  0  0  0
  5 27  1  0  0  0  0
  5 10  1  0  0  0  0
  5  6  1  0  0  0  0
  6 28  1  0  0  0  0
  6  7  1  0  0  0  0
  7  8  1  0  0  0  0
  7 32  1  0  0  0  0
  7 33  1  0  0  0  0
  8  9  1  0  0  0  0
  8 34  1  0  0  0  0
  8 35  1  0  0  0  0
  9 10  1  0  0  0  0
  9 36  1  0  0  0  0
  9 37  1  0  0  0  0
 10 11  1  0  0  0  0
 11 16  1  0  0  0  0
 11 12  2  0  0  0  0
 12 13  1  0  0  0  0
 13 14  2  0  0  0  0
 13 38  1  0  0  0  0
 14 15  1  0  0  0  0
 15 19  1  0  0  0  0
 15 16  2  0  0  0  0
 16 17  1  0  0  0  0
 17 18  2  0  0  0  0
 18 19  1  0  0  0  0
 18 39  1  0  0  0  0
 19 20  1  0  0  0  0
 20 21  1  0  0  0  0
 20 40  1  0  0  0  0
 20 41  1  0  0  0  0
 21 26  1  0  0  0  0
 21 22  1  0  0  0  0
 21 24  1  0  0  0  0
 22 23  1  0  0  0  0
 22 42  1  0  0  0  0
 22 43  1  0  0  0  0
 23 44  1  0  0  0  0
 24 25  1  0  0  0  0
 24 45  1  0  0  0  0
 24 46  1  0  0  0  0
 25 26  1  0  0  0  0
 26 47  1  0  0  0  0
 26 48  1  0  0  0  0
M  END
> <s_m_source_file>
AV-unprocessed.smi

> <i_m_source_file_index>
209

> <i_lp_mmshare_version>
43012

> <i_f3d_flags>
0

> <s_epik_input>
W0NIMl0xW05IXUMoPU8pW0NAQEhdKFtDQEBIXTEyKVtDSDJdW0NIMl1bQ0gyXU4yYyhuW2NIXW4zKWMoYzM0KW5bY0hdbjRbQ0gyXUM1KFtDSDJdW09IXSlbQ0gyXU9bQ0gyXTU=

> <s_epik_cmdline>
J2VwaWtfcHl0aG9uJywgJy1waCcsICc3LjAnLCAnLXRuJywgJzgnLCAnLW1hJywgJzIwMCcsICctbWV0YWxfYmluZGluZycsICctaW1hZScsICc8aW5maWxlLm1hZT4nLCAnLW9tYWUnLCAnPG91dGZpbGUubWFlPic=

> <r_lp_tautomer_probability>
1

> <r_epik_Ionization_Penalty>
0.00113306

> <r_epik_Ionization_Penalty_Charging>
0

> <r_epik_Ionization_Penalty_Neutral>
0.00113306

> <r_epik_State_Penalty>
0.000624042

> <r_epik_Charging_Adjusted_Penalty>
0.000624042

> <i_epik_Tot_Q>
0

> <i_epik_Tot_abs_Q>
0

> <r_epik_Metal_State_Penalty>
-0

> <b_epik_Metal_Only>
0

> <s_lp_Force_Field>
OPLS_2005

> <r_lp_Energy>
56.9818

> <b_lp_Chiralities_Consistent>
1

> <s_lp_Variant>
AV-unprocessed.smi:209-2

> <Gold.Version>
5.8.1

> <Gold.Id.Protein>
6NUR|6NUR_protein|mol2

> <Gold.PLP.Fitness>
50.6838

> <Gold.PLP.PLP>
-39.3619

> <Gold.PLP.part.hbond>
-4.0000

> <Gold.PLP.part.metal>
0.0000

> <Gold.PLP.part.buried>
-8.4355

> <Gold.PLP.part.nonpolar>
-27.7024

> <Gold.PLP.part.repulsive>
0.2359

> <Gold.PLP.ligand.clash>
0.0000

> <Gold.PLP.ligand.torsion>
0.3991

> <Gold.PLP.Chemscore.Hbond>
3.9120

> <Gold.PLP.Chemscore.CHOScore>
0.0000

> <Gold.PLP.Chemscore.Metal>
0.0000

> <Gold.Chemscore.Hbonds>
donor molecule, donor type, donor heavy atom, donor atom, acceptor molecule, acceptor atom, score
      L1  H     3    29       P1  8028  1.00
      P1  H  6896  6907       L1    25  1.00
      P1  H  7997  8008       L1    12  1.00
      P1  H 10752 10763       L1    14  0.88

> <Gold.PLP.Chemscore.Internal.Correction>
0.3842

> <Gold.Rescore>
     Score         DG    S(hbond)    S(metal)    S(lipo)     H(rot)  DE(clash)    DE(int)     intcor
     18.72     -19.16       3.52        0.00      74.72       2.66       0.00       0.44       ----

> <Gold.Chemscore.Fitness>
18.7199

> <Gold.Chemscore.DG>
-19.1562

> <Gold.Chemscore.ZeroCoef>
-5.4800

> <Gold.Chemscore.Hbond>
3.5176

> <Gold.Chemscore.Metal>
0.0000

> <Gold.Chemscore.Lipo>
74.7206

> <Gold.Chemscore.Internal_Hbond>
0.0000

> <Gold.Chemscore.DEClash>
0.0009

> <Gold.Chemscore.DEInternal>
0.4354

> <Gold.Chemscore.Rot>
2.6620

> <Gold.Chemscore.Internal.Correction>
   9.000000E+99

> <Gold.Chemscore.Hbonds>
donor molecule, donor type, donor heavy atom, donor atom, acceptor molecule, acceptor atom, score
      L1  H     3    29       P1  8028  1.00
      P1  H  6896  6907       L1    25  0.90
      P1  H  7997  8008       L1    12  0.77
      P1  H 10752 10763       L1    14  0.36

> <Gold.Chemscore.Hbond.Weighted>
-11.7487

> <Gold.Chemscore.Metal.Weighted>
-0.0000

> <Gold.Chemscore.Lipo.Weighted>
-8.7423

> <Gold.Chemscore.Internal_Hbond.Weighted>
0.0000

> <Gold.Chemscore.DEClash.Weighted>
0.0009

> <Gold.Chemscore.DEInternal.Weighted>
0.4354

> <Gold.Chemscore.Rot.Weighted>
6.8148

> <Gold.Chemscore.Internal.Correction.Weighted>
   9.000000E+99

> <Gold.Protein.RotatedTorsions>
[ 6907 6896 6895 6894 ] final -149.02 input  -60.11 | X-H torsion
[ 7974 7965 7964 7962 ] final    9.65 input  175.53 | X-H torsion
[ 8008 7997 7996 7995 ] final  -42.64 input   59.86 | X-H torsion
[ 10167 10162 10161 10158 ] final   92.71 input  -65.29 | X-H torsion
[ 10718 10713 10712 10709 ] final  -20.81 input   66.30 | X-H torsion
[ 10763 10752 10751 10750 ] final   47.71 input  -60.55 | X-H torsion
[ 11005 11000 10999 10996 ] final  111.47 input  -57.11 | X-H torsion

> <Gold.Protein.ActiveResidues>
 VAL166  LYS551  ARG553  GLY616  TRP617  ASP618  TYR619  PRO620  LYS621  CYS622 
 ASP623  PHE694  ASN695  SER759  ASP760  ASP761  ALA762  ILE779  LEU786  VAL792 
 PHE793  MET794  SER795  GLU796  ALA797  LYS798  CYS799  TRP800  GLU811  SER814 

> <Gold.Protein.RotatedAtoms>
  151.1781  133.4742  159.2593 H   0  0  0  0  0  0  0  0  0  0  0  0  # atno 6907 bound_to 6896
  151.1287  135.0118  159.8582 H   0  0  0  0  0  0  0  0  0  0  0  0  # atno 6908 bound_to 6896
  152.5459  134.1686  159.8640 H   0  0  0  0  0  0  0  0  0  0  0  0  # atno 6909 bound_to 6896
  146.2400  139.9752  142.8442 H   0  0  0  0  0  0  0  0  0  0  0  0  # atno 7974 bound_to 7965
  154.3998  140.1468  156.3388 H   0  0  0  0  0  0  0  0  0  0  0  0  # atno 8008 bound_to 7997
  155.8376  140.3463  155.5590 H   0  0  0  0  0  0  0  0  0  0  0  0  # atno 8009 bound_to 7997
  155.8122  140.0885  157.1888 H   0  0  0  0  0  0  0  0  0  0  0  0  # atno 8010 bound_to 7997
  139.8250  144.6713  150.9470 H   0  0  0  0  0  0  0  0  0  0  0  0  # atno 10167 bound_to 10162
  156.5268  130.4645  149.6568 H   0  0  0  0  0  0  0  0  0  0  0  0  # atno 10718 bound_to 10713
  152.9797  135.5967  154.3807 H   0  0  0  0  0  0  0  0  0  0  0  0  # atno 10763 bound_to 10752
  154.3472  135.2767  155.2393 H   0  0  0  0  0  0  0  0  0  0  0  0  # atno 10764 bound_to 10752
  154.4449  135.6004  153.6208 H   0  0  0  0  0  0  0  0  0  0  0  0  # atno 10765 bound_to 10752
  139.8904  134.9508  156.6437 H   0  0  0  0  0  0  0  0  0  0  0  0  # atno 11005 bound_to 11000
  145.1643  140.9689  143.4359 LP  0  0  0  0  0  0  0  0  0  0  0  0  # atno 17320 bound_to 7965
  145.0087  139.3530  143.6131 LP  0  0  0  0  0  0  0  0  0  0  0  0  # atno 17321 bound_to 7965
  140.7811  143.4055  151.1079 LP  0  0  0  0  0  0  0  0  0  0  0  0  # atno 17342 bound_to 10162
  139.7712  143.8491  152.3121 LP  0  0  0  0  0  0  0  0  0  0  0  0  # atno 17343 bound_to 10162
  156.3097  130.7222  151.2112 LP  0  0  0  0  0  0  0  0  0  0  0  0  # atno 17370 bound_to 10713
  157.7428  131.0484  150.4995 LP  0  0  0  0  0  0  0  0  0  0  0  0  # atno 17371 bound_to 10713
  140.7574  133.8846  155.8392 LP  0  0  0  0  0  0  0  0  0  0  0  0  # atno 17394 bound_to 11000
  140.9951  134.1227  157.4372 LP  0  0  0  0  0  0  0  0  0  0  0  0  # atno 17395 bound_to 11000

$$$$
