AV-unprocessed.smi:2700|AV-procd|sdf|10427|dock2
  -GOLD-   2272014463D 1   1.00000     0.00000
 Structure written by MMmdl.
 21 22  0  0  0  0  0  0  0  0  3 V2000
  151.3467  139.6463  154.9830 O   0  0  0  0  0  0  0  0  0  0  0  0
  152.0368  139.4888  156.0136 C   0  0  0  0  0  0  0  0  0  0  0  0
  153.1760  138.9752  156.0603 O   0  5  0  0  0  0  0  0  0  0  0  0
  151.4164  139.9274  157.3412 C   0  0  0  0  0  0  0  0  0  0  0  0
  151.5803  141.3768  157.6834 C   0  0  0  0  0  0  0  0  0  0  0  0
  152.4995  141.7871  158.6747 C   0  0  0  0  0  0  0  0  0  0  0  0
  152.6472  143.1591  158.9656 C   0  0  0  0  0  0  0  0  0  0  0  0
  151.8732  144.0973  158.2536 C   0  0  0  0  0  0  0  0  0  0  0  0
  151.0069  143.6725  157.3084 N   0  3  0  0  0  0  0  0  0  0  0  0
  150.8383  142.3673  157.0036 C   0  0  0  0  0  0  0  0  0  0  0  0
  150.1435  139.2032  157.7390 C   0  0  0  0  0  0  0  0  0  0  0  0
  151.4350  138.8904  158.4493 C   0  0  0  0  0  0  0  0  0  0  0  0
  153.0908  141.0540  159.2043 H   0  0  0  0  0  0  0  0  0  0  0  0
  153.3475  143.4854  159.7205 H   0  0  0  0  0  0  0  0  0  0  0  0
  151.9230  145.1653  158.4071 H   0  0  0  0  0  0  0  0  0  0  0  0
  150.1222  142.1528  156.2237 H   0  0  0  0  0  0  0  0  0  0  0  0
  149.3922  139.7584  158.2970 H   0  0  0  0  0  0  0  0  0  0  0  0
  149.7532  138.4305  157.0788 H   0  0  0  0  0  0  0  0  0  0  0  0
  151.8780  137.9167  158.2471 H   0  0  0  0  0  0  0  0  0  0  0  0
  151.5332  139.2392  159.4754 H   0  0  0  0  0  0  0  0  0  0  0  0
  150.4590  144.3664  156.7994 H   0  0  0  0  0  0  0  0  0  0  0  0
  1  2  2  0  0  0  0
  2  3  1  0  0  0  0
  2  4  1  0  0  0  0
  4 12  1  0  0  0  0
  4  5  1  0  0  0  0
  4 11  1  0  0  0  0
  5 10  1  0  0  0  0
  5  6  2  0  0  0  0
  6  7  1  0  0  0  0
  6 13  1  0  0  0  0
  7  8  2  0  0  0  0
  7 14  1  0  0  0  0
  8  9  1  0  0  0  0
  8 15  1  0  0  0  0
  9 10  2  0  0  0  0
  9 21  1  0  0  0  0
 10 16  1  0  0  0  0
 11 12  1  0  0  0  0
 11 17  1  0  0  0  0
 11 18  1  0  0  0  0
 12 19  1  0  0  0  0
 12 20  1  0  0  0  0
M  CHG  1   3  -1
M  CHG  1   9   1
M  END
> <s_m_source_file>
AV-unprocessed.smi

> <i_m_source_file_index>
2700

> <i_lp_mmshare_version>
43012

> <i_f3d_flags>
0

> <s_epik_input>
Tz1DKFtPSF0pQzEoW0NIMl1bQ0gyXTEpYzJbY0hdW2NIXVtjSF1uW2NIXTI=

> <s_epik_cmdline>
J2VwaWtfcHl0aG9uJywgJy1waCcsICc3LjAnLCAnLXRuJywgJzgnLCAnLW1hJywgJzIwMCcsICctbWV0YWxfYmluZGluZycsICctaW1hZScsICc8aW5maWxlLm1hZT4nLCAnLW9tYWUnLCAnPG91dGZpbGUubWFlPic=

> <r_epik_Ionization_Penalty>
1.51613

> <r_epik_Ionization_Penalty_Charging>
1.51613

> <r_epik_Ionization_Penalty_Neutral>
0

> <r_epik_State_Penalty>
1.60739

> <r_epik_Charging_Adjusted_Penalty>
3.12352

> <i_epik_Tot_Q>
0

> <i_epik_Tot_abs_Q>
2

> <r_epik_Metal_State_Penalty>
5.65951

> <b_epik_Metal_Only>
0

> <s_lp_Force_Field>
OPLS_2005

> <r_lp_Energy>
9.09534

> <b_lp_Chiralities_Consistent>
1

> <s_lp_Variant>
AV-unprocessed.smi:2700-2

> <Gold.Version>
5.8.1

> <Gold.Id.Protein>
6NUR|6NUR_protein|mol2

> <Gold.PLP.Fitness>
40.4824

> <Gold.PLP.PLP>
-25.8993

> <Gold.PLP.part.hbond>
-2.9083

> <Gold.PLP.part.metal>
0.0000

> <Gold.PLP.part.buried>
-4.8170

> <Gold.PLP.part.nonpolar>
-18.9791

> <Gold.PLP.part.repulsive>
0.0455

> <Gold.PLP.ligand.clash>
0.0000

> <Gold.PLP.ligand.torsion>
1.0050

> <Gold.PLP.Chemscore.Hbond>
4.9840

> <Gold.PLP.Chemscore.CHOScore>
0.0000

> <Gold.PLP.Chemscore.Metal>
0.0000

> <Gold.Chemscore.Hbonds>
donor molecule, donor type, donor heavy atom, donor atom, acceptor molecule, acceptor atom, score
      L1  H     9    21       P1  8028  1.95
      P1  H  7989  7998       L1     1  1.00
      P1  H  7997  8009       L1     3  2.00

> <Gold.PLP.Chemscore.Internal.Correction>
1.6412

> <Gold.Rescore>
     Score         DG    S(hbond)    S(metal)    S(lipo)     H(rot)  DE(clash)    DE(int)     intcor
     17.16     -18.20       2.79        0.00      59.74       1.40       0.00       1.03       ----

> <Gold.Chemscore.Fitness>
17.1626

> <Gold.Chemscore.DG>
-18.1956

> <Gold.Chemscore.ZeroCoef>
-5.4800

> <Gold.Chemscore.Hbond>
2.7860

> <Gold.Chemscore.Metal>
0.0000

> <Gold.Chemscore.Lipo>
59.7427

> <Gold.Chemscore.Internal_Hbond>
0.0000

> <Gold.Chemscore.DEClash>
0.0000

> <Gold.Chemscore.DEInternal>
1.0330

> <Gold.Chemscore.Rot>
1.3982

> <Gold.Chemscore.Internal.Correction>
   9.000000E+99

> <Gold.Chemscore.Hbonds>
donor molecule, donor type, donor heavy atom, donor atom, acceptor molecule, acceptor atom, score
      L1  H     9    21       P1  8028  0.89
      P1  H  7989  7998       L1     1  0.99
      P1  H  7997  8009       L1     3  0.81

> <Gold.Chemscore.Hbond.Weighted>
-9.3052

> <Gold.Chemscore.Metal.Weighted>
-0.0000

> <Gold.Chemscore.Lipo.Weighted>
-6.9899

> <Gold.Chemscore.Internal_Hbond.Weighted>
0.0000

> <Gold.Chemscore.DEClash.Weighted>
0.0000

> <Gold.Chemscore.DEInternal.Weighted>
1.0330

> <Gold.Chemscore.Rot.Weighted>
3.5795

> <Gold.Chemscore.Internal.Correction.Weighted>
   9.000000E+99

> <Gold.Protein.RotatedTorsions>
[ 6907 6896 6895 6894 ] final -172.37 input  -60.11 | X-H torsion
[ 7974 7965 7964 7962 ] final  100.69 input  175.53 | X-H torsion
[ 8008 7997 7996 7995 ] final -160.77 input   59.86 | X-H torsion
[ 10167 10162 10161 10158 ] final   94.24 input  -65.29 | X-H torsion
[ 10718 10713 10712 10709 ] final -148.65 input   66.30 | X-H torsion
[ 10763 10752 10751 10750 ] final  115.56 input  -60.55 | X-H torsion
[ 11005 11000 10999 10996 ] final -142.53 input  -57.11 | X-H torsion

> <Gold.Protein.ActiveResidues>
 VAL166  LYS551  ARG553  GLY616  TRP617  ASP618  TYR619  PRO620  LYS621  CYS622 
 ASP623  PHE694  ASN695  SER759  ASP760  ASP761  ALA762  ILE779  LEU786  VAL792 
 PHE793  MET794  SER795  GLU796  ALA797  LYS798  CYS799  TRP800  GLU811  SER814 

> <Gold.Protein.RotatedAtoms>
  151.5390  133.3436  159.2931 H   0  0  0  0  0  0  0  0  0  0  0  0  # atno 6907 bound_to 6896
  150.8547  134.7885  159.7047 H   0  0  0  0  0  0  0  0  0  0  0  0  # atno 6908 bound_to 6896
  152.4584  134.5248  159.9845 H   0  0  0  0  0  0  0  0  0  0  0  0  # atno 6909 bound_to 6896
  145.3823  139.2377  143.3397 H   0  0  0  0  0  0  0  0  0  0  0  0  # atno 7974 bound_to 7965
  155.7823  140.0867  157.2052 H   0  0  0  0  0  0  0  0  0  0  0  0  # atno 8008 bound_to 7997
  154.3989  140.1505  156.3124 H   0  0  0  0  0  0  0  0  0  0  0  0  # atno 8009 bound_to 7997
  155.8641  140.3429  155.5779 H   0  0  0  0  0  0  0  0  0  0  0  0  # atno 8010 bound_to 7997
  139.8102  144.6776  150.9650 H   0  0  0  0  0  0  0  0  0  0  0  0  # atno 10167 bound_to 10162
  156.4230  130.8038  151.2262 H   0  0  0  0  0  0  0  0  0  0  0  0  # atno 10718 bound_to 10713
  153.5240  135.3592  155.2645 H   0  0  0  0  0  0  0  0  0  0  0  0  # atno 10763 bound_to 10752
  154.8732  135.4052  154.3227 H   0  0  0  0  0  0  0  0  0  0  0  0  # atno 10764 bound_to 10752
  153.3903  135.7071  153.6567 H   0  0  0  0  0  0  0  0  0  0  0  0  # atno 10765 bound_to 10752
  140.8216  134.2624  157.4897 H   0  0  0  0  0  0  0  0  0  0  0  0  # atno 11005 bound_to 11000
  146.2836  140.4492  142.8766 LP  0  0  0  0  0  0  0  0  0  0  0  0  # atno 17320 bound_to 7965
  144.8499  140.6985  143.6175 LP  0  0  0  0  0  0  0  0  0  0  0  0  # atno 17321 bound_to 7965
  140.7818  143.4192  151.0868 LP  0  0  0  0  0  0  0  0  0  0  0  0  # atno 17342 bound_to 10162
  139.7859  143.8287  152.3145 LP  0  0  0  0  0  0  0  0  0  0  0  0  # atno 17343 bound_to 10162
  157.7508  131.0222  150.3782 LP  0  0  0  0  0  0  0  0  0  0  0  0  # atno 17370 bound_to 10713
  156.4103  130.3933  149.6896 LP  0  0  0  0  0  0  0  0  0  0  0  0  # atno 17371 bound_to 10713
  139.8708  134.9538  156.4157 LP  0  0  0  0  0  0  0  0  0  0  0  0  # atno 17394 bound_to 11000
  140.9093  133.7723  155.9772 LP  0  0  0  0  0  0  0  0  0  0  0  0  # atno 17395 bound_to 11000

$$$$
