AV-unprocessed.smi:254|AV-procd|sdf|1947|dock5
  -GOLD-   2262021 83D 1   1.00000     0.00000
 Structure written by MMmdl.
 50 53  0  0  0  0  0  0  0  0  1 V2000
  146.8801  130.7289  160.4831 O   0  0  0  0  0  0  0  0  0  0  0  0
  147.4140  131.7372  160.0241 C   0  0  0  0  0  0  0  0  0  0  0  0
  148.6666  131.7001  159.1713 C   0  0  0  0  0  0  0  0  0  0  0  0
  148.8972  133.1124  158.8742 N   0  0  0  0  0  0  0  0  0  0  0  0
  149.2183  133.3685  157.5868 C   0  0  0  0  0  0  0  0  0  0  0  0
  150.3347  134.0857  157.2924 N   0  0  0  0  0  0  0  0  0  0  0  0
  150.6410  134.3475  156.0179 C   0  0  0  0  0  0  0  0  0  0  0  0
  149.9810  133.9973  154.9113 N   0  0  0  0  0  0  0  0  0  0  0  0
  148.8560  133.2851  155.2088 C   0  0  0  0  0  0  0  0  0  0  0  0
  148.4039  132.9320  156.5103 C   0  0  0  0  0  0  0  0  0  0  0  0
  147.2221  132.2076  156.4267 N   0  0  0  0  0  0  0  0  0  0  0  0
  146.9894  132.1317  155.1444 C   0  0  0  0  0  0  0  0  0  0  0  0
  147.9117  132.7651  154.3405 N   0  0  0  0  0  0  0  0  0  0  0  0
  147.9042  132.8245  152.8893 C   0  0  0  0  0  0  0  0  0  0  0  0
  146.7392  133.6485  152.2812 C   0  0  2  0  0  0  0  0  0  0  0  0
  146.1150  134.4976  153.4156 C   0  0  0  0  0  0  0  0  0  0  0  0
  146.8754  135.6558  153.6904 O   0  0  0  0  0  0  0  0  0  0  0  0
  145.6798  132.7596  151.5590 C   0  0  1  0  0  0  0  0  0  0  0  0
  144.3463  133.4319  151.2713 C   0  0  0  0  0  0  0  0  0  0  0  0
  143.7414  132.5154  150.2190 C   0  0  0  0  0  0  0  0  0  0  0  0
  144.8426  132.1400  149.4073 O   0  0  0  0  0  0  0  0  0  0  0  0
  146.0529  132.2781  150.1466 C   0  0  0  0  0  0  0  0  0  0  0  0
  147.8465  133.9406  159.4692 C   0  0  0  0  0  0  0  0  0  0  0  0
  147.0005  132.9964  160.1789 N   0  0  0  0  0  0  0  0  0  0  0  0
  145.8200  133.4475  160.9129 C   0  0  0  0  0  0  0  0  0  0  0  0
  146.1835  134.2096  162.1997 C   0  0  0  0  0  0  0  0  0  0  0  0
  147.1157  133.5238  162.8599 F   0  0  0  0  0  0  0  0  0  0  0  0
  146.6666  135.4206  161.9235 F   0  0  0  0  0  0  0  0  0  0  0  0
  145.1123  134.3332  162.9836 F   0  0  0  0  0  0  0  0  0  0  0  0
  149.5029  131.2869  159.7355 H   0  0  0  0  0  0  0  0  0  0  0  0
  148.5032  131.0889  158.2816 H   0  0  0  0  0  0  0  0  0  0  0  0
  151.5433  134.9204  155.8625 H   0  0  0  0  0  0  0  0  0  0  0  0
  146.1286  131.6139  154.7467 H   0  0  0  0  0  0  0  0  0  0  0  0
  148.8601  133.2198  152.5438 H   0  0  0  0  0  0  0  0  0  0  0  0
  147.8584  131.7931  152.5378 H   0  0  0  0  0  0  0  0  0  0  0  0
  147.1683  134.3403  151.5549 H   0  0  0  0  0  0  0  0  0  0  0  0
  145.0890  134.7772  153.1745 H   0  0  0  0  0  0  0  0  0  0  0  0
  146.0739  133.9319  154.3467 H   0  0  0  0  0  0  0  0  0  0  0  0
  147.7439  135.5362  153.3374 H   0  0  0  0  0  0  0  0  0  0  0  0
  145.4786  131.8822  152.1761 H   0  0  0  0  0  0  0  0  0  0  0  0
  143.7110  133.5237  152.1524 H   0  0  0  0  0  0  0  0  0  0  0  0
  144.5006  134.4267  150.8508 H   0  0  0  0  0  0  0  0  0  0  0  0
  143.3213  131.6224  150.6837 H   0  0  0  0  0  0  0  0  0  0  0  0
  142.9579  132.9997  149.6360 H   0  0  0  0  0  0  0  0  0  0  0  0
  146.6785  133.0077  149.6318 H   0  0  0  0  0  0  0  0  0  0  0  0
  146.5838  131.3273  150.1650 H   0  0  0  0  0  0  0  0  0  0  0  0
  148.2895  134.6501  160.1689 H   0  0  0  0  0  0  0  0  0  0  0  0
  147.2614  134.5027  158.7397 H   0  0  0  0  0  0  0  0  0  0  0  0
  145.2231  134.0897  160.2639 H   0  0  0  0  0  0  0  0  0  0  0  0
  145.1899  132.5893  161.1521 H   0  0  0  0  0  0  0  0  0  0  0  0
  1  2  2  0  0  0  0
  2 24  1  0  0  0  0
  2  3  1  0  0  0  0
  3  4  1  0  0  0  0
  3 30  1  0  0  0  0
  3 31  1  0  0  0  0
  4  5  1  0  0  0  0
  4 23  1  0  0  0  0
  5 10  1  0  0  0  0
  5  6  2  0  0  0  0
  6  7  1  0  0  0  0
  7  8  2  0  0  0  0
  7 32  1  0  0  0  0
  8  9  1  0  0  0  0
  9 13  1  0  0  0  0
  9 10  2  0  0  0  0
 10 11  1  0  0  0  0
 11 12  2  0  0  0  0
 12 13  1  0  0  0  0
 12 33  1  0  0  0  0
 13 14  1  0  0  0  0
 14 15  1  0  0  0  0
 14 34  1  0  0  0  0
 14 35  1  0  0  0  0
 15 16  1  0  0  0  0
 15 18  1  0  0  0  0
 15 36  1  0  0  0  0
 16 17  1  0  0  0  0
 16 37  1  0  0  0  0
 16 38  1  0  0  0  0
 17 39  1  0  0  0  0
 18 22  1  0  0  0  0
 18 19  1  0  0  0  0
 18 40  1  0  0  0  0
 19 20  1  0  0  0  0
 19 41  1  0  0  0  0
 19 42  1  0  0  0  0
 20 21  1  0  0  0  0
 20 43  1  0  0  0  0
 20 44  1  0  0  0  0
 21 22  1  0  0  0  0
 22 45  1  0  0  0  0
 22 46  1  0  0  0  0
 23 24  1  0  0  0  0
 23 47  1  0  0  0  0
 23 48  1  0  0  0  0
 24 25  1  0  0  0  0
 25 26  1  0  0  0  0
 25 49  1  0  0  0  0
 25 50  1  0  0  0  0
 26 27  1  0  0  0  0
 26 28  1  0  0  0  0
 26 29  1  0  0  0  0
M  END
> <s_m_source_file>
AV-unprocessed.smi

> <i_m_source_file_index>
254

> <i_lp_mmshare_version>
43012

> <i_f3d_flags>
0

> <s_epik_input>
RkMoRikoRilbQ0gyXU4xW0NIMl1OKFtDSDJdQzE9TyljKG5bY0hdbjIpYyhjMjMpbltjSF1uM1tDSDJdW0NASF0oW0NIMl1bT0hdKVtDQEBIXTRbQ0gyXVtDSDJdT1tDSDJdNA==

> <s_epik_cmdline>
J2VwaWtfcHl0aG9uJywgJy1waCcsICc3LjAnLCAnLXRuJywgJzgnLCAnLW1hJywgJzIwMCcsICctbWV0YWxfYmluZGluZycsICctaW1hZScsICc8aW5maWxlLm1hZT4nLCAnLW9tYWUnLCAnPG91dGZpbGUubWFlPic=

> <r_lp_tautomer_probability>
1

> <r_epik_Ionization_Penalty>
0.000292924

> <r_epik_Ionization_Penalty_Charging>
0

> <r_epik_Ionization_Penalty_Neutral>
0.000292924

> <r_epik_State_Penalty>
-0

> <r_epik_Charging_Adjusted_Penalty>
0

> <i_epik_Tot_Q>
0

> <i_epik_Tot_abs_Q>
0

> <r_epik_Metal_State_Penalty>
-0

> <b_epik_Metal_Only>
0

> <s_epik_Chemistry_Notes>
This compound contains an acetal/aminal-like group ( X-CH(R)-Y where X, Y are N, S, or O) that may be acid/base labile, releasing an aldehyde.

> <s_lp_Force_Field>
OPLS_2005

> <r_lp_Energy>
43.3232

> <b_lp_Chiralities_Consistent>
1

> <s_lp_Variant>
AV-unprocessed.smi:254-3

> <Gold.Version>
5.8.1

> <Gold.Id.Protein>
6NUR|6NUR_protein|mol2

> <Gold.PLP.Fitness>
46.5619

> <Gold.PLP.PLP>
-43.5978

> <Gold.PLP.part.hbond>
-2.8178

> <Gold.PLP.part.metal>
0.0000

> <Gold.PLP.part.buried>
-6.7544

> <Gold.PLP.part.nonpolar>
-35.7622

> <Gold.PLP.part.repulsive>
0.3346

> <Gold.PLP.ligand.clash>
0.0000

> <Gold.PLP.ligand.torsion>
1.7775

> <Gold.PLP.Chemscore.Hbond>
2.0000

> <Gold.PLP.Chemscore.CHOScore>
0.0000

> <Gold.PLP.Chemscore.Metal>
0.0000

> <Gold.Chemscore.Hbonds>
donor molecule, donor type, donor heavy atom, donor atom, acceptor molecule, acceptor atom, score
      L1  H    17    39       P1  7948  0.83
      P1  H  6896  6908       L1     4  0.29

> <Gold.PLP.Chemscore.Internal.Correction>
0.5191

> <Gold.Rescore>
     Score         DG    S(hbond)    S(metal)    S(lipo)     H(rot)  DE(clash)    DE(int)     intcor
      7.16      -8.95       1.70        0.00      64.04       3.78       0.17       1.63       ----

> <Gold.Chemscore.Fitness>
7.1563

> <Gold.Chemscore.DG>
-8.9519

> <Gold.Chemscore.ZeroCoef>
-5.4800

> <Gold.Chemscore.Hbond>
1.6966

> <Gold.Chemscore.Metal>
0.0000

> <Gold.Chemscore.Lipo>
64.0358

> <Gold.Chemscore.Internal_Hbond>
0.0000

> <Gold.Chemscore.DEClash>
0.1698

> <Gold.Chemscore.DEInternal>
1.6259

> <Gold.Chemscore.Rot>
3.7840

> <Gold.Chemscore.Internal.Correction>
   9.000000E+99

> <Gold.Chemscore.Hbonds>
donor molecule, donor type, donor heavy atom, donor atom, acceptor molecule, acceptor atom, score
      L1  H    17    39       P1  7948  0.79

> <Gold.Chemscore.Hbond.Weighted>
-5.6668

> <Gold.Chemscore.Metal.Weighted>
-0.0000

> <Gold.Chemscore.Lipo.Weighted>
-7.4922

> <Gold.Chemscore.Internal_Hbond.Weighted>
0.0000

> <Gold.Chemscore.DEClash.Weighted>
0.1698

> <Gold.Chemscore.DEInternal.Weighted>
1.6259

> <Gold.Chemscore.Rot.Weighted>
9.6871

> <Gold.Chemscore.Internal.Correction.Weighted>
   9.000000E+99

> <Gold.Protein.RotatedTorsions>
[ 6907 6896 6895 6894 ] final  135.77 input  -60.11 | X-H torsion
[ 7974 7965 7964 7962 ] final   -5.16 input  175.53 | X-H torsion
[ 8008 7997 7996 7995 ] final -167.85 input   59.86 | X-H torsion
[ 10167 10162 10161 10158 ] final  -89.39 input  -65.29 | X-H torsion
[ 10718 10713 10712 10709 ] final  -18.15 input   66.30 | X-H torsion
[ 10763 10752 10751 10750 ] final    7.13 input  -60.55 | X-H torsion
[ 11005 11000 10999 10996 ] final   15.13 input  -57.11 | X-H torsion

> <Gold.Protein.ActiveResidues>
 VAL166  LYS551  ARG553  GLY616  TRP617  ASP618  TYR619  PRO620  LYS621  CYS622 
 ASP623  PHE694  ASN695  SER759  ASP760  ASP761  ALA762  ILE779  LEU786  VAL792 
 PHE793  MET794  SER795  GLU796  ALA797  LYS798  CYS799  TRP800  GLU811  SER814 

> <Gold.Protein.RotatedAtoms>
  152.2968  133.5615  159.5592 H   0  0  0  0  0  0  0  0  0  0  0  0  # atno 6907 bound_to 6896
  150.7259  134.0349  159.3755 H   0  0  0  0  0  0  0  0  0  0  0  0  # atno 6908 bound_to 6896
  151.8252  135.0639  160.0481 H   0  0  0  0  0  0  0  0  0  0  0  0  # atno 6909 bound_to 6896
  146.2358  140.1979  142.8333 H   0  0  0  0  0  0  0  0  0  0  0  0  # atno 7974 bound_to 7965
  155.8834  140.1012  157.1470 H   0  0  0  0  0  0  0  0  0  0  0  0  # atno 8008 bound_to 7997
  154.4007  140.1324  156.4288 H   0  0  0  0  0  0  0  0  0  0  0  0  # atno 8009 bound_to 7997
  155.7617  140.3463  155.5204 H   0  0  0  0  0  0  0  0  0  0  0  0  # atno 8010 bound_to 7997
  140.3653  143.2821  151.9566 H   0  0  0  0  0  0  0  0  0  0  0  0  # atno 10167 bound_to 10162
  156.5636  130.4731  149.6395 H   0  0  0  0  0  0  0  0  0  0  0  0  # atno 10718 bound_to 10713
  153.2398  135.6902  153.7796 H   0  0  0  0  0  0  0  0  0  0  0  0  # atno 10763 bound_to 10752
  153.6929  135.3310  155.3207 H   0  0  0  0  0  0  0  0  0  0  0  0  # atno 10764 bound_to 10752
  154.8350  135.4549  154.1316 H   0  0  0  0  0  0  0  0  0  0  0  0  # atno 10765 bound_to 10752
  140.4617  134.1120  155.7717 H   0  0  0  0  0  0  0  0  0  0  0  0  # atno 11005 bound_to 11000
  144.9806  140.8455  143.5400 LP  0  0  0  0  0  0  0  0  0  0  0  0  # atno 17320 bound_to 7965
  145.1971  139.2271  143.5212 LP  0  0  0  0  0  0  0  0  0  0  0  0  # atno 17321 bound_to 7965
  139.4809  144.5956  151.7695 LP  0  0  0  0  0  0  0  0  0  0  0  0  # atno 17342 bound_to 10162
  140.5087  144.1058  150.5989 LP  0  0  0  0  0  0  0  0  0  0  0  0  # atno 17343 bound_to 10162
  156.2777  130.7053  151.1868 LP  0  0  0  0  0  0  0  0  0  0  0  0  # atno 17370 bound_to 10713
  157.7363  131.0563  150.5420 LP  0  0  0  0  0  0  0  0  0  0  0  0  # atno 17371 bound_to 10713
  141.1618  133.8779  157.1827 LP  0  0  0  0  0  0  0  0  0  0  0  0  # atno 17394 bound_to 11000
  139.9941  135.0053  157.0042 LP  0  0  0  0  0  0  0  0  0  0  0  0  # atno 17395 bound_to 11000

$$$$
