AV-unprocessed.smi:1996|AV-procd|sdf|8084|dock9
  -GOLD-   2272010303D 1   1.00000     0.00000
 Structure written by MMmdl.
 33 34  0  0  0  0  0  0  0  0  1 V2000
  154.4012  139.0150  158.1973 O   0  0  0  0  0  0  0  0  0  0  0  0
  154.9833  138.1608  158.8664 C   0  0  0  0  0  0  0  0  0  0  0  0
  154.8368  138.0352  160.1934 N   0  0  0  0  0  0  0  0  0  0  0  0
  153.9706  138.8656  161.0220 C   0  0  0  0  0  0  0  0  0  0  0  0
  154.6406  140.2069  161.3682 C   0  0  0  0  0  0  0  0  0  0  0  0
  153.7666  141.4051  161.0380 C   0  0  0  0  0  0  0  0  0  0  0  0
  153.4019  142.3009  161.9760 C   0  0  0  0  0  0  0  0  0  0  0  0
  152.5209  143.5086  161.7077 C   0  0  0  0  0  0  0  0  0  0  0  0
  151.8159  143.4305  160.3429 C   0  0  0  0  0  0  0  0  0  0  0  0
  152.7717  142.9334  159.2512 C   0  0  0  0  0  0  0  0  0  0  0  0
  153.3256  141.5365  159.5846 C   0  0  0  0  0  0  0  0  0  0  0  0
  155.8345  137.2393  158.3820 N   0  0  0  0  0  0  0  0  0  0  0  0
  156.2349  137.0317  157.0355 C   0  0  0  0  0  0  0  0  0  0  0  0
  155.5207  137.4389  155.9743 N   0  0  0  0  0  0  0  0  0  0  0  0
  156.1366  137.1056  154.7749 N   0  0  0  0  0  0  0  0  0  0  0  0
  157.2895  136.4616  154.9783 C   0  0  0  0  0  0  0  0  0  0  0  0
  157.7359  136.1994  156.6554 S   0  0  0  0  0  0  0  0  0  0  0  0
  155.3550  137.3078  160.6644 H   0  0  0  0  0  0  0  0  0  0  0  0
  153.0465  139.0351  160.4692 H   0  0  0  0  0  0  0  0  0  0  0  0
  153.6955  138.3290  161.9318 H   0  0  0  0  0  0  0  0  0  0  0  0
  154.8888  140.2296  162.4302 H   0  0  0  0  0  0  0  0  0  0  0  0
  155.5853  140.3051  160.8321 H   0  0  0  0  0  0  0  0  0  0  0  0
  153.7487  142.1854  162.9927 H   0  0  0  0  0  0  0  0  0  0  0  0
  151.7804  143.5973  162.5030 H   0  0  0  0  0  0  0  0  0  0  0  0
  153.1478  144.3995  161.7572 H   0  0  0  0  0  0  0  0  0  0  0  0
  150.9662  142.7500  160.4104 H   0  0  0  0  0  0  0  0  0  0  0  0
  151.4095  144.4067  160.0771 H   0  0  0  0  0  0  0  0  0  0  0  0
  152.2664  142.9121  158.2853 H   0  0  0  0  0  0  0  0  0  0  0  0
  153.5981  143.6383  159.1514 H   0  0  0  0  0  0  0  0  0  0  0  0
  154.1656  141.3125  158.9261 H   0  0  0  0  0  0  0  0  0  0  0  0
  152.5622  140.7826  159.3900 H   0  0  0  0  0  0  0  0  0  0  0  0
  156.2386  136.6057  159.0557 H   0  0  0  0  0  0  0  0  0  0  0  0
  157.8811  136.1387  154.1345 H   0  0  0  0  0  0  0  0  0  0  0  0
  1  2  2  0  0  0  0
  2  3  1  0  0  0  0
  2 12  1  0  0  0  0
  3  4  1  0  0  0  0
  3 18  1  0  0  0  0
  4  5  1  0  0  0  0
  4 19  1  0  0  0  0
  4 20  1  0  0  0  0
  5  6  1  0  0  0  0
  5 21  1  0  0  0  0
  5 22  1  0  0  0  0
  6 11  1  0  0  0  0
  6  7  2  0  0  0  0
  7  8  1  0  0  0  0
  7 23  1  0  0  0  0
  8  9  1  0  0  0  0
  8 24  1  0  0  0  0
  8 25  1  0  0  0  0
  9 10  1  0  0  0  0
  9 26  1  0  0  0  0
  9 27  1  0  0  0  0
 10 11  1  0  0  0  0
 10 28  1  0  0  0  0
 10 29  1  0  0  0  0
 11 30  1  0  0  0  0
 11 31  1  0  0  0  0
 12 13  1  0  0  0  0
 12 32  1  0  0  0  0
 13 17  1  0  0  0  0
 13 14  2  0  0  0  0
 14 15  1  0  0  0  0
 15 16  2  0  0  0  0
 16 17  1  0  0  0  0
 16 33  1  0  0  0  0
M  END
> <s_m_source_file>
AV-unprocessed.smi

> <i_m_source_file_index>
1996

> <i_lp_mmshare_version>
43012

> <i_f3d_flags>
0

> <s_epik_input>
czFbY0hdbm5jMVtOSF1DKD1PKVtOSF1bQ0gyXVtDSDJdQzI9W0NIXVtDSDJdW0NIMl1bQ0gyXVtDSDJdMg==

> <s_epik_cmdline>
J2VwaWtfcHl0aG9uJywgJy1waCcsICc3LjAnLCAnLXRuJywgJzgnLCAnLW1hJywgJzIwMCcsICctbWV0YWxfYmluZGluZycsICctaW1hZScsICc8aW5maWxlLm1hZT4nLCAnLW9tYWUnLCAnPG91dGZpbGUubWFlPic=

> <r_lp_tautomer_probability>
1

> <r_epik_Ionization_Penalty>
0.00157076

> <r_epik_Ionization_Penalty_Charging>
0

> <r_epik_Ionization_Penalty_Neutral>
0.00157076

> <r_epik_State_Penalty>
-0

> <r_epik_Charging_Adjusted_Penalty>
0

> <i_epik_Tot_Q>
0

> <i_epik_Tot_abs_Q>
0

> <r_epik_Metal_State_Penalty>
0.323125

> <b_epik_Metal_Only>
0

> <s_lp_Force_Field>
OPLS_2005

> <r_lp_Energy>
6.02977

> <b_lp_Chiralities_Consistent>
1

> <s_lp_Variant>
AV-unprocessed.smi:1996-1

> <Gold.Version>
5.8.1

> <Gold.Id.Protein>
6NUR|6NUR_protein|mol2

> <Gold.PLP.Fitness>
36.5794

> <Gold.PLP.PLP>
-32.9853

> <Gold.PLP.part.hbond>
-3.3022

> <Gold.PLP.part.metal>
0.0000

> <Gold.PLP.part.buried>
-4.1181

> <Gold.PLP.part.nonpolar>
-25.8846

> <Gold.PLP.part.repulsive>
0.0929

> <Gold.PLP.ligand.clash>
0.0000

> <Gold.PLP.ligand.torsion>
0.6196

> <Gold.PLP.Chemscore.Hbond>
1.6098

> <Gold.PLP.Chemscore.CHOScore>
0.0000

> <Gold.PLP.Chemscore.Metal>
0.0000

> <Gold.Chemscore.Hbonds>
donor molecule, donor type, donor heavy atom, donor atom, acceptor molecule, acceptor atom, score
      P1  H  7997  8009       L1     1  0.95
      P1  H 10752 10765       L1    15  0.53

> <Gold.PLP.Chemscore.Internal.Correction>
0.0040

> <Gold.Rescore>
     Score         DG    S(hbond)    S(metal)    S(lipo)     H(rot)  DE(clash)    DE(int)     intcor
     15.29     -17.17       1.60        0.00      89.71       1.62       0.05       1.82       ----

> <Gold.Chemscore.Fitness>
15.2886

> <Gold.Chemscore.DG>
-17.1652

> <Gold.Chemscore.ZeroCoef>
-5.4800

> <Gold.Chemscore.Hbond>
1.5953

> <Gold.Chemscore.Metal>
0.0000

> <Gold.Chemscore.Lipo>
89.7050

> <Gold.Chemscore.Internal_Hbond>
0.0000

> <Gold.Chemscore.DEClash>
0.0544

> <Gold.Chemscore.DEInternal>
1.8222

> <Gold.Chemscore.Rot>
1.6167

> <Gold.Chemscore.Internal.Correction>
   9.000000E+99

> <Gold.Chemscore.Hbonds>
donor molecule, donor type, donor heavy atom, donor atom, acceptor molecule, acceptor atom, score
      P1  H  7997  8009       L1     1  0.85
      P1  H 10752 10765       L1    15  0.04

> <Gold.Chemscore.Hbond.Weighted>
-5.3284

> <Gold.Chemscore.Metal.Weighted>
-0.0000

> <Gold.Chemscore.Lipo.Weighted>
-10.4955

> <Gold.Chemscore.Internal_Hbond.Weighted>
0.0000

> <Gold.Chemscore.DEClash.Weighted>
0.0544

> <Gold.Chemscore.DEInternal.Weighted>
1.8222

> <Gold.Chemscore.Rot.Weighted>
4.1387

> <Gold.Chemscore.Internal.Correction.Weighted>
   9.000000E+99

> <Gold.Protein.RotatedTorsions>
[ 6907 6896 6895 6894 ] final  138.67 input  -60.11 | X-H torsion
[ 7974 7965 7964 7962 ] final  -98.58 input  175.53 | X-H torsion
[ 8008 7997 7996 7995 ] final  152.42 input   59.86 | X-H torsion
[ 10167 10162 10161 10158 ] final   20.26 input  -65.29 | X-H torsion
[ 10718 10713 10712 10709 ] final  103.74 input   66.30 | X-H torsion
[ 10763 10752 10751 10750 ] final    4.95 input  -60.55 | X-H torsion
[ 11005 11000 10999 10996 ] final  -52.59 input  -57.11 | X-H torsion

> <Gold.Protein.ActiveResidues>
 VAL166  LYS551  ARG553  GLY616  TRP617  ASP618  TYR619  PRO620  LYS621  CYS622 
 ASP623  PHE694  ASN695  SER759  ASP760  ASP761  ALA762  ILE779  LEU786  VAL792 
 PHE793  MET794  SER795  GLU796  ALA797  LYS798  CYS799  TRP800  GLU811  SER814 

> <Gold.Protein.RotatedAtoms>
  152.2639  133.5322  159.5397 H   0  0  0  0  0  0  0  0  0  0  0  0  # atno 6907 bound_to 6896
  150.7135  134.0791  159.3900 H   0  0  0  0  0  0  0  0  0  0  0  0  # atno 6908 bound_to 6896
  151.8708  135.0490  160.0530 H   0  0  0  0  0  0  0  0  0  0  0  0  # atno 6909 bound_to 6896
  145.3187  140.9417  143.2728 H   0  0  0  0  0  0  0  0  0  0  0  0  # atno 7974 bound_to 7965
  156.2630  140.2021  156.6330 H   0  0  0  0  0  0  0  0  0  0  0  0  # atno 8008 bound_to 7997
  154.6668  140.0554  157.0147 H   0  0  0  0  0  0  0  0  0  0  0  0  # atno 8009 bound_to 7997
  155.1195  140.3223  155.4504 H   0  0  0  0  0  0  0  0  0  0  0  0  # atno 8010 bound_to 7997
  140.5517  143.9498  150.6582 H   0  0  0  0  0  0  0  0  0  0  0  0  # atno 10167 bound_to 10162
  157.6763  131.0786  150.5601 H   0  0  0  0  0  0  0  0  0  0  0  0  # atno 10718 bound_to 10713
  153.2651  135.6927  153.7538 H   0  0  0  0  0  0  0  0  0  0  0  0  # atno 10763 bound_to 10752
  153.6582  135.3365  155.3120 H   0  0  0  0  0  0  0  0  0  0  0  0  # atno 10764 bound_to 10752
  154.8444  135.4471  154.1655 H   0  0  0  0  0  0  0  0  0  0  0  0  # atno 10765 bound_to 10752
  141.0932  133.6629  156.4046 H   0  0  0  0  0  0  0  0  0  0  0  0  # atno 11005 bound_to 11000
  144.8957  139.4716  143.6657 LP  0  0  0  0  0  0  0  0  0  0  0  0  # atno 17320 bound_to 7965
  146.3090  139.7681  142.9034 LP  0  0  0  0  0  0  0  0  0  0  0  0  # atno 17321 bound_to 7965
  140.2925  143.3314  152.1048 LP  0  0  0  0  0  0  0  0  0  0  0  0  # atno 17342 bound_to 10162
  139.5030  144.6746  151.6159 LP  0  0  0  0  0  0  0  0  0  0  0  0  # atno 17343 bound_to 10162
  156.5904  130.4328  149.5939 LP  0  0  0  0  0  0  0  0  0  0  0  0  # atno 17370 bound_to 10713
  156.2588  130.6950  151.1712 LP  0  0  0  0  0  0  0  0  0  0  0  0  # atno 17371 bound_to 10713
  140.5203  134.6311  157.5315 LP  0  0  0  0  0  0  0  0  0  0  0  0  # atno 17394 bound_to 11000
  139.9762  134.7211  155.9945 LP  0  0  0  0  0  0  0  0  0  0  0  0  # atno 17395 bound_to 11000

$$$$
