AV-unprocessed.smi:311|AV-procd|sdf|2299|dock5
  -GOLD-   2262022203D 1   1.00000     0.00000
 Structure written by MMmdl.
 44 46  0  0  0  0  0  0  0  0  2 V2000
  145.8546  141.3441  156.2442 C   0  0  0  0  0  0  0  0  0  0  0  0
  146.5222  140.0166  156.0277 C   0  0  0  0  0  0  0  0  0  0  0  0
  145.9928  138.9248  156.5535 N   0  0  0  0  0  0  0  0  0  0  0  0
  146.8377  137.8734  156.1858 O   0  0  0  0  0  0  0  0  0  0  0  0
  147.8534  138.3794  155.4418 C   0  0  0  0  0  0  0  0  0  0  0  0
  148.8771  137.4066  154.9627 C   0  0  0  0  0  0  0  0  0  0  0  0
  147.7143  139.7335  155.3015 C   0  0  0  0  0  0  0  0  0  0  0  0
  148.6059  140.7062  154.5729 C   0  0  0  0  0  0  0  0  0  0  0  0
  150.0121  140.6294  155.1646 C   0  0  0  0  0  0  0  0  0  0  0  0
  150.8090  139.7873  154.7517 O   0  0  0  0  0  0  0  0  0  0  0  0
  150.3150  141.5411  156.1011 N   0  0  0  0  0  0  0  0  0  0  0  0
  151.6379  141.7367  156.6834 C   0  0  2  0  0  0  0  0  0  0  0  0
  152.1994  140.4706  157.3531 C   0  0  0  0  0  0  0  0  0  0  0  0
  152.9482  140.9701  158.6054 C   0  0  0  0  0  0  0  0  0  0  0  0
  152.8490  142.4422  158.5625 N   0  3  2  0  0  0  0  0  0  0  0  0
  152.9497  143.1635  159.8501 C   0  0  0  0  0  0  0  0  0  0  0  0
  152.9020  144.6825  159.5878 C   0  0  0  0  0  0  0  0  0  0  0  0
  151.6683  145.0814  158.7523 C   0  0  0  0  0  0  0  0  0  0  0  0
  151.5667  144.2338  157.4697 C   0  0  0  0  0  0  0  0  0  0  0  0
  151.6058  142.7411  157.8370 C   0  0  1  0  0  0  0  0  0  0  0  0
  146.5860  142.1117  156.4976 H   0  0  0  0  0  0  0  0  0  0  0  0
  145.1267  141.3031  157.0551 H   0  0  0  0  0  0  0  0  0  0  0  0
  145.3320  141.6674  155.3442 H   0  0  0  0  0  0  0  0  0  0  0  0
  149.3405  137.7514  154.0385 H   0  0  0  0  0  0  0  0  0  0  0  0
  148.4293  136.4313  154.7713 H   0  0  0  0  0  0  0  0  0  0  0  0
  149.6623  137.2788  155.7076 H   0  0  0  0  0  0  0  0  0  0  0  0
  148.6404  140.4920  153.5038 H   0  0  0  0  0  0  0  0  0  0  0  0
  148.2421  141.7300  154.6642 H   0  0  0  0  0  0  0  0  0  0  0  0
  149.5910  142.1869  156.3817 H   0  0  0  0  0  0  0  0  0  0  0  0
  152.3514  142.0711  155.9269 H   0  0  0  0  0  0  0  0  0  0  0  0
  151.3995  139.7911  157.6511 H   0  0  0  0  0  0  0  0  0  0  0  0
  152.8570  139.9246  156.6756 H   0  0  0  0  0  0  0  0  0  0  0  0
  152.4670  140.5854  159.5059 H   0  0  0  0  0  0  0  0  0  0  0  0
  153.9922  140.6556  158.6188 H   0  0  0  0  0  0  0  0  0  0  0  0
  152.1335  142.8638  160.5092 H   0  0  0  0  0  0  0  0  0  0  0  0
  153.8824  142.8962  160.3479 H   0  0  0  0  0  0  0  0  0  0  0  0
  152.9043  145.2254  160.5335 H   0  0  0  0  0  0  0  0  0  0  0  0
  153.8063  144.9853  159.0581 H   0  0  0  0  0  0  0  0  0  0  0  0
  150.7664  144.9434  159.3502 H   0  0  0  0  0  0  0  0  0  0  0  0
  151.7118  146.1413  158.4996 H   0  0  0  0  0  0  0  0  0  0  0  0
  150.6437  144.4719  156.9400 H   0  0  0  0  0  0  0  0  0  0  0  0
  152.3885  144.4774  156.7949 H   0  0  0  0  0  0  0  0  0  0  0  0
  150.7605  142.5081  158.4890 H   0  0  0  0  0  0  0  0  0  0  0  0
  153.6053  142.7650  157.9758 H   0  0  0  0  0  0  0  0  0  0  0  0
  1  2  1  0  0  0  0
  1 21  1  0  0  0  0
  1 22  1  0  0  0  0
  1 23  1  0  0  0  0
  2  7  1  0  0  0  0
  2  3  2  0  0  0  0
  3  4  1  0  0  0  0
  4  5  1  0  0  0  0
  5  6  1  0  0  0  0
  5  7  2  0  0  0  0
  6 24  1  0  0  0  0
  6 25  1  0  0  0  0
  6 26  1  0  0  0  0
  7  8  1  0  0  0  0
  8  9  1  0  0  0  0
  8 27  1  0  0  0  0
  8 28  1  0  0  0  0
  9 10  2  0  0  0  0
  9 11  1  0  0  0  0
 11 12  1  0  0  0  0
 11 29  1  0  0  0  0
 12 20  1  0  0  0  0
 12 13  1  0  0  0  0
 12 30  1  0  0  0  0
 13 14  1  0  0  0  0
 13 31  1  0  0  0  0
 13 32  1  0  0  0  0
 14 15  1  0  0  0  0
 14 33  1  0  0  0  0
 14 34  1  0  0  0  0
 15 20  1  0  0  0  0
 15 16  1  0  0  0  0
 15 44  1  0  0  0  0
 16 17  1  0  0  0  0
 16 35  1  0  0  0  0
 16 36  1  0  0  0  0
 17 18  1  0  0  0  0
 17 37  1  0  0  0  0
 17 38  1  0  0  0  0
 18 19  1  0  0  0  0
 18 39  1  0  0  0  0
 18 40  1  0  0  0  0
 19 20  1  0  0  0  0
 19 41  1  0  0  0  0
 19 42  1  0  0  0  0
 20 43  1  0  0  0  0
M  CHG  1  15   1
M  END
> <s_m_source_file>
AV-unprocessed.smi

> <i_m_source_file_index>
311

> <i_lp_mmshare_version>
43012

> <i_f3d_flags>
0

> <s_epik_input>
W0NIM11jMW5vYyhbQ0gzXSljMVtDSDJdQyg9TylbTkhdW0NASF0oW0NIMl1bQ0gyXTIpW0NAQEhdKE4yMylbQ0gyXVtDSDJdW0NIMl1bQ0gyXTM=

> <s_epik_cmdline>
J2VwaWtfcHl0aG9uJywgJy1waCcsICc3LjAnLCAnLXRuJywgJzgnLCAnLW1hJywgJzIwMCcsICctbWV0YWxfYmluZGluZycsICctaW1hZScsICc8aW5maWxlLm1hZT4nLCAnLW9tYWUnLCAnPG91dGZpbGUubWFlPic=

> <r_epik_Ionization_Penalty>
0.00173669

> <r_epik_Ionization_Penalty_Charging>
0.0017366

> <r_epik_Ionization_Penalty_Neutral>
9.2145e-08

> <r_epik_State_Penalty>
0.00117499

> <r_epik_Charging_Adjusted_Penalty>
0.00291159

> <i_epik_Tot_Q>
1

> <i_epik_Tot_abs_Q>
1

> <r_epik_Metal_State_Penalty>
-0

> <b_epik_Metal_Only>
0

> <s_lp_Force_Field>
OPLS_2005

> <r_lp_Energy>
27.517

> <b_lp_Chiralities_Consistent>
1

> <s_lp_Variant>
AV-unprocessed.smi:311-3

> <Gold.Version>
5.8.1

> <Gold.Id.Protein>
6NUR|6NUR_protein|mol2

> <Gold.PLP.Fitness>
45.0116

> <Gold.PLP.PLP>
-39.7688

> <Gold.PLP.part.hbond>
-2.0000

> <Gold.PLP.part.metal>
0.0000

> <Gold.PLP.part.buried>
-4.7295

> <Gold.PLP.part.nonpolar>
-33.6750

> <Gold.PLP.part.repulsive>
0.5539

> <Gold.PLP.ligand.clash>
0.0000

> <Gold.PLP.ligand.torsion>
0.3743

> <Gold.PLP.Chemscore.Hbond>
1.9920

> <Gold.PLP.Chemscore.CHOScore>
0.0000

> <Gold.PLP.Chemscore.Metal>
0.0000

> <Gold.Chemscore.Hbonds>
donor molecule, donor type, donor heavy atom, donor atom, acceptor molecule, acceptor atom, score
      P1  H  7989  7998       L1    10  0.85

> <Gold.PLP.Chemscore.Internal.Correction>
0.0154

> <Gold.Rescore>
     Score         DG    S(hbond)    S(metal)    S(lipo)     H(rot)  DE(clash)    DE(int)     intcor
     19.18     -19.78       1.55        0.00     107.64       1.36       0.18       0.42       ----

> <Gold.Chemscore.Fitness>
19.1815

> <Gold.Chemscore.DG>
-19.7776

> <Gold.Chemscore.ZeroCoef>
-5.4800

> <Gold.Chemscore.Hbond>
1.5500

> <Gold.Chemscore.Metal>
0.0000

> <Gold.Chemscore.Lipo>
107.6372

> <Gold.Chemscore.Internal_Hbond>
0.0000

> <Gold.Chemscore.DEClash>
0.1798

> <Gold.Chemscore.DEInternal>
0.4163

> <Gold.Chemscore.Rot>
1.3567

> <Gold.Chemscore.Internal.Correction>
   9.000000E+99

> <Gold.Chemscore.Hbonds>
donor molecule, donor type, donor heavy atom, donor atom, acceptor molecule, acceptor atom, score
      P1  H  7989  7998       L1    10  0.15

> <Gold.Chemscore.Hbond.Weighted>
-5.1771

> <Gold.Chemscore.Metal.Weighted>
-0.0000

> <Gold.Chemscore.Lipo.Weighted>
-12.5935

> <Gold.Chemscore.Internal_Hbond.Weighted>
0.0000

> <Gold.Chemscore.DEClash.Weighted>
0.1798

> <Gold.Chemscore.DEInternal.Weighted>
0.4163

> <Gold.Chemscore.Rot.Weighted>
3.4731

> <Gold.Chemscore.Internal.Correction.Weighted>
   9.000000E+99

> <Gold.Protein.RotatedTorsions>
[ 6907 6896 6895 6894 ] final -141.50 input  -60.11 | X-H torsion
[ 7974 7965 7964 7962 ] final   41.00 input  175.53 | X-H torsion
[ 8008 7997 7996 7995 ] final -144.29 input   59.86 | X-H torsion
[ 10167 10162 10161 10158 ] final  -36.75 input  -65.29 | X-H torsion
[ 10718 10713 10712 10709 ] final   75.76 input   66.30 | X-H torsion
[ 10763 10752 10751 10750 ] final -176.16 input  -60.55 | X-H torsion
[ 11005 11000 10999 10996 ] final -133.33 input  -57.11 | X-H torsion

> <Gold.Protein.ActiveResidues>
 VAL166  LYS551  ARG553  GLY616  TRP617  ASP618  TYR619  PRO620  LYS621  CYS622 
 ASP623  PHE694  ASN695  SER759  ASP760  ASP761  ALA762  ILE779  LEU786  VAL792 
 PHE793  MET794  SER795  GLU796  ALA797  LYS798  CYS799  TRP800  GLU811  SER814 

> <Gold.Protein.RotatedAtoms>
  151.0746  133.5438  159.2624 H   0  0  0  0  0  0  0  0  0  0  0  0  # atno 6907 bound_to 6896
  151.2364  135.0572  159.9018 H   0  0  0  0  0  0  0  0  0  0  0  0  # atno 6908 bound_to 6896
  152.5416  134.0528  159.8171 H   0  0  0  0  0  0  0  0  0  0  0  0  # atno 6909 bound_to 6896
  146.0859  139.5467  142.9507 H   0  0  0  0  0  0  0  0  0  0  0  0  # atno 7974 bound_to 7965
  155.5245  140.0594  157.2900 H   0  0  0  0  0  0  0  0  0  0  0  0  # atno 8008 bound_to 7997
  154.4506  140.1946  156.0477 H   0  0  0  0  0  0  0  0  0  0  0  0  # atno 8009 bound_to 7997
  156.0695  140.3262  155.7563 H   0  0  0  0  0  0  0  0  0  0  0  0  # atno 8010 bound_to 7997
  140.7135  143.3388  151.2404 H   0  0  0  0  0  0  0  0  0  0  0  0  # atno 10167 bound_to 10162
  157.6647  130.9742  150.1400 H   0  0  0  0  0  0  0  0  0  0  0  0  # atno 10718 bound_to 10713
  154.5758  135.2832  155.0782 H   0  0  0  0  0  0  0  0  0  0  0  0  # atno 10763 bound_to 10752
  154.2138  135.6403  153.5127 H   0  0  0  0  0  0  0  0  0  0  0  0  # atno 10764 bound_to 10752
  153.0072  135.5498  154.6395 H   0  0  0  0  0  0  0  0  0  0  0  0  # atno 10765 bound_to 10752
  140.9090  134.1593  157.4404 H   0  0  0  0  0  0  0  0  0  0  0  0  # atno 11005 bound_to 11000
  145.6130  141.0336  143.1956 LP  0  0  0  0  0  0  0  0  0  0  0  0  # atno 17320 bound_to 7965
  144.7326  139.7681  143.7341 LP  0  0  0  0  0  0  0  0  0  0  0  0  # atno 17321 bound_to 7965
  139.6890  143.9725  152.2849 LP  0  0  0  0  0  0  0  0  0  0  0  0  # atno 17342 bound_to 10162
  139.9380  144.6699  150.8295 LP  0  0  0  0  0  0  0  0  0  0  0  0  # atno 17343 bound_to 10162
  156.2225  130.3675  149.8539 LP  0  0  0  0  0  0  0  0  0  0  0  0  # atno 17370 bound_to 10713
  156.6388  130.8696  151.3510 LP  0  0  0  0  0  0  0  0  0  0  0  0  # atno 17371 bound_to 10713
  139.8754  134.9928  156.5614 LP  0  0  0  0  0  0  0  0  0  0  0  0  # atno 17394 bound_to 11000
  140.8134  133.8411  155.8830 LP  0  0  0  0  0  0  0  0  0  0  0  0  # atno 17395 bound_to 11000

$$$$
