AV-unprocessed.smi:36|AV-procd|sdf|290|dock2
  -GOLD-   2262016 73D 1   1.00000     0.00000
 Structure written by MMmdl.
 64 67  0  0  0  0  0  0  0  0  1 V2000
  149.0935  133.3031  153.2824 C   0  0  0  0  0  0  0  0  0  0  0  0
  148.1437  133.2049  154.4876 C   0  0  0  0  0  0  0  0  0  0  0  0
  147.7494  131.7376  154.7246 C   0  0  0  0  0  0  0  0  0  0  0  0
  148.8325  133.7647  155.7434 C   0  0  0  0  0  0  0  0  0  0  0  0
  146.5662  134.2251  154.1389 Si  0  0  0  0  0  0  0  0  0  0  0  0
  145.7578  133.6950  152.5026 C   0  0  0  0  0  0  0  0  0  0  0  0
  145.3135  134.0635  155.5584 C   0  0  0  0  0  0  0  0  0  0  0  0
  147.0166  135.8502  154.0125 O   0  0  0  0  0  0  0  0  0  0  0  0
  146.1961  136.8435  153.4350 C   0  0  0  0  0  0  0  0  0  0  0  0
  146.7830  138.2237  153.7623 C   0  0  1  0  0  0  0  0  0  0  0  0
  148.1473  138.1223  154.1706 O   0  0  0  0  0  0  0  0  0  0  0  0
  148.8777  139.2160  153.7015 C   0  0  2  0  0  0  0  0  0  0  0  0
  149.5732  139.8653  154.8544 N   0  0  0  0  0  0  0  0  0  0  0  0
  149.2136  141.0171  155.4512 C   0  0  0  0  0  0  0  0  0  0  0  0
  149.9853  141.4010  156.4643 N   0  0  0  0  0  0  0  0  0  0  0  0
  150.9413  140.3920  156.5173 C   0  0  0  0  0  0  0  0  0  0  0  0
  152.0946  140.2175  157.4264 C   0  0  0  0  0  0  0  0  0  0  0  0
  152.2764  141.1143  158.3480 N   0  0  0  0  0  0  0  0  0  0  0  0
  153.3439  141.0025  159.2294 C   0  0  0  0  0  0  0  0  0  0  0  0
  154.3324  140.2669  159.1578 O   0  0  0  0  0  0  0  0  0  0  0  0
  153.2081  141.8764  160.4338 C   0  0  0  0  0  0  0  0  0  0  0  0
  152.4130  143.0408  160.3762 C   0  0  0  0  0  0  0  0  0  0  0  0
  152.2890  143.8684  161.5093 C   0  0  0  0  0  0  0  0  0  0  0  0
  152.9611  143.5360  162.7017 C   0  0  0  0  0  0  0  0  0  0  0  0
  153.7587  142.3765  162.7610 C   0  0  0  0  0  0  0  0  0  0  0  0
  153.8831  141.5476  161.6288 C   0  0  0  0  0  0  0  0  0  0  0  0
  152.7918  139.0495  157.0913 N   0  0  0  0  0  0  0  0  0  0  0  0
  152.4552  138.1570  156.0622 C   0  0  0  0  0  0  0  0  0  0  0  0
  151.4338  138.2940  155.2597 N   0  0  0  0  0  0  0  0  0  0  0  0
  150.7117  139.4457  155.5413 C   0  0  0  0  0  0  0  0  0  0  0  0
  147.8937  140.1817  153.0383 C   0  0  0  0  0  0  0  0  0  0  0  0
  146.7869  139.2400  152.6120 C   0  0  1  0  0  0  0  0  0  0  0  0
  147.0897  138.6374  151.3674 O   0  0  0  0  0  0  0  0  0  0  0  0
  150.0039  132.7260  153.4478 H   0  0  0  0  0  0  0  0  0  0  0  0
  149.3892  134.3351  153.0925 H   0  0  0  0  0  0  0  0  0  0  0  0
  148.6247  132.9228  152.3746 H   0  0  0  0  0  0  0  0  0  0  0  0
  147.2610  131.3102  153.8486 H   0  0  0  0  0  0  0  0  0  0  0  0
  147.0595  131.6441  155.5640 H   0  0  0  0  0  0  0  0  0  0  0  0
  148.6226  131.1229  154.9457 H   0  0  0  0  0  0  0  0  0  0  0  0
  149.7311  133.1978  155.9892 H   0  0  0  0  0  0  0  0  0  0  0  0
  148.1705  133.7249  156.6091 H   0  0  0  0  0  0  0  0  0  0  0  0
  149.1290  134.8046  155.6042 H   0  0  0  0  0  0  0  0  0  0  0  0
  145.4906  132.6388  152.5113 H   0  0  0  0  0  0  0  0  0  0  0  0
  146.4252  133.8557  151.6563 H   0  0  0  0  0  0  0  0  0  0  0  0
  144.8451  134.2571  152.3062 H   0  0  0  0  0  0  0  0  0  0  0  0
  145.0085  133.0282  155.7084 H   0  0  0  0  0  0  0  0  0  0  0  0
  144.4112  134.6418  155.3610 H   0  0  0  0  0  0  0  0  0  0  0  0
  145.7274  134.4212  156.5009 H   0  0  0  0  0  0  0  0  0  0  0  0
  146.1173  136.6956  152.3576 H   0  0  0  0  0  0  0  0  0  0  0  0
  145.1944  136.7493  153.8555 H   0  0  0  0  0  0  0  0  0  0  0  0
  146.2233  138.6612  154.5903 H   0  0  0  0  0  0  0  0  0  0  0  0
  149.6691  138.8764  153.0319 H   0  0  0  0  0  0  0  0  0  0  0  0
  148.3551  141.5913  155.1351 H   0  0  0  0  0  0  0  0  0  0  0  0
  151.8950  143.3032  159.4645 H   0  0  0  0  0  0  0  0  0  0  0  0
  151.6792  144.7588  161.4637 H   0  0  0  0  0  0  0  0  0  0  0  0
  152.8662  144.1714  163.5699 H   0  0  0  0  0  0  0  0  0  0  0  0
  154.2762  142.1236  163.6747 H   0  0  0  0  0  0  0  0  0  0  0  0
  154.4986  140.6610  161.6813 H   0  0  0  0  0  0  0  0  0  0  0  0
  153.1314  137.3054  155.9745 H   0  0  0  0  0  0  0  0  0  0  0  0
  147.5155  140.8932  153.7737 H   0  0  0  0  0  0  0  0  0  0  0  0
  148.3614  140.7327  152.2216 H   0  0  0  0  0  0  0  0  0  0  0  0
  145.8291  139.7532  152.5223 H   0  0  0  0  0  0  0  0  0  0  0  0
  147.8615  139.0537  151.0150 H   0  0  0  0  0  0  0  0  0  0  0  0
  153.6071  138.8281  157.6447 H   0  0  0  0  0  0  0  0  0  0  0  0
  1  2  1  0  0  0  0
  1 34  1  0  0  0  0
  1 35  1  0  0  0  0
  1 36  1  0  0  0  0
  2  3  1  0  0  0  0
  2  4  1  0  0  0  0
  2  5  1  0  0  0  0
  3 37  1  0  0  0  0
  3 38  1  0  0  0  0
  3 39  1  0  0  0  0
  4 40  1  0  0  0  0
  4 41  1  0  0  0  0
  4 42  1  0  0  0  0
  5  6  1  0  0  0  0
  5  7  1  0  0  0  0
  5  8  1  0  0  0  0
  6 43  1  0  0  0  0
  6 44  1  0  0  0  0
  6 45  1  0  0  0  0
  7 46  1  0  0  0  0
  7 47  1  0  0  0  0
  7 48  1  0  0  0  0
  8  9  1  0  0  0  0
  9 10  1  0  0  0  0
  9 49  1  0  0  0  0
  9 50  1  0  0  0  0
 10 32  1  0  0  0  0
 10 11  1  0  0  0  0
 10 51  1  0  0  0  0
 11 12  1  0  0  0  0
 12 13  1  0  0  0  0
 12 31  1  0  0  0  0
 12 52  1  0  0  0  0
 13 30  1  0  0  0  0
 13 14  1  0  0  0  0
 14 15  2  0  0  0  0
 14 53  1  0  0  0  0
 15 16  1  0  0  0  0
 16 30  2  0  0  0  0
 16 17  1  0  0  0  0
 17 18  2  0  0  0  0
 17 27  1  0  0  0  0
 18 19  1  0  0  0  0
 19 20  2  0  0  0  0
 19 21  1  0  0  0  0
 21 26  1  0  0  0  0
 21 22  2  0  0  0  0
 22 23  1  0  0  0  0
 22 54  1  0  0  0  0
 23 24  2  0  0  0  0
 23 55  1  0  0  0  0
 24 25  1  0  0  0  0
 24 56  1  0  0  0  0
 25 26  2  0  0  0  0
 25 57  1  0  0  0  0
 26 58  1  0  0  0  0
 27 28  1  0  0  0  0
 27 64  1  0  0  0  0
 28 29  2  0  0  0  0
 28 59  1  0  0  0  0
 29 30  1  0  0  0  0
 31 32  1  0  0  0  0
 31 60  1  0  0  0  0
 31 61  1  0  0  0  0
 32 33  1  0  0  0  0
 32 62  1  0  0  0  0
 33 63  1  0  0  0  0
M  END
> <s_m_source_file>
AV-unprocessed.smi

> <i_m_source_file_index>
36

> <i_lp_mmshare_version>
43012

> <i_f3d_flags>
0

> <s_epik_input>
W0NIM11DKFtDSDNdKShbQ0gzXSlbU2ldKFtDSDNdKShbQ0gzXSlPW0NIMl1bQ0BASF0xT1tDQEhdKFtDSDJdW0NASF0xW09IXSluKFtjSF1uMiljKGMyMyluW2NIXW5jM1tOSF1DKD1PKWM0W2NIXVtjSF1bY0hdW2NIXVtjSF00

> <s_epik_cmdline>
J2VwaWtfcHl0aG9uJywgJy1waCcsICc3LjAnLCAnLXRuJywgJzgnLCAnLW1hJywgJzIwMCcsICctbWV0YWxfYmluZGluZycsICctaW1hZScsICc8aW5maWxlLm1hZT4nLCAnLW9tYWUnLCAnPG91dGZpbGUubWFlPic=

> <r_epik_Ionization_Penalty>
0.0850405

> <r_epik_Ionization_Penalty_Charging>
0.0850403

> <r_epik_Ionization_Penalty_Neutral>
1.47497e-07

> <r_epik_State_Penalty>
2.6133

> <r_epik_Charging_Adjusted_Penalty>
2.69834

> <i_epik_Tot_Q>
0

> <i_epik_Tot_abs_Q>
0

> <r_epik_Metal_State_Penalty>
2.92945

> <b_epik_Metal_Only>
0

> <s_epik_Chemistry_Notes>
This compound contains an acetal/aminal-like group ( X-CH(R)-Y where X, Y are N, S, or O) that may be acid/base labile, releasing an aldehyde.

> <s_lp_Force_Field>
OPLS_2005

> <r_lp_Energy>
50.4083

> <b_lp_Chiralities_Consistent>
1

> <s_lp_Variant>
AV-unprocessed.smi:36-12

> <Gold.Version>
5.8.1

> <Gold.Id.Protein>
6NUR|6NUR_protein|mol2

> <Gold.PLP.Fitness>
55.2957

> <Gold.PLP.PLP>
-52.2226

> <Gold.PLP.part.hbond>
-3.9736

> <Gold.PLP.part.metal>
0.0000

> <Gold.PLP.part.buried>
1.0880

> <Gold.PLP.part.nonpolar>
-50.5035

> <Gold.PLP.part.repulsive>
3.3799

> <Gold.PLP.ligand.clash>
0.0000

> <Gold.PLP.ligand.torsion>
1.5355

> <Gold.PLP.Chemscore.Hbond>
1.9280

> <Gold.PLP.Chemscore.CHOScore>
0.0000

> <Gold.PLP.Chemscore.Metal>
0.0000

> <Gold.Chemscore.Hbonds>
donor molecule, donor type, donor heavy atom, donor atom, acceptor molecule, acceptor atom, score
      L1  H    33    63       P1  7957  1.00
      P1  H  7997  8009       L1    20  0.90

> <Gold.PLP.Chemscore.Internal.Correction>
0.3601

> <Gold.Rescore>
     Score         DG    S(hbond)    S(metal)    S(lipo)     H(rot)  DE(clash)    DE(int)     intcor
     13.03     -15.04       0.94        0.00     113.96       2.70       0.50       1.52       ----

> <Gold.Chemscore.Fitness>
13.0284

> <Gold.Chemscore.DG>
-15.0432

> <Gold.Chemscore.ZeroCoef>
-5.4800

> <Gold.Chemscore.Hbond>
0.9437

> <Gold.Chemscore.Metal>
0.0000

> <Gold.Chemscore.Lipo>
113.9628

> <Gold.Chemscore.Internal_Hbond>
0.0000

> <Gold.Chemscore.DEClash>
0.4956

> <Gold.Chemscore.DEInternal>
1.5192

> <Gold.Chemscore.Rot>
2.7041

> <Gold.Chemscore.Internal.Correction>
   9.000000E+99

> <Gold.Chemscore.Hbonds>
donor molecule, donor type, donor heavy atom, donor atom, acceptor molecule, acceptor atom, score
      L1  H    33    63       P1  7957  0.34
      P1  H  7997  8009       L1    20  0.76

> <Gold.Chemscore.Hbond.Weighted>
-3.1520

> <Gold.Chemscore.Metal.Weighted>
-0.0000

> <Gold.Chemscore.Lipo.Weighted>
-13.3337

> <Gold.Chemscore.Internal_Hbond.Weighted>
0.0000

> <Gold.Chemscore.DEClash.Weighted>
0.4956

> <Gold.Chemscore.DEInternal.Weighted>
1.5192

> <Gold.Chemscore.Rot.Weighted>
6.9225

> <Gold.Chemscore.Internal.Correction.Weighted>
   9.000000E+99

> <Gold.Protein.RotatedTorsions>
[ 6907 6896 6895 6894 ] final  -48.24 input  -60.11 | X-H torsion
[ 7974 7965 7964 7962 ] final  -10.00 input  175.53 | X-H torsion
[ 8008 7997 7996 7995 ] final  124.97 input   59.86 | X-H torsion
[ 10167 10162 10161 10158 ] final  -79.01 input  -65.29 | X-H torsion
[ 10718 10713 10712 10709 ] final   20.89 input   66.30 | X-H torsion
[ 10763 10752 10751 10750 ] final  171.42 input  -60.55 | X-H torsion
[ 11005 11000 10999 10996 ] final    8.72 input  -57.11 | X-H torsion

> <Gold.Protein.ActiveResidues>
 VAL166  LYS551  ARG553  GLY616  TRP617  ASP618  TYR619  PRO620  LYS621  CYS622 
 ASP623  PHE694  ASN695  SER759  ASP760  ASP761  ALA762  ILE779  LEU786  VAL792 
 PHE793  MET794  SER795  GLU796  ALA797  LYS798  CYS799  TRP800  GLU811  SER814 

> <Gold.Protein.RotatedAtoms>
  150.8925  134.8331  159.7303 H   0  0  0  0  0  0  0  0  0  0  0  0  # atno 6907 bound_to 6896
  152.4846  134.4625  159.9620 H   0  0  0  0  0  0  0  0  0  0  0  0  # atno 6908 bound_to 6896
  151.4686  133.3535  159.2855 H   0  0  0  0  0  0  0  0  0  0  0  0  # atno 6909 bound_to 6896
  146.2234  140.2700  142.8356 H   0  0  0  0  0  0  0  0  0  0  0  0  # atno 7974 bound_to 7965
  156.2819  140.2727  156.1874 H   0  0  0  0  0  0  0  0  0  0  0  0  # atno 8008 bound_to 7997
  155.0494  140.0386  157.2556 H   0  0  0  0  0  0  0  0  0  0  0  0  # atno 8009 bound_to 7997
  154.7208  140.2687  155.6549 H   0  0  0  0  0  0  0  0  0  0  0  0  # atno 8010 bound_to 7997
  140.4631  143.2448  151.8318 H   0  0  0  0  0  0  0  0  0  0  0  0  # atno 10167 bound_to 10162
  157.1307  130.6590  149.5951 H   0  0  0  0  0  0  0  0  0  0  0  0  # atno 10718 bound_to 10713
  154.4116  135.2756  155.2033 H   0  0  0  0  0  0  0  0  0  0  0  0  # atno 10763 bound_to 10752
  154.4016  135.6043  153.5904 H   0  0  0  0  0  0  0  0  0  0  0  0  # atno 10764 bound_to 10752
  152.9831  135.5928  154.4399 H   0  0  0  0  0  0  0  0  0  0  0  0  # atno 10765 bound_to 10752
  140.5338  134.0441  155.7882 H   0  0  0  0  0  0  0  0  0  0  0  0  # atno 11005 bound_to 11000
  144.9275  140.7938  143.5710 LP  0  0  0  0  0  0  0  0  0  0  0  0  # atno 17320 bound_to 7965
  145.2641  139.1980  143.4876 LP  0  0  0  0  0  0  0  0  0  0  0  0  # atno 17321 bound_to 7965
  139.4808  144.4983  151.9094 LP  0  0  0  0  0  0  0  0  0  0  0  0  # atno 17342 bound_to 10162
  140.4069  144.2420  150.5890 LP  0  0  0  0  0  0  0  0  0  0  0  0  # atno 17343 bound_to 10162
  155.9808  130.4812  150.6795 LP  0  0  0  0  0  0  0  0  0  0  0  0  # atno 17370 bound_to 10713
  157.4394  131.0859  151.0958 LP  0  0  0  0  0  0  0  0  0  0  0  0  # atno 17371 bound_to 10713
  141.1266  133.9372  157.2622 LP  0  0  0  0  0  0  0  0  0  0  0  0  # atno 17394 bound_to 11000
  139.9540  135.0169  156.9075 LP  0  0  0  0  0  0  0  0  0  0  0  0  # atno 17395 bound_to 11000

$$$$
