AV-unprocessed.smi:671|AV-procd|sdf|3273|dock9
  -GOLD-   22720 0233D 1   1.00000     0.00000
 Structure written by MMmdl.
 49 50  0  0  0  0  0  0  0  0  1 V2000
  147.2778  141.6458  156.6765 C   0  0  0  0  0  0  0  0  0  0  0  0
  146.2755  142.5205  155.9779 C   0  0  0  0  0  0  0  0  0  0  0  0
  146.4926  142.8777  154.7234 N   0  0  0  0  0  0  0  0  0  0  0  0
  145.4389  143.6533  154.3988 N   0  0  0  0  0  0  0  0  0  0  0  0
  145.3605  144.2237  153.0679 C   0  0  0  0  0  0  0  0  0  0  0  0
  144.5515  143.7836  155.4497 C   0  0  0  0  0  0  0  0  0  0  0  0
  143.3005  144.5943  155.3397 C   0  0  0  0  0  0  0  0  0  0  0  0
  145.0616  143.0614  156.4955 C   0  0  0  0  0  0  0  0  0  0  0  0
  144.4985  142.8700  157.8802 C   0  0  0  0  0  0  0  0  0  0  0  0
  145.0320  143.9182  158.8825 C   0  0  2  0  0  0  0  0  0  0  0  0
  144.2487  145.2391  158.8259 C   0  0  0  0  0  0  0  0  0  0  0  0
  146.4476  144.1986  158.6292 N   0  0  0  0  0  0  0  0  0  0  0  0
  147.5234  143.6457  159.2198 C   0  0  0  0  0  0  0  0  0  0  0  0
  147.4148  142.7994  160.1049 O   0  0  0  0  0  0  0  0  0  0  0  0
  148.7040  144.1077  158.7754 N   0  0  0  0  0  0  0  0  0  0  0  0
  150.0178  143.6851  159.2500 C   0  0  2  0  0  0  0  0  0  0  0  0
  150.7037  144.8390  160.0047 C   0  0  0  0  0  0  0  0  0  0  0  0
  151.8350  145.3224  159.0983 C   0  0  0  0  0  0  0  0  0  0  0  0
  152.2629  144.0668  158.3466 C   0  0  0  0  0  0  0  0  0  0  0  0
  150.9498  143.3267  158.0693 C   0  0  1  0  0  0  0  0  0  0  0  0
  151.1348  141.8169  157.8617 C   0  0  0  0  0  0  0  0  0  0  0  0
  146.7852  140.8990  157.2984 H   0  0  0  0  0  0  0  0  0  0  0  0
  147.9262  142.2379  157.3218 H   0  0  0  0  0  0  0  0  0  0  0  0
  147.9117  141.1127  155.9674 H   0  0  0  0  0  0  0  0  0  0  0  0
  144.5745  143.7235  152.5018 H   0  0  0  0  0  0  0  0  0  0  0  0
  146.3085  144.1037  152.5417 H   0  0  0  0  0  0  0  0  0  0  0  0
  145.1307  145.2873  153.1354 H   0  0  0  0  0  0  0  0  0  0  0  0
  142.6271  144.3991  156.1736 H   0  0  0  0  0  0  0  0  0  0  0  0
  142.7629  144.3608  154.4205 H   0  0  0  0  0  0  0  0  0  0  0  0
  143.5310  145.6597  155.3368 H   0  0  0  0  0  0  0  0  0  0  0  0
  143.4107  142.9254  157.8348 H   0  0  0  0  0  0  0  0  0  0  0  0
  144.7118  141.8688  158.2554 H   0  0  0  0  0  0  0  0  0  0  0  0
  144.9326  143.5289  159.8969 H   0  0  0  0  0  0  0  0  0  0  0  0
  143.1991  145.0911  159.0798 H   0  0  0  0  0  0  0  0  0  0  0  0
  144.2909  145.6842  157.8312 H   0  0  0  0  0  0  0  0  0  0  0  0
  144.6527  145.9648  159.5324 H   0  0  0  0  0  0  0  0  0  0  0  0
  146.6335  144.9330  157.9615 H   0  0  0  0  0  0  0  0  0  0  0  0
  148.6904  144.8076  158.0483 H   0  0  0  0  0  0  0  0  0  0  0  0
  149.9139  142.8415  159.9354 H   0  0  0  0  0  0  0  0  0  0  0  0
  150.0228  145.6462  160.2782 H   0  0  0  0  0  0  0  0  0  0  0  0
  151.1297  144.4556  160.9328 H   0  0  0  0  0  0  0  0  0  0  0  0
  151.4547  146.0623  158.3930 H   0  0  0  0  0  0  0  0  0  0  0  0
  152.6534  145.7797  159.6551 H   0  0  0  0  0  0  0  0  0  0  0  0
  152.8168  144.2936  157.4351 H   0  0  0  0  0  0  0  0  0  0  0  0
  152.9088  143.4640  158.9868 H   0  0  0  0  0  0  0  0  0  0  0  0
  150.5356  143.7470  157.1507 H   0  0  0  0  0  0  0  0  0  0  0  0
  151.5559  141.3423  158.7486 H   0  0  0  0  0  0  0  0  0  0  0  0
  151.8049  141.6169  157.0253 H   0  0  0  0  0  0  0  0  0  0  0  0
  150.1820  141.3332  157.6455 H   0  0  0  0  0  0  0  0  0  0  0  0
  1  2  1  0  0  0  0
  1 22  1  0  0  0  0
  1 23  1  0  0  0  0
  1 24  1  0  0  0  0
  2  8  1  0  0  0  0
  2  3  2  0  0  0  0
  3  4  1  0  0  0  0
  4  5  1  0  0  0  0
  4  6  1  0  0  0  0
  5 25  1  0  0  0  0
  5 26  1  0  0  0  0
  5 27  1  0  0  0  0
  6  7  1  0  0  0  0
  6  8  2  0  0  0  0
  7 28  1  0  0  0  0
  7 29  1  0  0  0  0
  7 30  1  0  0  0  0
  8  9  1  0  0  0  0
  9 10  1  0  0  0  0
  9 31  1  0  0  0  0
  9 32  1  0  0  0  0
 10 11  1  0  0  0  0
 10 12  1  0  0  0  0
 10 33  1  0  0  0  0
 11 34  1  0  0  0  0
 11 35  1  0  0  0  0
 11 36  1  0  0  0  0
 12 13  1  0  0  0  0
 12 37  1  0  0  0  0
 13 14  2  0  0  0  0
 13 15  1  0  0  0  0
 15 16  1  0  0  0  0
 15 38  1  0  0  0  0
 16 20  1  0  0  0  0
 16 17  1  0  0  0  0
 16 39  1  0  0  0  0
 17 18  1  0  0  0  0
 17 40  1  0  0  0  0
 17 41  1  0  0  0  0
 18 19  1  0  0  0  0
 18 42  1  0  0  0  0
 18 43  1  0  0  0  0
 19 20  1  0  0  0  0
 19 44  1  0  0  0  0
 19 45  1  0  0  0  0
 20 21  1  0  0  0  0
 20 46  1  0  0  0  0
 21 47  1  0  0  0  0
 21 48  1  0  0  0  0
 21 49  1  0  0  0  0
M  END
> <s_m_source_file>
AV-unprocessed.smi

> <i_m_source_file_index>
671

> <i_lp_mmshare_version>
43012

> <i_f3d_flags>
0

> <s_epik_input>
W0NIM11jMW5uKFtDSDNdKWMoW0NIM10pYzFbQ0gyXVtDQEhdKFtDSDNdKVtOSF1DKD1PKVtOSF1bQ0BASF0yW0NIMl1bQ0gyXVtDSDJdW0NASF0yW0NIM10=

> <s_epik_cmdline>
J2VwaWtfcHl0aG9uJywgJy1waCcsICc3LjAnLCAnLXRuJywgJzgnLCAnLW1hJywgJzIwMCcsICctbWV0YWxfYmluZGluZycsICctaW1hZScsICc8aW5maWxlLm1hZT4nLCAnLW9tYWUnLCAnPG91dGZpbGUubWFlPic=

> <r_lp_tautomer_probability>
1

> <r_epik_Ionization_Penalty>
0.0126855

> <r_epik_Ionization_Penalty_Charging>
0

> <r_epik_Ionization_Penalty_Neutral>
0.0126855

> <r_epik_State_Penalty>
0.00977547

> <r_epik_Charging_Adjusted_Penalty>
0.00977547

> <i_epik_Tot_Q>
0

> <i_epik_Tot_abs_Q>
0

> <r_epik_Metal_State_Penalty>
0.00957132

> <b_epik_Metal_Only>
0

> <s_lp_Force_Field>
OPLS_2005

> <r_lp_Energy>
21.9144

> <b_lp_Chiralities_Consistent>
1

> <s_lp_Variant>
AV-unprocessed.smi:671-1

> <Gold.Version>
5.8.1

> <Gold.Id.Protein>
6NUR|6NUR_protein|mol2

> <Gold.PLP.Fitness>
43.1942

> <Gold.PLP.PLP>
-35.2012

> <Gold.PLP.part.hbond>
-4.5842

> <Gold.PLP.part.metal>
0.0000

> <Gold.PLP.part.buried>
-3.4745

> <Gold.PLP.part.nonpolar>
-29.4979

> <Gold.PLP.part.repulsive>
0.3610

> <Gold.PLP.ligand.clash>
0.0000

> <Gold.PLP.ligand.torsion>
1.0058

> <Gold.PLP.Chemscore.Hbond>
3.3276

> <Gold.PLP.Chemscore.CHOScore>
0.0000

> <Gold.PLP.Chemscore.Metal>
0.0000

> <Gold.Chemscore.Hbonds>
donor molecule, donor type, donor heavy atom, donor atom, acceptor molecule, acceptor atom, score
      L1  H    12    37       P1  8029  0.93
      L1  H    15    38       P1  8029  0.99
      P1  H  6933  6944       L1    14  0.83
      P1  H  6934  6946       L1    14  0.58

> <Gold.PLP.Chemscore.Internal.Correction>
0.0216

> <Gold.Rescore>
     Score         DG    S(hbond)    S(metal)    S(lipo)     H(rot)  DE(clash)    DE(int)     intcor
     21.52     -22.65       3.16        0.00      88.24       1.45       0.11       1.02       ----

> <Gold.Chemscore.Fitness>
21.5234

> <Gold.Chemscore.DG>
-22.6523

> <Gold.Chemscore.ZeroCoef>
-5.4800

> <Gold.Chemscore.Hbond>
3.1618

> <Gold.Chemscore.Metal>
0.0000

> <Gold.Chemscore.Lipo>
88.2356

> <Gold.Chemscore.Internal_Hbond>
0.0000

> <Gold.Chemscore.DEClash>
0.1089

> <Gold.Chemscore.DEInternal>
1.0200

> <Gold.Chemscore.Rot>
1.4499

> <Gold.Chemscore.Internal.Correction>
   9.000000E+99

> <Gold.Chemscore.Hbonds>
donor molecule, donor type, donor heavy atom, donor atom, acceptor molecule, acceptor atom, score
      L1  H    12    37       P1  8029  0.67
      L1  H    15    38       P1  8029  0.36
      P1  H  6933  6944       L1    14  0.81
      P1  H  6934  6946       L1    14  0.56

> <Gold.Chemscore.Hbond.Weighted>
-10.5606

> <Gold.Chemscore.Metal.Weighted>
-0.0000

> <Gold.Chemscore.Lipo.Weighted>
-10.3236

> <Gold.Chemscore.Internal_Hbond.Weighted>
0.0000

> <Gold.Chemscore.DEClash.Weighted>
0.1089

> <Gold.Chemscore.DEInternal.Weighted>
1.0200

> <Gold.Chemscore.Rot.Weighted>
3.7118

> <Gold.Chemscore.Internal.Correction.Weighted>
   9.000000E+99

> <Gold.Protein.RotatedTorsions>
[ 6907 6896 6895 6894 ] final  128.13 input  -60.11 | X-H torsion
[ 7974 7965 7964 7962 ] final   62.10 input  175.53 | X-H torsion
[ 8008 7997 7996 7995 ] final  154.07 input   59.86 | X-H torsion
[ 10167 10162 10161 10158 ] final  151.90 input  -65.29 | X-H torsion
[ 10718 10713 10712 10709 ] final -119.90 input   66.30 | X-H torsion
[ 10763 10752 10751 10750 ] final  130.58 input  -60.55 | X-H torsion
[ 11005 11000 10999 10996 ] final   91.48 input  -57.11 | X-H torsion

> <Gold.Protein.ActiveResidues>
 VAL166  LYS551  ARG553  GLY616  TRP617  ASP618  TYR619  PRO620  LYS621  CYS622 
 ASP623  PHE694  ASN695  SER759  ASP760  ASP761  ALA762  ILE779  LEU786  VAL792 
 PHE793  MET794  SER795  GLU796  ALA797  LYS798  CYS799  TRP800  GLU811  SER814 

> <Gold.Protein.RotatedAtoms>
  152.3748  133.6466  159.6114 H   0  0  0  0  0  0  0  0  0  0  0  0  # atno 6907 bound_to 6896
  150.7695  133.9211  159.3407 H   0  0  0  0  0  0  0  0  0  0  0  0  # atno 6908 bound_to 6896
  151.7028  135.0928  160.0305 H   0  0  0  0  0  0  0  0  0  0  0  0  # atno 6909 bound_to 6896
  145.8772  139.3418  143.0727 H   0  0  0  0  0  0  0  0  0  0  0  0  # atno 7974 bound_to 7965
  156.2550  140.1976  156.6588 H   0  0  0  0  0  0  0  0  0  0  0  0  # atno 8008 bound_to 7997
  154.6480  140.0575  156.9948 H   0  0  0  0  0  0  0  0  0  0  0  0  # atno 8009 bound_to 7997
  155.1461  140.3247  155.4444 H   0  0  0  0  0  0  0  0  0  0  0  0  # atno 8010 bound_to 7997
  139.4837  144.5402  151.7577 H   0  0  0  0  0  0  0  0  0  0  0  0  # atno 10167 bound_to 10162
  156.1216  130.6328  150.9474 H   0  0  0  0  0  0  0  0  0  0  0  0  # atno 10718 bound_to 10713
  153.7603  135.3197  155.3336 H   0  0  0  0  0  0  0  0  0  0  0  0  # atno 10763 bound_to 10752
  154.8232  135.4588  154.0844 H   0  0  0  0  0  0  0  0  0  0  0  0  # atno 10764 bound_to 10752
  153.2073  135.6931  153.8240 H   0  0  0  0  0  0  0  0  0  0  0  0  # atno 10765 bound_to 10752
  139.8838  134.8676  156.3434 H   0  0  0  0  0  0  0  0  0  0  0  0  # atno 11005 bound_to 11000
  145.9066  140.9208  143.0475 LP  0  0  0  0  0  0  0  0  0  0  0  0  # atno 17320 bound_to 7965
  144.6726  140.1104  143.7455 LP  0  0  0  0  0  0  0  0  0  0  0  0  # atno 17321 bound_to 7965
  140.4941  144.1267  150.5956 LP  0  0  0  0  0  0  0  0  0  0  0  0  # atno 17342 bound_to 10162
  140.4138  143.2644  151.9800 LP  0  0  0  0  0  0  0  0  0  0  0  0  # atno 17343 bound_to 10162
  157.6400  131.0911  150.8271 LP  0  0  0  0  0  0  0  0  0  0  0  0  # atno 17370 bound_to 10713
  156.8367  130.5034  149.5325 LP  0  0  0  0  0  0  0  0  0  0  0  0  # atno 17371 bound_to 10713
  140.9643  133.7368  156.0445 LP  0  0  0  0  0  0  0  0  0  0  0  0  # atno 17394 bound_to 11000
  140.7950  134.3574  157.5454 LP  0  0  0  0  0  0  0  0  0  0  0  0  # atno 17395 bound_to 11000

$$$$
