AV-unprocessed.smi:1774|AV-procd|sdf|7166|dock4
  -GOLD-   22720 8403D 1   1.00000     0.00000
 Structure written by MMmdl.
 45 46  0  0  0  0  0  0  0  0  1 V2000
  147.8260  133.2350  152.4166 C   0  0  0  0  0  0  0  0  0  0  0  0
  146.4225  133.2112  151.8326 C   0  0  0  0  0  0  0  0  0  0  0  0
  145.7742  131.9722  151.6423 C   0  0  0  0  0  0  0  0  0  0  0  0
  144.4764  131.9526  151.1034 C   0  0  0  0  0  0  0  0  0  0  0  0
  143.8777  133.1814  150.7761 C   0  0  0  0  0  0  0  0  0  0  0  0
  144.4899  134.3697  150.9546 N   0  0  0  0  0  0  0  0  0  0  0  0
  145.7429  134.4061  151.4736 C   0  0  0  0  0  0  0  0  0  0  0  0
  146.4520  135.6221  151.6849 N   0  0  0  0  0  0  0  0  0  0  0  0
  145.9653  136.8262  152.0329 C   0  0  0  0  0  0  0  0  0  0  0  0
  144.7810  137.0827  152.2521 O   0  0  0  0  0  0  0  0  0  0  0  0
  146.9469  137.7339  152.1262 N   0  0  0  0  0  0  0  0  0  0  0  0
  146.7694  139.1224  152.5378 C   0  0  0  0  0  0  0  0  0  0  0  0
  146.7345  139.2648  154.0724 C   0  0  0  0  0  0  0  0  0  0  0  0
  148.0137  139.6000  154.6994 N   0  0  0  0  0  0  0  0  0  0  0  0
  148.3980  140.9749  154.4020 C   0  0  0  0  0  0  0  0  0  0  0  0
  149.7380  141.3723  155.0523 C   0  0  1  0  0  0  0  0  0  0  0  0
  149.6378  141.5840  156.5724 C   0  0  0  0  0  0  0  0  0  0  0  0
  150.7508  140.4229  154.7145 O   0  0  0  0  0  0  0  0  0  0  0  0
  150.4217  139.0610  154.9835 C   0  0  2  0  0  0  0  0  0  0  0  0
  151.5789  138.1856  154.4913 C   0  0  0  0  0  0  0  0  0  0  0  0
  149.0926  138.7058  154.2925 C   0  0  0  0  0  0  0  0  0  0  0  0
  148.1840  132.2277  152.6306 H   0  0  0  0  0  0  0  0  0  0  0  0
  147.8422  133.8013  153.3483 H   0  0  0  0  0  0  0  0  0  0  0  0
  148.5233  133.6973  151.7172 H   0  0  0  0  0  0  0  0  0  0  0  0
  146.2630  131.0456  151.9050 H   0  0  0  0  0  0  0  0  0  0  0  0
  143.9539  131.0208  150.9453 H   0  0  0  0  0  0  0  0  0  0  0  0
  142.8817  133.2121  150.3595 H   0  0  0  0  0  0  0  0  0  0  0  0
  147.4513  135.5655  151.5575 H   0  0  0  0  0  0  0  0  0  0  0  0
  147.8916  137.4364  151.9318 H   0  0  0  0  0  0  0  0  0  0  0  0
  147.5774  139.7157  152.1112 H   0  0  0  0  0  0  0  0  0  0  0  0
  145.8491  139.5212  152.1081 H   0  0  0  0  0  0  0  0  0  0  0  0
  145.9845  140.0076  154.3478 H   0  0  0  0  0  0  0  0  0  0  0  0
  146.3775  138.3197  154.4844 H   0  0  0  0  0  0  0  0  0  0  0  0
  148.4807  141.1006  153.3214 H   0  0  0  0  0  0  0  0  0  0  0  0
  147.6166  141.6611  154.7307 H   0  0  0  0  0  0  0  0  0  0  0  0
  150.0524  142.3219  154.6185 H   0  0  0  0  0  0  0  0  0  0  0  0
  148.9445  142.3925  156.8053 H   0  0  0  0  0  0  0  0  0  0  0  0
  150.6082  141.8490  156.9925 H   0  0  0  0  0  0  0  0  0  0  0  0
  149.2817  140.6927  157.0887 H   0  0  0  0  0  0  0  0  0  0  0  0
  150.3200  138.9201  156.0600 H   0  0  0  0  0  0  0  0  0  0  0  0
  151.3832  137.1310  154.6865 H   0  0  0  0  0  0  0  0  0  0  0  0
  152.5087  138.4497  154.9957 H   0  0  0  0  0  0  0  0  0  0  0  0
  151.7360  138.3049  153.4189 H   0  0  0  0  0  0  0  0  0  0  0  0
  148.8400  137.6746  154.5372 H   0  0  0  0  0  0  0  0  0  0  0  0
  149.2187  138.7487  153.2096 H   0  0  0  0  0  0  0  0  0  0  0  0
  1  2  1  0  0  0  0
  1 22  1  0  0  0  0
  1 23  1  0  0  0  0
  1 24  1  0  0  0  0
  2  7  1  0  0  0  0
  2  3  2  0  0  0  0
  3  4  1  0  0  0  0
  3 25  1  0  0  0  0
  4  5  2  0  0  0  0
  4 26  1  0  0  0  0
  5  6  1  0  0  0  0
  5 27  1  0  0  0  0
  6  7  2  0  0  0  0
  7  8  1  0  0  0  0
  8  9  1  0  0  0  0
  8 28  1  0  0  0  0
  9 10  2  0  0  0  0
  9 11  1  0  0  0  0
 11 12  1  0  0  0  0
 11 29  1  0  0  0  0
 12 13  1  0  0  0  0
 12 30  1  0  0  0  0
 12 31  1  0  0  0  0
 13 14  1  0  0  0  0
 13 32  1  0  0  0  0
 13 33  1  0  0  0  0
 14 21  1  0  0  0  0
 14 15  1  0  0  0  0
 15 16  1  0  0  0  0
 15 34  1  0  0  0  0
 15 35  1  0  0  0  0
 16 17  1  0  0  0  0
 16 18  1  0  0  0  0
 16 36  1  0  0  0  0
 17 37  1  0  0  0  0
 17 38  1  0  0  0  0
 17 39  1  0  0  0  0
 18 19  1  0  0  0  0
 19 20  1  0  0  0  0
 19 21  1  0  0  0  0
 19 40  1  0  0  0  0
 20 41  1  0  0  0  0
 20 42  1  0  0  0  0
 20 43  1  0  0  0  0
 21 44  1  0  0  0  0
 21 45  1  0  0  0  0
M  END
> <s_m_source_file>
AV-unprocessed.smi

> <i_m_source_file_index>
1774

> <i_lp_mmshare_version>
43012

> <i_f3d_flags>
0

> <s_epik_input>
W0NIM11jMVtjSF1bY0hdW2NIXW5jMVtOSF1DKD1PKVtOSF1bQ0gyXVtDSDJdTjJbQ0gyXVtDQEBIXShbQ0gzXSlPW0NAQEhdKFtDSDNdKVtDSDJdMg==

> <s_epik_cmdline>
J2VwaWtfcHl0aG9uJywgJy1waCcsICc3LjAnLCAnLXRuJywgJzgnLCAnLW1hJywgJzIwMCcsICctbWV0YWxfYmluZGluZycsICctaW1hZScsICc8aW5maWxlLm1hZT4nLCAnLW9tYWUnLCAnPG91dGZpbGUubWFlPic=

> <r_epik_Ionization_Penalty>
0.266047

> <r_epik_Ionization_Penalty_Charging>
0

> <r_epik_Ionization_Penalty_Neutral>
0.266047

> <r_epik_State_Penalty>
0.257924

> <r_epik_Charging_Adjusted_Penalty>
0.257924

> <i_epik_Tot_Q>
0

> <i_epik_Tot_abs_Q>
0

> <r_epik_Metal_State_Penalty>
0.257922

> <b_epik_Metal_Only>
0

> <s_lp_Force_Field>
OPLS_2005

> <r_lp_Energy>
30.3596

> <b_lp_Chiralities_Consistent>
1

> <s_lp_Variant>
AV-unprocessed.smi:1774-3

> <Gold.Version>
5.8.1

> <Gold.Id.Protein>
6NUR|6NUR_protein|mol2

> <Gold.PLP.Fitness>
48.7197

> <Gold.PLP.PLP>
-38.1058

> <Gold.PLP.part.hbond>
-2.8877

> <Gold.PLP.part.metal>
0.0000

> <Gold.PLP.part.buried>
-4.7161

> <Gold.PLP.part.nonpolar>
-31.4404

> <Gold.PLP.part.repulsive>
1.2330

> <Gold.PLP.ligand.clash>
0.0000

> <Gold.PLP.ligand.torsion>
0.6746

> <Gold.PLP.Chemscore.Hbond>
2.9840

> <Gold.PLP.Chemscore.CHOScore>
1.0000

> <Gold.PLP.Chemscore.Metal>
0.0000

> <Gold.Chemscore.Hbonds>
donor molecule, donor type, donor heavy atom, donor atom, acceptor molecule, acceptor atom, score
      L1  H     8    28       P1  7948  0.99
      L1  H    11    29       P1  7948  0.98
      P1  H  7989  7998       L1    18  1.00
      L1  C     5    27       P1 10186  1.00

> <Gold.PLP.Chemscore.Internal.Correction>
0.0110

> <Gold.Rescore>
     Score         DG    S(hbond)    S(metal)    S(lipo)     H(rot)  DE(clash)    DE(int)     intcor
     20.25     -21.24       2.74        0.00      88.33       1.46       0.13       0.86       ----

> <Gold.Chemscore.Fitness>
20.2474

> <Gold.Chemscore.DG>
-21.2431

> <Gold.Chemscore.ZeroCoef>
-5.4800

> <Gold.Chemscore.Hbond>
2.7414

> <Gold.Chemscore.Metal>
0.0000

> <Gold.Chemscore.Lipo>
88.3320

> <Gold.Chemscore.Internal_Hbond>
0.0000

> <Gold.Chemscore.DEClash>
0.1337

> <Gold.Chemscore.DEInternal>
0.8620

> <Gold.Chemscore.Rot>
1.4562

> <Gold.Chemscore.Internal.Correction>
   9.000000E+99

> <Gold.Chemscore.Hbonds>
donor molecule, donor type, donor heavy atom, donor atom, acceptor molecule, acceptor atom, score
      L1  H     8    28       P1  7948  0.91
      L1  H    11    29       P1  7948  0.91
      P1  H  7989  7998       L1    18  0.81

> <Gold.Chemscore.Hbond.Weighted>
-9.1561

> <Gold.Chemscore.Metal.Weighted>
-0.0000

> <Gold.Chemscore.Lipo.Weighted>
-10.3348

> <Gold.Chemscore.Internal_Hbond.Weighted>
0.0000

> <Gold.Chemscore.DEClash.Weighted>
0.1337

> <Gold.Chemscore.DEInternal.Weighted>
0.8620

> <Gold.Chemscore.Rot.Weighted>
3.7278

> <Gold.Chemscore.Internal.Correction.Weighted>
   9.000000E+99

> <Gold.Protein.RotatedTorsions>
[ 6907 6896 6895 6894 ] final   61.49 input  -60.11 | X-H torsion
[ 7974 7965 7964 7962 ] final   -4.13 input  175.53 | X-H torsion
[ 8008 7997 7996 7995 ] final  -15.67 input   59.86 | X-H torsion
[ 10167 10162 10161 10158 ] final -123.13 input  -65.29 | X-H torsion
[ 10718 10713 10712 10709 ] final -141.23 input   66.30 | X-H torsion
[ 10763 10752 10751 10750 ] final   -3.69 input  -60.55 | X-H torsion
[ 11005 11000 10999 10996 ] final -100.90 input  -57.11 | X-H torsion

> <Gold.Protein.ActiveResidues>
 VAL166  LYS551  ARG553  GLY616  TRP617  ASP618  TYR619  PRO620  LYS621  CYS622 
 ASP623  PHE694  ASN695  SER759  ASP760  ASP761  ALA762  ILE779  LEU786  VAL792 
 PHE793  MET794  SER795  GLU796  ALA797  LYS798  CYS799  TRP800  GLU811  SER814 

> <Gold.Protein.RotatedAtoms>
  152.4093  134.6153  160.0036 H   0  0  0  0  0  0  0  0  0  0  0  0  # atno 6907 bound_to 6896
  151.6335  133.3325  159.3122 H   0  0  0  0  0  0  0  0  0  0  0  0  # atno 6908 bound_to 6896
  150.7985  134.7103  159.6644 H   0  0  0  0  0  0  0  0  0  0  0  0  # atno 6909 bound_to 6896
  146.2378  140.1825  142.8332 H   0  0  0  0  0  0  0  0  0  0  0  0  # atno 7974 bound_to 7965
  154.5112  140.2190  155.9152 H   0  0  0  0  0  0  0  0  0  0  0  0  # atno 8008 bound_to 7997
  156.1555  140.3153  155.8684 H   0  0  0  0  0  0  0  0  0  0  0  0  # atno 8009 bound_to 7997
  155.3856  140.0475  157.3033 H   0  0  0  0  0  0  0  0  0  0  0  0  # atno 8010 bound_to 7997
  140.0068  143.5483  152.2280 H   0  0  0  0  0  0  0  0  0  0  0  0  # atno 10167 bound_to 10162
  156.3316  130.7589  151.1708 H   0  0  0  0  0  0  0  0  0  0  0  0  # atno 10718 bound_to 10713
  153.3747  135.6996  153.6611 H   0  0  0  0  0  0  0  0  0  0  0  0  # atno 10763 bound_to 10752
  153.5246  135.3605  155.2648 H   0  0  0  0  0  0  0  0  0  0  0  0  # atno 10764 bound_to 10752
  154.8685  135.4166  154.3033 H   0  0  0  0  0  0  0  0  0  0  0  0  # atno 10765 bound_to 10752
  141.1252  133.8435  157.1162 H   0  0  0  0  0  0  0  0  0  0  0  0  # atno 11005 bound_to 11000
  144.9923  140.8558  143.5332 LP  0  0  0  0  0  0  0  0  0  0  0  0  # atno 17320 bound_to 7965
  145.1832  139.2340  143.5281 LP  0  0  0  0  0  0  0  0  0  0  0  0  # atno 17321 bound_to 7965
  139.6233  144.7633  151.2693 LP  0  0  0  0  0  0  0  0  0  0  0  0  # atno 17342 bound_to 10162
  140.7397  143.6609  150.8165 LP  0  0  0  0  0  0  0  0  0  0  0  0  # atno 17343 bound_to 10162
  157.7431  131.0479  150.4970 LP  0  0  0  0  0  0  0  0  0  0  0  0  # atno 17370 bound_to 10713
  156.5137  130.4145  149.6287 LP  0  0  0  0  0  0  0  0  0  0  0  0  # atno 17371 bound_to 10713
  140.0244  134.9930  157.0657 LP  0  0  0  0  0  0  0  0  0  0  0  0  # atno 17394 bound_to 11000
  140.4386  134.1705  155.7172 LP  0  0  0  0  0  0  0  0  0  0  0  0  # atno 17395 bound_to 11000

$$$$
