AV-unprocessed.smi:2633|AV-procd|sdf|10252|dock9
  -GOLD-   2272014263D 1   1.00000     0.00000
 Structure written by MMmdl.
 35 37  0  0  0  0  0  0  0  0  1 V2000
  151.5261  136.8663  154.0799 O   0  0  0  0  0  0  0  0  0  0  0  0
  150.6163  137.7946  154.6322 C   0  0  0  0  0  0  0  0  0  0  0  0
  151.3030  139.1344  154.9475 C   0  0  0  0  0  0  0  0  0  0  0  0
  150.3609  140.1528  155.3935 N   0  0  0  0  0  0  0  0  0  0  0  0
  150.4560  140.9966  156.4546 C   0  0  0  0  0  0  0  0  0  0  0  0
  151.6403  140.9930  157.3831 C   0  0  0  0  0  0  0  0  0  0  0  0
  151.7717  142.2633  158.2064 C   0  0  0  0  0  0  0  0  0  0  0  0
  151.5854  143.5215  157.5958 C   0  0  0  0  0  0  0  0  0  0  0  0
  151.7013  144.7012  158.3564 C   0  0  0  0  0  0  0  0  0  0  0  0
  152.0038  144.6271  159.7298 C   0  0  0  0  0  0  0  0  0  0  0  0
  152.1907  143.3728  160.3427 C   0  0  0  0  0  0  0  0  0  0  0  0
  152.0752  142.1926  159.5825 C   0  0  0  0  0  0  0  0  0  0  0  0
  149.4173  141.8179  156.6288 N   0  0  0  0  0  0  0  0  0  0  0  0
  148.5842  141.4906  155.5786 C   0  0  0  0  0  0  0  0  0  0  0  0
  147.3254  142.0145  155.2070 C   0  0  0  0  0  0  0  0  0  0  0  0
  146.6501  141.5131  154.0751 C   0  0  0  0  0  0  0  0  0  0  0  0
  147.2220  140.4825  153.3012 C   0  0  0  0  0  0  0  0  0  0  0  0
  148.4748  139.9459  153.6556 C   0  0  0  0  0  0  0  0  0  0  0  0
  149.1453  140.4511  154.7858 C   0  0  0  0  0  0  0  0  0  0  0  0
  151.1214  136.4585  153.3296 H   0  0  0  0  0  0  0  0  0  0  0  0
  149.7949  137.9430  153.9306 H   0  0  0  0  0  0  0  0  0  0  0  0
  150.1888  137.3692  155.5403 H   0  0  0  0  0  0  0  0  0  0  0  0
  152.0398  138.9869  155.7376 H   0  0  0  0  0  0  0  0  0  0  0  0
  151.8639  139.4978  154.0869 H   0  0  0  0  0  0  0  0  0  0  0  0
  151.5609  140.1292  158.0438 H   0  0  0  0  0  0  0  0  0  0  0  0
  152.5654  140.8712  156.8218 H   0  0  0  0  0  0  0  0  0  0  0  0
  151.3496  143.5836  156.5432 H   0  0  0  0  0  0  0  0  0  0  0  0
  151.5565  145.6628  157.8866 H   0  0  0  0  0  0  0  0  0  0  0  0
  152.0910  145.5318  160.3135 H   0  0  0  0  0  0  0  0  0  0  0  0
  152.4207  143.3154  161.3963 H   0  0  0  0  0  0  0  0  0  0  0  0
  152.2150  141.2337  160.0598 H   0  0  0  0  0  0  0  0  0  0  0  0
  146.8795  142.8039  155.7939 H   0  0  0  0  0  0  0  0  0  0  0  0
  145.6887  141.9215  153.7997 H   0  0  0  0  0  0  0  0  0  0  0  0
  146.6981  140.1043  152.4356 H   0  0  0  0  0  0  0  0  0  0  0  0
  148.9159  139.1567  153.0653 H   0  0  0  0  0  0  0  0  0  0  0  0
  1  2  1  0  0  0  0
  1 20  1  0  0  0  0
  2  3  1  0  0  0  0
  2 21  1  0  0  0  0
  2 22  1  0  0  0  0
  3  4  1  0  0  0  0
  3 23  1  0  0  0  0
  3 24  1  0  0  0  0
  4 19  1  0  0  0  0
  4  5  1  0  0  0  0
  5  6  1  0  0  0  0
  5 13  2  0  0  0  0
  6  7  1  0  0  0  0
  6 25  1  0  0  0  0
  6 26  1  0  0  0  0
  7 12  1  0  0  0  0
  7  8  2  0  0  0  0
  8  9  1  0  0  0  0
  8 27  1  0  0  0  0
  9 10  2  0  0  0  0
  9 28  1  0  0  0  0
 10 11  1  0  0  0  0
 10 29  1  0  0  0  0
 11 12  2  0  0  0  0
 11 30  1  0  0  0  0
 12 31  1  0  0  0  0
 13 14  1  0  0  0  0
 14 19  2  0  0  0  0
 14 15  1  0  0  0  0
 15 16  2  0  0  0  0
 15 32  1  0  0  0  0
 16 17  1  0  0  0  0
 16 33  1  0  0  0  0
 17 18  2  0  0  0  0
 17 34  1  0  0  0  0
 18 19  1  0  0  0  0
 18 35  1  0  0  0  0
M  END
> <s_m_source_file>
AV-unprocessed.smi

> <i_m_source_file_index>
2633

> <i_lp_mmshare_version>
43012

> <i_f3d_flags>
0

> <s_epik_input>
W2NIXTFbY0hdW2NIXVtjSF1jKGMxMiluKFtDSDJdW0NIMl1bT0hdKWMobjIpW0NIMl1jM1tjSF1bY0hdW2NIXVtjSF1bY0hdMw==

> <s_epik_cmdline>
J2VwaWtfcHl0aG9uJywgJy1waCcsICc3LjAnLCAnLXRuJywgJzgnLCAnLW1hJywgJzIwMCcsICctbWV0YWxfYmluZGluZycsICctaW1hZScsICc8aW5maWxlLm1hZT4nLCAnLW9tYWUnLCAnPG91dGZpbGUubWFlPic=

> <r_epik_Ionization_Penalty>
0.0631471

> <r_epik_Ionization_Penalty_Charging>
0

> <r_epik_Ionization_Penalty_Neutral>
0.0631471

> <r_epik_State_Penalty>
0.0549237

> <r_epik_Charging_Adjusted_Penalty>
0.0549237

> <i_epik_Tot_Q>
0

> <i_epik_Tot_abs_Q>
0

> <r_epik_Metal_State_Penalty>
5.75471e-05

> <b_epik_Metal_Only>
0

> <s_lp_Force_Field>
OPLS_2005

> <r_lp_Energy>
13.1063

> <b_lp_Chiralities_Consistent>
1

> <s_lp_Variant>
AV-unprocessed.smi:2633-1

> <Gold.Version>
5.8.1

> <Gold.Id.Protein>
6NUR|6NUR_protein|mol2

> <Gold.PLP.Fitness>
50.1190

> <Gold.PLP.PLP>
-45.3769

> <Gold.PLP.part.hbond>
-2.0000

> <Gold.PLP.part.metal>
0.0000

> <Gold.PLP.part.buried>
0.1202

> <Gold.PLP.part.nonpolar>
-43.7517

> <Gold.PLP.part.repulsive>
0.4052

> <Gold.PLP.ligand.clash>
0.0000

> <Gold.PLP.ligand.torsion>
0.6340

> <Gold.PLP.Chemscore.Hbond>
2.0000

> <Gold.PLP.Chemscore.CHOScore>
0.0000

> <Gold.PLP.Chemscore.Metal>
0.0000

> <Gold.Chemscore.Hbonds>
donor molecule, donor type, donor heavy atom, donor atom, acceptor molecule, acceptor atom, score
      L1  H     1    20       P1  7949  1.00
      P1  H 10752 10764       L1     1  1.00

> <Gold.PLP.Chemscore.Internal.Correction>
0.0101

> <Gold.Rescore>
     Score         DG    S(hbond)    S(metal)    S(lipo)     H(rot)  DE(clash)    DE(int)     intcor
     16.34     -19.50       1.22        0.00     127.99       1.96       1.56       1.60       ----

> <Gold.Chemscore.Fitness>
16.3440

> <Gold.Chemscore.DG>
-19.5021

> <Gold.Chemscore.ZeroCoef>
-5.4800

> <Gold.Chemscore.Hbond>
1.2166

> <Gold.Chemscore.Metal>
0.0000

> <Gold.Chemscore.Lipo>
127.9890

> <Gold.Chemscore.Internal_Hbond>
0.0000

> <Gold.Chemscore.DEClash>
1.5580

> <Gold.Chemscore.DEInternal>
1.6001

> <Gold.Chemscore.Rot>
1.9594

> <Gold.Chemscore.Internal.Correction>
   9.000000E+99

> <Gold.Chemscore.Hbonds>
donor molecule, donor type, donor heavy atom, donor atom, acceptor molecule, acceptor atom, score
      L1  H     1    20       P1  7949  0.37
      P1  H 10752 10764       L1     1  0.25

> <Gold.Chemscore.Hbond.Weighted>
-4.0634

> <Gold.Chemscore.Metal.Weighted>
-0.0000

> <Gold.Chemscore.Lipo.Weighted>
-14.9747

> <Gold.Chemscore.Internal_Hbond.Weighted>
0.0000

> <Gold.Chemscore.DEClash.Weighted>
1.5580

> <Gold.Chemscore.DEInternal.Weighted>
1.6001

> <Gold.Chemscore.Rot.Weighted>
5.0160

> <Gold.Chemscore.Internal.Correction.Weighted>
   9.000000E+99

> <Gold.Protein.RotatedTorsions>
[ 6907 6896 6895 6894 ] final   10.31 input  -60.11 | X-H torsion
[ 7974 7965 7964 7962 ] final  108.04 input  175.53 | X-H torsion
[ 8008 7997 7996 7995 ] final  121.61 input   59.86 | X-H torsion
[ 10167 10162 10161 10158 ] final  126.98 input  -65.29 | X-H torsion
[ 10718 10713 10712 10709 ] final   75.84 input   66.30 | X-H torsion
[ 10763 10752 10751 10750 ] final  -67.77 input  -60.55 | X-H torsion
[ 11005 11000 10999 10996 ] final  -78.06 input  -57.11 | X-H torsion

> <Gold.Protein.ActiveResidues>
 VAL166  LYS551  ARG553  GLY616  TRP617  ASP618  TYR619  PRO620  LYS621  CYS622 
 ASP623  PHE694  ASN695  SER759  ASP760  ASP761  ALA762  ILE779  LEU786  VAL792 
 PHE793  MET794  SER795  GLU796  ALA797  LYS798  CYS799  TRP800  GLU811  SER814 

> <Gold.Protein.RotatedAtoms>
  151.7362  135.0864  160.0307 H   0  0  0  0  0  0  0  0  0  0  0  0  # atno 6907 bound_to 6896
  152.3509  133.6174  159.5952 H   0  0  0  0  0  0  0  0  0  0  0  0  # atno 6908 bound_to 6896
  150.7539  133.9492  159.3522 H   0  0  0  0  0  0  0  0  0  0  0  0  # atno 6909 bound_to 6896
  145.2858  139.2617  143.3891 H   0  0  0  0  0  0  0  0  0  0  0  0  # atno 7974 bound_to 7965
  156.2694  140.2804  156.1336 H   0  0  0  0  0  0  0  0  0  0  0  0  # atno 8008 bound_to 7997
  155.1028  140.0390  157.2719 H   0  0  0  0  0  0  0  0  0  0  0  0  # atno 8009 bound_to 7997
  154.6802  140.2607  155.6922 H   0  0  0  0  0  0  0  0  0  0  0  0  # atno 8010 bound_to 7997
  139.5602  144.6877  151.4064 H   0  0  0  0  0  0  0  0  0  0  0  0  # atno 10167 bound_to 10162
  157.6650  130.9746  150.1411 H   0  0  0  0  0  0  0  0  0  0  0  0  # atno 10718 bound_to 10713
  154.3794  135.6077  153.5782 H   0  0  0  0  0  0  0  0  0  0  0  0  # atno 10763 bound_to 10752
  152.9788  135.5857  154.4429 H   0  0  0  0  0  0  0  0  0  0  0  0  # atno 10764 bound_to 10752
  154.4195  135.2845  155.1962 H   0  0  0  0  0  0  0  0  0  0  0  0  # atno 10765 bound_to 10752
  141.1663  133.7047  156.7914 H   0  0  0  0  0  0  0  0  0  0  0  0  # atno 11005 bound_to 11000
  146.3201  140.3337  142.8642 LP  0  0  0  0  0  0  0  0  0  0  0  0  # atno 17320 bound_to 7965
  144.9214  140.7872  143.5746 LP  0  0  0  0  0  0  0  0  0  0  0  0  # atno 17321 bound_to 7965
  140.6881  143.7926  150.7215 LP  0  0  0  0  0  0  0  0  0  0  0  0  # atno 17342 bound_to 10162
  140.1400  143.4450  152.2200 LP  0  0  0  0  0  0  0  0  0  0  0  0  # atno 17343 bound_to 10162
  156.2234  130.3676  149.8529 LP  0  0  0  0  0  0  0  0  0  0  0  0  # atno 17370 bound_to 10713
  156.6376  130.8691  151.3507 LP  0  0  0  0  0  0  0  0  0  0  0  0  # atno 17371 bound_to 10713
  140.2322  134.8677  157.3489 LP  0  0  0  0  0  0  0  0  0  0  0  0  # atno 17394 bound_to 11000
  140.1879  134.4408  155.7733 LP  0  0  0  0  0  0  0  0  0  0  0  0  # atno 17395 bound_to 11000

$$$$
