AV-unprocessed.smi:2648|AV-procd|sdf|10288|dock7
  -GOLD-   2272014303D 1   1.00000     0.00000
 Structure written by MMmdl.
 32 33  0  0  0  0  0  0  0  0  3 V2000
  146.4163  132.0267  153.8283 O   0  0  0  0  0  0  0  0  0  0  0  0
  147.1220  131.6086  152.9108 C   0  0  0  0  0  0  0  0  0  0  0  0
  148.3353  131.0694  153.0965 N   0  0  0  0  0  0  0  0  0  0  0  0
  148.9828  130.9006  154.3914 C   0  0  0  0  0  0  0  0  0  0  0  0
  150.2518  131.7645  154.5023 C   0  0  0  0  0  0  0  0  0  0  0  0
  150.8032  131.7230  155.8594 N   0  0  0  0  0  0  0  0  0  0  0  0
  151.9549  131.1288  156.1860 C   0  0  0  0  0  0  0  0  0  0  0  0
  152.7304  130.5231  155.4459 O   0  0  0  0  0  0  0  0  0  0  0  0
  152.1692  131.3355  157.6673 C   0  0  0  0  0  0  0  0  0  0  0  0
  151.0060  132.1072  158.0430 N   0  5  0  0  0  0  0  0  0  0  0  0
  150.2475  132.3051  156.9393 C   0  0  0  0  0  0  0  0  0  0  0  0
  149.1885  132.9290  156.8769 O   0  0  0  0  0  0  0  0  0  0  0  0
  146.7817  131.6083  151.6102 N   0  0  0  0  0  0  0  0  0  0  0  0
  145.5913  132.1002  151.0091 C   0  0  0  0  0  0  0  0  0  0  0  0
  144.5614  132.5479  151.8664 C   0  0  0  0  0  0  0  0  0  0  0  0
  143.3567  133.0295  151.3145 C   0  0  0  0  0  0  0  0  0  0  0  0
  143.1917  133.0498  149.9745 N   0  3  0  0  0  0  0  0  0  0  0  0
  144.1405  132.6187  149.1157 C   0  0  0  0  0  0  0  0  0  0  0  0
  145.3662  132.1266  149.6090 C   0  0  0  0  0  0  0  0  0  0  0  0
  148.8474  130.7463  152.2889 H   0  0  0  0  0  0  0  0  0  0  0  0
  148.2688  131.1863  155.1645 H   0  0  0  0  0  0  0  0  0  0  0  0
  149.2177  129.8481  154.5603 H   0  0  0  0  0  0  0  0  0  0  0  0
  151.0043  131.4262  153.7883 H   0  0  0  0  0  0  0  0  0  0  0  0
  150.0264  132.7954  154.2241 H   0  0  0  0  0  0  0  0  0  0  0  0
  152.2274  130.3705  158.1718 H   0  0  0  0  0  0  0  0  0  0  0  0
  153.1088  131.8627  157.8367 H   0  0  0  0  0  0  0  0  0  0  0  0
  147.4275  131.1491  150.9848 H   0  0  0  0  0  0  0  0  0  0  0  0
  144.6921  132.5300  152.9388 H   0  0  0  0  0  0  0  0  0  0  0  0
  142.5260  133.3945  151.9010 H   0  0  0  0  0  0  0  0  0  0  0  0
  143.8909  132.6738  148.0659 H   0  0  0  0  0  0  0  0  0  0  0  0
  146.1023  131.7686  148.9053 H   0  0  0  0  0  0  0  0  0  0  0  0
  142.3116  133.4006  149.5951 H   0  0  0  0  0  0  0  0  0  0  0  0
  1  2  2  0  0  0  0
  2  3  1  0  0  0  0
  2 13  1  0  0  0  0
  3  4  1  0  0  0  0
  3 20  1  0  0  0  0
  4  5  1  0  0  0  0
  4 21  1  0  0  0  0
  4 22  1  0  0  0  0
  5  6  1  0  0  0  0
  5 23  1  0  0  0  0
  5 24  1  0  0  0  0
  6 11  1  0  0  0  0
  6  7  1  0  0  0  0
  7  8  2  0  0  0  0
  7  9  1  0  0  0  0
  9 10  1  0  0  0  0
  9 25  1  0  0  0  0
  9 26  1  0  0  0  0
 10 11  1  0  0  0  0
 11 12  2  0  0  0  0
 13 14  1  0  0  0  0
 13 27  1  0  0  0  0
 14 19  1  0  0  0  0
 14 15  2  0  0  0  0
 15 16  1  0  0  0  0
 15 28  1  0  0  0  0
 16 17  2  0  0  0  0
 16 29  1  0  0  0  0
 17 18  1  0  0  0  0
 17 32  1  0  0  0  0
 18 19  2  0  0  0  0
 18 30  1  0  0  0  0
 19 31  1  0  0  0  0
M  CHG  1  10  -1
M  CHG  1  17   1
M  END
> <s_m_source_file>
AV-unprocessed.smi

> <i_m_source_file_index>
2648

> <i_lp_mmshare_version>
43012

> <i_f3d_flags>
0

> <s_epik_input>
W2NIXTFbY0hdbltjSF1bY0hdYzFbTkhdQyg9TylbTkhdW0NIMl1bQ0gyXU4yQyg9TylbQ0gyXVtOSF1DMj1P

> <s_epik_cmdline>
J2VwaWtfcHl0aG9uJywgJy1waCcsICc3LjAnLCAnLXRuJywgJzgnLCAnLW1hJywgJzIwMCcsICctbWV0YWxfYmluZGluZycsICctaW1hZScsICc8aW5maWxlLm1hZT4nLCAnLW9tYWUnLCAnPG91dGZpbGUubWFlPic=

> <r_lp_tautomer_probability>
1

> <r_epik_Ionization_Penalty>
6.85559

> <r_epik_Ionization_Penalty_Charging>
6.85558

> <r_epik_Ionization_Penalty_Neutral>
1.85947e-05

> <r_epik_State_Penalty>
6.90892

> <r_epik_Charging_Adjusted_Penalty>
13.7645

> <i_epik_Tot_Q>
0

> <i_epik_Tot_abs_Q>
2

> <r_epik_Metal_State_Penalty>
2.96744

> <b_epik_Metal_Only>
1

> <s_lp_Force_Field>
OPLS_2005

> <r_lp_Energy>
20.2927

> <b_lp_Chiralities_Consistent>
1

> <s_lp_Variant>
AV-unprocessed.smi:2648-4

> <Gold.Version>
5.8.1

> <Gold.Id.Protein>
6NUR|6NUR_protein|mol2

> <Gold.PLP.Fitness>
47.5697

> <Gold.PLP.PLP>
-30.0822

> <Gold.PLP.part.hbond>
-4.0000

> <Gold.PLP.part.metal>
0.0000

> <Gold.PLP.part.buried>
-4.8473

> <Gold.PLP.part.nonpolar>
-21.0034

> <Gold.PLP.part.repulsive>
0.2377

> <Gold.PLP.ligand.clash>
0.0045

> <Gold.PLP.ligand.torsion>
0.1284

> <Gold.PLP.Chemscore.Hbond>
5.9120

> <Gold.PLP.Chemscore.CHOScore>
0.0000

> <Gold.PLP.Chemscore.Metal>
0.0000

> <Gold.Chemscore.Hbonds>
donor molecule, donor type, donor heavy atom, donor atom, acceptor molecule, acceptor atom, score
      L1  H     3    20       P1 10747  0.91
      L1  H    13    27       P1 10747  1.00
      L1  H    17    32       P1 10186  2.00
      P1  H  6896  6908       L1    10  2.00

> <Gold.PLP.Chemscore.Internal.Correction>
0.0129

> <Gold.Rescore>
     Score         DG    S(hbond)    S(metal)    S(lipo)     H(rot)  DE(clash)    DE(int)     intcor
     17.70     -19.52       3.54        0.00      61.09       1.93       0.08       1.74       ----

> <Gold.Chemscore.Fitness>
17.6950

> <Gold.Chemscore.DG>
-19.5193

> <Gold.Chemscore.ZeroCoef>
-5.4800

> <Gold.Chemscore.Hbond>
3.5414

> <Gold.Chemscore.Metal>
0.0000

> <Gold.Chemscore.Lipo>
61.0908

> <Gold.Chemscore.Internal_Hbond>
0.0000

> <Gold.Chemscore.DEClash>
0.0808

> <Gold.Chemscore.DEInternal>
1.7435

> <Gold.Chemscore.Rot>
1.9284

> <Gold.Chemscore.Internal.Correction>
   9.000000E+99

> <Gold.Chemscore.Hbonds>
donor molecule, donor type, donor heavy atom, donor atom, acceptor molecule, acceptor atom, score
      L1  H     3    20       P1 10747  0.48
      L1  H    13    27       P1 10747  0.98
      L1  H    17    32       P1 10186  0.98
      P1  H  6896  6908       L1    10  0.82

> <Gold.Chemscore.Hbond.Weighted>
-11.8283

> <Gold.Chemscore.Metal.Weighted>
-0.0000

> <Gold.Chemscore.Lipo.Weighted>
-7.1476

> <Gold.Chemscore.Internal_Hbond.Weighted>
0.0000

> <Gold.Chemscore.DEClash.Weighted>
0.0808

> <Gold.Chemscore.DEInternal.Weighted>
1.7435

> <Gold.Chemscore.Rot.Weighted>
4.9366

> <Gold.Chemscore.Internal.Correction.Weighted>
   9.000000E+99

> <Gold.Protein.RotatedTorsions>
[ 6907 6896 6895 6894 ] final   76.09 input  -60.11 | X-H torsion
[ 7974 7965 7964 7962 ] final   11.68 input  175.53 | X-H torsion
[ 8008 7997 7996 7995 ] final -144.89 input   59.86 | X-H torsion
[ 10167 10162 10161 10158 ] final -125.72 input  -65.29 | X-H torsion
[ 10718 10713 10712 10709 ] final   25.17 input   66.30 | X-H torsion
[ 10763 10752 10751 10750 ] final  -21.59 input  -60.55 | X-H torsion
[ 11005 11000 10999 10996 ] final -168.47 input  -57.11 | X-H torsion

> <Gold.Protein.ActiveResidues>
 VAL166  LYS551  ARG553  GLY616  TRP617  ASP618  TYR619  PRO620  LYS621  CYS622 
 ASP623  PHE694  ASN695  SER759  ASP760  ASP761  ALA762  ILE779  LEU786  VAL792 
 PHE793  MET794  SER795  GLU796  ALA797  LYS798  CYS799  TRP800  GLU811  SER814 

> <Gold.Protein.RotatedAtoms>
  152.5057  134.4021  159.9419 H   0  0  0  0  0  0  0  0  0  0  0  0  # atno 6907 bound_to 6896
  151.3985  133.3759  159.2737 H   0  0  0  0  0  0  0  0  0  0  0  0  # atno 6908 bound_to 6896
  150.9379  134.8811  159.7652 H   0  0  0  0  0  0  0  0  0  0  0  0  # atno 6909 bound_to 6896
  146.2366  139.9450  142.8478 H   0  0  0  0  0  0  0  0  0  0  0  0  # atno 7974 bound_to 7965
  155.5344  140.0602  157.2882 H   0  0  0  0  0  0  0  0  0  0  0  0  # atno 8008 bound_to 7997
  154.4473  140.1930  156.0571 H   0  0  0  0  0  0  0  0  0  0  0  0  # atno 8009 bound_to 7997
  156.0629  140.3270  155.7487 H   0  0  0  0  0  0  0  0  0  0  0  0  # atno 8010 bound_to 7997
  139.9791  143.5762  152.2385 H   0  0  0  0  0  0  0  0  0  0  0  0  # atno 10167 bound_to 10162
  157.1898  130.6841  149.6145 H   0  0  0  0  0  0  0  0  0  0  0  0  # atno 10718 bound_to 10713
  153.6385  135.6986  153.5250 H   0  0  0  0  0  0  0  0  0  0  0  0  # atno 10763 bound_to 10752
  153.2801  135.4188  155.1070 H   0  0  0  0  0  0  0  0  0  0  0  0  # atno 10764 bound_to 10752
  154.8505  135.3600  154.5929 H   0  0  0  0  0  0  0  0  0  0  0  0  # atno 10765 bound_to 10752
  140.5416  134.5516  157.5101 H   0  0  0  0  0  0  0  0  0  0  0  0  # atno 11005 bound_to 11000
  145.1916  140.9814  143.4207 LP  0  0  0  0  0  0  0  0  0  0  0  0  # atno 17320 bound_to 7965
  144.9852  139.3744  143.6242 LP  0  0  0  0  0  0  0  0  0  0  0  0  # atno 17321 bound_to 7965
  139.6423  144.7655  151.2313 LP  0  0  0  0  0  0  0  0  0  0  0  0  # atno 17342 bound_to 10162
  140.7495  143.6296  150.8436 LP  0  0  0  0  0  0  0  0  0  0  0  0  # atno 17343 bound_to 10162
  155.9713  130.4618  150.6124 LP  0  0  0  0  0  0  0  0  0  0  0  0  # atno 17370 bound_to 10713
  157.3872  131.0790  151.1426 LP  0  0  0  0  0  0  0  0  0  0  0  0  # atno 17371 bound_to 10713
  139.9501  134.7632  156.0469 LP  0  0  0  0  0  0  0  0  0  0  0  0  # atno 17394 bound_to 11000
  141.1224  133.6609  156.3248 LP  0  0  0  0  0  0  0  0  0  0  0  0  # atno 17395 bound_to 11000

$$$$
