#       Name:                AV-unprocessed.smi:1821
#       Creating user name   scv26
#       Creation time:       Fri Mar 27 09:05:52 2020


#       File generated by GOLD software.
#

@<TRIPOS>MOLECULE
AV-unprocessed.smi:1821
    38    40     1
SMALL
NO_CHARGES


@<TRIPOS>ATOM
      1 ****        -1.4176  -0.0481  -3.1995 C.3            1 S1                 0.0000
      2 ****        -1.4793   0.8753  -2.0294 C.2            1 S1                 0.0000
      3 ****        -1.9492   2.1548  -2.0403 N.pl3          1 S1                 1.0000
      4 ****        -1.8445   2.7075  -0.7627 C.ar           1 S1                 0.0000
      5 ****        -2.1850   3.9685  -0.2829 C.ar           1 S1                 0.0000
      6 ****        -1.9450   4.2108   1.0858 C.ar           1 S1                 0.0000
      7 ****        -1.3887   3.2198   1.9209 C.ar           1 S1                 0.0000
      8 ****        -1.0482   1.9447   1.4234 C.ar           1 S1                 0.0000
      9 ****        -1.2871   1.7149   0.0689 C.ar           1 S1                 0.0000
     10 ****        -1.0756   0.6049  -0.7553 N.pl3          1 S1                 0.0000
     11 ****        -0.4832  -0.6126  -0.1816 C.3            1 S1                 0.0000
     12 ****         1.0477  -0.5152  -0.0196 C.3            1 S1                 0.0000
     13 ****         1.6488  -0.2051  -1.2627 O.3            1 S1                 0.0000
     14 ****         1.6216  -1.7780   0.6131 C.ar           1 S1                 0.0000
     15 ****         1.7638  -2.9675  -0.1413 C.ar           1 S1                 0.0000
     16 ****         1.3886  -3.0082  -1.4426 F              1 S1                 0.0000
     17 ****         2.2917  -4.1285   0.4562 C.ar           1 S1                 0.0000
     18 ****         2.6762  -4.1156   1.8095 C.ar           1 S1                 0.0000
     19 ****         2.5290  -2.9400   2.5684 C.ar           1 S1                 0.0000
     20 ****         2.0011  -1.7763   1.9759 C.ar           1 S1                 0.0000
     21 ****         1.8573  -0.6587   2.7287 F              1 S1                 0.0000
     22 ****        -1.7284   0.4645  -4.1102 H              1 S1                 0.0000
     23 ****        -2.0762  -0.9019  -3.0392 H              1 S1                 0.0000
     24 ****        -0.4002  -0.4144  -3.3382 H              1 S1                 0.0000
     25 ****        -2.6107   4.7296  -0.9204 H              1 S1                 0.0000
     26 ****        -2.1919   5.1763   1.5034 H              1 S1                 0.0000
     27 ****        -1.2186   3.4420   2.9643 H              1 S1                 0.0000
     28 ****        -0.6205   1.1923   2.0698 H              1 S1                 0.0000
     29 ****        -0.9649  -0.8092   0.7772 H              1 S1                 0.0000
     30 ****        -0.7461  -1.4469  -0.8328 H              1 S1                 0.0000
     31 ****         1.2751   0.3307   0.6287 H              1 S1                 0.0000
     32 ****         2.5710  -0.0548  -1.1210 H              1 S1                 0.0000
     33 ****         2.3996  -5.0321  -0.1256 H              1 S1                 0.0000
     34 ****         3.0798  -5.0075   2.2658 H              1 S1                 0.0000
     35 ****         2.8198  -2.9312   3.6086 H              1 S1                 0.0000
     36 ****        -2.3119   2.6156  -2.8650 H              1 S1                 0.0000
     37 ****         1.2279   0.6175  -1.6449 LP             1 S1                 0.0000
     38 ****         1.5251  -0.9683  -1.8968 LP             1 S1                 0.0000
@<TRIPOS>BOND
    1    1    2 1     
    2    1   22 1     
    3    1   23 1     
    4    1   24 1     
    5    2   10 1     
    6    2    3 2     
    7    3    4 1     
    8    3   36 1     
    9    4    9 ar    
   10    4    5 ar    
   11    5    6 ar    
   12    5   25 1     
   13    6    7 ar    
   14    6   26 1     
   15    7    8 ar    
   16    7   27 1     
   17    8    9 ar    
   18    8   28 1     
   19    9   10 1     
   20   10   11 1     
   21   11   12 1     
   22   11   29 1     
   23   11   30 1     
   24   12   13 1     
   25   12   14 1     
   26   12   31 1     
   27   13   32 1     
   28   14   20 ar    
   29   14   15 ar    
   30   15   16 1     
   31   15   17 ar    
   32   17   18 ar    
   33   17   33 1     
   34   18   19 ar    
   35   18   34 1     
   36   19   20 ar    
   37   19   35 1     
   38   20   21 1     
   39   13   37 1     
   40   13   38 1     
@<TRIPOS>SUBSTRUCTURE
      1 S1             1
@<TRIPOS>SET
LONE_PAIRS      STATIC     ATOMS    <user>   **** ""
2 37 38
DONOR_HYDROGENS      STATIC     ATOMS    <user>   **** ""
2 36 32
ATOM$BLUE        STATIC     ATOMS    COLORGROUP SYSTEM
2 37 38
ATOM$RED        STATIC     ATOMS    COLORGROUP SYSTEM
2 36 32
