#       Name:                AV-unprocessed.smi:741
#       Creating user name   scv26
#       Creation time:       Fri Mar 27 00:55:33 2020


#       File generated by GOLD software.
#

@<TRIPOS>MOLECULE
AV-unprocessed.smi:741
    45    46     1
SMALL
NO_CHARGES


@<TRIPOS>ATOM
      1 ****        -4.0640   0.4249   0.8485 C.3            1 S1                 0.0000
      2 ****        -3.3267  -0.9188   0.7495 C.3            1 S1                 0.0000
      3 ****        -1.7916  -0.7904   0.7865 C.3            1 S1                 0.0000
      4 ****        -1.1156  -2.1791   0.7956 C.3            1 S1                 0.0000
      5 ****         0.3613  -2.1036   0.9143 N.4            1 S1                 1.0000
      6 ****         0.8650  -1.7350   2.2540 C.3            1 S1                 0.0000
      7 ****         2.3046  -2.2354   2.2767 C.3            1 S1                 0.0000
      8 ****         2.2205  -3.5456   1.4997 C.3            1 S1                 0.0000
      9 ****         1.0768  -3.3328   0.4980 C.3            1 S1                 0.0000
     10 ****        -1.3334   0.0013  -0.3582 N.am           1 S1                 0.0000
     11 ****        -0.4021   0.9661  -0.3296 C.2            1 S1                 0.0000
     12 ****         0.2299   1.2704   0.6812 O.2            1 S1                 0.0000
     13 ****        -0.2379   1.5238  -1.5416 N.am           1 S1                 0.0000
     14 ****         0.6349   2.5833  -1.9107 C.ar           1 S1                 0.0000
     15 ****         1.0228   2.6733  -3.2660 C.ar           1 S1                 0.0000
     16 ****         1.8743   3.7190  -3.6774 C.ar           1 S1                 0.0000
     17 ****         2.3023   4.6311  -2.7785 N.pl3          1 S1                 1.0000
     18 ****         1.9456   4.5962  -1.4766 C.ar           1 S1                 0.0000
     19 ****         1.0973   3.5728  -1.0061 C.ar           1 S1                 0.0000
     20 ****        -5.1433   0.2722   0.8651 H              1 S1                 0.0000
     21 ****        -3.8378   1.0725   0.0012 H              1 S1                 0.0000
     22 ****        -3.7912   0.9571   1.7602 H              1 S1                 0.0000
     23 ****        -3.6531  -1.5520   1.5753 H              1 S1                 0.0000
     24 ****        -3.6343  -1.4314  -0.1631 H              1 S1                 0.0000
     25 ****        -1.5377  -0.2762   1.7152 H              1 S1                 0.0000
     26 ****        -1.5136  -2.7976   1.6017 H              1 S1                 0.0000
     27 ****        -1.3651  -2.6918  -0.1350 H              1 S1                 0.0000
     28 ****         0.7952  -0.6639   2.4417 H              1 S1                 0.0000
     29 ****         0.2876  -2.2498   3.0236 H              1 S1                 0.0000
     30 ****         2.9506  -1.5311   1.7507 H              1 S1                 0.0000
     31 ****         2.6953  -2.3632   3.2866 H              1 S1                 0.0000
     32 ****         3.1617  -3.8055   1.0145 H              1 S1                 0.0000
     33 ****         1.9638  -4.3579   2.1811 H              1 S1                 0.0000
     34 ****         0.4188  -4.2030   0.4869 H              1 S1                 0.0000
     35 ****         1.4574  -3.1928  -0.5141 H              1 S1                 0.0000
     36 ****        -1.7945  -0.1800  -1.2383 H              1 S1                 0.0000
     37 ****        -0.7605   1.1079  -2.2988 H              1 S1                 0.0000
     38 ****         0.6784   1.9459  -3.9870 H              1 S1                 0.0000
     39 ****         2.2209   3.8537  -4.6918 H              1 S1                 0.0000
     40 ****         2.3413   5.3863  -0.8551 H              1 S1                 0.0000
     41 ****         0.8073   3.5750   0.0337 H              1 S1                 0.0000
     42 ****         0.6746  -1.3795   0.2841 H              1 S1                 0.0000
     43 ****         2.9161   5.3815  -3.0974 H              1 S1                 0.0000
     44 ****         0.0601   0.7888   1.5410 LP             1 S1                 0.0000
     45 ****         0.9133   1.9994   0.6430 LP             1 S1                 0.0000
@<TRIPOS>BOND
    1    1    2 1     
    2    1   20 1     
    3    1   21 1     
    4    1   22 1     
    5    2    3 1     
    6    2   23 1     
    7    2   24 1     
    8    3    4 1     
    9    3   10 1     
   10    3   25 1     
   11    4    5 1     
   12    4   26 1     
   13    4   27 1     
   14    5    9 1     
   15    5    6 1     
   16    5   42 1     
   17    6    7 1     
   18    6   28 1     
   19    6   29 1     
   20    7    8 1     
   21    7   30 1     
   22    7   31 1     
   23    8    9 1     
   24    8   32 1     
   25    8   33 1     
   26    9   34 1     
   27    9   35 1     
   28   10   11 am    
   29   10   36 1     
   30   11   12 2     
   31   11   13 am    
   32   13   14 1     
   33   13   37 1     
   34   14   19 ar    
   35   14   15 ar    
   36   15   16 ar    
   37   15   38 1     
   38   16   17 ar    
   39   16   39 1     
   40   17   18 ar    
   41   17   43 1     
   42   18   19 ar    
   43   18   40 1     
   44   19   41 1     
   45   12   44 1     
   46   12   45 1     
@<TRIPOS>SUBSTRUCTURE
      1 S1             1
@<TRIPOS>SET
LONE_PAIRS      STATIC     ATOMS    <user>   **** ""
2 44 45
DONOR_HYDROGENS      STATIC     ATOMS    <user>   **** ""
4 42 36 37 43
ATOM$BLUE        STATIC     ATOMS    COLORGROUP SYSTEM
2 44 45
ATOM$RED        STATIC     ATOMS    COLORGROUP SYSTEM
4 42 36 37 43
