AV-unprocessed.smi:3280|AV-procd|sdf|12552|dock1
  -GOLD-   2272018473D 1   1.00000     0.00000
 Structure written by MMmdl.
 39 40  0  0  0  0  0  0  0  0  2 V2000
  150.0759  135.5186  155.0645 C   0  0  0  0  0  0  0  0  0  0  0  0
  150.7763  136.4939  156.0227 C   0  0  0  0  0  0  0  0  0  0  0  0
  150.2540  136.3962  157.4637 C   0  0  0  0  0  0  0  0  0  0  0  0
  150.7335  137.9024  155.5136 C   0  0  0  0  0  0  0  0  0  0  0  0
  151.2709  138.2280  154.3433 N   0  0  0  0  0  0  0  0  0  0  0  0
  151.0452  139.6085  154.2532 O   0  0  0  0  0  0  0  0  0  0  0  0
  150.3793  139.9476  155.3823 C   0  0  0  0  0  0  0  0  0  0  0  0
  150.0330  141.3805  155.6113 C   0  0  0  0  0  0  0  0  0  0  0  0
  150.6460  141.9280  156.9063 C   0  0  0  0  0  0  0  0  0  0  0  0
  151.1236  143.3150  156.7211 N   0  3  0  0  0  0  0  0  0  0  0  0
  151.6746  143.9680  157.9303 C   0  0  2  0  0  0  0  0  0  0  0  0
  152.3885  142.9093  158.7944 C   0  0  0  0  0  0  0  0  0  0  0  0
  153.0756  143.5070  160.0330 C   0  0  0  0  0  0  0  0  0  0  0  0
  152.0827  144.1960  160.9781 C   0  0  0  0  0  0  0  0  0  0  0  0
  151.2575  145.5835  160.1552 S   0  0  0  0  0  0  0  0  0  0  0  0
  150.5722  144.6916  158.7324 C   0  0  0  0  0  0  0  0  0  0  0  0
  150.1771  138.9306  156.2149 N   0  0  0  0  0  0  0  0  0  0  0  0
  150.5158  135.5634  154.0675 H   0  0  0  0  0  0  0  0  0  0  0  0
  149.0137  135.7469  154.9711 H   0  0  0  0  0  0  0  0  0  0  0  0
  150.1640  134.4912  155.4184 H   0  0  0  0  0  0  0  0  0  0  0  0
  151.8247  136.1919  156.0538 H   0  0  0  0  0  0  0  0  0  0  0  0
  150.8215  137.0458  158.1309 H   0  0  0  0  0  0  0  0  0  0  0  0
  150.3392  135.3779  157.8435 H   0  0  0  0  0  0  0  0  0  0  0  0
  149.2050  136.6870  157.5267 H   0  0  0  0  0  0  0  0  0  0  0  0
  150.3785  141.9616  154.7552 H   0  0  0  0  0  0  0  0  0  0  0  0
  148.9465  141.4754  155.6380 H   0  0  0  0  0  0  0  0  0  0  0  0
  149.9010  141.9041  157.7031 H   0  0  0  0  0  0  0  0  0  0  0  0
  151.4734  141.2899  157.2167 H   0  0  0  0  0  0  0  0  0  0  0  0
  151.8215  143.3330  155.9910 H   0  0  0  0  0  0  0  0  0  0  0  0
  152.4181  144.6980  157.6062 H   0  0  0  0  0  0  0  0  0  0  0  0
  151.6767  142.1444  159.1083 H   0  0  0  0  0  0  0  0  0  0  0  0
  153.1398  142.3961  158.1928 H   0  0  0  0  0  0  0  0  0  0  0  0
  153.5925  142.7138  160.5740 H   0  0  0  0  0  0  0  0  0  0  0  0
  153.8446  144.2165  159.7249 H   0  0  0  0  0  0  0  0  0  0  0  0
  151.3297  143.4873  161.3246 H   0  0  0  0  0  0  0  0  0  0  0  0
  152.5995  144.5711  161.8618 H   0  0  0  0  0  0  0  0  0  0  0  0
  150.0494  145.4225  158.1166 H   0  0  0  0  0  0  0  0  0  0  0  0
  149.8249  143.9807  159.0869 H   0  0  0  0  0  0  0  0  0  0  0  0
  150.3316  143.8642  156.4186 H   0  0  0  0  0  0  0  0  0  0  0  0
  1  2  1  0  0  0  0
  1 18  1  0  0  0  0
  1 19  1  0  0  0  0
  1 20  1  0  0  0  0
  2  3  1  0  0  0  0
  2  4  1  0  0  0  0
  2 21  1  0  0  0  0
  3 22  1  0  0  0  0
  3 23  1  0  0  0  0
  3 24  1  0  0  0  0
  4 17  1  0  0  0  0
  4  5  2  0  0  0  0
  5  6  1  0  0  0  0
  6  7  1  0  0  0  0
  7  8  1  0  0  0  0
  7 17  2  0  0  0  0
  8  9  1  0  0  0  0
  8 25  1  0  0  0  0
  8 26  1  0  0  0  0
  9 10  1  0  0  0  0
  9 27  1  0  0  0  0
  9 28  1  0  0  0  0
 10 11  1  0  0  0  0
 10 29  1  0  0  0  0
 10 39  1  0  0  0  0
 11 16  1  0  0  0  0
 11 12  1  0  0  0  0
 11 30  1  0  0  0  0
 12 13  1  0  0  0  0
 12 31  1  0  0  0  0
 12 32  1  0  0  0  0
 13 14  1  0  0  0  0
 13 33  1  0  0  0  0
 13 34  1  0  0  0  0
 14 15  1  0  0  0  0
 14 35  1  0  0  0  0
 14 36  1  0  0  0  0
 15 16  1  0  0  0  0
 16 37  1  0  0  0  0
 16 38  1  0  0  0  0
M  CHG  1  10   1
M  END
> <s_m_source_file>
AV-unprocessed.smi

> <i_m_source_file_index>
3280

> <i_lp_mmshare_version>
43012

> <i_f3d_flags>
0

> <s_epik_input>
W0NIM11bQ0hdKFtDSDNdKWMxbm9jKG4xKVtDSDJdW0NIMl1bTkhdW0NAQEhdMltDSDJdW0NIMl1bQ0gyXVNbQ0gyXTI=

> <s_epik_cmdline>
J2VwaWtfcHl0aG9uJywgJy1waCcsICc3LjAnLCAnLXRuJywgJzgnLCAnLW1hJywgJzIwMCcsICctbWV0YWxfYmluZGluZycsICctaW1hZScsICc8aW5maWxlLm1hZT4nLCAnLW9tYWUnLCAnPG91dGZpbGUubWFlPic=

> <r_lp_tautomer_probability>
1

> <r_epik_Ionization_Penalty>
0.0103043

> <r_epik_Ionization_Penalty_Charging>
0.0103043

> <r_epik_Ionization_Penalty_Neutral>
2.61801e-13

> <r_epik_State_Penalty>
0.0078728

> <r_epik_Charging_Adjusted_Penalty>
0.0181771

> <i_epik_Tot_Q>
1

> <i_epik_Tot_abs_Q>
1

> <r_epik_Metal_State_Penalty>
0.0078728

> <b_epik_Metal_Only>
0

> <s_lp_Force_Field>
OPLS_2005

> <r_lp_Energy>
0.790669

> <b_lp_Chiralities_Consistent>
1

> <s_lp_Variant>
AV-unprocessed.smi:3280-1

> <Gold.Version>
5.8.1

> <Gold.Id.Protein>
6NUR|6NUR_protein|mol2

> <Gold.PLP.Fitness>
43.2410

> <Gold.PLP.PLP>
-35.4287

> <Gold.PLP.part.hbond>
-2.0000

> <Gold.PLP.part.metal>
0.0000

> <Gold.PLP.part.buried>
-4.0150

> <Gold.PLP.part.nonpolar>
-29.8477

> <Gold.PLP.part.repulsive>
0.3888

> <Gold.PLP.ligand.clash>
0.0000

> <Gold.PLP.ligand.torsion>
0.6592

> <Gold.PLP.Chemscore.Hbond>
3.0000

> <Gold.PLP.Chemscore.CHOScore>
0.0000

> <Gold.PLP.Chemscore.Metal>
0.0000

> <Gold.Chemscore.Hbonds>
donor molecule, donor type, donor heavy atom, donor atom, acceptor molecule, acceptor atom, score
      L1  H    10    39       P1  8028  2.00
      P1  H  7989  7998       L1     6  1.00

> <Gold.PLP.Chemscore.Internal.Correction>
0.1307

> <Gold.Rescore>
     Score         DG    S(hbond)    S(metal)    S(lipo)     H(rot)  DE(clash)    DE(int)     intcor
     18.10     -18.72       1.95        0.00      95.81       1.76       0.02       0.60       ----

> <Gold.Chemscore.Fitness>
18.0981

> <Gold.Chemscore.DG>
-18.7176

> <Gold.Chemscore.ZeroCoef>
-5.4800

> <Gold.Chemscore.Hbond>
1.9538

> <Gold.Chemscore.Metal>
0.0000

> <Gold.Chemscore.Lipo>
95.8139

> <Gold.Chemscore.Internal_Hbond>
0.0000

> <Gold.Chemscore.DEClash>
0.0233

> <Gold.Chemscore.DEInternal>
0.5961

> <Gold.Chemscore.Rot>
1.7572

> <Gold.Chemscore.Internal.Correction>
   9.000000E+99

> <Gold.Chemscore.Hbonds>
donor molecule, donor type, donor heavy atom, donor atom, acceptor molecule, acceptor atom, score
      L1  H    10    39       P1  8028  1.00
      P1  H  7989  7998       L1     6  0.83

> <Gold.Chemscore.Hbond.Weighted>
-6.5257

> <Gold.Chemscore.Metal.Weighted>
-0.0000

> <Gold.Chemscore.Lipo.Weighted>
-11.2102

> <Gold.Chemscore.Internal_Hbond.Weighted>
0.0000

> <Gold.Chemscore.DEClash.Weighted>
0.0233

> <Gold.Chemscore.DEInternal.Weighted>
0.5961

> <Gold.Chemscore.Rot.Weighted>
4.4984

> <Gold.Chemscore.Internal.Correction.Weighted>
   9.000000E+99

> <Gold.Protein.RotatedTorsions>
[ 6907 6896 6895 6894 ] final -137.61 input  -60.11 | X-H torsion
[ 7974 7965 7964 7962 ] final  -42.56 input  175.53 | X-H torsion
[ 8008 7997 7996 7995 ] final  178.27 input   59.86 | X-H torsion
[ 10167 10162 10161 10158 ] final -177.10 input  -65.29 | X-H torsion
[ 10718 10713 10712 10709 ] final   37.91 input   66.30 | X-H torsion
[ 10763 10752 10751 10750 ] final -167.12 input  -60.55 | X-H torsion
[ 11005 11000 10999 10996 ] final   54.62 input  -57.11 | X-H torsion

> <Gold.Protein.ActiveResidues>
 VAL166  LYS551  ARG553  GLY616  TRP617  ASP618  TYR619  PRO620  LYS621  CYS622 
 ASP623  PHE694  ASN695  SER759  ASP760  ASP761  ALA762  ILE779  LEU786  VAL792 
 PHE793  MET794  SER795  GLU796  ALA797  LYS798  CYS799  TRP800  GLU811  SER814 

> <Gold.Protein.RotatedAtoms>
  151.0246  133.5845  159.2667 H   0  0  0  0  0  0  0  0  0  0  0  0  # atno 6907 bound_to 6896
  151.2949  135.0751  159.9227 H   0  0  0  0  0  0  0  0  0  0  0  0  # atno 6908 bound_to 6896
  152.5331  133.9938  159.7917 H   0  0  0  0  0  0  0  0  0  0  0  0  # atno 6909 bound_to 6896
  146.0104  140.6971  142.9227 H   0  0  0  0  0  0  0  0  0  0  0  0  # atno 7974 bound_to 7965
  156.0565  140.1337  156.9990 H   0  0  0  0  0  0  0  0  0  0  0  0  # atno 8008 bound_to 7997
  154.4460  140.1000  156.6524 H   0  0  0  0  0  0  0  0  0  0  0  0  # atno 8009 bound_to 7997
  155.5443  140.3461  155.4456 H   0  0  0  0  0  0  0  0  0  0  0  0  # atno 8010 bound_to 7997
  139.5497  144.2142  152.1054 H   0  0  0  0  0  0  0  0  0  0  0  0  # atno 10167 bound_to 10162
  157.3526  130.7606  149.6989 H   0  0  0  0  0  0  0  0  0  0  0  0  # atno 10718 bound_to 10713
  154.6765  135.2947  154.9672 H   0  0  0  0  0  0  0  0  0  0  0  0  # atno 10763 bound_to 10752
  154.0681  135.6622  153.4824 H   0  0  0  0  0  0  0  0  0  0  0  0  # atno 10764 bound_to 10752
  153.0519  135.5168  154.7786 H   0  0  0  0  0  0  0  0  0  0  0  0  # atno 10765 bound_to 10752
  140.0672  134.5520  155.9086 H   0  0  0  0  0  0  0  0  0  0  0  0  # atno 11005 bound_to 11000
  144.6951  140.3388  143.7203 LP  0  0  0  0  0  0  0  0  0  0  0  0  # atno 17320 bound_to 7965
  145.7351  139.1747  143.2408 LP  0  0  0  0  0  0  0  0  0  0  0  0  # atno 17321 bound_to 7965
  140.1635  144.5003  150.6619 LP  0  0  0  0  0  0  0  0  0  0  0  0  # atno 17342 bound_to 10162
  140.6756  143.2303  151.5516 LP  0  0  0  0  0  0  0  0  0  0  0  0  # atno 17343 bound_to 10162
  155.9724  130.4136  150.4092 LP  0  0  0  0  0  0  0  0  0  0  0  0  # atno 17370 bound_to 10713
  157.2157  131.0471  151.2575 LP  0  0  0  0  0  0  0  0  0  0  0  0  # atno 17371 bound_to 10713
  141.1997  133.6608  156.5859 LP  0  0  0  0  0  0  0  0  0  0  0  0  # atno 17394 bound_to 11000
  140.3682  134.7629  157.4580 LP  0  0  0  0  0  0  0  0  0  0  0  0  # atno 17395 bound_to 11000

$$$$
