#       Name:                AV-unprocessed.smi:1701
#       Creating user name   scv26
#       Creation time:       Fri Mar 27 08:01:07 2020


#       File generated by GOLD software.
#

@<TRIPOS>MOLECULE
AV-unprocessed.smi:1701
    58    60     1
SMALL
NO_CHARGES


@<TRIPOS>ATOM
      1 ****        -5.6672  -1.0463  -0.5593 C.3            1 S1                 0.0000
      2 ****        -5.6215  -0.6988   0.9369 C.3            1 S1                 0.0000
      3 ****        -5.0861   0.6370   1.1967 N.3            1 S1                 0.0000
      4 ****        -5.9226   1.7772   0.8158 C.3            1 S1                 0.0000
      5 ****        -5.6673   3.0253   1.6759 C.3            1 S1                 0.0000
      6 ****        -3.6877   0.7436   1.0353 C.ar           1 S1                 0.0000
      7 ****        -2.8270  -0.0502   1.8265 C.ar           1 S1                 0.0000
      8 ****        -1.4364   0.0572   1.6423 C.ar           1 S1                 0.0000
      9 ****        -0.9344   0.9512   0.6767 C.ar           1 S1                 0.0000
     10 ****         0.4756   1.0141   0.5097 N.am           1 S1                 0.0000
     11 ****         1.2166   1.8951  -0.1910 C.2            1 S1                 0.0000
     12 ****         0.7740   2.8806  -0.7751 O.2            1 S1                 0.0000
     13 ****         2.5327   1.6144  -0.2100 N.am           1 S1                 0.0000
     14 ****         3.6164   2.3510  -0.8683 C.3            1 S1                 0.0000
     15 ****         4.8196   1.4522  -1.2133 C.3            1 S1                 0.0000
     16 ****         6.0491   2.3074  -0.8924 C.3            1 S1                 0.0000
     17 ****         5.6000   3.1095   0.2511 N.4            1 S1                 1.0000
     18 ****         6.4408   4.2398   0.6945 C.3            1 S1                 0.0000
     19 ****         5.8576   4.7920   2.0129 C.3            1 S1                 0.0000
     20 ****         4.3525   5.1225   1.8938 C.3            1 S1                 0.0000
     21 ****         3.5496   3.9448   1.2997 C.3            1 S1                 0.0000
     22 ****         4.2073   3.5054  -0.0215 C.3            1 S1                 0.0000
     23 ****        -1.8737   1.6975  -0.0752 C.ar           1 S1                 0.0000
     24 ****        -3.2083   1.5980   0.0994 N.ar           1 S1                 0.0000
     25 ****        -6.0801  -2.0437  -0.7095 H              1 S1                 0.0000
     26 ****        -4.6714  -1.0324  -1.0032 H              1 S1                 0.0000
     27 ****        -6.2911  -0.3443  -1.1131 H              1 S1                 0.0000
     28 ****        -6.6290  -0.7527   1.3505 H              1 S1                 0.0000
     29 ****        -5.0446  -1.4537   1.4708 H              1 S1                 0.0000
     30 ****        -5.7739   2.0110  -0.2390 H              1 S1                 0.0000
     31 ****        -6.9703   1.4922   0.9165 H              1 S1                 0.0000
     32 ****        -6.3429   3.8314   1.3902 H              1 S1                 0.0000
     33 ****        -4.6497   3.3991   1.5658 H              1 S1                 0.0000
     34 ****        -5.8334   2.8137   2.7324 H              1 S1                 0.0000
     35 ****        -3.2191  -0.7265   2.5718 H              1 S1                 0.0000
     36 ****        -0.7648  -0.5424   2.2396 H              1 S1                 0.0000
     37 ****         0.9929   0.2949   0.9927 H              1 S1                 0.0000
     38 ****         2.8100   0.7722   0.2736 H              1 S1                 0.0000
     39 ****         3.2495   2.7670  -1.8085 H              1 S1                 0.0000
     40 ****         4.8250   0.5653  -0.5774 H              1 S1                 0.0000
     41 ****         4.8080   1.1126  -2.2496 H              1 S1                 0.0000
     42 ****         6.9277   1.7080  -0.6515 H              1 S1                 0.0000
     43 ****         6.2930   2.9618  -1.7308 H              1 S1                 0.0000
     44 ****         7.4651   3.8992   0.8492 H              1 S1                 0.0000
     45 ****         6.4681   5.0136  -0.0745 H              1 S1                 0.0000
     46 ****         5.9961   4.0514   2.8018 H              1 S1                 0.0000
     47 ****         6.4115   5.6779   2.3252 H              1 S1                 0.0000
     48 ****         3.9505   5.3946   2.8703 H              1 S1                 0.0000
     49 ****         4.2287   5.9989   1.2563 H              1 S1                 0.0000
     50 ****         3.5230   3.1147   2.0069 H              1 S1                 0.0000
     51 ****         2.5184   4.2558   1.1338 H              1 S1                 0.0000
     52 ****         4.2389   4.3765  -0.6798 H              1 S1                 0.0000
     53 ****        -1.5787   2.3833  -0.8526 H              1 S1                 0.0000
     54 ****         5.5569   2.4649   1.0274 H              1 S1                 0.0000
     55 ****        -5.1816   0.7435   2.1864 LP             1 S1                 0.0000
     56 ****        -0.2062   3.0774  -0.7517 LP             1 S1                 0.0000
     57 ****         1.3938   3.4863  -1.2742 LP             1 S1                 0.0000
     58 ****        -3.8344   2.1471  -0.4542 LP             1 S1                 0.0000
@<TRIPOS>BOND
    1    1    2 1     
    2    1   25 1     
    3    1   26 1     
    4    1   27 1     
    5    2    3 1     
    6    2   28 1     
    7    2   29 1     
    8    3    4 1     
    9    3    6 1     
   10    4    5 1     
   11    4   30 1     
   12    4   31 1     
   13    5   32 1     
   14    5   33 1     
   15    5   34 1     
   16    6   24 ar    
   17    6    7 ar    
   18    7    8 ar    
   19    7   35 1     
   20    8    9 ar    
   21    8   36 1     
   22    9   10 1     
   23    9   23 ar    
   24   10   11 am    
   25   10   37 1     
   26   11   12 2     
   27   11   13 am    
   28   13   14 1     
   29   13   38 1     
   30   14   22 1     
   31   14   15 1     
   32   14   39 1     
   33   15   16 1     
   34   15   40 1     
   35   15   41 1     
   36   16   17 1     
   37   16   42 1     
   38   16   43 1     
   39   17   22 1     
   40   17   18 1     
   41   17   54 1     
   42   18   19 1     
   43   18   44 1     
   44   18   45 1     
   45   19   20 1     
   46   19   46 1     
   47   19   47 1     
   48   20   21 1     
   49   20   48 1     
   50   20   49 1     
   51   21   22 1     
   52   21   50 1     
   53   21   51 1     
   54   22   52 1     
   55   23   24 ar    
   56   23   53 1     
   57    3   55 1     
   58   12   56 1     
   59   12   57 1     
   60   24   58 1     
@<TRIPOS>SUBSTRUCTURE
      1 S1             1
@<TRIPOS>SET
LONE_PAIRS      STATIC     ATOMS    <user>   **** ""
4 55 56 57 58
DONOR_HYDROGENS      STATIC     ATOMS    <user>   **** ""
3 37 38 54
ATOM$BLUE        STATIC     ATOMS    COLORGROUP SYSTEM
4 55 56 57 58
ATOM$RED        STATIC     ATOMS    COLORGROUP SYSTEM
3 37 38 54
