AV-unprocessed.smi:857|AV-procd|sdf|3961|dock2
  -GOLD-   22720 1433D 1   1.00000     0.00000
 Structure written by MMmdl.
 29 30  0  0  0  0  0  0  0  0  2 V2000
  151.5531  144.8834  159.5498 C   0  0  0  0  0  0  0  0  0  0  0  0
  151.8093  143.5105  158.9638 C   0  0  0  0  0  0  0  0  0  0  0  0
  152.8500  142.7043  159.4571 C   0  0  0  0  0  0  0  0  0  0  0  0
  153.0900  141.4182  158.9085 C   0  0  0  0  0  0  0  0  0  0  0  0
  154.2271  140.6173  159.4989 C   0  0  0  0  0  0  0  0  0  0  0  0
  154.8279  141.0166  160.5128 O   0  0  0  0  0  0  0  0  0  0  0  0
  154.5526  139.5420  158.9468 O   0  5  0  0  0  0  0  0  0  0  0  0
  152.2426  140.9661  157.8383 C   0  0  0  0  0  0  0  0  0  0  0  0
  152.0081  139.8369  156.9401 C   0  0  0  0  0  0  0  0  0  0  0  0
  152.6681  138.4977  156.7570 C   0  0  0  0  0  0  0  0  0  0  0  0
  150.9978  140.0743  156.1348 N   0  0  0  0  0  0  0  0  0  0  0  0
  150.5325  141.3052  156.4285 N   0  0  0  0  0  0  0  0  0  0  0  0
  149.3983  141.8202  155.6822 C   0  0  0  0  0  0  0  0  0  0  0  0
  148.9158  140.8132  154.6294 C   0  0  0  0  0  0  0  0  0  0  0  0
  149.7943  140.8172  153.5248 O   0  0  0  0  0  0  0  0  0  0  0  0
  151.2345  141.9061  157.4528 C   0  0  0  0  0  0  0  0  0  0  0  0
  150.9859  143.1434  157.9669 N   0  0  0  0  0  0  0  0  0  0  0  0
  152.2572  145.1116  160.3506 H   0  0  0  0  0  0  0  0  0  0  0  0
  150.5440  144.9382  159.9595 H   0  0  0  0  0  0  0  0  0  0  0  0
  151.6547  145.6492  158.7803 H   0  0  0  0  0  0  0  0  0  0  0  0
  153.4614  143.0857  160.2623 H   0  0  0  0  0  0  0  0  0  0  0  0
  153.4986  138.2872  157.4118 H   0  0  0  0  0  0  0  0  0  0  0  0
  153.0476  138.3950  155.7400 H   0  0  0  0  0  0  0  0  0  0  0  0
  151.9483  137.6930  156.9086 H   0  0  0  0  0  0  0  0  0  0  0  0
  148.5964  142.0514  156.3846 H   0  0  0  0  0  0  0  0  0  0  0  0
  149.6812  142.7621  155.2095 H   0  0  0  0  0  0  0  0  0  0  0  0
  148.8755  139.8072  155.0486 H   0  0  0  0  0  0  0  0  0  0  0  0
  147.9121  141.0661  154.2862 H   0  0  0  0  0  0  0  0  0  0  0  0
  149.5155  140.1504  152.9158 H   0  0  0  0  0  0  0  0  0  0  0  0
  1  2  1  0  0  0  0
  1 18  1  0  0  0  0
  1 19  1  0  0  0  0
  1 20  1  0  0  0  0
  2 17  1  0  0  0  0
  2  3  2  0  0  0  0
  3  4  1  0  0  0  0
  3 21  1  0  0  0  0
  4  5  1  0  0  0  0
  4  8  2  0  0  0  0
  5  6  2  0  0  0  0
  5  7  1  0  0  0  0
  8 16  1  0  0  0  0
  8  9  1  0  0  0  0
  9 10  1  0  0  0  0
  9 11  2  0  0  0  0
 10 22  1  0  0  0  0
 10 23  1  0  0  0  0
 10 24  1  0  0  0  0
 11 12  1  0  0  0  0
 12 13  1  0  0  0  0
 12 16  1  0  0  0  0
 13 14  1  0  0  0  0
 13 25  1  0  0  0  0
 13 26  1  0  0  0  0
 14 15  1  0  0  0  0
 14 27  1  0  0  0  0
 14 28  1  0  0  0  0
 15 29  1  0  0  0  0
 16 17  2  0  0  0  0
M  CHG  1   7  -1
M  END
> <s_m_source_file>
AV-unprocessed.smi

> <i_m_source_file_index>
857

> <i_lp_mmshare_version>
43012

> <i_f3d_flags>
0

> <s_epik_input>
Tz1DKFtPSF0pYzFbY0hdYyhbQ0gzXSluYyhjMTIpbihuYzJbQ0gzXSlbQ0gyXVtDSDJdW09IXQ==

> <s_epik_cmdline>
J2VwaWtfcHl0aG9uJywgJy1waCcsICc3LjAnLCAnLXRuJywgJzgnLCAnLW1hJywgJzIwMCcsICctbWV0YWxfYmluZGluZycsICctaW1hZScsICc8aW5maWxlLm1hZT4nLCAnLW9tYWUnLCAnPG91dGZpbGUubWFlPic=

> <r_lp_tautomer_probability>
1

> <r_epik_Ionization_Penalty>
0.000221063

> <r_epik_Ionization_Penalty_Charging>
0.000215421

> <r_epik_Ionization_Penalty_Neutral>
5.64189e-06

> <r_epik_State_Penalty>
-0

> <r_epik_Charging_Adjusted_Penalty>
0.000215421

> <i_epik_Tot_Q>
-1

> <i_epik_Tot_abs_Q>
1

> <r_epik_Metal_State_Penalty>
-0

> <b_epik_Metal_Only>
0

> <s_lp_Force_Field>
OPLS_2005

> <r_lp_Energy>
11.0008

> <b_lp_Chiralities_Consistent>
1

> <s_lp_Variant>
AV-unprocessed.smi:857-1

> <Gold.Version>
5.8.1

> <Gold.Id.Protein>
6NUR|6NUR_protein|mol2

> <Gold.PLP.Fitness>
44.4481

> <Gold.PLP.PLP>
-32.6493

> <Gold.PLP.part.hbond>
-3.6002

> <Gold.PLP.part.metal>
0.0000

> <Gold.PLP.part.buried>
-2.2632

> <Gold.PLP.part.nonpolar>
-25.3586

> <Gold.PLP.part.repulsive>
0.1215

> <Gold.PLP.ligand.clash>
0.0000

> <Gold.PLP.ligand.torsion>
0.0893

> <Gold.PLP.Chemscore.Hbond>
3.9920

> <Gold.PLP.Chemscore.CHOScore>
0.0000

> <Gold.PLP.Chemscore.Metal>
0.0000

> <Gold.Chemscore.Hbonds>
donor molecule, donor type, donor heavy atom, donor atom, acceptor molecule, acceptor atom, score
      L1  H    15    29       P1  7957  0.64
      P1  H  7989  7998       L1    15  0.35
      P1  H  7997  8008       L1     7  2.00
      P1  H  8011  8017       L1    15  1.00

> <Gold.PLP.Chemscore.Internal.Correction>
0.0014

> <Gold.Rescore>
     Score         DG    S(hbond)    S(metal)    S(lipo)     H(rot)  DE(clash)    DE(int)     intcor
     16.72     -16.95       2.20        0.00      75.60       1.84       0.04       0.19       ----

> <Gold.Chemscore.Fitness>
16.7187

> <Gold.Chemscore.DG>
-16.9513

> <Gold.Chemscore.ZeroCoef>
-5.4800

> <Gold.Chemscore.Hbond>
2.2001

> <Gold.Chemscore.Metal>
0.0000

> <Gold.Chemscore.Lipo>
75.6018

> <Gold.Chemscore.Internal_Hbond>
0.0000

> <Gold.Chemscore.DEClash>
0.0381

> <Gold.Chemscore.DEInternal>
0.1945

> <Gold.Chemscore.Rot>
1.8448

> <Gold.Chemscore.Internal.Correction>
   9.000000E+99

> <Gold.Chemscore.Hbonds>
donor molecule, donor type, donor heavy atom, donor atom, acceptor molecule, acceptor atom, score
      L1  H    15    29       P1  7957  0.64
      P1  H  7989  7998       L1    15  0.22
      P1  H  7997  8008       L1     7  0.48
      P1  H  8011  8017       L1    15  0.23

> <Gold.Chemscore.Hbond.Weighted>
-7.3485

> <Gold.Chemscore.Metal.Weighted>
-0.0000

> <Gold.Chemscore.Lipo.Weighted>
-8.8454

> <Gold.Chemscore.Internal_Hbond.Weighted>
0.0000

> <Gold.Chemscore.DEClash.Weighted>
0.0381

> <Gold.Chemscore.DEInternal.Weighted>
0.1945

> <Gold.Chemscore.Rot.Weighted>
4.7226

> <Gold.Chemscore.Internal.Correction.Weighted>
   9.000000E+99

> <Gold.Protein.RotatedTorsions>
[ 6907 6896 6895 6894 ] final  -10.61 input  -60.11 | X-H torsion
[ 7974 7965 7964 7962 ] final  166.00 input  175.53 | X-H torsion
[ 8008 7997 7996 7995 ] final -132.50 input   59.86 | X-H torsion
[ 10167 10162 10161 10158 ] final  158.16 input  -65.29 | X-H torsion
[ 10718 10713 10712 10709 ] final -124.45 input   66.30 | X-H torsion
[ 10763 10752 10751 10750 ] final -121.57 input  -60.55 | X-H torsion
[ 11005 11000 10999 10996 ] final -174.32 input  -57.11 | X-H torsion

> <Gold.Protein.ActiveResidues>
 VAL166  LYS551  ARG553  GLY616  TRP617  ASP618  TYR619  PRO620  LYS621  CYS622 
 ASP623  PHE694  ASN695  SER759  ASP760  ASP761  ALA762  ILE779  LEU786  VAL792 
 PHE793  MET794  SER795  GLU796  ALA797  LYS798  CYS799  TRP800  GLU811  SER814 

> <Gold.Protein.RotatedAtoms>
  151.3993  135.0968  159.9550 H   0  0  0  0  0  0  0  0  0  0  0  0  # atno 6907 bound_to 6896
  152.5055  133.8904  159.7401 H   0  0  0  0  0  0  0  0  0  0  0  0  # atno 6908 bound_to 6896
  150.9374  133.6639  159.2826 H   0  0  0  0  0  0  0  0  0  0  0  0  # atno 6909 bound_to 6896
  144.7480  139.8552  143.6376 H   0  0  0  0  0  0  0  0  0  0  0  0  # atno 7974 bound_to 7965
  155.3299  140.0466  157.3042 H   0  0  0  0  0  0  0  0  0  0  0  0  # atno 8008 bound_to 7997
  154.5334  140.2264  155.8731 H   0  0  0  0  0  0  0  0  0  0  0  0  # atno 8009 bound_to 7997
  156.1811  140.3073  155.9156 H   0  0  0  0  0  0  0  0  0  0  0  0  # atno 8010 bound_to 7997
  139.4825  144.4850  151.8390 H   0  0  0  0  0  0  0  0  0  0  0  0  # atno 10167 bound_to 10162
  156.1589  130.6587  151.0021 H   0  0  0  0  0  0  0  0  0  0  0  0  # atno 10718 bound_to 10713
  154.8671  135.4163  154.2642 H   0  0  0  0  0  0  0  0  0  0  0  0  # atno 10763 bound_to 10752
  153.3564  135.7001  153.6752 H   0  0  0  0  0  0  0  0  0  0  0  0  # atno 10764 bound_to 10752
  153.5671  135.3598  155.2795 H   0  0  0  0  0  0  0  0  0  0  0  0  # atno 10765 bound_to 10752
  140.4759  134.6122  157.4900 H   0  0  0  0  0  0  0  0  0  0  0  0  # atno 11005 bound_to 11000
  146.1388  139.4439  143.0122 LP  0  0  0  0  0  0  0  0  0  0  0  0  # atno 17320 bound_to 7965
  145.7051  141.0124  143.1483 LP  0  0  0  0  0  0  0  0  0  0  0  0  # atno 17321 bound_to 7965
  140.4329  144.2091  150.5888 LP  0  0  0  0  0  0  0  0  0  0  0  0  # atno 17342 bound_to 10162
  140.4761  143.2395  151.9021 LP  0  0  0  0  0  0  0  0  0  0  0  0  # atno 17343 bound_to 10162
  157.6717  131.0860  150.7596 LP  0  0  0  0  0  0  0  0  0  0  0  0  # atno 17370 bound_to 10713
  156.7660  130.4814  149.5427 LP  0  0  0  0  0  0  0  0  0  0  0  0  # atno 17371 bound_to 10713
  139.9856  134.7066  155.9779 LP  0  0  0  0  0  0  0  0  0  0  0  0  # atno 17394 bound_to 11000
  141.1555  133.6543  156.4147 LP  0  0  0  0  0  0  0  0  0  0  0  0  # atno 17395 bound_to 11000

$$$$
