AV-unprocessed.smi:714|AV-procd|sdf|3482|dock6
  -GOLD-   22720 0473D 1   1.00000     0.00000
 Structure written by MMmdl.
 38 39  0  0  0  0  0  0  0  0  1 V2000
  151.4548  145.3546  159.9541 C   0  0  0  0  0  0  0  0  0  0  0  0
  151.7878  144.4574  159.1955 C   0  0  0  0  0  0  0  0  0  0  0  0
  152.2082  143.3832  158.2801 C   0  0  0  0  0  0  0  0  0  0  0  0
  151.2133  142.3224  158.1696 N   0  0  0  0  0  0  0  0  0  0  0  0
  151.4508  141.0048  158.3007 C   0  0  0  0  0  0  0  0  0  0  0  0
  152.5749  140.5698  158.5565 O   0  0  0  0  0  0  0  0  0  0  0  0
  150.2628  140.1698  158.1046 C   0  0  0  0  0  0  0  0  0  0  0  0
  149.1244  140.5860  157.3022 C   0  0  0  0  0  0  0  0  0  0  0  0
  148.0713  139.7649  157.1340 C   0  0  0  0  0  0  0  0  0  0  0  0
  148.0206  138.4343  157.7451 C   0  0  0  0  0  0  0  0  0  0  0  0
  147.0624  137.6833  157.5599 O   0  0  0  0  0  0  0  0  0  0  0  0
  149.0999  138.0843  158.5213 N   0  0  0  0  0  0  0  0  0  0  0  0
  149.2026  136.7821  159.2286 C   0  0  2  0  0  0  0  0  0  0  0  0
  149.2202  135.5734  158.2709 C   0  0  0  0  0  0  0  0  0  0  0  0
  148.2042  134.5696  158.8367 C   0  0  0  0  0  0  0  0  0  0  0  0
  147.5233  135.2665  159.9159 N   0  0  0  0  0  0  0  0  0  0  0  0
  146.4003  134.6407  160.6109 C   0  0  0  0  0  0  0  0  0  0  0  0
  146.7523  134.2399  162.0556 C   0  0  0  0  0  0  0  0  0  0  0  0
  147.7662  133.3759  162.0295 F   0  0  0  0  0  0  0  0  0  0  0  0
  147.1194  135.2987  162.7770 F   0  0  0  0  0  0  0  0  0  0  0  0
  145.7087  133.6521  162.6410 F   0  0  0  0  0  0  0  0  0  0  0  0
  148.0408  136.4729  160.1719 C   0  0  0  0  0  0  0  0  0  0  0  0
  147.6672  137.2510  161.0490 O   0  0  0  0  0  0  0  0  0  0  0  0
  150.2042  138.9502  158.6745 C   0  0  0  0  0  0  0  0  0  0  0  0
  151.1681  146.1406  160.6162 H   0  0  0  0  0  0  0  0  0  0  0  0
  152.4375  143.8204  157.3071 H   0  0  0  0  0  0  0  0  0  0  0  0
  153.1342  142.9574  158.6661 H   0  0  0  0  0  0  0  0  0  0  0  0
  150.2677  142.6095  157.9635 H   0  0  0  0  0  0  0  0  0  0  0  0
  149.0956  141.5539  156.8236 H   0  0  0  0  0  0  0  0  0  0  0  0
  147.2378  140.0952  156.5315 H   0  0  0  0  0  0  0  0  0  0  0  0
  150.0970  136.7386  159.8515 H   0  0  0  0  0  0  0  0  0  0  0  0
  148.9442  135.8458  157.2518 H   0  0  0  0  0  0  0  0  0  0  0  0
  150.2167  135.1339  158.2148 H   0  0  0  0  0  0  0  0  0  0  0  0
  147.4946  134.2481  158.0735 H   0  0  0  0  0  0  0  0  0  0  0  0
  148.7057  133.6846  159.2303 H   0  0  0  0  0  0  0  0  0  0  0  0
  145.5583  135.3341  160.6189 H   0  0  0  0  0  0  0  0  0  0  0  0
  146.0669  133.7658  160.0508 H   0  0  0  0  0  0  0  0  0  0  0  0
  151.0054  138.5553  159.2831 H   0  0  0  0  0  0  0  0  0  0  0  0
  1  2  3  0  0  0  0
  1 25  1  0  0  0  0
  2  3  1  0  0  0  0
  3  4  1  0  0  0  0
  3 26  1  0  0  0  0
  3 27  1  0  0  0  0
  4  5  1  0  0  0  0
  4 28  1  0  0  0  0
  5  6  2  0  0  0  0
  5  7  1  0  0  0  0
  7 24  2  0  0  0  0
  7  8  1  0  0  0  0
  8  9  2  0  0  0  0
  8 29  1  0  0  0  0
  9 10  1  0  0  0  0
  9 30  1  0  0  0  0
 10 11  2  0  0  0  0
 10 12  1  0  0  0  0
 12 13  1  0  0  0  0
 12 24  1  0  0  0  0
 13 22  1  0  0  0  0
 13 14  1  0  0  0  0
 13 31  1  0  0  0  0
 14 15  1  0  0  0  0
 14 32  1  0  0  0  0
 14 33  1  0  0  0  0
 15 16  1  0  0  0  0
 15 34  1  0  0  0  0
 15 35  1  0  0  0  0
 16 17  1  0  0  0  0
 16 22  1  0  0  0  0
 17 18  1  0  0  0  0
 17 36  1  0  0  0  0
 17 37  1  0  0  0  0
 18 19  1  0  0  0  0
 18 20  1  0  0  0  0
 18 21  1  0  0  0  0
 22 23  2  0  0  0  0
 24 38  1  0  0  0  0
M  END
> <s_m_source_file>
AV-unprocessed.smi

> <i_m_source_file_index>
714

> <i_lp_mmshare_version>
43012

> <i_f3d_flags>
0

> <s_epik_input>
W0NIXSNDW0NIMl1bTkhdQyg9TyljMVtjSF1bY0hdYyg9TyluKFtjSF0xKVtDQEBIXTJbQ0gyXVtDSDJdTihDMj1PKVtDSDJdQyhGKShGKUY=

> <s_epik_cmdline>
J2VwaWtfcHl0aG9uJywgJy1waCcsICc3LjAnLCAnLXRuJywgJzgnLCAnLW1hJywgJzIwMCcsICctbWV0YWxfYmluZGluZycsICctaW1hZScsICc8aW5maWxlLm1hZT4nLCAnLW9tYWUnLCAnPG91dGZpbGUubWFlPic=

> <r_lp_tautomer_probability>
1

> <r_epik_Ionization_Penalty>
2.95503e-06

> <r_epik_Ionization_Penalty_Charging>
5.74209e-08

> <r_epik_Ionization_Penalty_Neutral>
2.89761e-06

> <r_epik_State_Penalty>
-0

> <r_epik_Charging_Adjusted_Penalty>
5.74209e-08

> <i_epik_Tot_Q>
0

> <i_epik_Tot_abs_Q>
0

> <r_epik_Metal_State_Penalty>
-0

> <b_epik_Metal_Only>
0

> <s_lp_Force_Field>
OPLS_2005

> <r_lp_Energy>
34.0974

> <b_lp_Chiralities_Consistent>
1

> <s_lp_Variant>
AV-unprocessed.smi:714-1

> <Gold.Version>
5.8.1

> <Gold.Id.Protein>
6NUR|6NUR_protein|mol2

> <Gold.PLP.Fitness>
47.3516

> <Gold.PLP.PLP>
-42.6492

> <Gold.PLP.part.hbond>
-2.0000

> <Gold.PLP.part.metal>
0.0000

> <Gold.PLP.part.buried>
-6.4845

> <Gold.PLP.part.nonpolar>
-35.0091

> <Gold.PLP.part.repulsive>
0.0495

> <Gold.PLP.ligand.clash>
0.0000

> <Gold.PLP.ligand.torsion>
0.4464

> <Gold.PLP.Chemscore.Hbond>
1.8080

> <Gold.PLP.Chemscore.CHOScore>
0.0000

> <Gold.PLP.Chemscore.Metal>
0.0000

> <Gold.Chemscore.Hbonds>
donor molecule, donor type, donor heavy atom, donor atom, acceptor molecule, acceptor atom, score
      P1  H  6931  6943       L1    23  0.86
      P1  H  6934  6947       L1    23  0.90

> <Gold.PLP.Chemscore.Internal.Correction>
0.1712

> <Gold.Rescore>
     Score         DG    S(hbond)    S(metal)    S(lipo)     H(rot)  DE(clash)    DE(int)     intcor
     13.40     -14.89       1.74        0.00      66.03       1.61       0.02       1.47       ----

> <Gold.Chemscore.Fitness>
13.4011

> <Gold.Chemscore.DG>
-14.8895

> <Gold.Chemscore.ZeroCoef>
-5.4800

> <Gold.Chemscore.Hbond>
1.7409

> <Gold.Chemscore.Metal>
0.0000

> <Gold.Chemscore.Lipo>
66.0303

> <Gold.Chemscore.Internal_Hbond>
0.0000

> <Gold.Chemscore.DEClash>
0.0158

> <Gold.Chemscore.DEInternal>
1.4726

> <Gold.Chemscore.Rot>
1.6136

> <Gold.Chemscore.Internal.Correction>
   9.000000E+99

> <Gold.Chemscore.Hbonds>
donor molecule, donor type, donor heavy atom, donor atom, acceptor molecule, acceptor atom, score
      P1  H  6931  6943       L1    23  0.80
      P1  H  6934  6947       L1    23  0.87

> <Gold.Chemscore.Hbond.Weighted>
-5.8147

> <Gold.Chemscore.Metal.Weighted>
-0.0000

> <Gold.Chemscore.Lipo.Weighted>
-7.7255

> <Gold.Chemscore.Internal_Hbond.Weighted>
0.0000

> <Gold.Chemscore.DEClash.Weighted>
0.0158

> <Gold.Chemscore.DEInternal.Weighted>
1.4726

> <Gold.Chemscore.Rot.Weighted>
4.1308

> <Gold.Chemscore.Internal.Correction.Weighted>
   9.000000E+99

> <Gold.Protein.RotatedTorsions>
[ 6907 6896 6895 6894 ] final  160.92 input  -60.11 | X-H torsion
[ 7974 7965 7964 7962 ] final  -96.05 input  175.53 | X-H torsion
[ 8008 7997 7996 7995 ] final  -76.07 input   59.86 | X-H torsion
[ 10167 10162 10161 10158 ] final -128.25 input  -65.29 | X-H torsion
[ 10718 10713 10712 10709 ] final  -94.17 input   66.30 | X-H torsion
[ 10763 10752 10751 10750 ] final -168.74 input  -60.55 | X-H torsion
[ 11005 11000 10999 10996 ] final  161.92 input  -57.11 | X-H torsion

> <Gold.Protein.ActiveResidues>
 VAL166  LYS551  ARG553  GLY616  TRP617  ASP618  TYR619  PRO620  LYS621  CYS622 
 ASP623  PHE694  ASN695  SER759  ASP760  ASP761  ALA762  ILE779  LEU786  VAL792 
 PHE793  MET794  SER795  GLU796  ALA797  LYS798  CYS799  TRP800  GLU811  SER814 

> <Gold.Protein.RotatedAtoms>
  151.9634  133.3702  159.4043 H   0  0  0  0  0  0  0  0  0  0  0  0  # atno 6907 bound_to 6896
  150.6960  134.4216  159.5217 H   0  0  0  0  0  0  0  0  0  0  0  0  # atno 6908 bound_to 6896
  152.1908  134.8673  160.0568 H   0  0  0  0  0  0  0  0  0  0  0  0  # atno 6909 bound_to 6896
  145.3520  140.9478  143.2549 H   0  0  0  0  0  0  0  0  0  0  0  0  # atno 7974 bound_to 7965
  154.5473  140.0733  156.8609 H   0  0  0  0  0  0  0  0  0  0  0  0  # atno 8008 bound_to 7997
  155.3063  140.3387  155.4227 H   0  0  0  0  0  0  0  0  0  0  0  0  # atno 8009 bound_to 7997
  156.1929  140.1693  156.8042 H   0  0  0  0  0  0  0  0  0  0  0  0  # atno 8010 bound_to 7997
  139.9522  143.6042  152.2471 H   0  0  0  0  0  0  0  0  0  0  0  0  # atno 10167 bound_to 10162
  156.0023  130.5057  150.5886 H   0  0  0  0  0  0  0  0  0  0  0  0  # atno 10718 bound_to 10713
  154.6597  135.2923  154.9882 H   0  0  0  0  0  0  0  0  0  0  0  0  # atno 10763 bound_to 10752
  154.0946  135.6585  153.4862 H   0  0  0  0  0  0  0  0  0  0  0  0  # atno 10764 bound_to 10752
  153.0422  135.5228  154.7542 H   0  0  0  0  0  0  0  0  0  0  0  0  # atno 10765 bound_to 10752
  140.2206  134.8199  157.3216 H   0  0  0  0  0  0  0  0  0  0  0  0  # atno 11005 bound_to 11000
  144.8710  139.5038  143.6767 LP  0  0  0  0  0  0  0  0  0  0  0  0  # atno 17320 bound_to 7965
  146.2964  139.7290  142.9124 LP  0  0  0  0  0  0  0  0  0  0  0  0  # atno 17321 bound_to 7965
  139.6619  144.7662  151.1946 LP  0  0  0  0  0  0  0  0  0  0  0  0  # atno 17342 bound_to 10162
  140.7579  143.5997  150.8712 LP  0  0  0  0  0  0  0  0  0  0  0  0  # atno 17343 bound_to 10162
  157.3755  131.0772  151.1522 LP  0  0  0  0  0  0  0  0  0  0  0  0  # atno 17370 bound_to 10713
  157.2261  130.6503  149.5830 LP  0  0  0  0  0  0  0  0  0  0  0  0  # atno 17371 bound_to 10713
  140.1854  134.4438  155.7747 LP  0  0  0  0  0  0  0  0  0  0  0  0  # atno 17394 bound_to 11000
  141.2223  133.7002  156.7938 LP  0  0  0  0  0  0  0  0  0  0  0  0  # atno 17395 bound_to 11000

$$$$
