AV-unprocessed.smi:1401|AV-procd|sdf|5695|dock10
  -GOLD-   22720 5323D 1   1.00000     0.00000
 Structure written by MMmdl.
 48 50  0  0  0  0  0  0  0  0  1 V2000
  145.3276  143.6356  158.9513 C   0  0  0  0  0  0  0  0  0  0  0  0
  145.3817  143.5981  157.4479 C   0  0  0  0  0  0  0  0  0  0  0  0
  146.2298  142.7790  156.9182 N   0  0  0  0  0  0  0  0  0  0  0  0
  146.3675  142.6733  155.5478 N   0  0  0  0  0  0  0  0  0  0  0  0
  147.4068  141.7267  155.1177 C   0  0  0  0  0  0  0  0  0  0  0  0
  148.3582  141.3530  156.2617 C   0  0  0  0  0  0  0  0  0  0  0  0
  148.3607  140.2086  156.7163 O   0  0  0  0  0  0  0  0  0  0  0  0
  149.1564  142.3335  156.7125 N   0  0  0  0  0  0  0  0  0  0  0  0
  150.0787  142.2410  157.8430 C   0  0  1  0  0  0  0  0  0  0  0  0
  151.0510  141.0785  157.5920 C   0  0  0  0  0  0  0  0  0  0  0  0
  150.8099  143.5945  158.0277 C   0  0  1  0  0  0  0  0  0  0  0  0
  150.2878  144.4757  159.1877 C   0  0  0  0  0  0  0  0  0  0  0  0
  151.5762  144.8710  159.9317 C   0  0  1  0  0  0  0  0  0  0  0  0
  152.0918  143.6534  160.7198 C   0  0  0  0  0  0  0  0  0  0  0  0
  152.6380  142.7395  159.6079 C   0  0  0  0  0  0  0  0  0  0  0  0
  152.3293  143.5378  158.3242 C   0  0  2  0  0  0  0  0  0  0  0  0
  152.5894  144.9648  158.7970 C   0  0  0  0  0  0  0  0  0  0  0  0
  145.6377  143.3807  154.6368 C   0  0  0  0  0  0  0  0  0  0  0  0
  145.7856  143.2462  153.4207 O   0  0  0  0  0  0  0  0  0  0  0  0
  144.6797  144.3065  155.2441 C   0  0  0  0  0  0  0  0  0  0  0  0
  143.9069  145.0784  154.3257 C   0  0  0  0  0  0  0  0  0  0  0  0
  143.2913  145.6968  153.5648 N   0  0  0  0  0  0  0  0  0  0  0  0
  144.5406  144.4250  156.5881 C   0  0  0  0  0  0  0  0  0  0  0  0
  143.5629  145.3745  157.2667 C   0  0  0  0  0  0  0  0  0  0  0  0
  144.3631  143.2779  159.3119 H   0  0  0  0  0  0  0  0  0  0  0  0
  145.4723  144.6511  159.3201 H   0  0  0  0  0  0  0  0  0  0  0  0
  146.1010  143.0116  159.4014 H   0  0  0  0  0  0  0  0  0  0  0  0
  146.9558  140.8074  154.7397 H   0  0  0  0  0  0  0  0  0  0  0  0
  147.9670  142.1460  154.2796 H   0  0  0  0  0  0  0  0  0  0  0  0
  149.0842  143.2359  156.2654 H   0  0  0  0  0  0  0  0  0  0  0  0
  149.5156  142.0083  158.7468 H   0  0  0  0  0  0  0  0  0  0  0  0
  151.7174  140.9281  158.4414 H   0  0  0  0  0  0  0  0  0  0  0  0
  151.6687  141.2586  156.7114 H   0  0  0  0  0  0  0  0  0  0  0  0
  150.5115  140.1438  157.4358 H   0  0  0  0  0  0  0  0  0  0  0  0
  150.6852  144.1601  157.1020 H   0  0  0  0  0  0  0  0  0  0  0  0
  149.7716  145.3542  158.7985 H   0  0  0  0  0  0  0  0  0  0  0  0
  149.5950  143.9541  159.8484 H   0  0  0  0  0  0  0  0  0  0  0  0
  151.4733  145.7720  160.5372 H   0  0  0  0  0  0  0  0  0  0  0  0
  152.8891  143.9414  161.4059 H   0  0  0  0  0  0  0  0  0  0  0  0
  151.3053  143.1739  161.3036 H   0  0  0  0  0  0  0  0  0  0  0  0
  153.7149  142.6108  159.7230 H   0  0  0  0  0  0  0  0  0  0  0  0
  152.1932  141.7455  159.6198 H   0  0  0  0  0  0  0  0  0  0  0  0
  152.9310  143.2341  157.4673 H   0  0  0  0  0  0  0  0  0  0  0  0
  152.3372  145.7233  158.0535 H   0  0  0  0  0  0  0  0  0  0  0  0
  153.6118  145.1289  159.1420 H   0  0  0  0  0  0  0  0  0  0  0  0
  142.8981  145.8606  156.5532 H   0  0  0  0  0  0  0  0  0  0  0  0
  144.1042  146.1564  157.8004 H   0  0  0  0  0  0  0  0  0  0  0  0
  142.9354  144.8401  157.9808 H   0  0  0  0  0  0  0  0  0  0  0  0
  1  2  1  0  0  0  0
  1 25  1  0  0  0  0
  1 26  1  0  0  0  0
  1 27  1  0  0  0  0
  2 23  1  0  0  0  0
  2  3  2  0  0  0  0
  3  4  1  0  0  0  0
  4  5  1  0  0  0  0
  4 18  1  0  0  0  0
  5  6  1  0  0  0  0
  5 28  1  0  0  0  0
  5 29  1  0  0  0  0
  6  7  2  0  0  0  0
  6  8  1  0  0  0  0
  8  9  1  0  0  0  0
  8 30  1  0  0  0  0
  9 10  1  0  0  0  0
  9 11  1  0  0  0  0
  9 31  1  0  0  0  0
 10 32  1  0  0  0  0
 10 33  1  0  0  0  0
 10 34  1  0  0  0  0
 11 16  1  0  0  0  0
 11 12  1  0  0  0  0
 11 35  1  0  0  0  0
 12 13  1  0  0  0  0
 12 36  1  0  0  0  0
 12 37  1  0  0  0  0
 13 17  1  0  0  0  0
 13 14  1  0  0  0  0
 13 38  1  0  0  0  0
 14 15  1  0  0  0  0
 14 39  1  0  0  0  0
 14 40  1  0  0  0  0
 15 16  1  0  0  0  0
 15 41  1  0  0  0  0
 15 42  1  0  0  0  0
 16 17  1  0  0  0  0
 16 43  1  0  0  0  0
 17 44  1  0  0  0  0
 17 45  1  0  0  0  0
 18 19  2  0  0  0  0
 18 20  1  0  0  0  0
 20 21  1  0  0  0  0
 20 23  2  0  0  0  0
 21 22  3  0  0  0  0
 23 24  1  0  0  0  0
 24 46  1  0  0  0  0
 24 47  1  0  0  0  0
 24 48  1  0  0  0  0
M  END
> <s_m_source_file>
AV-unprocessed.smi

> <i_m_source_file_index>
1401

> <i_lp_mmshare_version>
43012

> <i_f3d_flags>
0

> <s_epik_input>
TiNDYyhjMVtDSDNdKWMoPU8pbihuYzFbQ0gzXSlbQ0gyXUMoPU8pW05IXVtDQEhdKFtDSDNdKVtDQEhdKFtDSDJdW0NASF0yMylbQ0BIXShbQ0gyXTMpW0NIMl1bQ0gyXTI=

> <s_epik_cmdline>
J2VwaWtfcHl0aG9uJywgJy1waCcsICc3LjAnLCAnLXRuJywgJzgnLCAnLW1hJywgJzIwMCcsICctbWV0YWxfYmluZGluZycsICctaW1hZScsICc8aW5maWxlLm1hZT4nLCAnLW9tYWUnLCAnPG91dGZpbGUubWFlPic=

> <r_lp_tautomer_probability>
1

> <r_epik_Ionization_Penalty>
2.16501e-08

> <r_epik_Ionization_Penalty_Charging>
2.29436e-11

> <r_epik_Ionization_Penalty_Neutral>
2.16271e-08

> <r_epik_State_Penalty>
-0

> <r_epik_Charging_Adjusted_Penalty>
2.29436e-11

> <i_epik_Tot_Q>
0

> <i_epik_Tot_abs_Q>
0

> <r_epik_Metal_State_Penalty>
-0

> <b_epik_Metal_Only>
0

> <s_lp_Force_Field>
OPLS_2005

> <r_lp_Energy>
66.0828

> <b_lp_Chiralities_Consistent>
1

> <s_lp_Variant>
AV-unprocessed.smi:1401-8

> <Gold.Version>
5.8.1

> <Gold.Id.Protein>
6NUR|6NUR_protein|mol2

> <Gold.PLP.Fitness>
45.3771

> <Gold.PLP.PLP>
-45.3615

> <Gold.PLP.part.hbond>
-2.0000

> <Gold.PLP.part.metal>
0.0000

> <Gold.PLP.part.buried>
-6.1857

> <Gold.PLP.part.nonpolar>
-37.6111

> <Gold.PLP.part.repulsive>
0.5198

> <Gold.PLP.ligand.clash>
0.0000

> <Gold.PLP.ligand.torsion>
1.4960

> <Gold.PLP.Chemscore.Hbond>
1.0000

> <Gold.PLP.Chemscore.CHOScore>
0.0000

> <Gold.PLP.Chemscore.Metal>
0.0000

> <Gold.Chemscore.Hbonds>
donor molecule, donor type, donor heavy atom, donor atom, acceptor molecule, acceptor atom, score
      L1  H     8    30       P1  8028  1.00

> <Gold.PLP.Chemscore.Internal.Correction>
0.0077

> <Gold.Rescore>
     Score         DG    S(hbond)    S(metal)    S(lipo)     H(rot)  DE(clash)    DE(int)     intcor
     14.11     -16.86       0.99        0.00     104.69       1.63       0.02       2.73       ----

> <Gold.Chemscore.Fitness>
14.1114

> <Gold.Chemscore.DG>
-16.8595

> <Gold.Chemscore.ZeroCoef>
-5.4800

> <Gold.Chemscore.Hbond>
0.9874

> <Gold.Chemscore.Metal>
0.0000

> <Gold.Chemscore.Lipo>
104.6945

> <Gold.Chemscore.Internal_Hbond>
0.0000

> <Gold.Chemscore.DEClash>
0.0153

> <Gold.Chemscore.DEInternal>
2.7328

> <Gold.Chemscore.Rot>
1.6281

> <Gold.Chemscore.Internal.Correction>
   9.000000E+99

> <Gold.Chemscore.Hbonds>
donor molecule, donor type, donor heavy atom, donor atom, acceptor molecule, acceptor atom, score
      L1  H     8    30       P1  8028  0.99

> <Gold.Chemscore.Hbond.Weighted>
-3.2980

> <Gold.Chemscore.Metal.Weighted>
-0.0000

> <Gold.Chemscore.Lipo.Weighted>
-12.2493

> <Gold.Chemscore.Internal_Hbond.Weighted>
0.0000

> <Gold.Chemscore.DEClash.Weighted>
0.0153

> <Gold.Chemscore.DEInternal.Weighted>
2.7328

> <Gold.Chemscore.Rot.Weighted>
4.1678

> <Gold.Chemscore.Internal.Correction.Weighted>
   9.000000E+99

> <Gold.Protein.RotatedTorsions>
[ 6907 6896 6895 6894 ] final  -33.54 input  -60.11 | X-H torsion
[ 7974 7965 7964 7962 ] final   -6.93 input  175.53 | X-H torsion
[ 8008 7997 7996 7995 ] final -144.72 input   59.86 | X-H torsion
[ 10167 10162 10161 10158 ] final    3.36 input  -65.29 | X-H torsion
[ 10718 10713 10712 10709 ] final  104.60 input   66.30 | X-H torsion
[ 10763 10752 10751 10750 ] final  -74.57 input  -60.55 | X-H torsion
[ 11005 11000 10999 10996 ] final  -70.52 input  -57.11 | X-H torsion

> <Gold.Protein.ActiveResidues>
 VAL166  LYS551  ARG553  GLY616  TRP617  ASP618  TYR619  PRO620  LYS621  CYS622 
 ASP623  PHE694  ASN695  SER759  ASP760  ASP761  ALA762  ILE779  LEU786  VAL792 
 PHE793  MET794  SER795  GLU796  ALA797  LYS798  CYS799  TRP800  GLU811  SER814 

> <Gold.Protein.RotatedAtoms>
  151.0642  134.9756  159.8275 H   0  0  0  0  0  0  0  0  0  0  0  0  # atno 6907 bound_to 6896
  152.5400  134.2379  159.8861 H   0  0  0  0  0  0  0  0  0  0  0  0  # atno 6908 bound_to 6896
  151.2401  133.4361  159.2640 H   0  0  0  0  0  0  0  0  0  0  0  0  # atno 6909 bound_to 6896
  146.2319  140.2244  142.8338 H   0  0  0  0  0  0  0  0  0  0  0  0  # atno 7974 bound_to 7965
  155.5314  140.0600  157.2888 H   0  0  0  0  0  0  0  0  0  0  0  0  # atno 8008 bound_to 7997
  154.4483  140.1935  156.0543 H   0  0  0  0  0  0  0  0  0  0  0  0  # atno 8009 bound_to 7997
  156.0649  140.3267  155.7510 H   0  0  0  0  0  0  0  0  0  0  0  0  # atno 8010 bound_to 7997
  140.6589  143.7354  150.7703 H   0  0  0  0  0  0  0  0  0  0  0  0  # atno 10167 bound_to 10162
  157.6734  131.0808  150.5731 H   0  0  0  0  0  0  0  0  0  0  0  0  # atno 10718 bound_to 10713
  154.4748  135.5860  153.6347 H   0  0  0  0  0  0  0  0  0  0  0  0  # atno 10763 bound_to 10752
  152.9839  135.6075  154.3321 H   0  0  0  0  0  0  0  0  0  0  0  0  # atno 10764 bound_to 10752
  154.3206  135.2843  155.2500 H   0  0  0  0  0  0  0  0  0  0  0  0  # atno 10765 bound_to 10752
  141.1575  133.6792  156.6765 H   0  0  0  0  0  0  0  0  0  0  0  0  # atno 11005 bound_to 11000
  144.9607  140.8272  143.5515 LP  0  0  0  0  0  0  0  0  0  0  0  0  # atno 17320 bound_to 7965
  145.2214  139.2157  143.5091 LP  0  0  0  0  0  0  0  0  0  0  0  0  # atno 17321 bound_to 7965
  140.1020  143.4779  152.2420 LP  0  0  0  0  0  0  0  0  0  0  0  0  # atno 17342 bound_to 10162
  139.5818  144.7514  151.3620 LP  0  0  0  0  0  0  0  0  0  0  0  0  # atno 17343 bound_to 10162
  156.6032  130.4360  149.5889 LP  0  0  0  0  0  0  0  0  0  0  0  0  # atno 17370 bound_to 10713
  156.2489  130.6896  151.1627 LP  0  0  0  0  0  0  0  0  0  0  0  0  # atno 17371 bound_to 10713
  140.3135  134.8066  157.4195 LP  0  0  0  0  0  0  0  0  0  0  0  0  # atno 17394 bound_to 11000
  140.1158  134.5285  155.8226 LP  0  0  0  0  0  0  0  0  0  0  0  0  # atno 17395 bound_to 11000

$$$$
