#       Name:                AV-unprocessed.smi:2708
#       Creating user name   scv26
#       Creation time:       Fri Mar 27 14:49:46 2020


#       File generated by GOLD software.
#

@<TRIPOS>MOLECULE
AV-unprocessed.smi:2708
    42    42     1
SMALL
NO_CHARGES


@<TRIPOS>ATOM
      1 ****        -3.9031  -0.3796   0.7931 C.3            1 S1                 0.0000
      2 ****        -3.7707   1.0666   1.2994 C.3            1 S1                 0.0000
      3 ****        -2.3754   1.4957   1.2862 N.am           1 S1                 0.0000
      4 ****        -1.6993   1.9492   0.2189 C.2            1 S1                 0.0000
      5 ****        -2.1923   2.0591  -0.9037 O.2            1 S1                 0.0000
      6 ****        -0.2394   2.3392   0.4552 C.3            1 S1                 0.0000
      7 ****         0.6146   1.1097   0.5692 C.2            1 S1                 0.0000
      8 ****         0.8926   0.4031   1.7123 C.2            1 S1                 0.0000
      9 ****         1.9184  -0.9667   1.3945 S.3            1 S1                 0.0000
     10 ****         1.9458  -0.5247  -0.3167 C.2            1 S1                 0.0000
     11 ****         2.6856  -1.2801  -1.3947 C.3            1 S1                 0.0000
     12 ****         3.7366  -0.3627  -2.0493 C.3            1 S1                 0.0000
     13 ****         1.6871  -1.7995  -2.4473 C.3            1 S1                 0.0000
     14 ****         3.4295  -2.5023  -0.8140 C.3            1 S1                 0.0000
     15 ****         1.2252   0.5741  -0.5690 N.2            1 S1                 0.0000
     16 ****        -4.3777   1.2901   2.6877 C.2            1 S1                 0.0000
     17 ****        -3.8158   0.7300   3.6553 O.co2          1 S1                 0.0000
     18 ****        -5.3922   2.0176   2.7611 O.co2          1 S1                -1.0000
     19 ****        -4.3259   1.7068   0.6107 H              1 S1                 0.0000
     20 ****        -4.9435  -0.7063   0.8077 H              1 S1                 0.0000
     21 ****        -3.3285  -1.0713   1.4099 H              1 S1                 0.0000
     22 ****        -3.5454  -0.4734  -0.2326 H              1 S1                 0.0000
     23 ****        -1.8901   1.4464   2.1705 H              1 S1                 0.0000
     24 ****         0.1023   2.9746  -0.3632 H              1 S1                 0.0000
     25 ****        -0.1708   2.9421   1.3616 H              1 S1                 0.0000
     26 ****         0.5496   0.6005   2.7172 H              1 S1                 0.0000
     27 ****         4.2976  -0.8882  -2.8229 H              1 S1                 0.0000
     28 ****         4.4533   0.0063  -1.3146 H              1 S1                 0.0000
     29 ****         3.2724   0.5050  -2.5194 H              1 S1                 0.0000
     30 ****         1.1526  -0.9803  -2.9296 H              1 S1                 0.0000
     31 ****         0.9424  -2.4571  -1.9970 H              1 S1                 0.0000
     32 ****         2.1930  -2.3627  -3.2325 H              1 S1                 0.0000
     33 ****         3.9639  -3.0468  -1.5934 H              1 S1                 0.0000
     34 ****         2.7417  -3.2067  -0.3446 H              1 S1                 0.0000
     35 ****         4.1667  -2.2073  -0.0662 H              1 S1                 0.0000
     36 ****        -3.1468   1.8038  -1.0578 LP             1 S1                 0.0000
     37 ****        -1.6383   2.4036  -1.6615 LP             1 S1                 0.0000
     38 ****         1.1325   0.9728  -1.4814 LP             1 S1                 0.0000
     39 ****        -4.1768   0.8488   4.5803 LP             1 S1                 0.0000
     40 ****        -3.0058   0.1636   3.5036 LP             1 S1                 0.0000
     41 ****        -5.8201   2.1909   3.6482 LP             1 S1                 0.0000
     42 ****        -5.7756   2.4260   1.9327 LP             1 S1                 0.0000
@<TRIPOS>BOND
    1    1    2 1     
    2    1   20 1     
    3    1   21 1     
    4    1   22 1     
    5    2   19 1     
    6    2    3 1     
    7    2   16 1     
    8    3    4 am    
    9    3   23 1     
   10    4    5 2     
   11    4    6 1     
   12    6    7 1     
   13    6   24 1     
   14    6   25 1     
   15    7   15 1     
   16    7    8 2     
   17    8    9 1     
   18    8   26 1     
   19    9   10 1     
   20   10   11 1     
   21   10   15 2     
   22   11   12 1     
   23   11   13 1     
   24   11   14 1     
   25   12   27 1     
   26   12   28 1     
   27   12   29 1     
   28   13   30 1     
   29   13   31 1     
   30   13   32 1     
   31   14   33 1     
   32   14   34 1     
   33   14   35 1     
   34   16   17 ar    
   35   16   18 ar    
   36    5   36 1     
   37    5   37 1     
   38   15   38 1     
   39   17   39 1     
   40   17   40 1     
   41   18   41 1     
   42   18   42 1     
@<TRIPOS>SUBSTRUCTURE
      1 S1             1
@<TRIPOS>SET
LONE_PAIRS      STATIC     ATOMS    <user>   **** ""
7 36 37 38 39 40 41 42
DONOR_HYDROGENS      STATIC     ATOMS    <user>   **** ""
1 23
ATOM$BLUE        STATIC     ATOMS    COLORGROUP SYSTEM
7 36 37 38 39 40 41 42
ATOM$RED        STATIC     ATOMS    COLORGROUP SYSTEM
1 23
