AV-unprocessed.smi:609|AV-procd|sdf|3051|dock9
  -GOLD-   2262023573D 1   1.00000     0.00000
 Structure written by MMmdl.
 43 45  0  0  0  0  0  0  0  0  2 V2000
  152.3176  144.6065  161.4774 C   0  0  0  0  0  0  0  0  0  0  0  0
  152.1753  143.5232  160.4217 C   0  0  0  0  0  0  0  0  0  0  0  0
  151.2808  143.7405  159.3492 C   0  0  0  0  0  0  0  0  0  0  0  0
  151.1737  142.7324  158.3987 C   0  0  0  0  0  0  0  0  0  0  0  0
  150.3965  142.6435  157.2414 N   0  3  0  0  0  0  0  0  0  0  0  0
  150.6349  141.4527  156.6247 C   0  0  0  0  0  0  0  0  0  0  0  0
  151.5516  140.7806  157.3722 N   0  0  0  0  0  0  0  0  0  0  0  0
  152.1583  139.4604  157.1589 C   0  0  0  0  0  0  0  0  0  0  0  0
  151.7811  138.8410  155.7991 C   0  0  2  0  0  0  0  0  0  0  0  0
  152.1996  139.7017  154.7571 O   0  0  0  0  0  0  0  0  0  0  0  0
  150.2687  138.5972  155.6795 C   0  0  0  0  0  0  0  0  0  0  0  0
  149.7013  138.6738  153.9528 S   0  0  0  0  0  0  0  0  0  0  0  0
  148.5371  139.9999  154.0701 C   0  0  0  0  0  0  0  0  0  0  0  0
  148.8071  141.2199  154.5288 N   0  0  0  0  0  0  0  0  0  0  0  0
  147.6067  141.9156  154.4366 C   0  0  0  0  0  0  0  0  0  0  0  0
  146.6408  141.0871  153.9206 C   0  0  0  0  0  0  0  0  0  0  0  0
  147.2525  139.8620  153.6902 N   0  0  0  0  0  0  0  0  0  0  0  0
  146.6141  138.6789  153.1470 C   0  0  0  0  0  0  0  0  0  0  0  0
  151.9168  141.5396  158.4884 C   0  0  0  0  0  0  0  0  0  0  0  0
  152.8019  141.3082  159.5384 C   0  0  0  0  0  0  0  0  0  0  0  0
  152.9259  142.3223  160.5151 C   0  0  0  0  0  0  0  0  0  0  0  0
  153.8858  142.1000  161.6716 C   0  0  0  0  0  0  0  0  0  0  0  0
  151.7098  145.4799  161.2381 H   0  0  0  0  0  0  0  0  0  0  0  0
  153.3545  144.9342  161.5542 H   0  0  0  0  0  0  0  0  0  0  0  0
  151.9983  144.2347  162.4513 H   0  0  0  0  0  0  0  0  0  0  0  0
  150.7065  144.6521  159.2713 H   0  0  0  0  0  0  0  0  0  0  0  0
  150.1828  141.1057  155.7067 H   0  0  0  0  0  0  0  0  0  0  0  0
  153.2400  139.5581  157.2591 H   0  0  0  0  0  0  0  0  0  0  0  0
  151.8291  138.8137  157.9734 H   0  0  0  0  0  0  0  0  0  0  0  0
  152.3035  137.8911  155.6801 H   0  0  0  0  0  0  0  0  0  0  0  0
  153.0198  139.3790  154.4149 H   0  0  0  0  0  0  0  0  0  0  0  0
  150.0256  137.6097  156.0738 H   0  0  0  0  0  0  0  0  0  0  0  0
  149.7198  139.3268  156.2764 H   0  0  0  0  0  0  0  0  0  0  0  0
  147.5320  142.9479  154.7457 H   0  0  0  0  0  0  0  0  0  0  0  0
  145.5971  141.2630  153.7046 H   0  0  0  0  0  0  0  0  0  0  0  0
  145.5651  138.8824  152.9294 H   0  0  0  0  0  0  0  0  0  0  0  0
  146.6732  137.8636  153.8686 H   0  0  0  0  0  0  0  0  0  0  0  0
  147.1142  138.3800  152.2252 H   0  0  0  0  0  0  0  0  0  0  0  0
  153.3735  140.3945  159.6070 H   0  0  0  0  0  0  0  0  0  0  0  0
  154.3416  141.1104  161.6270 H   0  0  0  0  0  0  0  0  0  0  0  0
  153.3645  142.1822  162.6256 H   0  0  0  0  0  0  0  0  0  0  0  0
  154.6876  142.8382  161.6491 H   0  0  0  0  0  0  0  0  0  0  0  0
  149.7527  143.3428  156.8942 H   0  0  0  0  0  0  0  0  0  0  0  0
  1  2  1  0  0  0  0
  1 23  1  0  0  0  0
  1 24  1  0  0  0  0
  1 25  1  0  0  0  0
  2 21  1  0  0  0  0
  2  3  2  0  0  0  0
  3  4  1  0  0  0  0
  3 26  1  0  0  0  0
  4 19  2  0  0  0  0
  4  5  1  0  0  0  0
  5  6  2  0  0  0  0
  5 43  1  0  0  0  0
  6  7  1  0  0  0  0
  6 27  1  0  0  0  0
  7  8  1  0  0  0  0
  7 19  1  0  0  0  0
  8  9  1  0  0  0  0
  8 28  1  0  0  0  0
  8 29  1  0  0  0  0
  9 10  1  0  0  0  0
  9 11  1  0  0  0  0
  9 30  1  0  0  0  0
 10 31  1  0  0  0  0
 11 12  1  0  0  0  0
 11 32  1  0  0  0  0
 11 33  1  0  0  0  0
 12 13  1  0  0  0  0
 13 17  1  0  0  0  0
 13 14  2  0  0  0  0
 14 15  1  0  0  0  0
 15 16  2  0  0  0  0
 15 34  1  0  0  0  0
 16 17  1  0  0  0  0
 16 35  1  0  0  0  0
 17 18  1  0  0  0  0
 18 36  1  0  0  0  0
 18 37  1  0  0  0  0
 18 38  1  0  0  0  0
 19 20  1  0  0  0  0
 20 21  2  0  0  0  0
 20 39  1  0  0  0  0
 21 22  1  0  0  0  0
 22 40  1  0  0  0  0
 22 41  1  0  0  0  0
 22 42  1  0  0  0  0
M  CHG  1   5   1
M  END
> <s_m_source_file>
AV-unprocessed.smi

> <i_m_source_file_index>
609

> <i_lp_mmshare_version>
43012

> <i_f3d_flags>
0

> <s_epik_input>
W0NIM11jKFtjSF0xKWMoW0NIM10pW2NIXWMoYzEyKW4oW2NIXW4yKVtDSDJdW0NASF0oW09IXSlbQ0gyXVNjM25bY0hdW2NIXW4zW0NIM10=

> <s_epik_cmdline>
J2VwaWtfcHl0aG9uJywgJy1waCcsICc3LjAnLCAnLXRuJywgJzgnLCAnLW1hJywgJzIwMCcsICctbWV0YWxfYmluZGluZycsICctaW1hZScsICc8aW5maWxlLm1hZT4nLCAnLW9tYWUnLCAnPG91dGZpbGUubWFlPic=

> <r_epik_Ionization_Penalty>
2.09683

> <r_epik_Ionization_Penalty_Charging>
2.09682

> <r_epik_Ionization_Penalty_Neutral>
2.49751e-06

> <r_epik_State_Penalty>
2.21514

> <r_epik_Charging_Adjusted_Penalty>
4.31197

> <i_epik_Tot_Q>
1

> <i_epik_Tot_abs_Q>
1

> <r_epik_Metal_State_Penalty>
1.52634

> <b_epik_Metal_Only>
0

> <s_lp_Force_Field>
OPLS_2005

> <r_lp_Energy>
12.8682

> <b_lp_Chiralities_Consistent>
1

> <s_lp_Variant>
AV-unprocessed.smi:609-7

> <Gold.Version>
5.8.1

> <Gold.Id.Protein>
6NUR|6NUR_protein|mol2

> <Gold.PLP.Fitness>
58.9146

> <Gold.PLP.PLP>
-46.3931

> <Gold.PLP.part.hbond>
-2.0934

> <Gold.PLP.part.metal>
0.0000

> <Gold.PLP.part.buried>
-0.7285

> <Gold.PLP.part.nonpolar>
-44.1830

> <Gold.PLP.part.repulsive>
0.1642

> <Gold.PLP.ligand.clash>
0.0000

> <Gold.PLP.ligand.torsion>
0.8015

> <Gold.PLP.Chemscore.Hbond>
2.7200

> <Gold.PLP.Chemscore.CHOScore>
1.9863

> <Gold.PLP.Chemscore.Metal>
0.0000

> <Gold.Chemscore.Hbonds>
donor molecule, donor type, donor heavy atom, donor atom, acceptor molecule, acceptor atom, score
      L1  H     5    43       P1  8028  1.98
      P1  H  7989  7998       L1    10  0.78
      L1  C    15    34       P1  8028  1.00
      L1  C    16    35       P1 10175  1.00

> <Gold.PLP.Chemscore.Internal.Correction>
0.0054

> <Gold.Rescore>
     Score         DG    S(hbond)    S(metal)    S(lipo)     H(rot)  DE(clash)    DE(int)     intcor
     13.31     -18.28       1.46        0.00     122.13       2.48       0.88       4.10       ----

> <Gold.Chemscore.Fitness>
13.3090

> <Gold.Chemscore.DG>
-18.2834

> <Gold.Chemscore.ZeroCoef>
-5.4800

> <Gold.Chemscore.Hbond>
1.4551

> <Gold.Chemscore.Metal>
0.0000

> <Gold.Chemscore.Lipo>
122.1314

> <Gold.Chemscore.Internal_Hbond>
0.0000

> <Gold.Chemscore.DEClash>
0.8755

> <Gold.Chemscore.DEInternal>
4.0989

> <Gold.Chemscore.Rot>
2.4789

> <Gold.Chemscore.Internal.Correction>
   9.000000E+99

> <Gold.Chemscore.Hbonds>
donor molecule, donor type, donor heavy atom, donor atom, acceptor molecule, acceptor atom, score
      L1  H     5    43       P1  8028  0.92
      P1  H  7989  7998       L1    10  0.27

> <Gold.Chemscore.Hbond.Weighted>
-4.8599

> <Gold.Chemscore.Metal.Weighted>
-0.0000

> <Gold.Chemscore.Lipo.Weighted>
-14.2894

> <Gold.Chemscore.Internal_Hbond.Weighted>
0.0000

> <Gold.Chemscore.DEClash.Weighted>
0.8755

> <Gold.Chemscore.DEInternal.Weighted>
4.0989

> <Gold.Chemscore.Rot.Weighted>
6.3459

> <Gold.Chemscore.Internal.Correction.Weighted>
   9.000000E+99

> <Gold.Protein.RotatedTorsions>
[ 6907 6896 6895 6894 ] final   80.68 input  -60.11 | X-H torsion
[ 7974 7965 7964 7962 ] final  -34.82 input  175.53 | X-H torsion
[ 8008 7997 7996 7995 ] final  -27.91 input   59.86 | X-H torsion
[ 10167 10162 10161 10158 ] final  -37.16 input  -65.29 | X-H torsion
[ 10718 10713 10712 10709 ] final  149.80 input   66.30 | X-H torsion
[ 10763 10752 10751 10750 ] final  -14.22 input  -60.55 | X-H torsion
[ 11005 11000 10999 10996 ] final -122.90 input  -57.11 | X-H torsion

> <Gold.Protein.ActiveResidues>
 VAL166  LYS551  ARG553  GLY616  TRP617  ASP618  TYR619  PRO620  LYS621  CYS622 
 ASP623  PHE694  ASN695  SER759  ASP760  ASP761  ALA762  ILE779  LEU786  VAL792 
 PHE793  MET794  SER795  GLU796  ALA797  LYS798  CYS799  TRP800  GLU811  SER814 

> <Gold.Protein.RotatedAtoms>
  152.5243  134.3321  159.9186 H   0  0  0  0  0  0  0  0  0  0  0  0  # atno 6907 bound_to 6896
  151.3270  133.4010  159.2667 H   0  0  0  0  0  0  0  0  0  0  0  0  # atno 6908 bound_to 6896
  150.9912  134.9263  159.7958 H   0  0  0  0  0  0  0  0  0  0  0  0  # atno 6909 bound_to 6896
  146.0798  140.6085  142.8914 H   0  0  0  0  0  0  0  0  0  0  0  0  # atno 7974 bound_to 7965
  154.4356  140.1859  156.1006 H   0  0  0  0  0  0  0  0  0  0  0  0  # atno 8008 bound_to 7997
  156.0295  140.3332  155.7099 H   0  0  0  0  0  0  0  0  0  0  0  0  # atno 8009 bound_to 7997
  155.5859  140.0626  157.2762 H   0  0  0  0  0  0  0  0  0  0  0  0  # atno 8010 bound_to 7997
  140.7125  143.3360  151.2462 H   0  0  0  0  0  0  0  0  0  0  0  0  # atno 10167 bound_to 10162
  157.2916  131.0854  151.1458 H   0  0  0  0  0  0  0  0  0  0  0  0  # atno 10718 bound_to 10713
  153.5251  135.7015  153.5712 H   0  0  0  0  0  0  0  0  0  0  0  0  # atno 10763 bound_to 10752
  153.3744  135.3936  155.1812 H   0  0  0  0  0  0  0  0  0  0  0  0  # atno 10764 bound_to 10752
  154.8690  135.3820  154.4743 H   0  0  0  0  0  0  0  0  0  0  0  0  # atno 10765 bound_to 10752
  140.9960  134.0471  157.3597 H   0  0  0  0  0  0  0  0  0  0  0  0  # atno 11005 bound_to 11000
  144.7285  140.4600  143.6955 LP  0  0  0  0  0  0  0  0  0  0  0  0  # atno 17320 bound_to 7965
  145.6239  139.1527  143.3007 LP  0  0  0  0  0  0  0  0  0  0  0  0  # atno 17321 bound_to 7965
  139.6855  143.9781  152.2832 LP  0  0  0  0  0  0  0  0  0  0  0  0  # atno 17342 bound_to 10162
  139.9425  144.6672  150.8252 LP  0  0  0  0  0  0  0  0  0  0  0  0  # atno 17343 bound_to 10162
  157.2852  130.6769  149.6086 LP  0  0  0  0  0  0  0  0  0  0  0  0  # atno 17370 bound_to 10713
  155.9667  130.4437  150.5434 LP  0  0  0  0  0  0  0  0  0  0  0  0  # atno 17371 bound_to 10713
  139.9015  135.0166  156.7290 LP  0  0  0  0  0  0  0  0  0  0  0  0  # atno 17394 bound_to 11000
  140.6965  133.9344  155.7998 LP  0  0  0  0  0  0  0  0  0  0  0  0  # atno 17395 bound_to 11000

$$$$
