#       Name:                AV-unprocessed.smi:271
#       Creating user name   scv26
#       Creation time:       Thu Mar 26 21:28:57 2020


#       File generated by GOLD software.
#

@<TRIPOS>MOLECULE
AV-unprocessed.smi:271
    67    69     1
SMALL
NO_CHARGES


@<TRIPOS>ATOM
      1 ****        -5.4225  -1.0073   1.0787 C.3            1 S1                 0.0000
      2 ****        -3.9129  -1.1691   1.3249 C.3            1 S1                 0.0000
      3 ****        -3.6621  -1.8921   2.6571 C.3            1 S1                 0.0000
      4 ****        -3.1662   0.1789   1.2877 C.3            1 S1                 0.0000
      5 ****        -3.1204   0.8239  -0.1120 C.3            1 S1                 0.0000
      6 ****        -2.4048   2.0992  -0.1326 N.3            1 S1                 0.0000
      7 ****        -3.0703   3.2419   0.4957 C.3            1 S1                 0.0000
      8 ****        -2.5879   4.5921  -0.0568 C.3            1 S1                 0.0000
      9 ****        -3.3109   5.7276   0.5341 C.1            1 S1                 0.0000
     10 ****        -3.8805   6.6209   0.9991 N.1            1 S1                 0.0000
     11 ****        -1.0563   1.9887  -0.0040 C.ar           1 S1                 0.0000
     12 ****        -0.4351   2.5169   1.0847 N.ar           1 S1                 0.0000
     13 ****         0.8872   2.3973   1.2330 C.ar           1 S1                 0.0000
     14 ****         1.7657   1.7978   0.4278 N.ar           1 S1                 0.0000
     15 ****         1.1506   1.2647  -0.6660 C.ar           1 S1                 0.0000
     16 ****        -0.2422   1.3138  -0.9576 C.ar           1 S1                 0.0000
     17 ****        -0.4940   0.6720  -2.1648 N.2            1 S1                 0.0000
     18 ****         0.6797   0.2592  -2.5587 C.2            1 S1                 0.0000
     19 ****         1.7225   0.5661  -1.7149 N.pl3          1 S1                 0.0000
     20 ****         3.1224   0.2310  -1.9131 C.3            1 S1                 0.0000
     21 ****         3.4172  -1.2823  -1.7684 C.3            1 S1                 0.0000
     22 ****         4.9018  -1.5767  -2.0895 C.3            1 S1                 0.0000
     23 ****         5.1613  -1.3846  -3.4647 O.3            1 S1                 0.0000
     24 ****         2.9555  -1.8529  -0.3978 C.3            1 S1                 0.0000
     25 ****         2.9924  -3.3776  -0.2750 C.3            1 S1                 0.0000
     26 ****         3.7508  -3.6316   1.0276 C.3            1 S1                 0.0000
     27 ****         3.5913  -2.4273   1.7589 O.3            1 S1                 0.0000
     28 ****         3.7408  -1.3680   0.8285 C.3            1 S1                 0.0000
     29 ****        -5.8779  -0.3563   1.8255 H              1 S1                 0.0000
     30 ****        -5.9317  -1.9704   1.1248 H              1 S1                 0.0000
     31 ****        -5.6285  -0.5835   0.0963 H              1 S1                 0.0000
     32 ****        -3.5089  -1.8019   0.5336 H              1 S1                 0.0000
     33 ****        -4.0266  -1.3055   3.5011 H              1 S1                 0.0000
     34 ****        -2.5983  -2.0733   2.8124 H              1 S1                 0.0000
     35 ****        -4.1646  -2.8596   2.6820 H              1 S1                 0.0000
     36 ****        -3.6202   0.8656   2.0031 H              1 S1                 0.0000
     37 ****        -2.1431   0.0201   1.6306 H              1 S1                 0.0000
     38 ****        -2.6788   0.1278  -0.8240 H              1 S1                 0.0000
     39 ****        -4.1327   1.0068  -0.4712 H              1 S1                 0.0000
     40 ****        -4.1445   3.1568   0.3280 H              1 S1                 0.0000
     41 ****        -2.9293   3.2060   1.5768 H              1 S1                 0.0000
     42 ****        -1.5263   4.7474   0.1324 H              1 S1                 0.0000
     43 ****        -2.7327   4.6327  -1.1365 H              1 S1                 0.0000
     44 ****         1.2999   2.8444   2.1254 H              1 S1                 0.0000
     45 ****         0.8188  -0.2873  -3.4803 H              1 S1                 0.0000
     46 ****         3.4051   0.5811  -2.9064 H              1 S1                 0.0000
     47 ****         3.7249   0.8014  -1.2055 H              1 S1                 0.0000
     48 ****         2.8205  -1.7994  -2.5218 H              1 S1                 0.0000
     49 ****         5.5652  -0.9290  -1.5161 H              1 S1                 0.0000
     50 ****         5.1710  -2.6031  -1.8445 H              1 S1                 0.0000
     51 ****         6.0740  -1.5687  -3.6274 H              1 S1                 0.0000
     52 ****         1.9132  -1.5760  -0.2370 H              1 S1                 0.0000
     53 ****         1.9755  -3.7652  -0.2001 H              1 S1                 0.0000
     54 ****         3.4633  -3.8811  -1.1189 H              1 S1                 0.0000
     55 ****         3.3681  -4.4912   1.5782 H              1 S1                 0.0000
     56 ****         4.8114  -3.7961   0.8307 H              1 S1                 0.0000
     57 ****         4.8020  -1.2353   0.6185 H              1 S1                 0.0000
     58 ****         3.3560  -0.4308   1.2298 H              1 S1                 0.0000
     59 ****        -2.4900   2.4040  -1.0812 LP             1 S1                 0.0000
     60 ****        -4.3728   7.3930   1.4010 LP             1 S1                 0.0000
     61 ****        -0.9714   2.9977   1.7783 LP             1 S1                 0.0000
     62 ****         2.7488   1.7461   0.6037 LP             1 S1                 0.0000
     63 ****        -1.3734   0.5537  -2.6259 LP             1 S1                 0.0000
     64 ****         4.9581  -0.4385  -3.7171 LP             1 S1                 0.0000
     65 ****         4.5912  -2.0035  -4.0050 LP             1 S1                 0.0000
     66 ****         4.2890  -2.3614   2.4723 LP             1 S1                 0.0000
     67 ****         2.6833  -2.3945   2.1766 LP             1 S1                 0.0000
@<TRIPOS>BOND
    1    1    2 1     
    2    1   29 1     
    3    1   30 1     
    4    1   31 1     
    5    2    3 1     
    6    2    4 1     
    7    2   32 1     
    8    3   33 1     
    9    3   34 1     
   10    3   35 1     
   11    4    5 1     
   12    4   36 1     
   13    4   37 1     
   14    5    6 1     
   15    5   38 1     
   16    5   39 1     
   17    6    7 1     
   18    6   11 1     
   19    7    8 1     
   20    7   40 1     
   21    7   41 1     
   22    8    9 1     
   23    8   42 1     
   24    8   43 1     
   25    9   10 3     
   26   11   16 ar    
   27   11   12 ar    
   28   12   13 ar    
   29   13   14 ar    
   30   13   44 1     
   31   14   15 ar    
   32   15   19 1     
   33   15   16 ar    
   34   16   17 1     
   35   17   18 2     
   36   18   19 1     
   37   18   45 1     
   38   19   20 1     
   39   20   21 1     
   40   20   46 1     
   41   20   47 1     
   42   21   22 1     
   43   21   24 1     
   44   21   48 1     
   45   22   23 1     
   46   22   49 1     
   47   22   50 1     
   48   23   51 1     
   49   24   28 1     
   50   24   25 1     
   51   24   52 1     
   52   25   26 1     
   53   25   53 1     
   54   25   54 1     
   55   26   27 1     
   56   26   55 1     
   57   26   56 1     
   58   27   28 1     
   59   28   57 1     
   60   28   58 1     
   61    6   59 1     
   62   10   60 1     
   63   12   61 1     
   64   14   62 1     
   65   17   63 1     
   66   23   64 1     
   67   23   65 1     
   68   27   66 1     
   69   27   67 1     
@<TRIPOS>SUBSTRUCTURE
      1 S1             1
@<TRIPOS>SET
LONE_PAIRS      STATIC     ATOMS    <user>   **** ""
9 59 60 61 62 63 64 65 66 67
DONOR_HYDROGENS      STATIC     ATOMS    <user>   **** ""
1 51
ATOM$BLUE        STATIC     ATOMS    COLORGROUP SYSTEM
9 59 60 61 62 63 64 65 66 67
ATOM$RED        STATIC     ATOMS    COLORGROUP SYSTEM
1 51
