AV-unprocessed.smi:160|AV-procd|sdf|1347|dock6
  -GOLD-   2262019 53D 1   1.00000     0.00000
 Structure written by MMmdl.
 29 30  0  0  0  0  0  0  0  0  1 V2000
  152.3307  138.0054  158.3793 N   0  0  0  0  0  0  0  0  0  0  0  0
  152.1465  139.0411  157.5548 C   0  0  0  0  0  0  0  0  0  0  0  0
  152.6137  140.1561  157.7817 O   0  0  0  0  0  0  0  0  0  0  0  0
  151.3297  138.7671  156.3227 C   0  0  0  0  0  0  0  0  0  0  0  0
  151.0897  137.4968  155.8767 N   0  0  0  0  0  0  0  0  0  0  0  0
  150.3516  137.7874  154.8133 C   0  0  0  0  0  0  0  0  0  0  0  0
  150.1800  139.0986  154.6064 N   0  0  0  0  0  0  0  0  0  0  0  0
  149.3751  139.8293  153.5779 C   0  0  2  0  0  0  0  0  0  0  0  0
  149.3809  141.1889  153.9047 O   0  0  0  0  0  0  0  0  0  0  0  0
  148.1356  141.5867  154.4747 C   0  0  2  0  0  0  0  0  0  0  0  0
  148.1587  141.3968  156.0093 C   0  0  0  0  0  0  0  0  0  0  0  0
  149.0725  142.3019  156.5907 O   0  0  0  0  0  0  0  0  0  0  0  0
  147.1521  140.6838  153.7165 C   0  0  2  0  0  0  0  0  0  0  0  0
  145.9210  140.5150  154.3912 O   0  0  0  0  0  0  0  0  0  0  0  0
  147.9049  139.3661  153.5791 C   0  0  1  0  0  0  0  0  0  0  0  0
  147.5511  138.7387  152.3632 O   0  0  0  0  0  0  0  0  0  0  0  0
  150.7944  139.7625  155.6166 N   0  0  0  0  0  0  0  0  0  0  0  0
  149.9074  139.6551  152.6417 H   0  0  0  0  0  0  0  0  0  0  0  0
  147.9348  142.6334  154.2428 H   0  0  0  0  0  0  0  0  0  0  0  0
  146.9670  141.1187  152.7326 H   0  0  0  0  0  0  0  0  0  0  0  0
  147.7083  138.7115  154.4301 H   0  0  0  0  0  0  0  0  0  0  0  0
  152.8696  138.1238  159.2245 H   0  0  0  0  0  0  0  0  0  0  0  0
  151.9269  137.1089  158.1490 H   0  0  0  0  0  0  0  0  0  0  0  0
  149.9296  137.0287  154.1705 H   0  0  0  0  0  0  0  0  0  0  0  0
  147.1829  141.6263  156.4370 H   0  0  0  0  0  0  0  0  0  0  0  0
  148.3955  140.3757  156.3039 H   0  0  0  0  0  0  0  0  0  0  0  0
  148.8156  143.1805  156.3555 H   0  0  0  0  0  0  0  0  0  0  0  0
  145.2299  140.4958  153.7467 H   0  0  0  0  0  0  0  0  0  0  0  0
  148.2270  138.9185  151.7271 H   0  0  0  0  0  0  0  0  0  0  0  0
  1  2  1  0  0  0  0
  1 22  1  0  0  0  0
  1 23  1  0  0  0  0
  2  3  2  0  0  0  0
  2  4  1  0  0  0  0
  4 17  2  0  0  0  0
  4  5  1  0  0  0  0
  5  6  2  0  0  0  0
  6  7  1  0  0  0  0
  6 24  1  0  0  0  0
  7  8  1  0  0  0  0
  7 17  1  0  0  0  0
  8 18  1  0  0  0  0
  8 15  1  0  0  0  0
  8  9  1  0  0  0  0
  9 10  1  0  0  0  0
 10 19  1  0  0  0  0
 10 11  1  0  0  0  0
 10 13  1  0  0  0  0
 11 12  1  0  0  0  0
 11 25  1  0  0  0  0
 11 26  1  0  0  0  0
 12 27  1  0  0  0  0
 13 20  1  0  0  0  0
 13 14  1  0  0  0  0
 13 15  1  0  0  0  0
 14 28  1  0  0  0  0
 15 21  1  0  0  0  0
 15 16  1  0  0  0  0
 16 29  1  0  0  0  0
M  END
> <s_m_source_file>
AV-unprocessed.smi

> <i_m_source_file_index>
160

> <i_lp_mmshare_version>
43012

> <i_f3d_flags>
0

> <s_epik_input>
W05IMl1DKD1PKWMxbltjSF1uKG4xKVtDQEBIXTJPW0NASF0oW0NIMl1bT0hdKVtDQEBIXShbT0hdKVtDQEhdMltPSF0=

> <s_epik_cmdline>
J2VwaWtfcHl0aG9uJywgJy1waCcsICc3LjAnLCAnLXRuJywgJzgnLCAnLW1hJywgJzIwMCcsICctbWV0YWxfYmluZGluZycsICctaW1hZScsICc8aW5maWxlLm1hZT4nLCAnLW9tYWUnLCAnPG91dGZpbGUubWFlPic=

> <r_lp_tautomer_probability>
1

> <r_epik_Ionization_Penalty>
1.06932e-05

> <r_epik_Ionization_Penalty_Charging>
0

> <r_epik_Ionization_Penalty_Neutral>
1.06932e-05

> <r_epik_State_Penalty>
-0

> <r_epik_Charging_Adjusted_Penalty>
0

> <i_epik_Tot_Q>
0

> <i_epik_Tot_abs_Q>
0

> <r_epik_Metal_State_Penalty>
0.0142097

> <b_epik_Metal_Only>
0

> <s_epik_Chemistry_Notes>
This compound contains an acetal/aminal-like group ( X-CH(R)-Y where X, Y are N, S, or O) that may be acid/base labile, releasing an aldehyde.

> <s_lp_Force_Field>
OPLS_2005

> <r_lp_Energy>
36.3531

> <b_lp_Chiralities_Consistent>
1

> <s_lp_Variant>
AV-unprocessed.smi:160-5

> <Gold.Version>
5.8.1

> <Gold.Id.Protein>
6NUR|6NUR_protein|mol2

> <Gold.PLP.Fitness>
38.6016

> <Gold.PLP.PLP>
-21.3845

> <Gold.PLP.part.hbond>
-7.0000

> <Gold.PLP.part.metal>
0.0000

> <Gold.PLP.part.buried>
3.0927

> <Gold.PLP.part.nonpolar>
-18.2875

> <Gold.PLP.part.repulsive>
1.3589

> <Gold.PLP.ligand.clash>
0.0000

> <Gold.PLP.ligand.torsion>
0.1917

> <Gold.PLP.Chemscore.Hbond>
4.8480

> <Gold.PLP.Chemscore.CHOScore>
1.0000

> <Gold.PLP.Chemscore.Metal>
0.0000

> <Gold.Chemscore.Hbonds>
donor molecule, donor type, donor heavy atom, donor atom, acceptor molecule, acceptor atom, score
      L1  H    12    27       P1  8028  1.00
      L1  H    14    28       P1 10175  1.00
      L1  H    16    29       P1  7957  0.99
      P1  H  7989  7998       L1     9  0.01
      P1  H  7997  8009       L1     3  0.89
      P1  H  8011  8017       L1     9  0.84
      L1  C     6    24       P1  7948  0.83

> <Gold.PLP.Chemscore.Internal.Correction>
0.0565

> <Gold.Rescore>
     Score         DG    S(hbond)    S(metal)    S(lipo)     H(rot)  DE(clash)    DE(int)     intcor
     10.03     -12.07       4.25        0.00      23.78       4.06       1.76       0.28       ----

> <Gold.Chemscore.Fitness>
10.0324

> <Gold.Chemscore.DG>
-12.0652

> <Gold.Chemscore.ZeroCoef>
-5.4800

> <Gold.Chemscore.Hbond>
4.2505

> <Gold.Chemscore.Metal>
0.0000

> <Gold.Chemscore.Lipo>
23.7801

> <Gold.Chemscore.Internal_Hbond>
0.0000

> <Gold.Chemscore.DEClash>
1.7576

> <Gold.Chemscore.DEInternal>
0.2753

> <Gold.Chemscore.Rot>
4.0600

> <Gold.Chemscore.Internal.Correction>
   9.000000E+99

> <Gold.Chemscore.Hbonds>
donor molecule, donor type, donor heavy atom, donor atom, acceptor molecule, acceptor atom, score
      L1  H    12    27       P1  8028  0.97
      L1  H    14    28       P1 10175  0.96
      L1  H    16    29       P1  7957  0.81
      P1  H  7997  8009       L1     3  0.29
      P1  H  8011  8017       L1     9  0.48

> <Gold.Chemscore.Hbond.Weighted>
-14.1966

> <Gold.Chemscore.Metal.Weighted>
-0.0000

> <Gold.Chemscore.Lipo.Weighted>
-2.7823

> <Gold.Chemscore.Internal_Hbond.Weighted>
0.0000

> <Gold.Chemscore.DEClash.Weighted>
1.7576

> <Gold.Chemscore.DEInternal.Weighted>
0.2753

> <Gold.Chemscore.Rot.Weighted>
10.3936

> <Gold.Chemscore.Internal.Correction.Weighted>
   9.000000E+99

> <Gold.Protein.RotatedTorsions>
[ 6907 6896 6895 6894 ] final  -23.55 input  -60.11 | X-H torsion
[ 7974 7965 7964 7962 ] final -106.06 input  175.53 | X-H torsion
[ 8008 7997 7996 7995 ] final  174.34 input   59.86 | X-H torsion
[ 10167 10162 10161 10158 ] final    4.96 input  -65.29 | X-H torsion
[ 10718 10713 10712 10709 ] final   65.14 input   66.30 | X-H torsion
[ 10763 10752 10751 10750 ] final  126.08 input  -60.55 | X-H torsion
[ 11005 11000 10999 10996 ] final -113.92 input  -57.11 | X-H torsion

> <Gold.Protein.ActiveResidues>
 VAL166  LYS551  ARG553  GLY616  TRP617  ASP618  TYR619  PRO620  LYS621  CYS622 
 ASP623  PHE694  ASN695  SER759  ASP760  ASP761  ALA762  ILE779  LEU786  VAL792 
 PHE793  MET794  SER795  GLU796  ALA797  LYS798  CYS799  TRP800  GLU811  SER814 

> <Gold.Protein.RotatedAtoms>
  151.2023  135.0448  159.8877 H   0  0  0  0  0  0  0  0  0  0  0  0  # atno 6907 bound_to 6896
  152.5431  134.0836  159.8256 H   0  0  0  0  0  0  0  0  0  0  0  0  # atno 6908 bound_to 6896
  151.0978  133.5219  159.2643 H   0  0  0  0  0  0  0  0  0  0  0  0  # atno 6909 bound_to 6896
  145.2226  140.9140  143.3251 H   0  0  0  0  0  0  0  0  0  0  0  0  # atno 7974 bound_to 7965
  156.0984  140.1437  156.9500 H   0  0  0  0  0  0  0  0  0  0  0  0  # atno 8008 bound_to 7997
  154.4686  140.0917  156.7132 H   0  0  0  0  0  0  0  0  0  0  0  0  # atno 8009 bound_to 7997
  155.4802  140.3444  155.4341 H   0  0  0  0  0  0  0  0  0  0  0  0  # atno 8010 bound_to 7997
  140.6507  143.7551  150.7571 H   0  0  0  0  0  0  0  0  0  0  0  0  # atno 10167 bound_to 10162
  157.6086  130.9198  149.9938 H   0  0  0  0  0  0  0  0  0  0  0  0  # atno 10718 bound_to 10713
  153.6876  135.3304  155.3194 H   0  0  0  0  0  0  0  0  0  0  0  0  # atno 10763 bound_to 10752
  154.8449  135.4424  154.1541 H   0  0  0  0  0  0  0  0  0  0  0  0  # atno 10764 bound_to 10752
  153.2574  135.6987  153.7691 H   0  0  0  0  0  0  0  0  0  0  0  0  # atno 10765 bound_to 10752
  141.0584  133.9574  157.2711 H   0  0  0  0  0  0  0  0  0  0  0  0  # atno 11005 bound_to 11000
  144.9751  139.3840  143.6289 LP  0  0  0  0  0  0  0  0  0  0  0  0  # atno 17320 bound_to 7965
  146.3372  139.8867  142.8815 LP  0  0  0  0  0  0  0  0  0  0  0  0  # atno 17321 bound_to 7965
  140.1201  143.4620  152.2318 LP  0  0  0  0  0  0  0  0  0  0  0  0  # atno 17342 bound_to 10162
  139.5722  144.7469  151.3859 LP  0  0  0  0  0  0  0  0  0  0  0  0  # atno 17343 bound_to 10162
  156.1181  130.3647  149.9934 LP  0  0  0  0  0  0  0  0  0  0  0  0  # atno 17370 bound_to 10713
  156.8019  130.9293  151.3646 LP  0  0  0  0  0  0  0  0  0  0  0  0  # atno 17371 bound_to 10713
  139.9411  135.0191  156.8710 LP  0  0  0  0  0  0  0  0  0  0  0  0  # atno 17394 bound_to 11000
  140.5917  134.0255  155.7502 LP  0  0  0  0  0  0  0  0  0  0  0  0  # atno 17395 bound_to 11000

$$$$
