AV-unprocessed.smi:53|AV-procd|sdf|526|dock7
  -GOLD-   2262016403D 1   1.00000     0.00000
 Structure written by MMmdl.
 30 31  0  0  0  0  0  0  0  0  1 V2000
  152.4679  143.9694  158.9974 N   0  0  0  0  0  0  0  0  0  0  0  0
  152.0472  142.8668  158.3614 C   0  0  0  0  0  0  0  0  0  0  0  0
  150.7892  142.8702  157.6498 C   0  0  0  0  0  0  0  0  0  0  0  0
  150.4316  141.7217  157.0340 C   0  0  0  0  0  0  0  0  0  0  0  0
  151.2254  140.5821  157.0747 N   0  0  0  0  0  0  0  0  0  0  0  0
  150.8222  139.2870  156.3908 C   0  0  1  0  0  0  0  0  0  0  0  0
  149.4990  139.3772  155.9477 O   0  0  0  0  0  0  0  0  0  0  0  0
  149.4634  139.4946  154.5288 C   0  0  2  0  0  0  0  0  0  0  0  0
  148.0971  139.0642  153.9677 C   0  0  0  0  0  0  0  0  0  0  0  0
  148.1990  138.8168  152.5815 O   0  0  0  0  0  0  0  0  0  0  0  0
  150.6601  138.6442  154.0867 C   0  0  2  0  0  0  0  0  0  0  0  0
  150.3355  137.2653  154.0826 O   0  0  0  0  0  0  0  0  0  0  0  0
  151.6986  138.9457  155.1591 C   0  0  1  0  0  0  0  0  0  0  0  0
  152.5258  140.0139  154.7290 O   0  0  0  0  0  0  0  0  0  0  0  0
  152.4533  140.6120  157.7787 C   0  0  0  0  0  0  0  0  0  0  0  0
  153.1923  139.6293  157.8290 O   0  0  0  0  0  0  0  0  0  0  0  0
  152.7991  141.7839  158.3967 N   0  0  0  0  0  0  0  0  0  0  0  0
  150.8511  138.5204  157.1678 H   0  0  0  0  0  0  0  0  0  0  0  0
  149.6701  140.5297  154.2504 H   0  0  0  0  0  0  0  0  0  0  0  0
  151.0008  138.9113  153.0852 H   0  0  0  0  0  0  0  0  0  0  0  0
  152.3330  138.0866  155.3819 H   0  0  0  0  0  0  0  0  0  0  0  0
  153.3472  143.9638  159.4935 H   0  0  0  0  0  0  0  0  0  0  0  0
  151.9028  144.8061  158.9776 H   0  0  0  0  0  0  0  0  0  0  0  0
  150.1405  143.7329  157.5939 H   0  0  0  0  0  0  0  0  0  0  0  0
  149.4923  141.7203  156.5027 H   0  0  0  0  0  0  0  0  0  0  0  0
  147.7731  138.1368  154.4406 H   0  0  0  0  0  0  0  0  0  0  0  0
  147.3312  139.8159  154.1615 H   0  0  0  0  0  0  0  0  0  0  0  0
  148.6756  138.0108  152.4537 H   0  0  0  0  0  0  0  0  0  0  0  0
  149.9021  137.0605  153.2684 H   0  0  0  0  0  0  0  0  0  0  0  0
  153.3818  139.6638  154.5327 H   0  0  0  0  0  0  0  0  0  0  0  0
  1  2  1  0  0  0  0
  1 22  1  0  0  0  0
  1 23  1  0  0  0  0
  2 17  2  0  0  0  0
  2  3  1  0  0  0  0
  3  4  2  0  0  0  0
  3 24  1  0  0  0  0
  4  5  1  0  0  0  0
  4 25  1  0  0  0  0
  5  6  1  0  0  0  0
  5 15  1  0  0  0  0
  6 18  1  0  0  0  0
  6 13  1  0  0  0  0
  6  7  1  0  0  0  0
  7  8  1  0  0  0  0
  8 19  1  0  0  0  0
  8  9  1  0  0  0  0
  8 11  1  0  0  0  0
  9 10  1  0  0  0  0
  9 26  1  0  0  0  0
  9 27  1  0  0  0  0
 10 28  1  0  0  0  0
 11 20  1  0  0  0  0
 11 12  1  0  0  0  0
 11 13  1  0  0  0  0
 12 29  1  0  0  0  0
 13 21  1  0  0  0  0
 13 14  1  0  0  0  0
 14 30  1  0  0  0  0
 15 16  2  0  0  0  0
 15 17  1  0  0  0  0
M  END
> <s_m_source_file>
AV-unprocessed.smi

> <i_m_source_file_index>
53

> <i_lp_mmshare_version>
43012

> <i_f3d_flags>
0

> <s_epik_input>
W05IMl1jMVtjSF1bY0hdbihjKD1PKW4xKVtDQEBIXTJPW0NASF0oW0NIMl1bT0hdKVtDQEBIXShbT0hdKVtDQEBIXTJbT0hd

> <s_epik_cmdline>
J2VwaWtfcHl0aG9uJywgJy1waCcsICc3LjAnLCAnLXRuJywgJzgnLCAnLW1hJywgJzIwMCcsICctbWV0YWxfYmluZGluZycsICctaW1hZScsICc8aW5maWxlLm1hZT4nLCAnLW9tYWUnLCAnPG91dGZpbGUubWFlPic=

> <r_lp_tautomer_probability>
0.99996

> <r_epik_Ionization_Penalty>
0.00069087

> <r_epik_Ionization_Penalty_Charging>
2.61959e-08

> <r_epik_Ionization_Penalty_Neutral>
0.000690844

> <r_epik_State_Penalty>
1.15523e-05

> <r_epik_Charging_Adjusted_Penalty>
1.15785e-05

> <i_epik_Tot_Q>
0

> <i_epik_Tot_abs_Q>
0

> <r_epik_Metal_State_Penalty>
-0

> <b_epik_Metal_Only>
0

> <s_epik_Chemistry_Notes>
This compound contains an acetal/aminal-like group ( X-CH(R)-Y where X, Y are N, S, or O) that may be acid/base labile, releasing an aldehyde.

> <s_lp_Force_Field>
OPLS_2005

> <r_lp_Energy>
36.7572

> <b_lp_Chiralities_Consistent>
1

> <s_lp_Variant>
AV-unprocessed.smi:53-14

> <Gold.Version>
5.8.1

> <Gold.Id.Protein>
6NUR|6NUR_protein|mol2

> <Gold.PLP.Fitness>
37.8556

> <Gold.PLP.PLP>
-27.6549

> <Gold.PLP.part.hbond>
-5.6132

> <Gold.PLP.part.metal>
0.0000

> <Gold.PLP.part.buried>
-3.9766

> <Gold.PLP.part.nonpolar>
-17.8980

> <Gold.PLP.part.repulsive>
0.0163

> <Gold.PLP.ligand.clash>
0.0000

> <Gold.PLP.ligand.torsion>
0.2941

> <Gold.PLP.Chemscore.Hbond>
3.5760

> <Gold.PLP.Chemscore.CHOScore>
0.0000

> <Gold.PLP.Chemscore.Metal>
0.0000

> <Gold.Chemscore.Hbonds>
donor molecule, donor type, donor heavy atom, donor atom, acceptor molecule, acceptor atom, score
      L1  H    10    28       P1  7948  1.00
      L1  H    12    29       P1  7948  1.00
      P1  H  7989  7998       L1    14  0.51
      P1  H  7997  8010       L1    16  1.00

> <Gold.PLP.Chemscore.Internal.Correction>
0.0610

> <Gold.Rescore>
     Score         DG    S(hbond)    S(metal)    S(lipo)     H(rot)  DE(clash)    DE(int)     intcor
     11.24     -11.68       3.30        0.00      39.87       3.71       0.17       0.27       ----

> <Gold.Chemscore.Fitness>
11.2413

> <Gold.Chemscore.DG>
-11.6781

> <Gold.Chemscore.ZeroCoef>
-5.4800

> <Gold.Chemscore.Hbond>
3.3022

> <Gold.Chemscore.Metal>
0.0000

> <Gold.Chemscore.Lipo>
39.8741

> <Gold.Chemscore.Internal_Hbond>
0.0000

> <Gold.Chemscore.DEClash>
0.1669

> <Gold.Chemscore.DEInternal>
0.2699

> <Gold.Chemscore.Rot>
3.7095

> <Gold.Chemscore.Internal.Correction>
   9.000000E+99

> <Gold.Chemscore.Hbonds>
donor molecule, donor type, donor heavy atom, donor atom, acceptor molecule, acceptor atom, score
      L1  H    10    28       P1  7948  0.99
      L1  H    12    29       P1  7948  0.30
      P1  H  7989  7998       L1    14  0.33
      P1  H  7997  8010       L1    16  0.45

> <Gold.Chemscore.Hbond.Weighted>
-11.0292

> <Gold.Chemscore.Metal.Weighted>
-0.0000

> <Gold.Chemscore.Lipo.Weighted>
-4.6653

> <Gold.Chemscore.Internal_Hbond.Weighted>
0.0000

> <Gold.Chemscore.DEClash.Weighted>
0.1669

> <Gold.Chemscore.DEInternal.Weighted>
0.2699

> <Gold.Chemscore.Rot.Weighted>
9.4964

> <Gold.Chemscore.Internal.Correction.Weighted>
   9.000000E+99

> <Gold.Protein.RotatedTorsions>
[ 6907 6896 6895 6894 ] final   10.16 input  -60.11 | X-H torsion
[ 7974 7965 7964 7962 ] final   -5.03 input  175.53 | X-H torsion
[ 8008 7997 7996 7995 ] final   46.43 input   59.86 | X-H torsion
[ 10167 10162 10161 10158 ] final   84.68 input  -65.29 | X-H torsion
[ 10718 10713 10712 10709 ] final  120.77 input   66.30 | X-H torsion
[ 10763 10752 10751 10750 ] final   48.57 input  -60.55 | X-H torsion
[ 11005 11000 10999 10996 ] final   43.98 input  -57.11 | X-H torsion

> <Gold.Protein.ActiveResidues>
 VAL166  LYS551  ARG553  GLY616  TRP617  ASP618  TYR619  PRO620  LYS621  CYS622 
 ASP623  PHE694  ASN695  SER759  ASP760  ASP761  ALA762  ILE779  LEU786  VAL792 
 PHE793  MET794  SER795  GLU796  ALA797  LYS798  CYS799  TRP800  GLU811  SER814 

> <Gold.Protein.RotatedAtoms>
  151.7338  135.0869  160.0304 H   0  0  0  0  0  0  0  0  0  0  0  0  # atno 6907 bound_to 6896
  152.3524  133.6191  159.5963 H   0  0  0  0  0  0  0  0  0  0  0  0  # atno 6908 bound_to 6896
  150.7548  133.9470  159.3515 H   0  0  0  0  0  0  0  0  0  0  0  0  # atno 6909 bound_to 6896
  146.2361  140.1961  142.8333 H   0  0  0  0  0  0  0  0  0  0  0  0  # atno 7974 bound_to 7965
  155.3524  140.3414  155.4239 H   0  0  0  0  0  0  0  0  0  0  0  0  # atno 8008 bound_to 7997
  156.1757  140.1647  156.8402 H   0  0  0  0  0  0  0  0  0  0  0  0  # atno 8009 bound_to 7997
  154.5279  140.0752  156.8275 H   0  0  0  0  0  0  0  0  0  0  0  0  # atno 8010 bound_to 7997
  139.9055  144.6303  150.8591 H   0  0  0  0  0  0  0  0  0  0  0  0  # atno 10167 bound_to 10162
  157.5867  131.1069  150.8081 H   0  0  0  0  0  0  0  0  0  0  0  0  # atno 10718 bound_to 10713
  152.9791  135.5940  154.3947 H   0  0  0  0  0  0  0  0  0  0  0  0  # atno 10763 bound_to 10752
  154.3598  135.2767  155.2328 H   0  0  0  0  0  0  0  0  0  0  0  0  # atno 10764 bound_to 10752
  154.4330  135.6032  153.6135 H   0  0  0  0  0  0  0  0  0  0  0  0  # atno 10765 bound_to 10752
  140.1594  134.4360  155.8328 H   0  0  0  0  0  0  0  0  0  0  0  0  # atno 11005 bound_to 11000
  144.9819  140.8467  143.5392 LP  0  0  0  0  0  0  0  0  0  0  0  0  # atno 17320 bound_to 7965
  145.1955  139.2279  143.5220 LP  0  0  0  0  0  0  0  0  0  0  0  0  # atno 17321 bound_to 7965
  140.7697  143.3404  151.2219 LP  0  0  0  0  0  0  0  0  0  0  0  0  # atno 17342 bound_to 10162
  139.6988  143.9568  152.2895 LP  0  0  0  0  0  0  0  0  0  0  0  0  # atno 17343 bound_to 10162
  156.8514  130.5081  149.5311 LP  0  0  0  0  0  0  0  0  0  0  0  0  # atno 17370 bound_to 10713
  156.0916  130.5900  150.9743 LP  0  0  0  0  0  0  0  0  0  0  0  0  # atno 17371 bound_to 10713
  141.2208  133.6907  156.7566 LP  0  0  0  0  0  0  0  0  0  0  0  0  # atno 17394 bound_to 11000
  140.2508  134.8542  157.3665 LP  0  0  0  0  0  0  0  0  0  0  0  0  # atno 17395 bound_to 11000

$$$$
