AV-unprocessed.smi:2524|AV-procd|sdf|9924|dock8
  -GOLD-   2272013563D 1   1.00000     0.00000
 Structure written by MMmdl.
 35 36  0  0  0  0  0  0  0  0  2 V2000
  145.3411  134.8121  162.6729 C   0  0  0  0  0  0  0  0  0  0  0  0
  146.6778  134.7104  162.7174 C   0  0  0  0  0  0  0  0  0  0  0  0
  147.5185  134.0011  161.6767 C   0  0  0  0  0  0  0  0  0  0  0  0
  147.4538  134.7030  160.3147 C   0  0  0  0  0  0  0  0  0  0  0  0
  148.1449  136.4153  160.4163 S   0  0  0  0  0  0  0  0  0  0  0  0
  147.1073  137.3127  159.8802 O   0  0  0  0  0  0  0  0  0  0  0  0
  148.5033  136.6005  161.8306 O   0  0  0  0  0  0  0  0  0  0  0  0
  149.4727  136.3080  159.4854 N   0  5  0  0  0  0  0  0  0  0  0  0
  149.5379  136.9618  158.1830 C   0  0  0  0  0  0  0  0  0  0  0  0
  150.8821  137.6819  157.9439 C   0  0  0  0  0  0  0  0  0  0  0  0
  150.7576  138.6844  156.8193 C   0  0  0  0  0  0  0  0  0  0  0  0
  150.2864  138.3006  155.5420 C   0  0  0  0  0  0  0  0  0  0  0  0
  150.2029  139.2698  154.5229 C   0  0  0  0  0  0  0  0  0  0  0  0
  150.5586  140.5599  154.6957 N   0  0  0  0  0  0  0  0  0  0  0  0
  151.0169  140.9273  155.9107 C   0  0  0  0  0  0  0  0  0  0  0  0
  151.1379  140.0355  156.9947 C   0  0  0  0  0  0  0  0  0  0  0  0
  151.8248  138.0233  159.0888 C   0  0  0  0  0  0  0  0  0  0  0  0
  152.2122  136.9572  158.0917 C   0  0  0  0  0  0  0  0  0  0  0  0
  144.7720  134.3771  161.8645 H   0  0  0  0  0  0  0  0  0  0  0  0
  144.7984  135.3331  163.4477 H   0  0  0  0  0  0  0  0  0  0  0  0
  147.2138  135.1584  163.5415 H   0  0  0  0  0  0  0  0  0  0  0  0
  148.5532  133.9444  162.0172 H   0  0  0  0  0  0  0  0  0  0  0  0
  147.1601  132.9754  161.5859 H   0  0  0  0  0  0  0  0  0  0  0  0
  148.0275  134.1525  159.5690 H   0  0  0  0  0  0  0  0  0  0  0  0
  146.4226  134.7628  159.9668 H   0  0  0  0  0  0  0  0  0  0  0  0
  149.4016  136.2462  157.3715 H   0  0  0  0  0  0  0  0  0  0  0  0
  148.7357  137.6920  158.0718 H   0  0  0  0  0  0  0  0  0  0  0  0
  149.9895  137.2801  155.3489 H   0  0  0  0  0  0  0  0  0  0  0  0
  149.8419  139.0002  153.5414 H   0  0  0  0  0  0  0  0  0  0  0  0
  151.2977  141.9641  156.0227 H   0  0  0  0  0  0  0  0  0  0  0  0
  151.5123  140.3826  157.9466 H   0  0  0  0  0  0  0  0  0  0  0  0
  152.3656  138.9663  159.0377 H   0  0  0  0  0  0  0  0  0  0  0  0
  151.6030  137.6815  160.0988 H   0  0  0  0  0  0  0  0  0  0  0  0
  152.2382  135.9344  158.4654 H   0  0  0  0  0  0  0  0  0  0  0  0
  153.0062  137.2042  157.3897 H   0  0  0  0  0  0  0  0  0  0  0  0
  1  2  2  0  0  0  0
  1 19  1  0  0  0  0
  1 20  1  0  0  0  0
  2  3  1  0  0  0  0
  2 21  1  0  0  0  0
  3  4  1  0  0  0  0
  3 22  1  0  0  0  0
  3 23  1  0  0  0  0
  4  5  1  0  0  0  0
  4 24  1  0  0  0  0
  4 25  1  0  0  0  0
  5  6  2  0  0  0  0
  5  7  2  0  0  0  0
  5  8  1  0  0  0  0
  8  9  1  0  0  0  0
  9 10  1  0  0  0  0
  9 26  1  0  0  0  0
  9 27  1  0  0  0  0
 10 18  1  0  0  0  0
 10 11  1  0  0  0  0
 10 17  1  0  0  0  0
 11 16  1  0  0  0  0
 11 12  2  0  0  0  0
 12 13  1  0  0  0  0
 12 28  1  0  0  0  0
 13 14  2  0  0  0  0
 13 29  1  0  0  0  0
 14 15  1  0  0  0  0
 15 16  2  0  0  0  0
 15 30  1  0  0  0  0
 16 31  1  0  0  0  0
 17 18  1  0  0  0  0
 17 32  1  0  0  0  0
 17 33  1  0  0  0  0
 18 34  1  0  0  0  0
 18 35  1  0  0  0  0
M  CHG  1   8  -1
M  END
> <s_m_source_file>
AV-unprocessed.smi

> <i_m_source_file_index>
2524

> <i_lp_mmshare_version>
43012

> <i_f3d_flags>
0

> <s_epik_input>
W0NIMl09W0NIXVtDSDJdW0NIMl1TKD1PKSg9TylbTkhdW0NIMl1DMShbQ0gyXVtDSDJdMSljMltjSF1bY0hdbltjSF1bY0hdMg==

> <s_epik_cmdline>
J2VwaWtfcHl0aG9uJywgJy1waCcsICc3LjAnLCAnLXRuJywgJzgnLCAnLW1hJywgJzIwMCcsICctbWV0YWxfYmluZGluZycsICctaW1hZScsICc8aW5maWxlLm1hZT4nLCAnLW9tYWUnLCAnPG91dGZpbGUubWFlPic=

> <r_epik_Ionization_Penalty>
6.82782

> <r_epik_Ionization_Penalty_Charging>
6.77146

> <r_epik_Ionization_Penalty_Neutral>
0.0563627

> <r_epik_State_Penalty>
6.80009

> <r_epik_Charging_Adjusted_Penalty>
13.5715

> <i_epik_Tot_Q>
-1

> <i_epik_Tot_abs_Q>
1

> <r_epik_Metal_State_Penalty>
2.75227

> <b_epik_Metal_Only>
1

> <s_lp_Force_Field>
OPLS_2005

> <r_lp_Energy>
12.2049

> <b_lp_Chiralities_Consistent>
1

> <s_lp_Variant>
AV-unprocessed.smi:2524-3

> <Gold.Version>
5.8.1

> <Gold.Id.Protein>
6NUR|6NUR_protein|mol2

> <Gold.PLP.Fitness>
47.3347

> <Gold.PLP.PLP>
-31.3570

> <Gold.PLP.part.hbond>
-4.0000

> <Gold.PLP.part.metal>
0.0000

> <Gold.PLP.part.buried>
-4.0709

> <Gold.PLP.part.nonpolar>
-23.4703

> <Gold.PLP.part.repulsive>
0.1020

> <Gold.PLP.ligand.clash>
0.0000

> <Gold.PLP.ligand.torsion>
1.7455

> <Gold.PLP.Chemscore.Hbond>
4.9920

> <Gold.PLP.Chemscore.CHOScore>
0.6915

> <Gold.PLP.Chemscore.Metal>
0.0000

> <Gold.Chemscore.Hbonds>
donor molecule, donor type, donor heavy atom, donor atom, acceptor molecule, acceptor atom, score
      P1  H  6896  6908       L1     8  2.00
      P1  H  6931  6943       L1     7  1.00
      P1  H  6934  6947       L1     6  1.00
      P1  H  7989  7998       L1    14  0.99
      L1  C    13    29       P1  7957  0.82

> <Gold.PLP.Chemscore.Internal.Correction>
2.4183

> <Gold.Rescore>
     Score         DG    S(hbond)    S(metal)    S(lipo)     H(rot)  DE(clash)    DE(int)     intcor
     15.58     -18.67       2.57        0.00      74.28       1.59       0.04       3.05       ----

> <Gold.Chemscore.Fitness>
15.5769

> <Gold.Chemscore.DG>
-18.6693

> <Gold.Chemscore.ZeroCoef>
-5.4800

> <Gold.Chemscore.Hbond>
2.5660

> <Gold.Chemscore.Metal>
0.0000

> <Gold.Chemscore.Lipo>
74.2846

> <Gold.Chemscore.Internal_Hbond>
0.0000

> <Gold.Chemscore.DEClash>
0.0419

> <Gold.Chemscore.DEInternal>
3.0505

> <Gold.Chemscore.Rot>
1.5908

> <Gold.Chemscore.Internal.Correction>
   9.000000E+99

> <Gold.Chemscore.Hbonds>
donor molecule, donor type, donor heavy atom, donor atom, acceptor molecule, acceptor atom, score
      P1  H  6896  6908       L1     8  0.82
      P1  H  6931  6943       L1     7  0.45
      P1  H  6934  6947       L1     6  0.60
      P1  H  7989  7998       L1    14  0.44

> <Gold.Chemscore.Hbond.Weighted>
-8.5704

> <Gold.Chemscore.Metal.Weighted>
-0.0000

> <Gold.Chemscore.Lipo.Weighted>
-8.6913

> <Gold.Chemscore.Internal_Hbond.Weighted>
0.0000

> <Gold.Chemscore.DEClash.Weighted>
0.0419

> <Gold.Chemscore.DEInternal.Weighted>
3.0505

> <Gold.Chemscore.Rot.Weighted>
4.0724

> <Gold.Chemscore.Internal.Correction.Weighted>
   9.000000E+99

> <Gold.Protein.RotatedTorsions>
[ 6907 6896 6895 6894 ] final -171.07 input  -60.11 | X-H torsion
[ 7974 7965 7964 7962 ] final  -33.03 input  175.53 | X-H torsion
[ 8008 7997 7996 7995 ] final -117.79 input   59.86 | X-H torsion
[ 10167 10162 10161 10158 ] final  167.46 input  -65.29 | X-H torsion
[ 10718 10713 10712 10709 ] final  173.95 input   66.30 | X-H torsion
[ 10763 10752 10751 10750 ] final  -98.63 input  -60.55 | X-H torsion
[ 11005 11000 10999 10996 ] final  171.72 input  -57.11 | X-H torsion

> <Gold.Protein.ActiveResidues>
 VAL166  LYS551  ARG553  GLY616  TRP617  ASP618  TYR619  PRO620  LYS621  CYS622 
 ASP623  PHE694  ASN695  SER759  ASP760  ASP761  ALA762  ILE779  LEU786  VAL792 
 PHE793  MET794  SER795  GLU796  ALA797  LYS798  CYS799  TRP800  GLU811  SER814 

> <Gold.Protein.RotatedAtoms>
  151.5179  133.3472  159.2895 H   0  0  0  0  0  0  0  0  0  0  0  0  # atno 6907 bound_to 6896
  150.8671  134.8039  159.7138 H   0  0  0  0  0  0  0  0  0  0  0  0  # atno 6908 bound_to 6896
  152.4672  134.5057  159.9790 H   0  0  0  0  0  0  0  0  0  0  0  0  # atno 6909 bound_to 6896
  146.0943  140.5866  142.8850 H   0  0  0  0  0  0  0  0  0  0  0  0  # atno 7974 bound_to 7965
  155.0894  140.0395  157.2664 H   0  0  0  0  0  0  0  0  0  0  0  0  # atno 8008 bound_to 7997
  154.6844  140.2640  155.6850 H   0  0  0  0  0  0  0  0  0  0  0  0  # atno 8009 bound_to 7997
  156.2706  140.2772  156.1400 H   0  0  0  0  0  0  0  0  0  0  0  0  # atno 8010 bound_to 7997
  139.4946  144.3919  151.9507 H   0  0  0  0  0  0  0  0  0  0  0  0  # atno 10167 bound_to 10162
  156.9568  131.0048  151.2936 H   0  0  0  0  0  0  0  0  0  0  0  0  # atno 10718 bound_to 10713
  154.7430  135.5002  153.9155 H   0  0  0  0  0  0  0  0  0  0  0  0  # atno 10763 bound_to 10752
  153.1063  135.6698  153.9589 H   0  0  0  0  0  0  0  0  0  0  0  0  # atno 10764 bound_to 10752
  153.9361  135.3072  155.3423 H   0  0  0  0  0  0  0  0  0  0  0  0  # atno 10765 bound_to 10752
  140.3221  134.7429  157.4071 H   0  0  0  0  0  0  0  0  0  0  0  0  # atno 11005 bound_to 11000
  144.7383  140.4872  143.6887 LP  0  0  0  0  0  0  0  0  0  0  0  0  # atno 17320 bound_to 7965
  145.5979  139.1501  143.3146 LP  0  0  0  0  0  0  0  0  0  0  0  0  # atno 17321 bound_to 7965
  140.3357  144.3263  150.5977 LP  0  0  0  0  0  0  0  0  0  0  0  0  # atno 17342 bound_to 10162
  140.5608  143.2192  151.7768 LP  0  0  0  0  0  0  0  0  0  0  0  0  # atno 17343 bound_to 10162
  157.5685  130.8294  149.8359 LP  0  0  0  0  0  0  0  0  0  0  0  0  # atno 17370 bound_to 10713
  156.0339  130.3757  150.1612 LP  0  0  0  0  0  0  0  0  0  0  0  0  # atno 17371 bound_to 10713
  140.0933  134.5571  155.8423 LP  0  0  0  0  0  0  0  0  0  0  0  0  # atno 17394 bound_to 11000
  141.2084  133.6673  156.6369 LP  0  0  0  0  0  0  0  0  0  0  0  0  # atno 17395 bound_to 11000

$$$$
