#       Name:                AV-unprocessed.smi:1072
#       Creating user name   scv26
#       Creation time:       Fri Mar 27 03:20:43 2020


#       File generated by GOLD software.
#

@<TRIPOS>MOLECULE
AV-unprocessed.smi:1072
    51    52     1
SMALL
NO_CHARGES


@<TRIPOS>ATOM
      1 ****        -4.6652   5.1486   0.6444 C.3            1 S1                 0.0000
      2 ****        -4.0846   3.7514   0.5989 C.2            1 S1                 0.0000
      3 ****        -3.6458   3.2934  -0.5111 N.2            1 S1                 0.0000
      4 ****        -3.1057   1.9970  -0.5590 C.2            1 S1                 0.0000
      5 ****        -2.6110   1.5343  -1.9185 C.3            1 S1                 0.0000
      6 ****        -3.0391   1.2182   0.5588 C.2            1 S1                 0.0000
      7 ****        -2.4645  -0.1984   0.5552 C.3            1 S1                 0.0000
      8 ****        -0.9375  -0.3018   0.5815 C.2            1 S1                 0.0000
      9 ****        -0.2689   0.5607   1.1508 O.2            1 S1                 0.0000
     10 ****        -0.4135  -1.3676  -0.0510 N.am           1 S1                 0.0000
     11 ****         0.9950  -1.7452  -0.2353 C.3            1 S1                 0.0000
     12 ****         0.9622  -3.0590  -1.0455 C.3            1 S1                 0.0000
     13 ****         1.7493  -0.6441  -1.0312 C.3            1 S1                 0.0000
     14 ****         3.2656  -0.8928  -1.1217 C.3            1 S1                 0.0000
     15 ****         3.8962  -1.0779   0.2702 C.3            1 S1                 0.0000
     16 ****         5.4100  -1.3137   0.1728 C.3            1 S1                 0.0000
     17 ****         3.1956  -2.2188   1.0297 C.3            1 S1                 0.0000
     18 ****         1.6788  -1.9809   1.1399 C.3            1 S1                 0.0000
     19 ****        -3.5521   1.7849   1.8192 C.2            1 S1                 0.0000
     20 ****        -3.5055   1.1299   2.8598 O.2            1 S1                 0.0000
     21 ****        -4.0688   3.0464   1.7815 N.pl3          1 S1                -1.0000
     22 ****        -4.4128   5.7079  -0.2575 H              1 S1                 0.0000
     23 ****        -4.2762   5.6968   1.5032 H              1 S1                 0.0000
     24 ****        -5.7513   5.1010   0.7266 H              1 S1                 0.0000
     25 ****        -3.1858   0.6742  -2.2618 H              1 S1                 0.0000
     26 ****        -1.5589   1.2536  -1.8702 H              1 S1                 0.0000
     27 ****        -2.7114   2.3235  -2.6645 H              1 S1                 0.0000
     28 ****        -2.8587  -0.7804   1.3885 H              1 S1                 0.0000
     29 ****        -2.8340  -0.7086  -0.3350 H              1 S1                 0.0000
     30 ****        -1.0805  -1.9979  -0.4718 H              1 S1                 0.0000
     31 ****         1.9579  -3.4498  -1.2501 H              1 S1                 0.0000
     32 ****         0.4698  -2.9171  -2.0084 H              1 S1                 0.0000
     33 ****         0.4153  -3.8378  -0.5126 H              1 S1                 0.0000
     34 ****         1.3314  -0.5520  -2.0345 H              1 S1                 0.0000
     35 ****         1.6091   0.3298  -0.5631 H              1 S1                 0.0000
     36 ****         3.4660  -1.7669  -1.7415 H              1 S1                 0.0000
     37 ****         3.7367  -0.0507  -1.6297 H              1 S1                 0.0000
     38 ****         3.7428  -0.1564   0.8338 H              1 S1                 0.0000
     39 ****         5.6349  -2.2247  -0.3828 H              1 S1                 0.0000
     40 ****         5.8573  -1.4080   1.1626 H              1 S1                 0.0000
     41 ****         5.9041  -0.4840  -0.3334 H              1 S1                 0.0000
     42 ****         3.3918  -3.1713   0.5370 H              1 S1                 0.0000
     43 ****         3.6177  -2.3075   2.0315 H              1 S1                 0.0000
     44 ****         1.5345  -1.1192   1.7908 H              1 S1                 0.0000
     45 ****         1.2109  -2.8212   1.6543 H              1 S1                 0.0000
     46 ****        -3.6866   3.8533  -1.3387 LP             1 S1                 0.0000
     47 ****        -0.7232   1.3315   1.5976 LP             1 S1                 0.0000
     48 ****         0.7285   0.4908   1.1665 LP             1 S1                 0.0000
     49 ****        -3.1181   0.2081   2.8534 LP             1 S1                 0.0000
     50 ****        -3.8550   1.5195   3.7119 LP             1 S1                 0.0000
     51 ****        -4.4369   3.4602   2.6142 LP             1 S1                 0.0000
@<TRIPOS>BOND
    1    1    2 1     
    2    1   22 1     
    3    1   23 1     
    4    1   24 1     
    5    2   21 1     
    6    2    3 2     
    7    3    4 1     
    8    4    5 1     
    9    4    6 2     
   10    5   25 1     
   11    5   26 1     
   12    5   27 1     
   13    6    7 1     
   14    6   19 1     
   15    7    8 1     
   16    7   28 1     
   17    7   29 1     
   18    8    9 2     
   19    8   10 am    
   20   10   11 1     
   21   10   30 1     
   22   11   18 1     
   23   11   12 1     
   24   11   13 1     
   25   12   31 1     
   26   12   32 1     
   27   12   33 1     
   28   13   14 1     
   29   13   34 1     
   30   13   35 1     
   31   14   15 1     
   32   14   36 1     
   33   14   37 1     
   34   15   16 1     
   35   15   17 1     
   36   15   38 1     
   37   16   39 1     
   38   16   40 1     
   39   16   41 1     
   40   17   18 1     
   41   17   42 1     
   42   17   43 1     
   43   18   44 1     
   44   18   45 1     
   45   19   20 2     
   46   19   21 1     
   47    3   46 1     
   48    9   47 1     
   49    9   48 1     
   50   20   49 1     
   51   20   50 1     
   52   21   51 1     
@<TRIPOS>SUBSTRUCTURE
      1 S1             1
@<TRIPOS>SET
LONE_PAIRS      STATIC     ATOMS    <user>   **** ""
6 46 47 48 49 50 51
DONOR_HYDROGENS      STATIC     ATOMS    <user>   **** ""
1 30
ATOM$BLUE        STATIC     ATOMS    COLORGROUP SYSTEM
6 46 47 48 49 50 51
ATOM$RED        STATIC     ATOMS    COLORGROUP SYSTEM
1 30
