AV-unprocessed.smi:2063|AV-procd|sdf|8414|dock7
  -GOLD-   2272011103D 1   1.00000     0.00000
 Structure written by MMmdl.
 38 39  0  0  0  0  0  0  0  0  2 V2000
  148.9138  140.7399  157.3798 C   0  0  0  0  0  0  0  0  0  0  0  0
  149.2921  140.8326  155.8945 C   0  0  0  0  0  0  0  0  0  0  0  0
  148.0724  140.9192  154.9658 C   0  0  0  0  0  0  0  0  0  0  0  0
  150.2371  139.7469  155.4838 C   0  0  0  0  0  0  0  0  0  0  0  0
  151.4641  139.9863  155.0103 N   0  0  0  0  0  0  0  0  0  0  0  0
  152.1452  138.8176  154.7029 N   0  0  0  0  0  0  0  0  0  0  0  0
  151.4319  137.7116  154.9555 C   0  0  0  0  0  0  0  0  0  0  0  0
  151.9100  136.4779  154.7237 N   0  5  0  0  0  0  0  0  0  0  0  0
  151.1450  135.3947  154.9900 C   0  0  0  0  0  0  0  0  0  0  0  0
  151.4041  134.4978  155.7959 O   0  0  0  0  0  0  0  0  0  0  0  0
  150.0098  135.3490  154.2777 N   0  0  0  0  0  0  0  0  0  0  0  0
  148.9811  134.3138  154.3540 C   0  0  2  0  0  0  0  0  0  0  0  0
  148.6910  133.9779  155.8280 C   0  0  0  0  0  0  0  0  0  0  0  0
  149.4507  133.0806  153.5584 C   0  0  1  0  0  0  0  0  0  0  0  0
  150.6347  132.3306  154.1727 C   0  0  0  0  0  0  0  0  0  0  0  0
  150.4661  130.9048  153.6692 C   0  0  0  0  0  0  0  0  0  0  0  0
  149.0521  130.8790  153.0841 C   0  0  0  0  0  0  0  0  0  0  0  0
  148.4461  132.0773  153.5443 O   0  0  0  0  0  0  0  0  0  0  0  0
  149.8195  138.0441  155.5867 S   0  0  0  0  0  0  0  0  0  0  0  0
  149.8018  140.7647  158.0122 H   0  0  0  0  0  0  0  0  0  0  0  0
  148.3765  139.8158  157.5955 H   0  0  0  0  0  0  0  0  0  0  0  0
  148.2745  141.5722  157.6749 H   0  0  0  0  0  0  0  0  0  0  0  0
  149.8338  141.7719  155.7757 H   0  0  0  0  0  0  0  0  0  0  0  0
  148.3786  141.0693  153.9301 H   0  0  0  0  0  0  0  0  0  0  0  0
  147.4257  141.7518  155.2435 H   0  0  0  0  0  0  0  0  0  0  0  0
  147.4765  140.0070  155.0081 H   0  0  0  0  0  0  0  0  0  0  0  0
  149.8402  136.1082  153.6348 H   0  0  0  0  0  0  0  0  0  0  0  0
  148.0651  134.6880  153.8932 H   0  0  0  0  0  0  0  0  0  0  0  0
  147.8967  133.2372  155.9183 H   0  0  0  0  0  0  0  0  0  0  0  0
  148.3703  134.8621  156.3796 H   0  0  0  0  0  0  0  0  0  0  0  0
  149.5766  133.5799  156.3249 H   0  0  0  0  0  0  0  0  0  0  0  0
  149.6838  133.3582  152.5283 H   0  0  0  0  0  0  0  0  0  0  0  0
  151.5949  132.7649  153.8932 H   0  0  0  0  0  0  0  0  0  0  0  0
  150.5656  132.3415  155.2614 H   0  0  0  0  0  0  0  0  0  0  0  0
  151.2052  130.6544  152.9074 H   0  0  0  0  0  0  0  0  0  0  0  0
  150.5726  130.1928  154.4883 H   0  0  0  0  0  0  0  0  0  0  0  0
  149.0874  130.8922  151.9939 H   0  0  0  0  0  0  0  0  0  0  0  0
  148.4832  130.0031  153.3961 H   0  0  0  0  0  0  0  0  0  0  0  0
  1  2  1  0  0  0  0
  1 20  1  0  0  0  0
  1 21  1  0  0  0  0
  1 22  1  0  0  0  0
  2  3  1  0  0  0  0
  2  4  1  0  0  0  0
  2 23  1  0  0  0  0
  3 24  1  0  0  0  0
  3 25  1  0  0  0  0
  3 26  1  0  0  0  0
  4 19  1  0  0  0  0
  4  5  2  0  0  0  0
  5  6  1  0  0  0  0
  6  7  2  0  0  0  0
  7  8  1  0  0  0  0
  7 19  1  0  0  0  0
  8  9  1  0  0  0  0
  9 10  2  0  0  0  0
  9 11  1  0  0  0  0
 11 12  1  0  0  0  0
 11 27  1  0  0  0  0
 12 13  1  0  0  0  0
 12 14  1  0  0  0  0
 12 28  1  0  0  0  0
 13 29  1  0  0  0  0
 13 30  1  0  0  0  0
 13 31  1  0  0  0  0
 14 18  1  0  0  0  0
 14 15  1  0  0  0  0
 14 32  1  0  0  0  0
 15 16  1  0  0  0  0
 15 33  1  0  0  0  0
 15 34  1  0  0  0  0
 16 17  1  0  0  0  0
 16 35  1  0  0  0  0
 16 36  1  0  0  0  0
 17 18  1  0  0  0  0
 17 37  1  0  0  0  0
 17 38  1  0  0  0  0
M  CHG  1   8  -1
M  END
> <s_m_source_file>
AV-unprocessed.smi

> <i_m_source_file_index>
2063

> <i_lp_mmshare_version>
43012

> <i_f3d_flags>
0

> <s_epik_input>
W0NIM11bQ0hdKFtDSDNdKWMxbm5jKHMxKVtOSF1DKD1PKVtOSF1bQ0BIXShbQ0gzXSlbQ0BASF0yW0NIMl1bQ0gyXVtDSDJdTzI=

> <s_epik_cmdline>
J2VwaWtfcHl0aG9uJywgJy1waCcsICc3LjAnLCAnLXRuJywgJzgnLCAnLW1hJywgJzIwMCcsICctbWV0YWxfYmluZGluZycsICctaW1hZScsICc8aW5maWxlLm1hZT4nLCAnLW9tYWUnLCAnPG91dGZpbGUubWFlPic=

> <r_lp_tautomer_probability>
1

> <r_epik_Ionization_Penalty>
4.37022

> <r_epik_Ionization_Penalty_Charging>
4.21437

> <r_epik_Ionization_Penalty_Neutral>
0.15585

> <r_epik_State_Penalty>
4.21389

> <r_epik_Charging_Adjusted_Penalty>
8.42826

> <i_epik_Tot_Q>
-1

> <i_epik_Tot_abs_Q>
1

> <r_epik_Metal_State_Penalty>
0.693772

> <b_epik_Metal_Only>
1

> <s_lp_Force_Field>
OPLS_2005

> <r_lp_Energy>
10.221

> <b_lp_Chiralities_Consistent>
1

> <s_lp_Variant>
AV-unprocessed.smi:2063-7

> <Gold.Version>
5.8.1

> <Gold.Id.Protein>
6NUR|6NUR_protein|mol2

> <Gold.PLP.Fitness>
39.5221

> <Gold.PLP.PLP>
-29.5589

> <Gold.PLP.part.hbond>
-3.0014

> <Gold.PLP.part.metal>
0.0000

> <Gold.PLP.part.buried>
-4.8259

> <Gold.PLP.part.nonpolar>
-22.8779

> <Gold.PLP.part.repulsive>
0.3962

> <Gold.PLP.ligand.clash>
0.0000

> <Gold.PLP.ligand.torsion>
0.8944

> <Gold.PLP.Chemscore.Hbond>
3.8800

> <Gold.PLP.Chemscore.CHOScore>
0.0000

> <Gold.PLP.Chemscore.Metal>
0.0000

> <Gold.Chemscore.Hbonds>
donor molecule, donor type, donor heavy atom, donor atom, acceptor molecule, acceptor atom, score
      L1  H    11    27       P1  7948  0.57
      P1  H  7989  7998       L1     5  1.00
      P1  H 10752 10765       L1     8  0.60

> <Gold.PLP.Chemscore.Internal.Correction>
0.1119

> <Gold.Rescore>
     Score         DG    S(hbond)    S(metal)    S(lipo)     H(rot)  DE(clash)    DE(int)     intcor
     12.04     -16.00       2.55        0.00      47.50       1.39       0.03       3.92       ----

> <Gold.Chemscore.Fitness>
12.0400

> <Gold.Chemscore.DG>
-15.9991

> <Gold.Chemscore.ZeroCoef>
-5.4800

> <Gold.Chemscore.Hbond>
2.5504

> <Gold.Chemscore.Metal>
0.0000

> <Gold.Chemscore.Lipo>
47.4988

> <Gold.Chemscore.Internal_Hbond>
0.0000

> <Gold.Chemscore.DEClash>
0.0348

> <Gold.Chemscore.DEInternal>
3.9244

> <Gold.Chemscore.Rot>
1.3893

> <Gold.Chemscore.Internal.Correction>
   9.000000E+99

> <Gold.Chemscore.Hbonds>
donor molecule, donor type, donor heavy atom, donor atom, acceptor molecule, acceptor atom, score
      L1  H    11    27       P1  7948  0.10
      P1  H  7989  7998       L1     5  0.25
      P1  H 10752 10765       L1     8  0.01

> <Gold.Chemscore.Hbond.Weighted>
-8.5184

> <Gold.Chemscore.Metal.Weighted>
-0.0000

> <Gold.Chemscore.Lipo.Weighted>
-5.5574

> <Gold.Chemscore.Internal_Hbond.Weighted>
0.0000

> <Gold.Chemscore.DEClash.Weighted>
0.0348

> <Gold.Chemscore.DEInternal.Weighted>
3.9244

> <Gold.Chemscore.Rot.Weighted>
3.5567

> <Gold.Chemscore.Internal.Correction.Weighted>
   9.000000E+99

> <Gold.Protein.RotatedTorsions>
[ 6907 6896 6895 6894 ] final    9.32 input  -60.11 | X-H torsion
[ 7974 7965 7964 7962 ] final -131.28 input  175.53 | X-H torsion
[ 8008 7997 7996 7995 ] final  132.77 input   59.86 | X-H torsion
[ 10167 10162 10161 10158 ] final  -27.68 input  -65.29 | X-H torsion
[ 10718 10713 10712 10709 ] final  116.49 input   66.30 | X-H torsion
[ 10763 10752 10751 10750 ] final  163.57 input  -60.55 | X-H torsion
[ 11005 11000 10999 10996 ] final   37.25 input  -57.11 | X-H torsion

> <Gold.Protein.ActiveResidues>
 VAL166  LYS551  ARG553  GLY616  TRP617  ASP618  TYR619  PRO620  LYS621  CYS622 
 ASP623  PHE694  ASN695  SER759  ASP760  ASP761  ALA762  ILE779  LEU786  VAL792 
 PHE793  MET794  SER795  GLU796  ALA797  LYS798  CYS799  TRP800  GLU811  SER814 

> <Gold.Protein.RotatedAtoms>
  151.7202  135.0895  160.0282 H   0  0  0  0  0  0  0  0  0  0  0  0  # atno 6907 bound_to 6896
  152.3606  133.6288  159.6021 H   0  0  0  0  0  0  0  0  0  0  0  0  # atno 6908 bound_to 6896
  150.7602  133.9345  159.3478 H   0  0  0  0  0  0  0  0  0  0  0  0  # atno 6909 bound_to 6896
  144.9394  140.7221  143.4856 H   0  0  0  0  0  0  0  0  0  0  0  0  # atno 7974 bound_to 7965
  156.2986  140.2538  156.3144 H   0  0  0  0  0  0  0  0  0  0  0  0  # atno 8008 bound_to 7997
  154.9295  140.0398  157.2059 H   0  0  0  0  0  0  0  0  0  0  0  0  # atno 8009 bound_to 7997
  154.8232  140.2863  155.5777 H   0  0  0  0  0  0  0  0  0  0  0  0  # atno 8010 bound_to 7997
  140.7275  143.4073  151.1164 H   0  0  0  0  0  0  0  0  0  0  0  0  # atno 10167 bound_to 10162
  157.6157  131.1026  150.7480 H   0  0  0  0  0  0  0  0  0  0  0  0  # atno 10718 bound_to 10713
  154.2957  135.2760  155.2634 H   0  0  0  0  0  0  0  0  0  0  0  0  # atno 10763 bound_to 10752
  154.5094  135.5786  153.6596 H   0  0  0  0  0  0  0  0  0  0  0  0  # atno 10764 bound_to 10752
  152.9908  135.6177  154.3124 H   0  0  0  0  0  0  0  0  0  0  0  0  # atno 10765 bound_to 10752
  140.2245  134.3601  155.7990 H   0  0  0  0  0  0  0  0  0  0  0  0  # atno 11005 bound_to 11000
  145.3016  139.1848  143.4687 LP  0  0  0  0  0  0  0  0  0  0  0  0  # atno 17320 bound_to 7965
  146.3279  140.3007  142.8620 LP  0  0  0  0  0  0  0  0  0  0  0  0  # atno 17321 bound_to 7965
  139.7701  143.8506  152.3119 LP  0  0  0  0  0  0  0  0  0  0  0  0  # atno 17342 bound_to 10162
  139.8422  144.7204  150.9317 LP  0  0  0  0  0  0  0  0  0  0  0  0  # atno 17343 bound_to 10162
  156.7848  130.4871  149.5395 LP  0  0  0  0  0  0  0  0  0  0  0  0  # atno 17370 bound_to 10713
  156.1278  130.6156  151.0289 LP  0  0  0  0  0  0  0  0  0  0  0  0  # atno 17371 bound_to 10713
  141.2221  133.7211  156.8630 LP  0  0  0  0  0  0  0  0  0  0  0  0  # atno 17394 bound_to 11000
  140.1815  134.9030  157.2954 LP  0  0  0  0  0  0  0  0  0  0  0  0  # atno 17395 bound_to 11000

$$$$
