#       Name:                AV-unprocessed.smi:1491
#       Creating user name   scv26
#       Creation time:       Fri Mar 27 06:13:45 2020


#       File generated by GOLD software.
#

@<TRIPOS>MOLECULE
AV-unprocessed.smi:1491
    43    44     1
SMALL
NO_CHARGES


@<TRIPOS>ATOM
      1 ****         1.5404   1.5934  -0.2116 O.2            1 S1                 0.0000
      2 ****         1.1916   0.5433  -0.7507 C.2            1 S1                 0.0000
      3 ****         2.0173  -0.4825  -0.9998 N.am           1 S1                 0.0000
      4 ****         3.4407  -0.5176  -0.6748 C.3            1 S1                 0.0000
      5 ****         3.7124  -0.5912   0.8414 C.3            1 S1                 0.0000
      6 ****         3.1092  -1.7702   1.4688 N.pl3          1 S1                 0.0000
      7 ****         1.9042  -1.8380   2.1200 C.2            1 S1                 0.0000
      8 ****         1.7578  -3.1361   2.5361 C.2            1 S1                 0.0000
      9 ****         2.8794  -3.8042   2.1230 N.pl3          1 S1                 1.0000
     10 ****         3.7001  -2.9718   1.4739 C.2            1 S1                 0.0000
     11 ****        -0.0618   0.2797  -1.1451 N.am           1 S1                 0.0000
     12 ****        -1.1981   1.1830  -0.9912 C.3            1 S1                 0.0000
     13 ****        -1.7861   1.0817   0.4321 C.3            1 S1                 0.0000
     14 ****        -3.0281   1.9738   0.5904 C.3            1 S1                 0.0000
     15 ****        -4.0905   1.6400  -0.4708 C.3            1 S1                 0.0000
     16 ****        -5.1830   2.5247  -0.3401 O.3            1 S1                 0.0000
     17 ****        -3.5083   1.7481  -1.8904 C.3            1 S1                 0.0000
     18 ****        -2.2682   0.8536  -2.0490 C.3            1 S1                 0.0000
     19 ****         1.6341  -1.2997  -1.4525 H              1 S1                 0.0000
     20 ****         3.8811  -1.3815  -1.1735 H              1 S1                 0.0000
     21 ****         3.9284   0.3622  -1.0975 H              1 S1                 0.0000
     22 ****         4.7865  -0.6234   1.0292 H              1 S1                 0.0000
     23 ****         3.3340   0.2938   1.3544 H              1 S1                 0.0000
     24 ****         1.2572  -0.9796   2.2326 H              1 S1                 0.0000
     25 ****         0.9610  -3.6213   3.0807 H              1 S1                 0.0000
     26 ****         4.6519  -3.2215   1.0395 H              1 S1                 0.0000
     27 ****        -0.2469  -0.6116  -1.5813 H              1 S1                 0.0000
     28 ****        -0.8606   2.2075  -1.1610 H              1 S1                 0.0000
     29 ****        -2.0546   0.0467   0.6487 H              1 S1                 0.0000
     30 ****        -1.0372   1.3673   1.1715 H              1 S1                 0.0000
     31 ****        -3.4450   1.8516   1.5907 H              1 S1                 0.0000
     32 ****        -2.7329   3.0204   0.5034 H              1 S1                 0.0000
     33 ****        -4.4588   0.6264  -0.3073 H              1 S1                 0.0000
     34 ****        -4.8739   3.4066  -0.4806 H              1 S1                 0.0000
     35 ****        -4.2618   1.4674  -2.6273 H              1 S1                 0.0000
     36 ****        -3.2369   2.7831  -2.1032 H              1 S1                 0.0000
     37 ****        -1.8540   0.9759  -3.0505 H              1 S1                 0.0000
     38 ****        -2.5652  -0.1927  -1.9629 H              1 S1                 0.0000
     39 ****         3.0641  -4.7864   2.2855 H              1 S1                 0.0000
     40 ****         2.4918   1.7192   0.0694 LP             1 S1                 0.0000
     41 ****         0.8724   2.3207  -0.0546 LP             1 S1                 0.0000
     42 ****        -5.5726   2.4461   0.5775 LP             1 S1                 0.0000
     43 ****        -5.8818   2.3001  -1.0192 LP             1 S1                 0.0000
@<TRIPOS>BOND
    1    1    2 2     
    2    2    3 am    
    3    2   11 am    
    4    3    4 1     
    5    3   19 1     
    6    4    5 1     
    7    4   20 1     
    8    4   21 1     
    9    5    6 1     
   10    5   22 1     
   11    5   23 1     
   12    6   10 1     
   13    6    7 1     
   14    7    8 2     
   15    7   24 1     
   16    8    9 1     
   17    8   25 1     
   18    9   10 2     
   19    9   39 1     
   20   10   26 1     
   21   11   12 1     
   22   11   27 1     
   23   12   18 1     
   24   12   13 1     
   25   12   28 1     
   26   13   14 1     
   27   13   29 1     
   28   13   30 1     
   29   14   15 1     
   30   14   31 1     
   31   14   32 1     
   32   15   16 1     
   33   15   17 1     
   34   15   33 1     
   35   16   34 1     
   36   17   18 1     
   37   17   35 1     
   38   17   36 1     
   39   18   37 1     
   40   18   38 1     
   41    1   40 1     
   42    1   41 1     
   43   16   42 1     
   44   16   43 1     
@<TRIPOS>SUBSTRUCTURE
      1 S1             1
@<TRIPOS>SET
LONE_PAIRS      STATIC     ATOMS    <user>   **** ""
4 40 41 42 43
DONOR_HYDROGENS      STATIC     ATOMS    <user>   **** ""
4 19 39 27 34
ATOM$BLUE        STATIC     ATOMS    COLORGROUP SYSTEM
4 40 41 42 43
ATOM$RED        STATIC     ATOMS    COLORGROUP SYSTEM
4 19 39 27 34
