AV-unprocessed.smi:2482|AV-procd|sdf|9784|dock5
  -GOLD-   2272013423D 1   1.00000     0.00000
 Structure written by MMmdl.
 34 35  0  0  0  0  0  0  0  0  3 V2000
  153.3846  143.1106  163.4245 C   0  0  0  0  0  0  0  0  0  0  0  0
  153.5921  142.3046  162.1558 C   0  0  0  0  0  0  0  0  0  0  0  0
  154.4652  141.2791  162.2538 N   0  0  0  0  0  0  0  0  0  0  0  0
  154.6802  140.5304  161.1542 C   0  0  0  0  0  0  0  0  0  0  0  0
  154.0443  140.7681  159.9211 C   0  0  0  0  0  0  0  0  0  0  0  0
  153.1348  141.8423  159.8011 C   0  0  0  0  0  0  0  0  0  0  0  0
  152.5154  142.0787  158.6328 N   0  5  0  0  0  0  0  0  0  0  0  0
  151.6546  141.1622  158.1266 C   0  0  0  0  0  0  0  0  0  0  0  0
  151.7899  139.9392  158.0527 O   0  0  0  0  0  0  0  0  0  0  0  0
  150.3765  141.8300  157.5972 C   0  0  1  0  0  0  0  0  0  0  0  0
  150.0353  141.4186  156.1469 C   0  0  0  0  0  0  0  0  0  0  0  0
  148.7646  142.0485  155.7226 N   0  3  1  0  0  0  0  0  0  0  0  0
  148.4128  141.7355  154.3216 C   0  0  0  0  0  0  0  0  0  0  0  0
  147.6750  141.7267  156.6720 C   0  0  0  0  0  0  0  0  0  0  0  0
  148.0838  142.1137  158.1029 C   0  0  0  0  0  0  0  0  0  0  0  0
  149.2958  141.4555  158.4479 O   0  0  0  0  0  0  0  0  0  0  0  0
  152.9027  142.6254  160.9618 C   0  0  0  0  0  0  0  0  0  0  0  0
  151.7931  143.9577  160.9279 Cl  0  0  0  0  0  0  0  0  0  0  0  0
  153.6492  144.1550  163.2576 H   0  0  0  0  0  0  0  0  0  0  0  0
  153.9986  142.7347  164.2440 H   0  0  0  0  0  0  0  0  0  0  0  0
  152.3410  143.0640  163.7362 H   0  0  0  0  0  0  0  0  0  0  0  0
  155.3806  139.7152  161.2593 H   0  0  0  0  0  0  0  0  0  0  0  0
  154.2576  140.1317  159.0747 H   0  0  0  0  0  0  0  0  0  0  0  0
  150.5063  142.9145  157.6345 H   0  0  0  0  0  0  0  0  0  0  0  0
  150.8361  141.7265  155.4727 H   0  0  0  0  0  0  0  0  0  0  0  0
  149.9415  140.3341  156.0636 H   0  0  0  0  0  0  0  0  0  0  0  0
  148.2474  140.6655  154.1889 H   0  0  0  0  0  0  0  0  0  0  0  0
  149.2118  142.0448  153.6469 H   0  0  0  0  0  0  0  0  0  0  0  0
  147.5046  142.2619  154.0266 H   0  0  0  0  0  0  0  0  0  0  0  0
  146.7674  142.2601  156.3873 H   0  0  0  0  0  0  0  0  0  0  0  0
  147.4498  140.6600  156.6246 H   0  0  0  0  0  0  0  0  0  0  0  0
  148.2031  143.1942  158.1967 H   0  0  0  0  0  0  0  0  0  0  0  0
  147.3078  141.8169  158.8087 H   0  0  0  0  0  0  0  0  0  0  0  0
  148.9081  143.0472  155.7720 H   0  0  0  0  0  0  0  0  0  0  0  0
  1  2  1  0  0  0  0
  1 19  1  0  0  0  0
  1 20  1  0  0  0  0
  1 21  1  0  0  0  0
  2 17  1  0  0  0  0
  2  3  2  0  0  0  0
  3  4  1  0  0  0  0
  4  5  2  0  0  0  0
  4 22  1  0  0  0  0
  5  6  1  0  0  0  0
  5 23  1  0  0  0  0
  6  7  1  0  0  0  0
  6 17  2  0  0  0  0
  7  8  1  0  0  0  0
  8  9  2  0  0  0  0
  8 10  1  0  0  0  0
 10 16  1  0  0  0  0
 10 11  1  0  0  0  0
 10 24  1  0  0  0  0
 11 12  1  0  0  0  0
 11 25  1  0  0  0  0
 11 26  1  0  0  0  0
 12 13  1  0  0  0  0
 12 14  1  0  0  0  0
 12 34  1  0  0  0  0
 13 27  1  0  0  0  0
 13 28  1  0  0  0  0
 13 29  1  0  0  0  0
 14 15  1  0  0  0  0
 14 30  1  0  0  0  0
 14 31  1  0  0  0  0
 15 16  1  0  0  0  0
 15 32  1  0  0  0  0
 15 33  1  0  0  0  0
 17 18  1  0  0  0  0
M  CHG  1   7  -1
M  CHG  1  12   1
M  END
> <s_m_source_file>
AV-unprocessed.smi

> <i_m_source_file_index>
2482

> <i_lp_mmshare_version>
43012

> <i_f3d_flags>
0

> <s_epik_input>
W0NIM11jMW5bY0hdW2NIXWMoYzFDbClbTkhdQyg9TylbQ0BASF0yW0NIMl1OKFtDSDNdKVtDSDJdW0NIMl1PMg==

> <s_epik_cmdline>
J2VwaWtfcHl0aG9uJywgJy1waCcsICc3LjAnLCAnLXRuJywgJzgnLCAnLW1hJywgJzIwMCcsICctbWV0YWxfYmluZGluZycsICctaW1hZScsICc8aW5maWxlLm1hZT4nLCAnLW9tYWUnLCAnPG91dGZpbGUubWFlPic=

> <r_epik_Ionization_Penalty>
6.9249

> <r_epik_Ionization_Penalty_Charging>
6.74596

> <r_epik_Ionization_Penalty_Neutral>
0.178941

> <r_epik_State_Penalty>
6.78185

> <r_epik_Charging_Adjusted_Penalty>
13.5278

> <i_epik_Tot_Q>
0

> <i_epik_Tot_abs_Q>
2

> <r_epik_Metal_State_Penalty>
2.70608

> <b_epik_Metal_Only>
1

> <s_lp_Force_Field>
OPLS_2005

> <r_lp_Energy>
14.2833

> <b_lp_Chiralities_Consistent>
1

> <s_lp_Variant>
AV-unprocessed.smi:2482-10

> <Gold.Version>
5.8.1

> <Gold.Id.Protein>
6NUR|6NUR_protein|mol2

> <Gold.PLP.Fitness>
44.0499

> <Gold.PLP.PLP>
-39.8257

> <Gold.PLP.part.hbond>
-2.1758

> <Gold.PLP.part.metal>
0.0000

> <Gold.PLP.part.buried>
-5.2921

> <Gold.PLP.part.nonpolar>
-31.4460

> <Gold.PLP.part.repulsive>
0.1475

> <Gold.PLP.ligand.clash>
0.0000

> <Gold.PLP.ligand.torsion>
1.1139

> <Gold.PLP.Chemscore.Hbond>
2.0000

> <Gold.PLP.Chemscore.CHOScore>
0.0000

> <Gold.PLP.Chemscore.Metal>
0.0000

> <Gold.Chemscore.Hbonds>
donor molecule, donor type, donor heavy atom, donor atom, acceptor molecule, acceptor atom, score
      L1  H    12    34       P1  8028  2.00

> <Gold.PLP.Chemscore.Internal.Correction>
0.4521

> <Gold.Rescore>
     Score         DG    S(hbond)    S(metal)    S(lipo)     H(rot)  DE(clash)    DE(int)     intcor
     16.49     -17.72       1.00        0.00      97.95       1.00       0.07       1.16       ----

> <Gold.Chemscore.Fitness>
16.4898

> <Gold.Chemscore.DG>
-17.7202

> <Gold.Chemscore.ZeroCoef>
-5.4800

> <Gold.Chemscore.Hbond>
1.0000

> <Gold.Chemscore.Metal>
0.0000

> <Gold.Chemscore.Lipo>
97.9503

> <Gold.Chemscore.Internal_Hbond>
0.0000

> <Gold.Chemscore.DEClash>
0.0706

> <Gold.Chemscore.DEInternal>
1.1598

> <Gold.Chemscore.Rot>
1.0000

> <Gold.Chemscore.Internal.Correction>
   9.000000E+99

> <Gold.Chemscore.Hbonds>
donor molecule, donor type, donor heavy atom, donor atom, acceptor molecule, acceptor atom, score
      L1  H    12    34       P1  8028  1.00

> <Gold.Chemscore.Hbond.Weighted>
-3.3400

> <Gold.Chemscore.Metal.Weighted>
-0.0000

> <Gold.Chemscore.Lipo.Weighted>
-11.4602

> <Gold.Chemscore.Internal_Hbond.Weighted>
0.0000

> <Gold.Chemscore.DEClash.Weighted>
0.0706

> <Gold.Chemscore.DEInternal.Weighted>
1.1598

> <Gold.Chemscore.Rot.Weighted>
2.5600

> <Gold.Chemscore.Internal.Correction.Weighted>
   9.000000E+99

> <Gold.Protein.RotatedTorsions>
[ 6907 6896 6895 6894 ] final  -40.53 input  -60.11 | X-H torsion
[ 7974 7965 7964 7962 ] final    9.07 input  175.53 | X-H torsion
[ 8008 7997 7996 7995 ] final  114.45 input   59.86 | X-H torsion
[ 10167 10162 10161 10158 ] final   16.00 input  -65.29 | X-H torsion
[ 10718 10713 10712 10709 ] final   12.61 input   66.30 | X-H torsion
[ 10763 10752 10751 10750 ] final  115.49 input  -60.55 | X-H torsion
[ 11005 11000 10999 10996 ] final  -50.13 input  -57.11 | X-H torsion

> <Gold.Protein.ActiveResidues>
 VAL166  LYS551  ARG553  GLY616  TRP617  ASP618  TYR619  PRO620  LYS621  CYS622 
 ASP623  PHE694  ASN695  SER759  ASP760  ASP761  ALA762  ILE779  LEU786  VAL792 
 PHE793  MET794  SER795  GLU796  ALA797  LYS798  CYS799  TRP800  GLU811  SER814 

> <Gold.Protein.RotatedAtoms>
  150.9774  134.9136  159.7823 H   0  0  0  0  0  0  0  0  0  0  0  0  # atno 6907 bound_to 6896
  152.5210  134.3457  159.9243 H   0  0  0  0  0  0  0  0  0  0  0  0  # atno 6908 bound_to 6896
  151.3465  133.3901  159.2710 H   0  0  0  0  0  0  0  0  0  0  0  0  # atno 6909 bound_to 6896
  146.2408  139.9838  142.8433 H   0  0  0  0  0  0  0  0  0  0  0  0  # atno 7974 bound_to 7965
  156.2322  140.2959  156.0217 H   0  0  0  0  0  0  0  0  0  0  0  0  # atno 8008 bound_to 7997
  155.2194  140.0415  157.2963 H   0  0  0  0  0  0  0  0  0  0  0  0  # atno 8009 bound_to 7997
  154.6015  140.2428  155.7794 H   0  0  0  0  0  0  0  0  0  0  0  0  # atno 8010 bound_to 7997
  140.5828  143.8947  150.6804 H   0  0  0  0  0  0  0  0  0  0  0  0  # atno 10167 bound_to 10162
  157.0127  130.6123  149.5710 H   0  0  0  0  0  0  0  0  0  0  0  0  # atno 10718 bound_to 10713
  153.5230  135.3594  155.2641 H   0  0  0  0  0  0  0  0  0  0  0  0  # atno 10763 bound_to 10752
  154.8733  135.4050  154.3238 H   0  0  0  0  0  0  0  0  0  0  0  0  # atno 10764 bound_to 10752
  153.3912  135.7072  153.6560 H   0  0  0  0  0  0  0  0  0  0  0  0  # atno 10765 bound_to 10752
  141.0798  133.6656  156.3686 H   0  0  0  0  0  0  0  0  0  0  0  0  # atno 11005 bound_to 11000
  145.1567  140.9651  143.4401 LP  0  0  0  0  0  0  0  0  0  0  0  0  # atno 17320 bound_to 7965
  145.0154  139.3472  143.6099 LP  0  0  0  0  0  0  0  0  0  0  0  0  # atno 17321 bound_to 7965
  140.2451  143.3635  152.1454 LP  0  0  0  0  0  0  0  0  0  0  0  0  # atno 17342 bound_to 10162
  139.5180  144.6999  151.5522 LP  0  0  0  0  0  0  0  0  0  0  0  0  # atno 17343 bound_to 10162
  156.0130  130.5223  150.8049 LP  0  0  0  0  0  0  0  0  0  0  0  0  # atno 17370 bound_to 10713
  157.5309  131.0936  150.9956 LP  0  0  0  0  0  0  0  0  0  0  0  0  # atno 17371 bound_to 10713
  140.5493  134.6043  157.5403 LP  0  0  0  0  0  0  0  0  0  0  0  0  # atno 17394 bound_to 11000
  139.9612  134.7450  156.0234 LP  0  0  0  0  0  0  0  0  0  0  0  0  # atno 17395 bound_to 11000

$$$$
