AV-unprocessed.smi:1725|AV-procd|sdf|6953|dock9
  -GOLD-   22720 8163D 1   1.00000     0.00000
 Structure written by MMmdl.
 36 37  0  0  0  0  0  0  0  0  1 V2000
  151.6660  138.4558  154.3179 C   0  0  0  0  0  0  0  0  0  0  0  0
  150.4024  139.1462  154.8521 C   0  0  2  0  0  0  0  0  0  0  0  0
  150.1443  140.2719  154.0176 O   0  0  0  0  0  0  0  0  0  0  0  0
  149.2139  141.2130  154.5380 C   0  0  0  0  0  0  0  0  0  0  0  0
  147.8225  140.8161  154.0949 C   0  0  0  0  0  0  0  0  0  0  0  0
  147.4832  139.3633  153.8509 C   0  0  0  0  0  0  0  0  0  0  0  0
  147.5710  140.3200  152.6890 C   0  0  0  0  0  0  0  0  0  0  0  0
  150.5854  139.5961  156.3107 C   0  0  0  0  0  0  0  0  0  0  0  0
  149.9823  139.0031  157.2048 O   0  0  0  0  0  0  0  0  0  0  0  0
  151.4435  140.6189  156.4973 N   0  0  0  0  0  0  0  0  0  0  0  0
  151.8202  141.2699  157.6847 C   0  0  0  0  0  0  0  0  0  0  0  0
  151.4487  142.5286  158.0370 C   0  0  0  0  0  0  0  0  0  0  0  0
  151.8879  143.1443  159.2768 C   0  0  0  0  0  0  0  0  0  0  0  0
  151.4391  144.5478  159.6508 C   0  0  0  0  0  0  0  0  0  0  0  0
  151.8387  144.8868  160.8773 F   0  0  0  0  0  0  0  0  0  0  0  0
  151.9376  145.4322  158.7878 F   0  0  0  0  0  0  0  0  0  0  0  0
  150.1100  144.6328  159.6043 F   0  0  0  0  0  0  0  0  0  0  0  0
  152.6956  142.4076  160.0620 C   0  0  0  0  0  0  0  0  0  0  0  0
  153.0910  141.1173  159.7027 N   0  0  0  0  0  0  0  0  0  0  0  0
  152.7088  140.4934  158.5657 C   0  0  0  0  0  0  0  0  0  0  0  0
  153.1010  139.3530  158.3216 O   0  0  0  0  0  0  0  0  0  0  0  0
  153.7018  140.6298  160.3426 H   0  0  0  0  0  0  0  0  0  0  0  0
  151.9304  137.5885  154.9237 H   0  0  0  0  0  0  0  0  0  0  0  0
  152.5211  139.1327  154.3090 H   0  0  0  0  0  0  0  0  0  0  0  0
  151.5124  138.1080  153.2962 H   0  0  0  0  0  0  0  0  0  0  0  0
  149.5715  138.4416  154.7789 H   0  0  0  0  0  0  0  0  0  0  0  0
  149.2626  141.2337  155.6278 H   0  0  0  0  0  0  0  0  0  0  0  0
  149.4192  142.2199  154.1741 H   0  0  0  0  0  0  0  0  0  0  0  0
  147.0323  141.4187  154.5390 H   0  0  0  0  0  0  0  0  0  0  0  0
  148.2808  138.6309  153.9585 H   0  0  0  0  0  0  0  0  0  0  0  0
  146.4939  139.0219  154.1481 H   0  0  0  0  0  0  0  0  0  0  0  0
  146.6403  140.6198  152.2114 H   0  0  0  0  0  0  0  0  0  0  0  0
  148.4269  140.2250  152.0236 H   0  0  0  0  0  0  0  0  0  0  0  0
  151.9110  140.9601  155.6694 H   0  0  0  0  0  0  0  0  0  0  0  0
  150.8234  143.1300  157.3982 H   0  0  0  0  0  0  0  0  0  0  0  0
  153.0958  142.7379  161.0092 H   0  0  0  0  0  0  0  0  0  0  0  0
  1  2  1  0  0  0  0
  1 23  1  0  0  0  0
  1 24  1  0  0  0  0
  1 25  1  0  0  0  0
  2  3  1  0  0  0  0
  2  8  1  0  0  0  0
  2 26  1  0  0  0  0
  3  4  1  0  0  0  0
  4  5  1  0  0  0  0
  4 27  1  0  0  0  0
  4 28  1  0  0  0  0
  5  7  1  0  0  0  0
  5  6  1  0  0  0  0
  5 29  1  0  0  0  0
  6  7  1  0  0  0  0
  6 30  1  0  0  0  0
  6 31  1  0  0  0  0
  7 32  1  0  0  0  0
  7 33  1  0  0  0  0
  8  9  2  0  0  0  0
  8 10  1  0  0  0  0
 10 11  1  0  0  0  0
 10 34  1  0  0  0  0
 11 20  1  0  0  0  0
 11 12  2  0  0  0  0
 12 13  1  0  0  0  0
 12 35  1  0  0  0  0
 13 14  1  0  0  0  0
 13 18  2  0  0  0  0
 14 15  1  0  0  0  0
 14 16  1  0  0  0  0
 14 17  1  0  0  0  0
 18 19  1  0  0  0  0
 18 36  1  0  0  0  0
 19 22  1  0  0  0  0
 19 20  1  0  0  0  0
 20 21  2  0  0  0  0
M  END
> <s_m_source_file>
AV-unprocessed.smi

> <i_m_source_file_index>
1725

> <i_lp_mmshare_version>
43012

> <i_f3d_flags>
0

> <s_epik_input>
W0NIMl0xW0NIMl1bQ0hdMVtDSDJdT1tDQEBIXShbQ0gzXSlDKD1PKVtOSF1jMltjSF1jKEMoRikoRilGKVtjSF1bbkhdYzI9Tw==

> <s_epik_cmdline>
J2VwaWtfcHl0aG9uJywgJy1waCcsICc3LjAnLCAnLXRuJywgJzgnLCAnLW1hJywgJzIwMCcsICctbWV0YWxfYmluZGluZycsICctaW1hZScsICc8aW5maWxlLm1hZT4nLCAnLW9tYWUnLCAnPG91dGZpbGUubWFlPic=

> <r_lp_tautomer_probability>
0.999

> <r_epik_Ionization_Penalty>
0.00763408

> <r_epik_Ionization_Penalty_Charging>
0.00763398

> <r_epik_Ionization_Penalty_Neutral>
9.25705e-08

> <r_epik_State_Penalty>
0.00571302

> <r_epik_Charging_Adjusted_Penalty>
0.013347

> <i_epik_Tot_Q>
0

> <i_epik_Tot_abs_Q>
0

> <r_epik_Metal_State_Penalty>
0.392814

> <b_epik_Metal_Only>
0

> <s_lp_Force_Field>
OPLS_2005

> <r_lp_Energy>
28.2776

> <b_lp_Chiralities_Consistent>
1

> <s_lp_Variant>
AV-unprocessed.smi:1725-1

> <Gold.Version>
5.8.1

> <Gold.Id.Protein>
6NUR|6NUR_protein|mol2

> <Gold.PLP.Fitness>
43.9488

> <Gold.PLP.PLP>
-41.6276

> <Gold.PLP.part.hbond>
-2.0000

> <Gold.PLP.part.metal>
0.0000

> <Gold.PLP.part.buried>
-4.7062

> <Gold.PLP.part.nonpolar>
-35.9596

> <Gold.PLP.part.repulsive>
0.7601

> <Gold.PLP.ligand.clash>
0.1104

> <Gold.PLP.ligand.torsion>
1.5799

> <Gold.PLP.Chemscore.Hbond>
1.6640

> <Gold.PLP.Chemscore.CHOScore>
0.0000

> <Gold.PLP.Chemscore.Metal>
0.0000

> <Gold.Chemscore.Hbonds>
donor molecule, donor type, donor heavy atom, donor atom, acceptor molecule, acceptor atom, score
      P1  H  7989  7998       L1     3  0.86
      P1  H  7997  8010       L1    21  0.49

> <Gold.PLP.Chemscore.Internal.Correction>
0.5993

> <Gold.Rescore>
     Score         DG    S(hbond)    S(metal)    S(lipo)     H(rot)  DE(clash)    DE(int)     intcor
     13.01     -17.48       1.74        0.00      92.09       1.79       3.01       1.46       ----

> <Gold.Chemscore.Fitness>
13.0144

> <Gold.Chemscore.DG>
-17.4838

> <Gold.Chemscore.ZeroCoef>
-5.4800

> <Gold.Chemscore.Hbond>
1.7431

> <Gold.Chemscore.Metal>
0.0000

> <Gold.Chemscore.Lipo>
92.0867

> <Gold.Chemscore.Internal_Hbond>
0.0000

> <Gold.Chemscore.DEClash>
3.0097

> <Gold.Chemscore.DEInternal>
1.4597

> <Gold.Chemscore.Rot>
1.7938

> <Gold.Chemscore.Internal.Correction>
   9.000000E+99

> <Gold.Chemscore.Hbonds>
donor molecule, donor type, donor heavy atom, donor atom, acceptor molecule, acceptor atom, score
      P1  H  7989  7998       L1     3  0.56
      P1  H  7997  8010       L1    21  0.05

> <Gold.Chemscore.Hbond.Weighted>
-5.8219

> <Gold.Chemscore.Metal.Weighted>
-0.0000

> <Gold.Chemscore.Lipo.Weighted>
-10.7741

> <Gold.Chemscore.Internal_Hbond.Weighted>
0.0000

> <Gold.Chemscore.DEClash.Weighted>
3.0097

> <Gold.Chemscore.DEInternal.Weighted>
1.4597

> <Gold.Chemscore.Rot.Weighted>
4.5922

> <Gold.Chemscore.Internal.Correction.Weighted>
   9.000000E+99

> <Gold.Protein.RotatedTorsions>
[ 6907 6896 6895 6894 ] final  116.33 input  -60.11 | X-H torsion
[ 7974 7965 7964 7962 ] final -157.91 input  175.53 | X-H torsion
[ 8008 7997 7996 7995 ] final   16.83 input   59.86 | X-H torsion
[ 10167 10162 10161 10158 ] final -163.43 input  -65.29 | X-H torsion
[ 10718 10713 10712 10709 ] final   -5.34 input   66.30 | X-H torsion
[ 10763 10752 10751 10750 ] final  -64.23 input  -60.55 | X-H torsion
[ 11005 11000 10999 10996 ] final -105.35 input  -57.11 | X-H torsion

> <Gold.Protein.ActiveResidues>
 VAL166  LYS551  ARG553  GLY616  TRP617  ASP618  TYR619  PRO620  LYS621  CYS622 
 ASP623  PHE694  ASN695  SER759  ASP760  ASP761  ALA762  ILE779  LEU786  VAL792 
 PHE793  MET794  SER795  GLU796  ALA797  LYS798  CYS799  TRP800  GLU811  SER814 

> <Gold.Protein.RotatedAtoms>
  152.4685  133.7976  159.6935 H   0  0  0  0  0  0  0  0  0  0  0  0  # atno 6907 bound_to 6896
  150.8662  133.7562  159.2982 H   0  0  0  0  0  0  0  0  0  0  0  0  # atno 6908 bound_to 6896
  151.5112  135.1068  159.9906 H   0  0  0  0  0  0  0  0  0  0  0  0  # atno 6909 bound_to 6896
  144.7528  140.3903  143.6035 H   0  0  0  0  0  0  0  0  0  0  0  0  # atno 7974 bound_to 7965
  154.8825  140.2975  155.5417 H   0  0  0  0  0  0  0  0  0  0  0  0  # atno 8008 bound_to 7997
  156.3022  140.2439  156.3764 H   0  0  0  0  0  0  0  0  0  0  0  0  # atno 8009 bound_to 7997
  154.8702  140.0402  157.1708 H   0  0  0  0  0  0  0  0  0  0  0  0  # atno 8010 bound_to 7997
  139.6321  144.0419  152.2025 H   0  0  0  0  0  0  0  0  0  0  0  0  # atno 10167 bound_to 10162
  156.7480  130.5230  149.5810 H   0  0  0  0  0  0  0  0  0  0  0  0  # atno 10718 bound_to 10713
  154.3270  135.6184  153.5534 H   0  0  0  0  0  0  0  0  0  0  0  0  # atno 10763 bound_to 10752
  152.9815  135.5737  154.5005 H   0  0  0  0  0  0  0  0  0  0  0  0  # atno 10764 bound_to 10752
  154.4684  135.2858  155.1638 H   0  0  0  0  0  0  0  0  0  0  0  0  # atno 10765 bound_to 10752
  141.1057  133.8800  157.1723 H   0  0  0  0  0  0  0  0  0  0  0  0  # atno 11005 bound_to 11000
  145.6884  139.1633  143.2661 LP  0  0  0  0  0  0  0  0  0  0  0  0  # atno 17320 bound_to 7965
  146.1501  140.6938  142.9326 LP  0  0  0  0  0  0  0  0  0  0  0  0  # atno 17321 bound_to 7965
  140.0087  144.6240  150.7666 LP  0  0  0  0  0  0  0  0  0  0  0  0  # atno 17342 bound_to 10162
  140.7445  143.2862  151.3458 LP  0  0  0  0  0  0  0  0  0  0  0  0  # atno 17343 bound_to 10162
  156.1420  130.6251  151.0480 LP  0  0  0  0  0  0  0  0  0  0  0  0  # atno 17370 bound_to 10713
  157.6790  131.0843  150.7421 LP  0  0  0  0  0  0  0  0  0  0  0  0  # atno 17371 bound_to 10713
  139.9927  135.0058  157.0012 LP  0  0  0  0  0  0  0  0  0  0  0  0  # atno 17394 bound_to 11000
  140.4907  134.1196  155.7232 LP  0  0  0  0  0  0  0  0  0  0  0  0  # atno 17395 bound_to 11000

$$$$
