AV-unprocessed.smi:797|AV-procd|sdf|3767|dock2
  -GOLD-   22720 1203D 1   1.00000     0.00000
 Structure written by MMmdl.
 35 36  0  0  0  0  0  0  0  0  1 V2000
  149.7568  134.2828  154.4460 C   0  0  0  0  0  0  0  0  0  0  0  0
  150.1501  135.5421  155.1597 C   0  0  0  0  0  0  0  0  0  0  0  0
  149.3213  136.6218  155.5701 C   0  0  0  0  0  0  0  0  0  0  0  0
  150.1942  137.4925  156.1583 C   0  0  0  0  0  0  0  0  0  0  0  0
  150.0187  138.8298  156.7960 C   0  0  0  0  0  0  0  0  0  0  0  0
  151.0913  140.0690  155.9522 S   0  0  0  0  0  0  0  0  0  0  0  0
  152.4979  139.7637  156.2543 O   0  0  0  0  0  0  0  0  0  0  0  0
  150.6446  140.2146  154.5579 O   0  0  0  0  0  0  0  0  0  0  0  0
  150.6928  141.5258  156.7923 N   0  0  0  0  0  0  0  0  0  0  0  0
  151.7202  142.2012  157.5890 C   0  0  0  0  0  0  0  0  0  0  0  0
  151.8374  141.5483  158.9807 C   0  0  0  0  0  0  0  0  0  0  0  0
  152.8456  142.2966  159.8677 C   0  0  0  0  0  0  0  0  0  0  0  0
  152.4914  143.7874  159.9821 C   0  0  0  0  0  0  0  0  0  0  0  0
  152.3831  144.4397  158.5947 C   0  0  0  0  0  0  0  0  0  0  0  0
  151.3711  143.6963  157.7080 C   0  0  0  0  0  0  0  0  0  0  0  0
  151.4552  136.9902  156.1198 O   0  0  0  0  0  0  0  0  0  0  0  0
  151.4168  135.7458  155.4813 N   0  0  0  0  0  0  0  0  0  0  0  0
  148.6739  134.2101  154.3438 H   0  0  0  0  0  0  0  0  0  0  0  0
  150.0984  133.4002  154.9873 H   0  0  0  0  0  0  0  0  0  0  0  0
  150.1875  134.2491  153.4450 H   0  0  0  0  0  0  0  0  0  0  0  0
  148.2556  136.7434  155.4453 H   0  0  0  0  0  0  0  0  0  0  0  0
  148.9823  139.1628  156.7444 H   0  0  0  0  0  0  0  0  0  0  0  0
  150.3079  138.7901  157.8463 H   0  0  0  0  0  0  0  0  0  0  0  0
  149.8306  141.4160  157.3253 H   0  0  0  0  0  0  0  0  0  0  0  0
  152.6762  142.1148  157.0711 H   0  0  0  0  0  0  0  0  0  0  0  0
  150.8620  141.5405  159.4693 H   0  0  0  0  0  0  0  0  0  0  0  0
  152.1439  140.5062  158.8854 H   0  0  0  0  0  0  0  0  0  0  0  0
  152.8750  141.8445  160.8594 H   0  0  0  0  0  0  0  0  0  0  0  0
  153.8476  142.1903  159.4499 H   0  0  0  0  0  0  0  0  0  0  0  0
  151.5454  143.8990  160.5134 H   0  0  0  0  0  0  0  0  0  0  0  0
  153.2443  144.3036  160.5785 H   0  0  0  0  0  0  0  0  0  0  0  0
  152.0901  145.4849  158.6969 H   0  0  0  0  0  0  0  0  0  0  0  0
  153.3615  144.4381  158.1125 H   0  0  0  0  0  0  0  0  0  0  0  0
  151.3451  144.1537  156.7180 H   0  0  0  0  0  0  0  0  0  0  0  0
  150.3710  143.8116  158.1282 H   0  0  0  0  0  0  0  0  0  0  0  0
  1  2  1  0  0  0  0
  1 18  1  0  0  0  0
  1 19  1  0  0  0  0
  1 20  1  0  0  0  0
  2 17  2  0  0  0  0
  2  3  1  0  0  0  0
  3  4  2  0  0  0  0
  3 21  1  0  0  0  0
  4  5  1  0  0  0  0
  4 16  1  0  0  0  0
  5  6  1  0  0  0  0
  5 22  1  0  0  0  0
  5 23  1  0  0  0  0
  6  7  2  0  0  0  0
  6  8  2  0  0  0  0
  6  9  1  0  0  0  0
  9 10  1  0  0  0  0
  9 24  1  0  0  0  0
 10 15  1  0  0  0  0
 10 11  1  0  0  0  0
 10 25  1  0  0  0  0
 11 12  1  0  0  0  0
 11 26  1  0  0  0  0
 11 27  1  0  0  0  0
 12 13  1  0  0  0  0
 12 28  1  0  0  0  0
 12 29  1  0  0  0  0
 13 14  1  0  0  0  0
 13 30  1  0  0  0  0
 13 31  1  0  0  0  0
 14 15  1  0  0  0  0
 14 32  1  0  0  0  0
 14 33  1  0  0  0  0
 15 34  1  0  0  0  0
 15 35  1  0  0  0  0
 16 17  1  0  0  0  0
M  END
> <s_m_source_file>
AV-unprocessed.smi

> <i_m_source_file_index>
797

> <i_lp_mmshare_version>
43012

> <i_f3d_flags>
0

> <s_epik_input>
W0NIM11jMVtjSF1jKG9uMSlbQ0gyXVMoPU8pKD1PKVtOSF1bQ0hdMltDSDJdW0NIMl1bQ0gyXVtDSDJdW0NIMl0y

> <s_epik_cmdline>
J2VwaWtfcHl0aG9uJywgJy1waCcsICc3LjAnLCAnLXRuJywgJzgnLCAnLW1hJywgJzIwMCcsICctbWV0YWxfYmluZGluZycsICctaW1hZScsICc8aW5maWxlLm1hZT4nLCAnLW9tYWUnLCAnPG91dGZpbGUubWFlPic=

> <r_lp_tautomer_probability>
1

> <r_epik_Ionization_Penalty>
5.6723e-05

> <r_epik_Ionization_Penalty_Charging>
0

> <r_epik_Ionization_Penalty_Neutral>
5.6723e-05

> <r_epik_State_Penalty>
-0

> <r_epik_Charging_Adjusted_Penalty>
0

> <i_epik_Tot_Q>
0

> <i_epik_Tot_abs_Q>
0

> <r_epik_Metal_State_Penalty>
0.0496356

> <b_epik_Metal_Only>
0

> <s_lp_Force_Field>
OPLS_2005

> <r_lp_Energy>
1.90415

> <b_lp_Chiralities_Consistent>
1

> <s_lp_Variant>
AV-unprocessed.smi:797-1

> <Gold.Version>
5.8.1

> <Gold.Id.Protein>
6NUR|6NUR_protein|mol2

> <Gold.PLP.Fitness>
40.0598

> <Gold.PLP.PLP>
-31.6377

> <Gold.PLP.part.hbond>
-3.0000

> <Gold.PLP.part.metal>
0.0000

> <Gold.PLP.part.buried>
-5.3851

> <Gold.PLP.part.nonpolar>
-23.9427

> <Gold.PLP.part.repulsive>
0.1799

> <Gold.PLP.ligand.clash>
0.0000

> <Gold.PLP.ligand.torsion>
0.3681

> <Gold.PLP.Chemscore.Hbond>
3.0000

> <Gold.PLP.Chemscore.CHOScore>
0.0000

> <Gold.PLP.Chemscore.Metal>
0.0000

> <Gold.Chemscore.Hbonds>
donor molecule, donor type, donor heavy atom, donor atom, acceptor molecule, acceptor atom, score
      P1  H  7989  7998       L1     8  1.00
      P1  H  7997  8010       L1     7  1.00
      P1  H 10752 10765       L1    17  1.00

> <Gold.PLP.Chemscore.Internal.Correction>
0.1583

> <Gold.Rescore>
     Score         DG    S(hbond)    S(metal)    S(lipo)     H(rot)  DE(clash)    DE(int)     intcor
     19.35     -21.04       2.89        0.00      85.58       1.60       0.12       1.58       ----

> <Gold.Chemscore.Fitness>
19.3530

> <Gold.Chemscore.DG>
-21.0449

> <Gold.Chemscore.ZeroCoef>
-5.4800

> <Gold.Chemscore.Hbond>
2.8853

> <Gold.Chemscore.Metal>
0.0000

> <Gold.Chemscore.Lipo>
85.5758

> <Gold.Chemscore.Internal_Hbond>
0.0000

> <Gold.Chemscore.DEClash>
0.1162

> <Gold.Chemscore.DEInternal>
1.5757

> <Gold.Chemscore.Rot>
1.5954

> <Gold.Chemscore.Internal.Correction>
   9.000000E+99

> <Gold.Chemscore.Hbonds>
donor molecule, donor type, donor heavy atom, donor atom, acceptor molecule, acceptor atom, score
      P1  H  7989  7998       L1     8  0.95
      P1  H  7997  8010       L1     7  1.00
      P1  H 10752 10765       L1    17  0.60

> <Gold.Chemscore.Hbond.Weighted>
-9.6368

> <Gold.Chemscore.Metal.Weighted>
-0.0000

> <Gold.Chemscore.Lipo.Weighted>
-10.0124

> <Gold.Chemscore.Internal_Hbond.Weighted>
0.0000

> <Gold.Chemscore.DEClash.Weighted>
0.1162

> <Gold.Chemscore.DEInternal.Weighted>
1.5757

> <Gold.Chemscore.Rot.Weighted>
4.0843

> <Gold.Chemscore.Internal.Correction.Weighted>
   9.000000E+99

> <Gold.Protein.RotatedTorsions>
[ 6907 6896 6895 6894 ] final  -38.30 input  -60.11 | X-H torsion
[ 7974 7965 7964 7962 ] final -140.79 input  175.53 | X-H torsion
[ 8008 7997 7996 7995 ] final   75.82 input   59.86 | X-H torsion
[ 10167 10162 10161 10158 ] final   13.69 input  -65.29 | X-H torsion
[ 10718 10713 10712 10709 ] final  -85.65 input   66.30 | X-H torsion
[ 10763 10752 10751 10750 ] final -177.35 input  -60.55 | X-H torsion
[ 11005 11000 10999 10996 ] final   81.19 input  -57.11 | X-H torsion

> <Gold.Protein.ActiveResidues>
 VAL166  LYS551  ARG553  GLY616  TRP617  ASP618  TYR619  PRO620  LYS621  CYS622 
 ASP623  PHE694  ASN695  SER759  ASP760  ASP761  ALA762  ILE779  LEU786  VAL792 
 PHE793  MET794  SER795  GLU796  ALA797  LYS798  CYS799  TRP800  GLU811  SER814 

> <Gold.Protein.RotatedAtoms>
  151.0041  134.9345  159.7969 H   0  0  0  0  0  0  0  0  0  0  0  0  # atno 6907 bound_to 6896
  152.5285  134.3115  159.9125 H   0  0  0  0  0  0  0  0  0  0  0  0  # atno 6908 bound_to 6896
  151.3121  133.4034  159.2682 H   0  0  0  0  0  0  0  0  0  0  0  0  # atno 6909 bound_to 6896
  144.8570  140.6158  143.5353 H   0  0  0  0  0  0  0  0  0  0  0  0  # atno 7974 bound_to 7965
  155.8184  140.3470  155.5499 H   0  0  0  0  0  0  0  0  0  0  0  0  # atno 8008 bound_to 7997
  155.8368  140.0935  157.1779 H   0  0  0  0  0  0  0  0  0  0  0  0  # atno 8009 bound_to 7997
  154.4004  140.1402  156.3667 H   0  0  0  0  0  0  0  0  0  0  0  0  # atno 8010 bound_to 7997
  140.5985  143.8652  150.6942 H   0  0  0  0  0  0  0  0  0  0  0  0  # atno 10167 bound_to 10162
  155.9995  130.4738  150.4595 H   0  0  0  0  0  0  0  0  0  0  0  0  # atno 10718 bound_to 10713
  154.5612  135.2820  155.0917 H   0  0  0  0  0  0  0  0  0  0  0  0  # atno 10763 bound_to 10752
  154.2326  135.6371  153.5184 H   0  0  0  0  0  0  0  0  0  0  0  0  # atno 10764 bound_to 10752
  153.0029  135.5541  154.6206 H   0  0  0  0  0  0  0  0  0  0  0  0  # atno 10765 bound_to 10752
  139.9107  134.7978  156.2009 H   0  0  0  0  0  0  0  0  0  0  0  0  # atno 11005 bound_to 11000
  145.4387  139.1538  143.3982 LP  0  0  0  0  0  0  0  0  0  0  0  0  # atno 17320 bound_to 7965
  146.2831  140.4507  142.8769 LP  0  0  0  0  0  0  0  0  0  0  0  0  # atno 17321 bound_to 7965
  140.2192  143.3822  152.1656 LP  0  0  0  0  0  0  0  0  0  0  0  0  # atno 17342 bound_to 10162
  139.5275  144.7120  151.5177 LP  0  0  0  0  0  0  0  0  0  0  0  0  # atno 17343 bound_to 10162
  157.2620  131.0569  151.2314 LP  0  0  0  0  0  0  0  0  0  0  0  0  # atno 17370 bound_to 10713
  157.3425  130.7041  149.6390 LP  0  0  0  0  0  0  0  0  0  0  0  0  # atno 17371 bound_to 10713
  141.0526  133.6881  156.1799 LP  0  0  0  0  0  0  0  0  0  0  0  0  # atno 17394 bound_to 11000
  140.6787  134.4790  157.5588 LP  0  0  0  0  0  0  0  0  0  0  0  0  # atno 17395 bound_to 11000

$$$$
