AV-unprocessed.smi:34|AV-procd|sdf|235|dock8
  -GOLD-   2262015573D 1   1.00000     0.00000
 Structure written by MMmdl.
 54 58  0  0  0  0  0  0  0  0  2 V2000
  151.6316  139.9364  158.6988 O   0  0  0  0  0  0  0  0  0  0  0  0
  151.6252  140.9092  157.9412 C   0  0  0  0  0  0  0  0  0  0  0  0
  151.5526  140.9102  156.5858 N   0  5  0  0  0  0  0  0  0  0  0  0
  151.7522  139.7694  155.9082 C   0  0  0  0  0  0  0  0  0  0  0  0
  152.7326  139.6886  154.9721 N   0  0  0  0  0  0  0  0  0  0  0  0
  152.9359  138.5485  154.3017 C   0  0  0  0  0  0  0  0  0  0  0  0
  152.2846  137.3856  154.4037 N   0  0  0  0  0  0  0  0  0  0  0  0
  151.2873  137.4591  155.3329 C   0  0  0  0  0  0  0  0  0  0  0  0
  150.9601  138.6065  156.1126 C   0  0  0  0  0  0  0  0  0  0  0  0
  149.8888  138.3402  156.9532 N   0  0  0  0  0  0  0  0  0  0  0  0
  149.6225  137.0700  156.6552 C   0  0  0  0  0  0  0  0  0  0  0  0
  150.3993  136.4742  155.7277 N   0  0  0  0  0  0  0  0  0  0  0  0
  150.3260  135.0741  155.2175 C   0  0  2  0  0  0  0  0  0  0  0  0
  149.0901  134.9277  154.5856 O   0  0  0  0  0  0  0  0  0  0  0  0
  148.5270  133.6605  154.9011 C   0  0  1  0  0  0  0  0  0  0  0  0
  149.0437  132.6099  153.9042 C   0  0  0  0  0  0  0  0  0  0  0  0
  148.2823  132.6780  152.7098 O   0  0  0  0  0  0  0  0  0  0  0  0
  147.3029  131.7794  152.4841 C   0  0  0  0  0  0  0  0  0  0  0  0
  147.2739  130.6589  152.9977 O   0  0  0  0  0  0  0  0  0  0  0  0
  146.2603  132.2793  151.5421 C   0  0  0  0  0  0  0  0  0  0  0  0
  145.2746  131.3854  151.0623 C   0  0  0  0  0  0  0  0  0  0  0  0
  144.2792  131.8274  150.1693 C   0  0  0  0  0  0  0  0  0  0  0  0
  144.2563  133.1691  149.7464 C   0  0  0  0  0  0  0  0  0  0  0  0
  145.2302  134.0687  150.2177 C   0  0  0  0  0  0  0  0  0  0  0  0
  146.2273  133.6283  151.1099 C   0  0  0  0  0  0  0  0  0  0  0  0
  149.0087  133.4128  156.3311 C   0  0  2  0  0  0  0  0  0  0  0  0
  148.1865  134.0253  157.1843 F   0  0  0  0  0  0  0  0  0  0  0  0
  150.3804  134.0727  156.3846 C   0  0  1  0  0  0  0  0  0  0  0  0
  151.3986  133.1081  156.2083 O   0  0  0  0  0  0  0  0  0  0  0  0
  151.7802  142.2855  158.5299 C   0  0  0  0  0  0  0  0  0  0  0  0
  152.1943  142.4292  159.8738 C   0  0  0  0  0  0  0  0  0  0  0  0
  152.3195  143.7074  160.4521 C   0  0  0  0  0  0  0  0  0  0  0  0
  152.0213  144.8558  159.6951 C   0  0  0  0  0  0  0  0  0  0  0  0
  151.5951  144.7247  158.3602 C   0  0  0  0  0  0  0  0  0  0  0  0
  151.4711  143.4468  157.7806 C   0  0  0  0  0  0  0  0  0  0  0  0
  153.7382  138.5712  153.5792 H   0  0  0  0  0  0  0  0  0  0  0  0
  148.8182  136.5394  157.1430 H   0  0  0  0  0  0  0  0  0  0  0  0
  151.1465  134.9723  154.5058 H   0  0  0  0  0  0  0  0  0  0  0  0
  147.4377  133.7023  154.8582 H   0  0  0  0  0  0  0  0  0  0  0  0
  150.1027  132.7665  153.6941 H   0  0  0  0  0  0  0  0  0  0  0  0
  148.9386  131.6100  154.3270 H   0  0  0  0  0  0  0  0  0  0  0  0
  145.2723  130.3503  151.3723 H   0  0  0  0  0  0  0  0  0  0  0  0
  143.5325  131.1351  149.8086 H   0  0  0  0  0  0  0  0  0  0  0  0
  143.4928  133.5078  149.0616 H   0  0  0  0  0  0  0  0  0  0  0  0
  145.2131  135.0991  149.8947 H   0  0  0  0  0  0  0  0  0  0  0  0
  146.9598  134.3444  151.4526 H   0  0  0  0  0  0  0  0  0  0  0  0
  149.0146  132.3585  156.6112 H   0  0  0  0  0  0  0  0  0  0  0  0
  150.5492  134.5778  157.3371 H   0  0  0  0  0  0  0  0  0  0  0  0
  151.9009  133.3358  155.4412 H   0  0  0  0  0  0  0  0  0  0  0  0
  152.4242  141.5571  160.4687 H   0  0  0  0  0  0  0  0  0  0  0  0
  152.6425  143.8056  161.4777 H   0  0  0  0  0  0  0  0  0  0  0  0
  152.1152  145.8357  160.1391 H   0  0  0  0  0  0  0  0  0  0  0  0
  151.3592  145.6047  157.7803 H   0  0  0  0  0  0  0  0  0  0  0  0
  151.1319  143.3671  156.7577 H   0  0  0  0  0  0  0  0  0  0  0  0
  1  2  2  0  0  0  0
  2  3  1  0  0  0  0
  2 30  1  0  0  0  0
  3  4  1  0  0  0  0
  4  9  1  0  0  0  0
  4  5  2  0  0  0  0
  5  6  1  0  0  0  0
  6  7  2  0  0  0  0
  6 36  1  0  0  0  0
  7  8  1  0  0  0  0
  8 12  1  0  0  0  0
  8  9  2  0  0  0  0
  9 10  1  0  0  0  0
 10 11  2  0  0  0  0
 11 12  1  0  0  0  0
 11 37  1  0  0  0  0
 12 13  1  0  0  0  0
 13 28  1  0  0  0  0
 13 14  1  0  0  0  0
 13 38  1  0  0  0  0
 14 15  1  0  0  0  0
 15 16  1  0  0  0  0
 15 26  1  0  0  0  0
 15 39  1  0  0  0  0
 16 17  1  0  0  0  0
 16 40  1  0  0  0  0
 16 41  1  0  0  0  0
 17 18  1  0  0  0  0
 18 19  2  0  0  0  0
 18 20  1  0  0  0  0
 20 25  1  0  0  0  0
 20 21  2  0  0  0  0
 21 22  1  0  0  0  0
 21 42  1  0  0  0  0
 22 23  2  0  0  0  0
 22 43  1  0  0  0  0
 23 24  1  0  0  0  0
 23 44  1  0  0  0  0
 24 25  2  0  0  0  0
 24 45  1  0  0  0  0
 25 46  1  0  0  0  0
 26 27  1  0  0  0  0
 26 28  1  0  0  0  0
 26 47  1  0  0  0  0
 28 29  1  0  0  0  0
 28 48  1  0  0  0  0
 29 49  1  0  0  0  0
 30 35  1  0  0  0  0
 30 31  2  0  0  0  0
 31 32  1  0  0  0  0
 31 50  1  0  0  0  0
 32 33  2  0  0  0  0
 32 51  1  0  0  0  0
 33 34  1  0  0  0  0
 33 52  1  0  0  0  0
 34 35  2  0  0  0  0
 34 53  1  0  0  0  0
 35 54  1  0  0  0  0
M  CHG  1   3  -1
M  END
> <s_m_source_file>
AV-unprocessed.smi

> <i_m_source_file_index>
34

> <i_lp_mmshare_version>
43012

> <i_f3d_flags>
0

> <s_epik_input>
W2NIXTFbY0hdW2NIXVtjSF1bY0hdYzFDKD1PKVtOSF1jKG5bY0hdbjIpYyhjMjMpbltjSF1uM1tDQEBIXTRPW0NASF0oW0NAQEhdKEYpW0NASF00W09IXSlbQ0gyXU9DKD1PKWM1W2NIXVtjSF1bY0hdW2NIXVtjSF01

> <s_epik_cmdline>
J2VwaWtfcHl0aG9uJywgJy1waCcsICc3LjAnLCAnLXRuJywgJzgnLCAnLW1hJywgJzIwMCcsICctbWV0YWxfYmluZGluZycsICctaW1hZScsICc8aW5maWxlLm1hZT4nLCAnLW9tYWUnLCAnPG91dGZpbGUubWFlPic=

> <r_lp_tautomer_probability>
1

> <r_epik_Ionization_Penalty>
4.33227

> <r_epik_Ionization_Penalty_Charging>
3.41027

> <r_epik_Ionization_Penalty_Neutral>
0.922001

> <r_epik_State_Penalty>
3.41358

> <r_epik_Charging_Adjusted_Penalty>
6.82385

> <i_epik_Tot_Q>
-1

> <i_epik_Tot_abs_Q>
1

> <r_epik_Metal_State_Penalty>
0.496292

> <b_epik_Metal_Only>
1

> <s_epik_Chemistry_Notes>
This compound has an ester and may undergo hydrolysis at high or low pH. This compound contains an acetal/aminal-like group ( X-CH(R)-Y where X, Y are N, S, or O) that may be acid/base labile, releasing an aldehyde.

> <s_lp_Force_Field>
OPLS_2005

> <r_lp_Energy>
42.8672

> <b_lp_Chiralities_Consistent>
1

> <s_lp_Variant>
AV-unprocessed.smi:34-21

> <Gold.Version>
5.8.1

> <Gold.Id.Protein>
6NUR|6NUR_protein|mol2

> <Gold.PLP.Fitness>
64.5382

> <Gold.PLP.PLP>
-61.2339

> <Gold.PLP.part.hbond>
-2.9921

> <Gold.PLP.part.metal>
0.0000

> <Gold.PLP.part.buried>
-9.4983

> <Gold.PLP.part.nonpolar>
-49.2356

> <Gold.PLP.part.repulsive>
0.5871

> <Gold.PLP.ligand.clash>
0.0000

> <Gold.PLP.ligand.torsion>
1.5911

> <Gold.PLP.Chemscore.Hbond>
2.0535

> <Gold.PLP.Chemscore.CHOScore>
0.0000

> <Gold.PLP.Chemscore.Metal>
0.0000

> <Gold.Chemscore.Hbonds>
donor molecule, donor type, donor heavy atom, donor atom, acceptor molecule, acceptor atom, score
      P1  H  7989  7998       L1     5  0.27
      P1  H  7997  8009       L1     5  1.00
      P1  H 10752 10763       L1     7  0.75

> <Gold.PLP.Chemscore.Internal.Correction>
0.3258

> <Gold.Rescore>
     Score         DG    S(hbond)    S(metal)    S(lipo)     H(rot)  DE(clash)    DE(int)     intcor
     15.37     -19.44       1.37        0.00     139.20       2.69       0.04       4.02       ----

> <Gold.Chemscore.Fitness>
15.3749

> <Gold.Chemscore.DG>
-19.4364

> <Gold.Chemscore.ZeroCoef>
-5.4800

> <Gold.Chemscore.Hbond>
1.3677

> <Gold.Chemscore.Metal>
0.0000

> <Gold.Chemscore.Lipo>
139.1951

> <Gold.Chemscore.Internal_Hbond>
0.0000

> <Gold.Chemscore.DEClash>
0.0427

> <Gold.Chemscore.DEInternal>
4.0188

> <Gold.Chemscore.Rot>
2.6944

> <Gold.Chemscore.Internal.Correction>
   9.000000E+99

> <Gold.Chemscore.Hbonds>
donor molecule, donor type, donor heavy atom, donor atom, acceptor molecule, acceptor atom, score
      P1  H  7989  7998       L1     5  0.01
      P1  H  7997  8009       L1     5  0.41
      P1  H 10752 10763       L1     7  0.67

> <Gold.Chemscore.Hbond.Weighted>
-4.5681

> <Gold.Chemscore.Metal.Weighted>
-0.0000

> <Gold.Chemscore.Lipo.Weighted>
-16.2858

> <Gold.Chemscore.Internal_Hbond.Weighted>
0.0000

> <Gold.Chemscore.DEClash.Weighted>
0.0427

> <Gold.Chemscore.DEInternal.Weighted>
4.0188

> <Gold.Chemscore.Rot.Weighted>
6.8975

> <Gold.Chemscore.Internal.Correction.Weighted>
   9.000000E+99

> <Gold.Protein.RotatedTorsions>
[ 6907 6896 6895 6894 ] final  -17.31 input  -60.11 | X-H torsion
[ 7974 7965 7964 7962 ] final -115.59 input  175.53 | X-H torsion
[ 8008 7997 7996 7995 ] final -133.03 input   59.86 | X-H torsion
[ 10167 10162 10161 10158 ] final   78.29 input  -65.29 | X-H torsion
[ 10718 10713 10712 10709 ] final  177.21 input   66.30 | X-H torsion
[ 10763 10752 10751 10750 ] final   33.59 input  -60.55 | X-H torsion
[ 11005 11000 10999 10996 ] final   41.23 input  -57.11 | X-H torsion

> <Gold.Protein.ActiveResidues>
 VAL166  LYS551  ARG553  GLY616  TRP617  ASP618  TYR619  PRO620  LYS621  CYS622 
 ASP623  PHE694  ASN695  SER759  ASP760  ASP761  ALA762  ILE779  LEU786  VAL792 
 PHE793  MET794  SER795  GLU796  ALA797  LYS798  CYS799  TRP800  GLU811  SER814 

> <Gold.Protein.RotatedAtoms>
  151.2954  135.0753  159.9218 H   0  0  0  0  0  0  0  0  0  0  0  0  # atno 6907 bound_to 6896
  152.5308  133.9889  159.7852 H   0  0  0  0  0  0  0  0  0  0  0  0  # atno 6908 bound_to 6896
  151.0166  133.5864  159.2707 H   0  0  0  0  0  0  0  0  0  0  0  0  # atno 6909 bound_to 6896
  145.1066  140.8585  143.3894 H   0  0  0  0  0  0  0  0  0  0  0  0  # atno 7974 bound_to 7965
  155.3388  140.0471  157.3044 H   0  0  0  0  0  0  0  0  0  0  0  0  # atno 8008 bound_to 7997
  154.5288  140.2250  155.8806 H   0  0  0  0  0  0  0  0  0  0  0  0  # atno 8009 bound_to 7997
  156.1767  140.3083  155.9079 H   0  0  0  0  0  0  0  0  0  0  0  0  # atno 8010 bound_to 7997
  139.9725  144.5884  150.7972 H   0  0  0  0  0  0  0  0  0  0  0  0  # atno 10167 bound_to 10162
  156.9086  130.9902  151.3024 H   0  0  0  0  0  0  0  0  0  0  0  0  # atno 10718 bound_to 10713
  153.0205  135.6383  154.1535 H   0  0  0  0  0  0  0  0  0  0  0  0  # atno 10763 bound_to 10752
  154.1270  135.2843  155.3196 H   0  0  0  0  0  0  0  0  0  0  0  0  # atno 10764 bound_to 10752
  154.6222  135.5521  153.7650 H   0  0  0  0  0  0  0  0  0  0  0  0  # atno 10765 bound_to 10752
  140.1854  134.4052  155.8176 H   0  0  0  0  0  0  0  0  0  0  0  0  # atno 11005 bound_to 11000
  145.0894  139.2901  143.5742 LP  0  0  0  0  0  0  0  0  0  0  0  0  # atno 17320 bound_to 7965
  146.3528  140.0427  142.8642 LP  0  0  0  0  0  0  0  0  0  0  0  0  # atno 17321 bound_to 7965
  140.7517  143.2977  151.3162 LP  0  0  0  0  0  0  0  0  0  0  0  0  # atno 17342 bound_to 10162
  139.6470  144.0433  152.2598 LP  0  0  0  0  0  0  0  0  0  0  0  0  # atno 17343 bound_to 10162
  157.5981  130.8492  149.8760 LP  0  0  0  0  0  0  0  0  0  0  0  0  # atno 17370 bound_to 10713
  156.0547  130.3711  150.1120 LP  0  0  0  0  0  0  0  0  0  0  0  0  # atno 17371 bound_to 10713
  141.2224  133.7020  156.8003 LP  0  0  0  0  0  0  0  0  0  0  0  0  # atno 17394 bound_to 11000
  140.2219  134.8750  157.3386 LP  0  0  0  0  0  0  0  0  0  0  0  0  # atno 17395 bound_to 11000

$$$$
