AV-unprocessed.smi:47|AV-procd|sdf|439|dock10
  -GOLD-   2262016313D 1   1.00000     0.00000
 Structure written by MMmdl.
 32 34  0  0  0  0  0  0  0  0  2 V2000
  145.2857  141.8278  153.7466 O   0  0  0  0  0  0  0  0  0  0  0  0
  146.3194  141.0567  154.3228 C   0  0  1  0  0  0  0  0  0  0  0  0
  147.1026  140.2916  153.2463 C   0  0  0  0  0  0  0  0  0  0  0  0
  148.5048  140.3256  153.6862 N   0  3  0  0  0  0  0  0  0  0  0  0
  148.6922  141.6215  154.3593 C   0  0  2  0  0  0  0  0  0  0  0  0
  149.8504  141.4274  155.2918 C   0  0  0  0  0  0  0  0  0  0  0  0
  150.7478  140.4405  155.2279 N   0  0  0  0  0  0  0  0  0  0  0  0
  151.6082  140.6609  156.2868 N   0  0  0  0  0  0  0  0  0  0  0  0
  151.1666  141.7605  156.9147 C   0  0  0  0  0  0  0  0  0  0  0  0
  151.7993  142.3393  158.1022 C   0  0  0  0  0  0  0  0  0  0  0  0
  152.5262  141.5211  158.9983 C   0  0  0  0  0  0  0  0  0  0  0  0
  153.1383  142.0785  160.1379 C   0  0  0  0  0  0  0  0  0  0  0  0
  153.0327  143.4587  160.3919 C   0  0  0  0  0  0  0  0  0  0  0  0
  152.3133  144.2815  159.5056 C   0  0  0  0  0  0  0  0  0  0  0  0
  151.6994  143.7252  158.3666 C   0  0  0  0  0  0  0  0  0  0  0  0
  150.0708  142.2614  156.3169 N   0  0  0  0  0  0  0  0  0  0  0  0
  147.3540  141.9410  155.0389 C   0  0  0  0  0  0  0  0  0  0  0  0
  145.8838  140.3539  155.0344 H   0  0  0  0  0  0  0  0  0  0  0  0
  148.9279  142.3754  153.6065 H   0  0  0  0  0  0  0  0  0  0  0  0
  149.5365  143.0749  156.5863 H   0  0  0  0  0  0  0  0  0  0  0  0
  144.5649  141.2554  153.5296 H   0  0  0  0  0  0  0  0  0  0  0  0
  146.7451  139.2709  153.1069 H   0  0  0  0  0  0  0  0  0  0  0  0
  147.0418  140.8040  152.2847 H   0  0  0  0  0  0  0  0  0  0  0  0
  148.6445  139.5949  154.3698 H   0  0  0  0  0  0  0  0  0  0  0  0
  152.6202  140.4594  158.8243 H   0  0  0  0  0  0  0  0  0  0  0  0
  153.6904  141.4466  160.8179 H   0  0  0  0  0  0  0  0  0  0  0  0
  153.5035  143.8858  161.2651 H   0  0  0  0  0  0  0  0  0  0  0  0
  152.2326  145.3413  159.6983 H   0  0  0  0  0  0  0  0  0  0  0  0
  151.1540  144.3757  157.6987 H   0  0  0  0  0  0  0  0  0  0  0  0
  147.1274  143.0069  154.9884 H   0  0  0  0  0  0  0  0  0  0  0  0
  147.3805  141.6686  156.0951 H   0  0  0  0  0  0  0  0  0  0  0  0
  149.1481  140.2046  152.9169 H   0  0  0  0  0  0  0  0  0  0  0  0
  1  2  1  0  0  0  0
  1 21  1  0  0  0  0
  2 18  1  0  0  0  0
  2 17  1  0  0  0  0
  2  3  1  0  0  0  0
  3  4  1  0  0  0  0
  3 22  1  0  0  0  0
  3 23  1  0  0  0  0
  4  5  1  0  0  0  0
  4 24  1  0  0  0  0
  4 32  1  0  0  0  0
  5 19  1  0  0  0  0
  5 17  1  0  0  0  0
  5  6  1  0  0  0  0
  6  7  2  0  0  0  0
  6 16  1  0  0  0  0
  7  8  1  0  0  0  0
  8  9  2  0  0  0  0
  9 16  1  0  0  0  0
  9 10  1  0  0  0  0
 10 15  1  0  0  0  0
 10 11  2  0  0  0  0
 11 12  1  0  0  0  0
 11 25  1  0  0  0  0
 12 13  2  0  0  0  0
 12 26  1  0  0  0  0
 13 14  1  0  0  0  0
 13 27  1  0  0  0  0
 14 15  2  0  0  0  0
 14 28  1  0  0  0  0
 15 29  1  0  0  0  0
 16 20  1  0  0  0  0
 17 30  1  0  0  0  0
 17 31  1  0  0  0  0
M  CHG  1   4   1
M  END
> <s_m_source_file>
AV-unprocessed.smi

> <i_m_source_file_index>
47

> <i_lp_mmshare_version>
43012

> <i_f3d_flags>
0

> <s_epik_input>
W09IXVtDQEhdMVtDSDJdW05IXVtDQEBIXShbQ0gyXTEpYzJuW25IXWMobjIpLWMzW2NIXVtjSF1bY0hdW2NIXVtjSF0z

> <s_epik_cmdline>
J2VwaWtfcHl0aG9uJywgJy1waCcsICc3LjAnLCAnLXRuJywgJzgnLCAnLW1hJywgJzIwMCcsICctbWV0YWxfYmluZGluZycsICctaW1hZScsICc8aW5maWxlLm1hZT4nLCAnLW9tYWUnLCAnPG91dGZpbGUubWFlPic=

> <r_lp_tautomer_probability>
0.0517155

> <r_epik_Ionization_Penalty>
2.45729

> <r_epik_Ionization_Penalty_Charging>
0.0688988

> <r_epik_Ionization_Penalty_Neutral>
2.3884

> <r_epik_State_Penalty>
2.69236

> <r_epik_Charging_Adjusted_Penalty>
2.76126

> <i_epik_Tot_Q>
1

> <i_epik_Tot_abs_Q>
1

> <r_epik_Metal_State_Penalty>
3.18974

> <b_epik_Metal_Only>
0

> <s_lp_Force_Field>
OPLS_2005

> <r_lp_Energy>
30.5648

> <b_lp_Chiralities_Consistent>
1

> <s_lp_Variant>
AV-unprocessed.smi:47-17

> <Gold.Version>
5.8.1

> <Gold.Id.Protein>
6NUR|6NUR_protein|mol2

> <Gold.PLP.Fitness>
44.5940

> <Gold.PLP.PLP>
-34.9425

> <Gold.PLP.part.hbond>
-4.3492

> <Gold.PLP.part.metal>
0.0000

> <Gold.PLP.part.buried>
-0.5815

> <Gold.PLP.part.nonpolar>
-29.9239

> <Gold.PLP.part.repulsive>
0.2625

> <Gold.PLP.ligand.clash>
0.0000

> <Gold.PLP.ligand.torsion>
0.7610

> <Gold.PLP.Chemscore.Hbond>
3.7200

> <Gold.PLP.Chemscore.CHOScore>
0.0000

> <Gold.PLP.Chemscore.Metal>
0.0000

> <Gold.Chemscore.Hbonds>
donor molecule, donor type, donor heavy atom, donor atom, acceptor molecule, acceptor atom, score
      L1  H     1    21       P1 10175  0.95
      L1  H     4    32       P1  7957  1.00
      L1  H    16    20       P1  8028  0.72
      P1  H  7989  7998       L1     7  1.00

> <Gold.PLP.Chemscore.Internal.Correction>
0.0136

> <Gold.Rescore>
     Score         DG    S(hbond)    S(metal)    S(lipo)     H(rot)  DE(clash)    DE(int)     intcor
     19.20     -21.04       2.58        0.00      92.09       1.50       1.41       0.43       ----

> <Gold.Chemscore.Fitness>
19.2042

> <Gold.Chemscore.DG>
-21.0442

> <Gold.Chemscore.ZeroCoef>
-5.4800

> <Gold.Chemscore.Hbond>
2.5810

> <Gold.Chemscore.Metal>
0.0000

> <Gold.Chemscore.Lipo>
92.0941

> <Gold.Chemscore.Internal_Hbond>
0.0000

> <Gold.Chemscore.DEClash>
1.4072

> <Gold.Chemscore.DEInternal>
0.4328

> <Gold.Chemscore.Rot>
1.4966

> <Gold.Chemscore.Internal.Correction>
   9.000000E+99

> <Gold.Chemscore.Hbonds>
donor molecule, donor type, donor heavy atom, donor atom, acceptor molecule, acceptor atom, score
      L1  H     1    21       P1 10175  0.20
      L1  H     4    32       P1  7957  0.98
      L1  H    16    20       P1  8028  0.70
      P1  H  7989  7998       L1     7  0.19

> <Gold.Chemscore.Hbond.Weighted>
-8.6204

> <Gold.Chemscore.Metal.Weighted>
-0.0000

> <Gold.Chemscore.Lipo.Weighted>
-10.7750

> <Gold.Chemscore.Internal_Hbond.Weighted>
0.0000

> <Gold.Chemscore.DEClash.Weighted>
1.4072

> <Gold.Chemscore.DEInternal.Weighted>
0.4328

> <Gold.Chemscore.Rot.Weighted>
3.8312

> <Gold.Chemscore.Internal.Correction.Weighted>
   9.000000E+99

> <Gold.Protein.RotatedTorsions>
[ 6907 6896 6895 6894 ] final  -46.99 input  -60.11 | X-H torsion
[ 7974 7965 7964 7962 ] final   57.12 input  175.53 | X-H torsion
[ 8008 7997 7996 7995 ] final  -17.64 input   59.86 | X-H torsion
[ 10167 10162 10161 10158 ] final -172.32 input  -65.29 | X-H torsion
[ 10718 10713 10712 10709 ] final   94.22 input   66.30 | X-H torsion
[ 10763 10752 10751 10750 ] final  170.92 input  -60.55 | X-H torsion
[ 11005 11000 10999 10996 ] final  164.39 input  -57.11 | X-H torsion

> <Gold.Protein.ActiveResidues>
 VAL166  LYS551  ARG553  GLY616  TRP617  ASP618  TYR619  PRO620  LYS621  CYS622 
 ASP623  PHE694  ASN695  SER759  ASP760  ASP761  ALA762  ILE779  LEU786  VAL792 
 PHE793  MET794  SER795  GLU796  ALA797  LYS798  CYS799  TRP800  GLU811  SER814 

> <Gold.Protein.RotatedAtoms>
  150.9054  134.8469  159.7388 H   0  0  0  0  0  0  0  0  0  0  0  0  # atno 6907 bound_to 6896
  152.4915  134.4439  159.9562 H   0  0  0  0  0  0  0  0  0  0  0  0  # atno 6908 bound_to 6896
  151.4487  133.3584  159.2827 H   0  0  0  0  0  0  0  0  0  0  0  0  # atno 6909 bound_to 6896
  145.9325  139.3819  143.0412 H   0  0  0  0  0  0  0  0  0  0  0  0  # atno 7974 bound_to 7965
  154.4963  140.2137  155.9440 H   0  0  0  0  0  0  0  0  0  0  0  0  # atno 8008 bound_to 7997
  156.1375  140.3186  155.8411 H   0  0  0  0  0  0  0  0  0  0  0  0  # atno 8009 bound_to 7997
  155.4183  140.0495  157.3018 H   0  0  0  0  0  0  0  0  0  0  0  0  # atno 8010 bound_to 7997
  139.5751  144.1550  152.1439 H   0  0  0  0  0  0  0  0  0  0  0  0  # atno 10167 bound_to 10162
  157.6949  131.0505  150.4153 H   0  0  0  0  0  0  0  0  0  0  0  0  # atno 10718 bound_to 10713
  154.4045  135.2755  155.2076 H   0  0  0  0  0  0  0  0  0  0  0  0  # atno 10763 bound_to 10752
  154.4087  135.6027  153.5943 H   0  0  0  0  0  0  0  0  0  0  0  0  # atno 10764 bound_to 10752
  152.9831  135.5944  154.4318 H   0  0  0  0  0  0  0  0  0  0  0  0  # atno 10765 bound_to 10752
  140.2454  134.8018  157.3451 H   0  0  0  0  0  0  0  0  0  0  0  0  # atno 11005 bound_to 11000
  145.8407  140.9582  143.0801 LP  0  0  0  0  0  0  0  0  0  0  0  0  # atno 17320 bound_to 7965
  144.6767  140.0280  143.7483 LP  0  0  0  0  0  0  0  0  0  0  0  0  # atno 17321 bound_to 7965
  140.1091  144.5472  150.6937 LP  0  0  0  0  0  0  0  0  0  0  0  0  # atno 17342 bound_to 10162
  140.7034  143.2451  151.4797 LP  0  0  0  0  0  0  0  0  0  0  0  0  # atno 17343 bound_to 10162
  156.4533  130.4016  149.6622 LP  0  0  0  0  0  0  0  0  0  0  0  0  # atno 17370 bound_to 10713
  156.3763  130.7556  151.2545 LP  0  0  0  0  0  0  0  0  0  0  0  0  # atno 17371 bound_to 10713
  140.1611  134.4727  155.7894 LP  0  0  0  0  0  0  0  0  0  0  0  0  # atno 17394 bound_to 11000
  141.2206  133.6902  156.7546 LP  0  0  0  0  0  0  0  0  0  0  0  0  # atno 17395 bound_to 11000

$$$$
