AV-unprocessed.smi:1976|AV-procd|sdf|7985|dock2
  -GOLD-   2272010163D 1   1.00000     0.00000
 Structure written by MMmdl.
 45 47  0  0  0  0  0  0  0  0  2 V2000
  148.6686  139.4667  156.1188 O   0  0  0  0  0  0  0  0  0  0  0  0
  149.0179  139.9846  155.0575 C   0  0  0  0  0  0  0  0  0  0  0  0
  150.0905  141.0823  155.0308 C   0  0  0  0  0  0  0  0  0  0  0  0
  150.9184  141.1051  156.2479 N   0  0  0  0  0  0  0  0  0  0  0  0
  150.9654  142.3211  156.9572 C   0  0  0  0  0  0  0  0  0  0  0  0
  151.6628  142.4786  158.0981 C   0  0  0  0  0  0  0  0  0  0  0  0
  151.7242  143.8192  158.8134 C   0  0  0  0  0  0  0  0  0  0  0  0
  150.5044  144.2572  159.1263 F   0  0  0  0  0  0  0  0  0  0  0  0
  152.4380  143.7288  159.9362 F   0  0  0  0  0  0  0  0  0  0  0  0
  152.3038  144.7256  158.0276 F   0  0  0  0  0  0  0  0  0  0  0  0
  152.4108  141.3262  158.5610 C   0  0  0  0  0  0  0  0  0  0  0  0
  152.3791  140.1564  157.8930 C   0  0  0  0  0  0  0  0  0  0  0  0
  151.5920  139.9928  156.6686 C   0  0  0  0  0  0  0  0  0  0  0  0
  151.5407  138.9236  156.0607 O   0  0  0  0  0  0  0  0  0  0  0  0
  148.5060  139.6331  153.8680 N   0  0  0  0  0  0  0  0  0  0  0  0
  147.4633  138.6318  153.6632 C   0  0  2  0  0  0  0  0  0  0  0  0
  147.1209  138.4157  152.1937 C   0  0  0  0  0  0  0  0  0  0  0  0
  145.7455  137.7504  152.2763 C   0  0  0  0  0  0  0  0  0  0  0  0
  145.0803  138.3308  153.4660 N   0  3  1  0  0  0  0  0  0  0  0  0
  144.2317  137.3775  154.2221 C   0  0  0  0  0  0  0  0  0  0  0  0
  143.5587  138.0732  155.4205 C   0  0  0  0  0  0  0  0  0  0  0  0
  144.5408  138.9074  156.2687 C   0  0  0  0  0  0  0  0  0  0  0  0
  145.9924  138.7673  155.7873 C   0  0  0  0  0  0  0  0  0  0  0  0
  146.1114  139.0457  154.2709 C   0  0  1  0  0  0  0  0  0  0  0  0
  150.7026  140.9473  154.1375 H   0  0  0  0  0  0  0  0  0  0  0  0
  149.6089  142.0527  154.8994 H   0  0  0  0  0  0  0  0  0  0  0  0
  150.3888  143.1207  156.5146 H   0  0  0  0  0  0  0  0  0  0  0  0
  153.0037  141.3985  159.4608 H   0  0  0  0  0  0  0  0  0  0  0  0
  152.9465  139.3174  158.2685 H   0  0  0  0  0  0  0  0  0  0  0  0
  148.8599  140.1002  153.0455 H   0  0  0  0  0  0  0  0  0  0  0  0
  147.7770  137.6709  154.0775 H   0  0  0  0  0  0  0  0  0  0  0  0
  147.0421  139.3721  151.6740 H   0  0  0  0  0  0  0  0  0  0  0  0
  147.8558  137.8038  151.6694 H   0  0  0  0  0  0  0  0  0  0  0  0
  145.1524  137.9040  151.3745 H   0  0  0  0  0  0  0  0  0  0  0  0
  145.8755  136.6750  152.4093 H   0  0  0  0  0  0  0  0  0  0  0  0
  143.4726  136.9600  153.5597 H   0  0  0  0  0  0  0  0  0  0  0  0
  144.8407  136.5405  154.5678 H   0  0  0  0  0  0  0  0  0  0  0  0
  142.7608  138.7233  155.0600 H   0  0  0  0  0  0  0  0  0  0  0  0
  143.0735  137.3232  156.0460 H   0  0  0  0  0  0  0  0  0  0  0  0
  144.2519  139.9581  156.2201 H   0  0  0  0  0  0  0  0  0  0  0  0
  144.4675  138.6236  157.3190 H   0  0  0  0  0  0  0  0  0  0  0  0
  146.6314  139.4509  156.3466 H   0  0  0  0  0  0  0  0  0  0  0  0
  146.3523  137.7631  156.0153 H   0  0  0  0  0  0  0  0  0  0  0  0
  145.9456  140.1095  154.0925 H   0  0  0  0  0  0  0  0  0  0  0  0
  144.4588  139.0507  153.1260 H   0  0  0  0  0  0  0  0  0  0  0  0
  1  2  2  0  0  0  0
  2  3  1  0  0  0  0
  2 15  1  0  0  0  0
  3  4  1  0  0  0  0
  3 25  1  0  0  0  0
  3 26  1  0  0  0  0
  4 13  1  0  0  0  0
  4  5  1  0  0  0  0
  5  6  2  0  0  0  0
  5 27  1  0  0  0  0
  6  7  1  0  0  0  0
  6 11  1  0  0  0  0
  7  8  1  0  0  0  0
  7  9  1  0  0  0  0
  7 10  1  0  0  0  0
 11 12  2  0  0  0  0
 11 28  1  0  0  0  0
 12 13  1  0  0  0  0
 12 29  1  0  0  0  0
 13 14  2  0  0  0  0
 15 16  1  0  0  0  0
 15 30  1  0  0  0  0
 16 24  1  0  0  0  0
 16 17  1  0  0  0  0
 16 31  1  0  0  0  0
 17 18  1  0  0  0  0
 17 32  1  0  0  0  0
 17 33  1  0  0  0  0
 18 19  1  0  0  0  0
 18 34  1  0  0  0  0
 18 35  1  0  0  0  0
 19 24  1  0  0  0  0
 19 20  1  0  0  0  0
 19 45  1  0  0  0  0
 20 21  1  0  0  0  0
 20 36  1  0  0  0  0
 20 37  1  0  0  0  0
 21 22  1  0  0  0  0
 21 38  1  0  0  0  0
 21 39  1  0  0  0  0
 22 23  1  0  0  0  0
 22 40  1  0  0  0  0
 22 41  1  0  0  0  0
 23 24  1  0  0  0  0
 23 42  1  0  0  0  0
 23 43  1  0  0  0  0
 24 44  1  0  0  0  0
M  CHG  1  19   1
M  END
> <s_m_source_file>
AV-unprocessed.smi

> <i_m_source_file_index>
1976

> <i_lp_mmshare_version>
43012

> <i_f3d_flags>
0

> <s_epik_input>
W0NIMl0xW0NIMl1bQ0gyXVtDSDJdW0NASF0oTjEyKVtDQEBIXShbQ0gyXVtDSDJdMilbTkhdQyg9TylbQ0gyXW4zW2NIXWMoQyhGKShGKUYpW2NIXVtjSF1jMz1P

> <s_epik_cmdline>
J2VwaWtfcHl0aG9uJywgJy1waCcsICc3LjAnLCAnLXRuJywgJzgnLCAnLW1hJywgJzIwMCcsICctbWV0YWxfYmluZGluZycsICctaW1hZScsICc8aW5maWxlLm1hZT4nLCAnLW9tYWUnLCAnPG91dGZpbGUubWFlPic=

> <r_lp_tautomer_probability>
1

> <r_epik_Ionization_Penalty>
0.00171506

> <r_epik_Ionization_Penalty_Charging>
0.00171498

> <r_epik_Ionization_Penalty_Neutral>
7.81737e-08

> <r_epik_State_Penalty>
0.00115937

> <r_epik_Charging_Adjusted_Penalty>
0.00287436

> <i_epik_Tot_Q>
1

> <i_epik_Tot_abs_Q>
1

> <r_epik_Metal_State_Penalty>
-0

> <b_epik_Metal_Only>
0

> <s_lp_Force_Field>
OPLS_2005

> <r_lp_Energy>
51.6

> <b_lp_Chiralities_Consistent>
1

> <s_lp_Variant>
AV-unprocessed.smi:1976-3

> <Gold.Version>
5.8.1

> <Gold.Id.Protein>
6NUR|6NUR_protein|mol2

> <Gold.PLP.Fitness>
48.8002

> <Gold.PLP.PLP>
-37.5147

> <Gold.PLP.part.hbond>
-2.0000

> <Gold.PLP.part.metal>
0.0000

> <Gold.PLP.part.buried>
0.5647

> <Gold.PLP.part.nonpolar>
-35.9484

> <Gold.PLP.part.repulsive>
0.0744

> <Gold.PLP.ligand.clash>
0.0000

> <Gold.PLP.ligand.torsion>
0.3618

> <Gold.PLP.Chemscore.Hbond>
2.9913

> <Gold.PLP.Chemscore.CHOScore>
1.0000

> <Gold.PLP.Chemscore.Metal>
0.0000

> <Gold.Chemscore.Hbonds>
donor molecule, donor type, donor heavy atom, donor atom, acceptor molecule, acceptor atom, score
      L1  H    15    30       P1  7957  1.00
      L1  H    19    45       P1 10175  2.00
      L1  C     5    27       P1  8028  1.00

> <Gold.PLP.Chemscore.Internal.Correction>
0.0355

> <Gold.Rescore>
     Score         DG    S(hbond)    S(metal)    S(lipo)     H(rot)  DE(clash)    DE(int)     intcor
     12.87     -16.32       1.88        0.00      73.72       1.58       1.70       1.76       ----

> <Gold.Chemscore.Fitness>
12.8688

> <Gold.Chemscore.DG>
-16.3249

> <Gold.Chemscore.ZeroCoef>
-5.4800

> <Gold.Chemscore.Hbond>
1.8780

> <Gold.Chemscore.Metal>
0.0000

> <Gold.Chemscore.Lipo>
73.7157

> <Gold.Chemscore.Internal_Hbond>
0.0000

> <Gold.Chemscore.DEClash>
1.6988

> <Gold.Chemscore.DEInternal>
1.7573

> <Gold.Chemscore.Rot>
1.5830

> <Gold.Chemscore.Internal.Correction>
   9.000000E+99

> <Gold.Chemscore.Hbonds>
donor molecule, donor type, donor heavy atom, donor atom, acceptor molecule, acceptor atom, score
      L1  H    15    30       P1  7957  0.89
      L1  H    19    45       P1 10175  1.00

> <Gold.Chemscore.Hbond.Weighted>
-6.2725

> <Gold.Chemscore.Metal.Weighted>
-0.0000

> <Gold.Chemscore.Lipo.Weighted>
-8.6247

> <Gold.Chemscore.Internal_Hbond.Weighted>
0.0000

> <Gold.Chemscore.DEClash.Weighted>
1.6988

> <Gold.Chemscore.DEInternal.Weighted>
1.7573

> <Gold.Chemscore.Rot.Weighted>
4.0524

> <Gold.Chemscore.Internal.Correction.Weighted>
   9.000000E+99

> <Gold.Protein.RotatedTorsions>
[ 6907 6896 6895 6894 ] final  -89.98 input  -60.11 | X-H torsion
[ 7974 7965 7964 7962 ] final   -3.22 input  175.53 | X-H torsion
[ 8008 7997 7996 7995 ] final   38.82 input   59.86 | X-H torsion
[ 10167 10162 10161 10158 ] final   59.23 input  -65.29 | X-H torsion
[ 10718 10713 10712 10709 ] final  161.87 input   66.30 | X-H torsion
[ 10763 10752 10751 10750 ] final  -35.56 input  -60.55 | X-H torsion
[ 11005 11000 10999 10996 ] final -110.27 input  -57.11 | X-H torsion

> <Gold.Protein.ActiveResidues>
 VAL166  LYS551  ARG553  GLY616  TRP617  ASP618  TYR619  PRO620  LYS621  CYS622 
 ASP623  PHE694  ASN695  SER759  ASP760  ASP761  ALA762  ILE779  LEU786  VAL792 
 PHE793  MET794  SER795  GLU796  ALA797  LYS798  CYS799  TRP800  GLU811  SER814 

> <Gold.Protein.RotatedAtoms>
  150.6878  134.2503  159.4507 H   0  0  0  0  0  0  0  0  0  0  0  0  # atno 6907 bound_to 6896
  152.0441  134.9691  160.0583 H   0  0  0  0  0  0  0  0  0  0  0  0  # atno 6908 bound_to 6896
  152.1181  133.4303  159.4699 H   0  0  0  0  0  0  0  0  0  0  0  0  # atno 6909 bound_to 6896
  146.2393  140.1688  142.8332 H   0  0  0  0  0  0  0  0  0  0  0  0  # atno 7974 bound_to 7965
  155.2265  140.3335  155.4309 H   0  0  0  0  0  0  0  0  0  0  0  0  # atno 8008 bound_to 7997
  156.2312  140.1851  156.7283 H   0  0  0  0  0  0  0  0  0  0  0  0  # atno 8009 bound_to 7997
  154.5982  140.0627  156.9317 H   0  0  0  0  0  0  0  0  0  0  0  0  # atno 8010 bound_to 7997
  140.1787  144.4204  150.6626 H   0  0  0  0  0  0  0  0  0  0  0  0  # atno 10167 bound_to 10162
  157.1305  131.0515  151.2373 H   0  0  0  0  0  0  0  0  0  0  0  0  # atno 10718 bound_to 10713
  153.8652  135.6836  153.4779 H   0  0  0  0  0  0  0  0  0  0  0  0  # atno 10763 bound_to 10752
  153.1319  135.4694  154.9360 H   0  0  0  0  0  0  0  0  0  0  0  0  # atno 10764 bound_to 10752
  154.7740  135.3247  154.8080 H   0  0  0  0  0  0  0  0  0  0  0  0  # atno 10765 bound_to 10752
  141.0801  133.9234  157.2307 H   0  0  0  0  0  0  0  0  0  0  0  0  # atno 11005 bound_to 11000
  145.0029  140.8647  143.5271 LP  0  0  0  0  0  0  0  0  0  0  0  0  # atno 17320 bound_to 7965
  145.1710  139.2404  143.5342 LP  0  0  0  0  0  0  0  0  0  0  0  0  # atno 17321 bound_to 7965
  140.6534  143.2231  151.6025 LP  0  0  0  0  0  0  0  0  0  0  0  0  # atno 17342 bound_to 10162
  139.5306  144.2929  152.1137 LP  0  0  0  0  0  0  0  0  0  0  0  0  # atno 17343 bound_to 10162
  157.4396  130.7537  149.7058 LP  0  0  0  0  0  0  0  0  0  0  0  0  # atno 17370 bound_to 10713
  155.9809  130.4025  150.3503 LP  0  0  0  0  0  0  0  0  0  0  0  0  # atno 17371 bound_to 10713
  139.9614  135.0153  156.9272 LP  0  0  0  0  0  0  0  0  0  0  0  0  # atno 17394 bound_to 11000
  140.5487  134.0648  155.7363 LP  0  0  0  0  0  0  0  0  0  0  0  0  # atno 17395 bound_to 11000

$$$$
