AV-unprocessed.smi:1047|AV-procd|sdf|4578|dock10
  -GOLD-   22720 3 43D 1   1.00000     0.00000
 Structure written by MMmdl.
 56 58  0  0  0  0  0  0  0  0  2 V2000
  147.9364  132.2249  153.2491 C   0  0  0  0  0  0  0  0  0  0  0  0
  146.5696  131.8561  152.6560 C   0  0  0  0  0  0  0  0  0  0  0  0
  146.4782  132.1712  151.2057 N   0  3  1  0  0  0  0  0  0  0  0  0
  145.2939  131.5966  150.5182 C   0  0  0  0  0  0  0  0  0  0  0  0
  144.0212  132.4151  150.8076 C   0  0  0  0  0  0  0  0  0  0  0  0
  144.2393  133.7779  150.4638 O   0  0  0  0  0  0  0  0  0  0  0  0
  145.2888  134.3716  151.2222 C   0  0  2  0  0  0  0  0  0  0  0  0
  145.3787  135.8539  150.8316 C   0  0  0  0  0  0  0  0  0  0  0  0
  146.3142  136.5687  151.6935 N   0  0  0  0  0  0  0  0  0  0  0  0
  145.8913  137.9326  151.9974 C   0  0  0  0  0  0  0  0  0  0  0  0
  146.9517  138.6718  152.8365 C   0  0  1  0  0  0  0  0  0  0  0  0
  148.2294  138.3120  152.3533 O   0  0  0  0  0  0  0  0  0  0  0  0
  146.8458  140.2070  152.7515 C   0  0  0  0  0  0  0  0  0  0  0  0
  147.2359  140.8636  153.9863 N   0  0  0  0  0  0  0  0  0  0  0  0
  146.5161  141.7618  154.6858 C   0  0  0  0  0  0  0  0  0  0  0  0
  147.0629  142.2496  155.7953 N   0  0  0  0  0  0  0  0  0  0  0  0
  148.2773  141.5855  155.8229 C   0  0  0  0  0  0  0  0  0  0  0  0
  149.3391  141.6558  156.7513 C   0  0  0  0  0  0  0  0  0  0  0  0
  150.5057  140.8772  156.5785 C   0  0  0  0  0  0  0  0  0  0  0  0
  151.6238  140.9845  157.6006 C   0  0  0  0  0  0  0  0  0  0  0  0
  150.6224  140.0108  155.4619 C   0  0  0  0  0  0  0  0  0  0  0  0
  151.8665  139.1649  155.2553 C   0  0  0  0  0  0  0  0  0  0  0  0
  149.5715  139.9292  154.5244 C   0  0  0  0  0  0  0  0  0  0  0  0
  148.4157  140.7088  154.7071 C   0  0  0  0  0  0  0  0  0  0  0  0
  146.5986  133.6192  150.9048 C   0  0  0  0  0  0  0  0  0  0  0  0
  147.9358  132.0799  154.3296 H   0  0  0  0  0  0  0  0  0  0  0  0
  148.1806  133.2703  153.0576 H   0  0  0  0  0  0  0  0  0  0  0  0
  148.7393  131.6108  152.8421 H   0  0  0  0  0  0  0  0  0  0  0  0
  146.3452  130.8061  152.8425 H   0  0  0  0  0  0  0  0  0  0  0  0
  145.8126  132.4297  153.1922 H   0  0  0  0  0  0  0  0  0  0  0  0
  145.4879  131.6097  149.4449 H   0  0  0  0  0  0  0  0  0  0  0  0
  145.1485  130.5507  150.7856 H   0  0  0  0  0  0  0  0  0  0  0  0
  143.1907  132.0337  150.2134 H   0  0  0  0  0  0  0  0  0  0  0  0
  143.7212  132.3335  151.8530 H   0  0  0  0  0  0  0  0  0  0  0  0
  145.0690  134.2951  152.2887 H   0  0  0  0  0  0  0  0  0  0  0  0
  145.7132  135.9352  149.7966 H   0  0  0  0  0  0  0  0  0  0  0  0
  144.3890  136.3107  150.8761 H   0  0  0  0  0  0  0  0  0  0  0  0
  146.4438  136.0525  152.5583 H   0  0  0  0  0  0  0  0  0  0  0  0
  145.6742  138.4864  151.0828 H   0  0  0  0  0  0  0  0  0  0  0  0
  144.9552  137.8840  152.5533 H   0  0  0  0  0  0  0  0  0  0  0  0
  146.8786  138.3711  153.8828 H   0  0  0  0  0  0  0  0  0  0  0  0
  148.5636  139.0272  151.8335 H   0  0  0  0  0  0  0  0  0  0  0  0
  147.4848  140.5856  151.9523 H   0  0  0  0  0  0  0  0  0  0  0  0
  145.8270  140.5061  152.5018 H   0  0  0  0  0  0  0  0  0  0  0  0
  145.5362  142.0781  154.3585 H   0  0  0  0  0  0  0  0  0  0  0  0
  149.2497  142.3166  157.6008 H   0  0  0  0  0  0  0  0  0  0  0  0
  151.8130  140.0160  158.0636 H   0  0  0  0  0  0  0  0  0  0  0  0
  151.3732  141.6904  158.3930 H   0  0  0  0  0  0  0  0  0  0  0  0
  152.5432  141.3280  157.1258 H   0  0  0  0  0  0  0  0  0  0  0  0
  151.7890  138.5573  154.3532 H   0  0  0  0  0  0  0  0  0  0  0  0
  152.0161  138.4921  156.1000 H   0  0  0  0  0  0  0  0  0  0  0  0
  152.7477  139.7991  155.1565 H   0  0  0  0  0  0  0  0  0  0  0  0
  149.6495  139.2749  153.6689 H   0  0  0  0  0  0  0  0  0  0  0  0
  147.4387  134.0519  151.4492 H   0  0  0  0  0  0  0  0  0  0  0  0
  146.8339  133.7293  149.8452 H   0  0  0  0  0  0  0  0  0  0  0  0
  147.2910  131.7367  150.7920 H   0  0  0  0  0  0  0  0  0  0  0  0
  1  2  1  0  0  0  0
  1 26  1  0  0  0  0
  1 27  1  0  0  0  0
  1 28  1  0  0  0  0
  2  3  1  0  0  0  0
  2 29  1  0  0  0  0
  2 30  1  0  0  0  0
  3 25  1  0  0  0  0
  3  4  1  0  0  0  0
  3 56  1  0  0  0  0
  4  5  1  0  0  0  0
  4 31  1  0  0  0  0
  4 32  1  0  0  0  0
  5  6  1  0  0  0  0
  5 33  1  0  0  0  0
  5 34  1  0  0  0  0
  6  7  1  0  0  0  0
  7  8  1  0  0  0  0
  7 25  1  0  0  0  0
  7 35  1  0  0  0  0
  8  9  1  0  0  0  0
  8 36  1  0  0  0  0
  8 37  1  0  0  0  0
  9 10  1  0  0  0  0
  9 38  1  0  0  0  0
 10 11  1  0  0  0  0
 10 39  1  0  0  0  0
 10 40  1  0  0  0  0
 11 12  1  0  0  0  0
 11 13  1  0  0  0  0
 11 41  1  0  0  0  0
 12 42  1  0  0  0  0
 13 14  1  0  0  0  0
 13 43  1  0  0  0  0
 13 44  1  0  0  0  0
 14 24  1  0  0  0  0
 14 15  1  0  0  0  0
 15 16  2  0  0  0  0
 15 45  1  0  0  0  0
 16 17  1  0  0  0  0
 17 24  2  0  0  0  0
 17 18  1  0  0  0  0
 18 19  2  0  0  0  0
 18 46  1  0  0  0  0
 19 20  1  0  0  0  0
 19 21  1  0  0  0  0
 20 47  1  0  0  0  0
 20 48  1  0  0  0  0
 20 49  1  0  0  0  0
 21 22  1  0  0  0  0
 21 23  2  0  0  0  0
 22 50  1  0  0  0  0
 22 51  1  0  0  0  0
 22 52  1  0  0  0  0
 23 24  1  0  0  0  0
 23 53  1  0  0  0  0
 25 54  1  0  0  0  0
 25 55  1  0  0  0  0
M  CHG  1   3   1
M  END
> <s_m_source_file>
AV-unprocessed.smi

> <i_m_source_file_index>
1047

> <i_lp_mmshare_version>
43012

> <i_f3d_flags>
0

> <s_epik_input>
W0NIM11bQ0gyXU4xW0NIMl1bQ0gyXU9bQ0BIXShbQ0gyXTEpW0NIMl1bTkhdW0NIMl1bQ0BIXShbT0hdKVtDSDJdbihbY0hdbjIpYyhjMjMpW2NIXWMoW0NIM10pYyhbY0hdMylbQ0gzXQ==

> <s_epik_cmdline>
J2VwaWtfcHl0aG9uJywgJy1waCcsICc3LjAnLCAnLXRuJywgJzgnLCAnLW1hJywgJzIwMCcsICctbWV0YWxfYmluZGluZycsICctaW1hZScsICc8aW5maWxlLm1hZT4nLCAnLW9tYWUnLCAnPG91dGZpbGUubWFlPic=

> <r_epik_Ionization_Penalty>
1.19246

> <r_epik_Ionization_Penalty_Charging>
0.210041

> <r_epik_Ionization_Penalty_Neutral>
0.982415

> <r_epik_State_Penalty>
1.57595

> <r_epik_Charging_Adjusted_Penalty>
1.78599

> <i_epik_Tot_Q>
1

> <i_epik_Tot_abs_Q>
1

> <r_epik_Metal_State_Penalty>
1.46172

> <b_epik_Metal_Only>
0

> <s_lp_Force_Field>
OPLS_2005

> <r_lp_Energy>
33.2573

> <b_lp_Chiralities_Consistent>
1

> <s_lp_Variant>
AV-unprocessed.smi:1047-19

> <Gold.Version>
5.8.1

> <Gold.Id.Protein>
6NUR|6NUR_protein|mol2

> <Gold.PLP.Fitness>
52.0518

> <Gold.PLP.PLP>
-47.8844

> <Gold.PLP.part.hbond>
-2.9923

> <Gold.PLP.part.metal>
0.0000

> <Gold.PLP.part.buried>
0.2804

> <Gold.PLP.part.nonpolar>
-45.2714

> <Gold.PLP.part.repulsive>
1.1780

> <Gold.PLP.ligand.clash>
0.0000

> <Gold.PLP.ligand.torsion>
1.0113

> <Gold.PLP.Chemscore.Hbond>
1.9913

> <Gold.PLP.Chemscore.CHOScore>
0.0000

> <Gold.PLP.Chemscore.Metal>
0.0000

> <Gold.Chemscore.Hbonds>
donor molecule, donor type, donor heavy atom, donor atom, acceptor molecule, acceptor atom, score
      L1  H     3    56       P1 10747  1.00
      L1  H    12    42       P1  7957  1.00

> <Gold.PLP.Chemscore.Internal.Correction>
0.2164

> <Gold.Rescore>
     Score         DG    S(hbond)    S(metal)    S(lipo)     H(rot)  DE(clash)    DE(int)     intcor
     18.39     -19.44       1.96        0.00     120.67       2.62       0.05       1.00       ----

> <Gold.Chemscore.Fitness>
18.3914

> <Gold.Chemscore.DG>
-19.4444

> <Gold.Chemscore.ZeroCoef>
-5.4800

> <Gold.Chemscore.Hbond>
1.9628

> <Gold.Chemscore.Metal>
0.0000

> <Gold.Chemscore.Lipo>
120.6690

> <Gold.Chemscore.Internal_Hbond>
0.0000

> <Gold.Chemscore.DEClash>
0.0499

> <Gold.Chemscore.DEInternal>
1.0031

> <Gold.Chemscore.Rot>
2.6209

> <Gold.Chemscore.Internal.Correction>
   9.000000E+99

> <Gold.Chemscore.Hbonds>
donor molecule, donor type, donor heavy atom, donor atom, acceptor molecule, acceptor atom, score
      L1  H     3    56       P1 10747  0.98
      L1  H    12    42       P1  7957  0.88

> <Gold.Chemscore.Hbond.Weighted>
-6.5557

> <Gold.Chemscore.Metal.Weighted>
-0.0000

> <Gold.Chemscore.Lipo.Weighted>
-14.1183

> <Gold.Chemscore.Internal_Hbond.Weighted>
0.0000

> <Gold.Chemscore.DEClash.Weighted>
0.0499

> <Gold.Chemscore.DEInternal.Weighted>
1.0031

> <Gold.Chemscore.Rot.Weighted>
6.7096

> <Gold.Chemscore.Internal.Correction.Weighted>
   9.000000E+99

> <Gold.Protein.RotatedTorsions>
[ 6907 6896 6895 6894 ] final   58.31 input  -60.11 | X-H torsion
[ 7974 7965 7964 7962 ] final  155.36 input  175.53 | X-H torsion
[ 8008 7997 7996 7995 ] final -156.61 input   59.86 | X-H torsion
[ 10167 10162 10161 10158 ] final  122.02 input  -65.29 | X-H torsion
[ 10718 10713 10712 10709 ] final    0.22 input   66.30 | X-H torsion
[ 10763 10752 10751 10750 ] final  111.99 input  -60.55 | X-H torsion
[ 11005 11000 10999 10996 ] final  109.29 input  -57.11 | X-H torsion

> <Gold.Protein.ActiveResidues>
 VAL166  LYS551  ARG553  GLY616  TRP617  ASP618  TYR619  PRO620  LYS621  CYS622 
 ASP623  PHE694  ASN695  SER759  ASP760  ASP761  ALA762  ILE779  LEU786  VAL792 
 PHE793  MET794  SER795  GLU796  ALA797  LYS798  CYS799  TRP800  GLU811  SER814 

> <Gold.Protein.RotatedAtoms>
  152.3813  134.6586  160.0141 H   0  0  0  0  0  0  0  0  0  0  0  0  # atno 6907 bound_to 6896
  151.6849  133.3306  159.3236 H   0  0  0  0  0  0  0  0  0  0  0  0  # atno 6908 bound_to 6896
  150.7749  134.6685  159.6423 H   0  0  0  0  0  0  0  0  0  0  0  0  # atno 6909 bound_to 6896
  144.8030  139.7057  143.6174 H   0  0  0  0  0  0  0  0  0  0  0  0  # atno 7974 bound_to 7965
  155.7197  140.0788  157.2336 H   0  0  0  0  0  0  0  0  0  0  0  0  # atno 8008 bound_to 7997
  154.4047  140.1615  156.2443 H   0  0  0  0  0  0  0  0  0  0  0  0  # atno 8009 bound_to 7997
  155.9207  140.3398  155.6173 H   0  0  0  0  0  0  0  0  0  0  0  0  # atno 8010 bound_to 7997
  139.5884  144.7015  151.3351 H   0  0  0  0  0  0  0  0  0  0  0  0  # atno 10167 bound_to 10162
  156.8301  130.5486  149.5688 H   0  0  0  0  0  0  0  0  0  0  0  0  # atno 10718 bound_to 10713
  153.4714  135.3700  155.2392 H   0  0  0  0  0  0  0  0  0  0  0  0  # atno 10763 bound_to 10752
  154.8757  135.3932  154.3808 H   0  0  0  0  0  0  0  0  0  0  0  0  # atno 10764 bound_to 10752
  153.4397  135.7084  153.6242 H   0  0  0  0  0  0  0  0  0  0  0  0  # atno 10765 bound_to 10752
  139.8859  134.9454  156.6104 H   0  0  0  0  0  0  0  0  0  0  0  0  # atno 11005 bound_to 11000
  146.2315  139.5824  142.9552 LP  0  0  0  0  0  0  0  0  0  0  0  0  # atno 17320 bound_to 7965
  145.5507  141.0413  143.2280 LP  0  0  0  0  0  0  0  0  0  0  0  0  # atno 17321 bound_to 7965
  140.7152  143.7286  150.7641 LP  0  0  0  0  0  0  0  0  0  0  0  0  # atno 17342 bound_to 10162
  140.0836  143.4945  152.2517 LP  0  0  0  0  0  0  0  0  0  0  0  0  # atno 17343 bound_to 10162
  156.0939  130.5917  150.9780 LP  0  0  0  0  0  0  0  0  0  0  0  0  # atno 17370 bound_to 10713
  157.6411  131.0910  150.8249 LP  0  0  0  0  0  0  0  0  0  0  0  0  # atno 17371 bound_to 10713
  140.7816  133.8655  155.8572 LP  0  0  0  0  0  0  0  0  0  0  0  0  # atno 17394 bound_to 11000
  140.9755  134.1474  157.4540 LP  0  0  0  0  0  0  0  0  0  0  0  0  # atno 17395 bound_to 11000

$$$$
