#       Name:                AV-unprocessed.smi:764
#       Creating user name   scv26
#       Creation time:       Fri Mar 27 01:04:33 2020


#       File generated by GOLD software.
#

@<TRIPOS>MOLECULE
AV-unprocessed.smi:764
    40    40     1
SMALL
NO_CHARGES


@<TRIPOS>ATOM
      1 ****        -5.2952   2.7849   0.2757 C.3            1 S1                 0.0000
      2 ****        -3.9484   2.9238  -0.4474 C.3            1 S1                 0.0000
      3 ****        -4.1297   3.2123  -1.9436 C.3            1 S1                 0.0000
      4 ****        -3.1710   1.6986  -0.2779 N.am           1 S1                 0.0000
      5 ****        -2.0465   1.5692   0.4439 C.2            1 S1                 0.0000
      6 ****        -1.5251   2.4954   1.0649 O.2            1 S1                 0.0000
      7 ****        -1.4194   0.1723   0.4716 C.3            1 S1                 0.0000
      8 ****         0.1183   0.2086   0.4849 C.3            1 S1                 0.0000
      9 ****         0.6767  -1.1549   0.3989 N.4            1 S1                 1.0000
     10 ****         2.1514  -1.2046   0.4002 C.3            1 S1                 0.0000
     11 ****         2.6505  -2.6518   0.2859 C.3            1 S1                 0.0000
     12 ****         4.0983  -2.7229   0.2918 N.pl3          1 S1                 0.0000
     13 ****         4.9540  -2.9041  -0.7744 C.2            1 S1                 0.0000
     14 ****         6.2258  -2.9072  -0.2774 C.2            1 S1                 0.0000
     15 ****         6.0431  -2.7186   1.1212 C.2            1 S1                 0.0000
     16 ****         4.7681  -2.6067   1.4583 N.2            1 S1                 0.0000
     17 ****        -5.8938   3.6896   0.1661 H              1 S1                 0.0000
     18 ****        -5.1524   2.6125   1.3431 H              1 S1                 0.0000
     19 ****        -5.8764   1.9520  -0.1219 H              1 S1                 0.0000
     20 ****        -3.4188   3.7719  -0.0103 H              1 S1                 0.0000
     21 ****        -4.6984   4.1294  -2.0992 H              1 S1                 0.0000
     22 ****        -4.6615   2.4026  -2.4445 H              1 S1                 0.0000
     23 ****        -3.1662   3.3356  -2.4392 H              1 S1                 0.0000
     24 ****        -3.5248   0.8774  -0.7473 H              1 S1                 0.0000
     25 ****        -1.7886  -0.3535   1.3529 H              1 S1                 0.0000
     26 ****        -1.7638  -0.3909  -0.3974 H              1 S1                 0.0000
     27 ****         0.4888   0.7977  -0.3557 H              1 S1                 0.0000
     28 ****         0.4799   0.6839   1.3982 H              1 S1                 0.0000
     29 ****         0.3381  -1.6904   1.1857 H              1 S1                 0.0000
     30 ****         2.5327  -0.6116  -0.4323 H              1 S1                 0.0000
     31 ****         2.5230  -0.7488   1.3190 H              1 S1                 0.0000
     32 ****         2.2702  -3.2546   1.1121 H              1 S1                 0.0000
     33 ****         2.2852  -3.1094  -0.6345 H              1 S1                 0.0000
     34 ****         4.5921  -3.0155  -1.7860 H              1 S1                 0.0000
     35 ****         7.1468  -3.0275  -0.8285 H              1 S1                 0.0000
     36 ****         6.7933  -2.6606   1.8960 H              1 S1                 0.0000
     37 ****         0.3430  -1.5834  -0.4526 H              1 S1                 0.0000
     38 ****        -1.9405   3.4049   1.0484 LP             1 S1                 0.0000
     39 ****        -0.6861   2.3383   1.5859 LP             1 S1                 0.0000
     40 ****         4.3865  -2.4674   2.3720 LP             1 S1                 0.0000
@<TRIPOS>BOND
    1    1    2 1     
    2    1   17 1     
    3    1   18 1     
    4    1   19 1     
    5    2    3 1     
    6    2    4 1     
    7    2   20 1     
    8    3   21 1     
    9    3   22 1     
   10    3   23 1     
   11    4    5 am    
   12    4   24 1     
   13    5    6 2     
   14    5    7 1     
   15    7    8 1     
   16    7   25 1     
   17    7   26 1     
   18    8    9 1     
   19    8   27 1     
   20    8   28 1     
   21    9   10 1     
   22    9   29 1     
   23    9   37 1     
   24   10   11 1     
   25   10   30 1     
   26   10   31 1     
   27   11   12 1     
   28   11   32 1     
   29   11   33 1     
   30   12   16 1     
   31   12   13 1     
   32   13   14 2     
   33   13   34 1     
   34   14   15 1     
   35   14   35 1     
   36   15   16 2     
   37   15   36 1     
   38    6   38 1     
   39    6   39 1     
   40   16   40 1     
@<TRIPOS>SUBSTRUCTURE
      1 S1             1
@<TRIPOS>SET
LONE_PAIRS      STATIC     ATOMS    <user>   **** ""
3 38 39 40
DONOR_HYDROGENS      STATIC     ATOMS    <user>   **** ""
3 24 29 37
ATOM$BLUE        STATIC     ATOMS    COLORGROUP SYSTEM
3 38 39 40
ATOM$RED        STATIC     ATOMS    COLORGROUP SYSTEM
3 24 29 37
