AV-unprocessed.smi:1353|AV-procd|sdf|5533|dock1
  -GOLD-   22720 5123D 1   1.00000     0.00000
 Structure written by MMmdl.
 40 42  0  0  0  0  0  0  0  0  2 V2000
  152.1695  135.8311  156.1905 O   0  0  0  0  0  0  0  0  0  0  0  0
  151.2689  136.9084  156.0498 C   0  0  0  0  0  0  0  0  0  0  0  0
  151.2467  137.3772  154.5886 C   0  0  0  0  0  0  0  0  0  0  0  0
  150.2274  138.4478  154.3701 C   0  0  0  0  0  0  0  0  0  0  0  0
  149.1309  138.3510  153.5664 N   0  3  0  0  0  0  0  0  0  0  0  0
  148.4044  139.5413  153.6121 C   0  0  0  0  0  0  0  0  0  0  0  0
  147.2314  139.9171  152.9650 C   0  0  0  0  0  0  0  0  0  0  0  0
  146.7521  141.2170  153.2282 C   0  0  0  0  0  0  0  0  0  0  0  0
  147.4326  142.0866  154.1053 C   0  0  0  0  0  0  0  0  0  0  0  0
  148.6197  141.6931  154.7574 C   0  0  0  0  0  0  0  0  0  0  0  0
  149.0872  140.4060  154.4922 C   0  0  0  0  0  0  0  0  0  0  0  0
  150.2025  139.6873  154.9403 N   0  0  0  0  0  0  0  0  0  0  0  0
  151.1378  140.3151  155.8866 C   0  0  0  0  0  0  0  0  0  0  0  0
  150.4959  140.5751  157.2571 C   0  0  0  0  0  0  0  0  0  0  0  0
  151.5126  140.7719  158.2310 O   0  0  0  0  0  0  0  0  0  0  0  0
  151.7796  142.0576  158.6483 C   0  0  0  0  0  0  0  0  0  0  0  0
  151.5092  143.0962  157.7330 C   0  0  0  0  0  0  0  0  0  0  0  0
  151.7515  144.4403  158.0761 C   0  0  0  0  0  0  0  0  0  0  0  0
  152.2687  144.7604  159.3450 C   0  0  0  0  0  0  0  0  0  0  0  0
  152.5422  143.7342  160.2681 C   0  0  0  0  0  0  0  0  0  0  0  0
  152.3006  142.3896  159.9247 C   0  0  0  0  0  0  0  0  0  0  0  0
  151.8454  135.2514  156.8633 H   0  0  0  0  0  0  0  0  0  0  0  0
  150.2765  136.5857  156.3669 H   0  0  0  0  0  0  0  0  0  0  0  0
  151.5780  137.7176  156.7121 H   0  0  0  0  0  0  0  0  0  0  0  0
  152.2278  137.7520  154.2948 H   0  0  0  0  0  0  0  0  0  0  0  0
  151.0230  136.5383  153.9283 H   0  0  0  0  0  0  0  0  0  0  0  0
  146.7096  139.2532  152.2912 H   0  0  0  0  0  0  0  0  0  0  0  0
  145.8456  141.5543  152.7468 H   0  0  0  0  0  0  0  0  0  0  0  0
  147.0368  143.0764  154.2811 H   0  0  0  0  0  0  0  0  0  0  0  0
  149.1350  142.3699  155.4227 H   0  0  0  0  0  0  0  0  0  0  0  0
  152.0258  139.6902  155.9822 H   0  0  0  0  0  0  0  0  0  0  0  0
  151.4730  141.2557  155.4493 H   0  0  0  0  0  0  0  0  0  0  0  0
  149.8570  141.4571  157.1954 H   0  0  0  0  0  0  0  0  0  0  0  0
  149.8711  139.7242  157.5334 H   0  0  0  0  0  0  0  0  0  0  0  0
  151.1117  142.8596  156.7570 H   0  0  0  0  0  0  0  0  0  0  0  0
  151.5399  145.2258  157.3657 H   0  0  0  0  0  0  0  0  0  0  0  0
  152.4547  145.7908  159.6100 H   0  0  0  0  0  0  0  0  0  0  0  0
  152.9382  143.9780  161.2429 H   0  0  0  0  0  0  0  0  0  0  0  0
  152.5224  141.6314  160.6599 H   0  0  0  0  0  0  0  0  0  0  0  0
  148.9007  137.5290  153.0230 H   0  0  0  0  0  0  0  0  0  0  0  0
  1  2  1  0  0  0  0
  1 22  1  0  0  0  0
  2  3  1  0  0  0  0
  2 23  1  0  0  0  0
  2 24  1  0  0  0  0
  3  4  1  0  0  0  0
  3 25  1  0  0  0  0
  3 26  1  0  0  0  0
  4 12  1  0  0  0  0
  4  5  2  0  0  0  0
  5  6  1  0  0  0  0
  5 40  1  0  0  0  0
  6 11  2  0  0  0  0
  6  7  1  0  0  0  0
  7  8  2  0  0  0  0
  7 27  1  0  0  0  0
  8  9  1  0  0  0  0
  8 28  1  0  0  0  0
  9 10  2  0  0  0  0
  9 29  1  0  0  0  0
 10 11  1  0  0  0  0
 10 30  1  0  0  0  0
 11 12  1  0  0  0  0
 12 13  1  0  0  0  0
 13 14  1  0  0  0  0
 13 31  1  0  0  0  0
 13 32  1  0  0  0  0
 14 15  1  0  0  0  0
 14 33  1  0  0  0  0
 14 34  1  0  0  0  0
 15 16  1  0  0  0  0
 16 21  1  0  0  0  0
 16 17  2  0  0  0  0
 17 18  1  0  0  0  0
 17 35  1  0  0  0  0
 18 19  2  0  0  0  0
 18 36  1  0  0  0  0
 19 20  1  0  0  0  0
 19 37  1  0  0  0  0
 20 21  2  0  0  0  0
 20 38  1  0  0  0  0
 21 39  1  0  0  0  0
M  CHG  1   5   1
M  END
> <s_m_source_file>
AV-unprocessed.smi

> <i_m_source_file_index>
1353

> <i_lp_mmshare_version>
43012

> <i_f3d_flags>
0

> <s_epik_input>
W2NIXTFbY0hdW2NIXVtjSF1jKGMxMiluKGMobjIpW0NIMl1bQ0gyXVtPSF0pW0NIMl1bQ0gyXU9jM1tjSF1bY0hdW2NIXVtjSF1bY0hdMw==

> <s_epik_cmdline>
J2VwaWtfcHl0aG9uJywgJy1waCcsICc3LjAnLCAnLXRuJywgJzgnLCAnLW1hJywgJzIwMCcsICctbWV0YWxfYmluZGluZycsICctaW1hZScsICc8aW5maWxlLm1hZT4nLCAnLW9tYWUnLCAnPG91dGZpbGUubWFlPic=

> <r_lp_tautomer_probability>
1

> <r_epik_Ionization_Penalty>
0.670741

> <r_epik_Ionization_Penalty_Charging>
0.67074

> <r_epik_Ionization_Penalty_Neutral>
5.89567e-08

> <r_epik_State_Penalty>
0.690909

> <r_epik_Charging_Adjusted_Penalty>
1.36165

> <i_epik_Tot_Q>
1

> <i_epik_Tot_abs_Q>
1

> <r_epik_Metal_State_Penalty>
4.56272

> <b_epik_Metal_Only>
0

> <s_lp_Force_Field>
OPLS_2005

> <r_lp_Energy>
21.0146

> <b_lp_Chiralities_Consistent>
1

> <s_lp_Variant>
AV-unprocessed.smi:1353-2

> <Gold.Version>
5.8.1

> <Gold.Id.Protein>
6NUR|6NUR_protein|mol2

> <Gold.PLP.Fitness>
57.8517

> <Gold.PLP.PLP>
-50.2136

> <Gold.PLP.part.hbond>
-3.0000

> <Gold.PLP.part.metal>
0.0000

> <Gold.PLP.part.buried>
-0.7738

> <Gold.PLP.part.nonpolar>
-47.0924

> <Gold.PLP.part.repulsive>
0.0572

> <Gold.PLP.ligand.clash>
0.0000

> <Gold.PLP.ligand.torsion>
0.8077

> <Gold.PLP.Chemscore.Hbond>
3.0000

> <Gold.PLP.Chemscore.CHOScore>
0.0000

> <Gold.PLP.Chemscore.Metal>
0.0000

> <Gold.Chemscore.Hbonds>
donor molecule, donor type, donor heavy atom, donor atom, acceptor molecule, acceptor atom, score
      L1  H     5    40       P1  7948  2.00
      P1  H 10752 10763       L1     1  1.00

> <Gold.PLP.Chemscore.Internal.Correction>
0.2536

> <Gold.Rescore>
     Score         DG    S(hbond)    S(metal)    S(lipo)     H(rot)  DE(clash)    DE(int)     intcor
     20.24     -22.03       1.94        0.00     138.44       2.39       1.12       0.66       ----

> <Gold.Chemscore.Fitness>
20.2432

> <Gold.Chemscore.DG>
-22.0251

> <Gold.Chemscore.ZeroCoef>
-5.4800

> <Gold.Chemscore.Hbond>
1.9397

> <Gold.Chemscore.Metal>
0.0000

> <Gold.Chemscore.Lipo>
138.4389

> <Gold.Chemscore.Internal_Hbond>
0.0000

> <Gold.Chemscore.DEClash>
1.1207

> <Gold.Chemscore.DEInternal>
0.6612

> <Gold.Chemscore.Rot>
2.3948

> <Gold.Chemscore.Internal.Correction>
   9.000000E+99

> <Gold.Chemscore.Hbonds>
donor molecule, donor type, donor heavy atom, donor atom, acceptor molecule, acceptor atom, score
      L1  H     5    40       P1  7948  1.00
      P1  H 10752 10763       L1     1  0.93

> <Gold.Chemscore.Hbond.Weighted>
-6.4786

> <Gold.Chemscore.Metal.Weighted>
-0.0000

> <Gold.Chemscore.Lipo.Weighted>
-16.1974

> <Gold.Chemscore.Internal_Hbond.Weighted>
0.0000

> <Gold.Chemscore.DEClash.Weighted>
1.1207

> <Gold.Chemscore.DEInternal.Weighted>
0.6612

> <Gold.Chemscore.Rot.Weighted>
6.1308

> <Gold.Chemscore.Internal.Correction.Weighted>
   9.000000E+99

> <Gold.Protein.RotatedTorsions>
[ 6907 6896 6895 6894 ] final -109.07 input  -60.11 | X-H torsion
[ 7974 7965 7964 7962 ] final  133.55 input  175.53 | X-H torsion
[ 8008 7997 7996 7995 ] final  104.85 input   59.86 | X-H torsion
[ 10167 10162 10161 10158 ] final   34.35 input  -65.29 | X-H torsion
[ 10718 10713 10712 10709 ] final   97.78 input   66.30 | X-H torsion
[ 10763 10752 10751 10750 ] final   94.20 input  -60.55 | X-H torsion
[ 11005 11000 10999 10996 ] final  177.23 input  -57.11 | X-H torsion

> <Gold.Protein.ActiveResidues>
 VAL166  LYS551  ARG553  GLY616  TRP617  ASP618  TYR619  PRO620  LYS621  CYS622 
 ASP623  PHE694  ASN695  SER759  ASP760  ASP761  ALA762  ILE779  LEU786  VAL792 
 PHE793  MET794  SER795  GLU796  ALA797  LYS798  CYS799  TRP800  GLU811  SER814 

> <Gold.Protein.RotatedAtoms>
  150.7540  133.9583  159.3507 H   0  0  0  0  0  0  0  0  0  0  0  0  # atno 6907 bound_to 6896
  151.7507  135.0831  160.0339 H   0  0  0  0  0  0  0  0  0  0  0  0  # atno 6908 bound_to 6896
  152.3468  133.6095  159.5952 H   0  0  0  0  0  0  0  0  0  0  0  0  # atno 6909 bound_to 6896
  144.9854  139.4461  143.5365 H   0  0  0  0  0  0  0  0  0  0  0  0  # atno 7974 bound_to 7965
  156.1608  140.3141  155.8804 H   0  0  0  0  0  0  0  0  0  0  0  0  # atno 8008 bound_to 7997
  155.3785  140.0486  157.3061 H   0  0  0  0  0  0  0  0  0  0  0  0  # atno 8009 bound_to 7997
  154.5145  140.2176  155.9103 H   0  0  0  0  0  0  0  0  0  0  0  0  # atno 8010 bound_to 7997
  140.4323  144.1306  150.6161 H   0  0  0  0  0  0  0  0  0  0  0  0  # atno 10167 bound_to 10162
  157.6907  131.0620  150.4696 H   0  0  0  0  0  0  0  0  0  0  0  0  # atno 10718 bound_to 10713
  153.2389  135.4298  155.0676 H   0  0  0  0  0  0  0  0  0  0  0  0  # atno 10763 bound_to 10752
  154.8331  135.3398  154.6678 H   0  0  0  0  0  0  0  0  0  0  0  0  # atno 10764 bound_to 10752
  153.7103  135.7023  153.5096 H   0  0  0  0  0  0  0  0  0  0  0  0  # atno 10765 bound_to 10752
  140.3818  134.6939  157.4456 H   0  0  0  0  0  0  0  0  0  0  0  0  # atno 11005 bound_to 11000
  146.3418  139.9153  142.8774 LP  0  0  0  0  0  0  0  0  0  0  0  0  # atno 17320 bound_to 7965
  145.2361  140.9991  143.3963 LP  0  0  0  0  0  0  0  0  0  0  0  0  # atno 17321 bound_to 7965
  140.4413  143.2525  151.9470 LP  0  0  0  0  0  0  0  0  0  0  0  0  # atno 17342 bound_to 10162
  139.4785  144.5652  151.8176 LP  0  0  0  0  0  0  0  0  0  0  0  0  # atno 17343 bound_to 10162
  156.5035  130.4122  149.6340 LP  0  0  0  0  0  0  0  0  0  0  0  0  # atno 17370 bound_to 10713
  156.3306  130.7330  151.2258 LP  0  0  0  0  0  0  0  0  0  0  0  0  # atno 17371 bound_to 10713
  140.0472  134.6182  155.8906 LP  0  0  0  0  0  0  0  0  0  0  0  0  # atno 17394 bound_to 11000
  141.1921  133.6574  156.5485 LP  0  0  0  0  0  0  0  0  0  0  0  0  # atno 17395 bound_to 11000

$$$$
