AV-unprocessed.smi:3161|AV-procd|sdf|12055|dock1
  -GOLD-   2272017483D 1   1.00000     0.00000
 Structure written by MMmdl.
 41 42  0  0  0  0  0  0  0  0  2 V2000
  144.6791  144.3597  152.6297 C   0  0  0  0  0  0  0  0  0  0  0  0
  145.2032  143.3855  153.6449 C   0  0  0  0  0  0  0  0  0  0  0  0
  144.5054  142.8137  154.7465 C   0  0  0  0  0  0  0  0  0  0  0  0
  145.2557  141.9871  155.4568 N   0  0  0  0  0  0  0  0  0  0  0  0
  146.4539  141.9992  154.8344 N   0  0  0  0  0  0  0  0  0  0  0  0
  147.5460  141.1923  155.3505 C   0  0  0  0  0  0  0  0  0  0  0  0
  148.8768  141.4702  154.6244 C   0  0  2  0  0  0  0  0  0  0  0  0
  149.5682  140.1536  154.2329 C   0  0  0  0  0  0  0  0  0  0  0  0
  149.7614  142.2976  155.4766 N   0  3  0  0  0  0  0  0  0  0  0  0
  150.2768  141.6317  156.6907 C   0  0  0  0  0  0  0  0  0  0  0  0
  151.1283  142.5986  157.5249 C   0  0  2  0  0  0  0  0  0  0  0  0
  151.9020  141.8672  158.6393 C   0  0  0  0  0  0  0  0  0  0  0  0
  152.6670  142.8684  159.5123 C   0  0  0  0  0  0  0  0  0  0  0  0
  151.7075  143.9495  160.0209 C   0  0  0  0  0  0  0  0  0  0  0  0
  150.9353  144.5726  158.8473 C   0  0  0  0  0  0  0  0  0  0  0  0
  150.2532  143.5550  158.1200 O   0  0  0  0  0  0  0  0  0  0  0  0
  146.4506  142.8360  153.7385 C   0  0  0  0  0  0  0  0  0  0  0  0
  143.6120  144.2228  152.4526 H   0  0  0  0  0  0  0  0  0  0  0  0
  145.1791  144.2502  151.6671 H   0  0  0  0  0  0  0  0  0  0  0  0
  144.8225  145.3911  152.9517 H   0  0  0  0  0  0  0  0  0  0  0  0
  143.4814  142.9756  155.0495 H   0  0  0  0  0  0  0  0  0  0  0  0
  147.6441  141.3696  156.4230 H   0  0  0  0  0  0  0  0  0  0  0  0
  147.2683  140.1437  155.2344 H   0  0  0  0  0  0  0  0  0  0  0  0
  148.6512  142.0273  153.7136 H   0  0  0  0  0  0  0  0  0  0  0  0
  148.9114  139.5355  153.6203 H   0  0  0  0  0  0  0  0  0  0  0  0
  149.8412  139.5718  155.1141 H   0  0  0  0  0  0  0  0  0  0  0  0
  150.4749  140.3279  153.6540 H   0  0  0  0  0  0  0  0  0  0  0  0
  150.5600  142.5595  154.9150 H   0  0  0  0  0  0  0  0  0  0  0  0
  149.4526  141.2460  157.2908 H   0  0  0  0  0  0  0  0  0  0  0  0
  150.8842  140.7774  156.3892 H   0  0  0  0  0  0  0  0  0  0  0  0
  151.8353  143.1095  156.8682 H   0  0  0  0  0  0  0  0  0  0  0  0
  151.2061  141.3011  159.2603 H   0  0  0  0  0  0  0  0  0  0  0  0
  152.5957  141.1444  158.2087 H   0  0  0  0  0  0  0  0  0  0  0  0
  153.1435  142.3579  160.3496 H   0  0  0  0  0  0  0  0  0  0  0  0
  153.4654  143.3296  158.9295 H   0  0  0  0  0  0  0  0  0  0  0  0
  151.0029  143.5118  160.7293 H   0  0  0  0  0  0  0  0  0  0  0  0
  152.2585  144.7191  160.5622 H   0  0  0  0  0  0  0  0  0  0  0  0
  150.2037  145.2898  159.2197 H   0  0  0  0  0  0  0  0  0  0  0  0
  151.6081  145.1194  158.1849 H   0  0  0  0  0  0  0  0  0  0  0  0
  147.3271  142.9703  153.1213 H   0  0  0  0  0  0  0  0  0  0  0  0
  149.2713  143.1404  155.7411 H   0  0  0  0  0  0  0  0  0  0  0  0
  1  2  1  0  0  0  0
  1 18  1  0  0  0  0
  1 19  1  0  0  0  0
  1 20  1  0  0  0  0
  2 17  2  0  0  0  0
  2  3  1  0  0  0  0
  3  4  2  0  0  0  0
  3 21  1  0  0  0  0
  4  5  1  0  0  0  0
  5  6  1  0  0  0  0
  5 17  1  0  0  0  0
  6  7  1  0  0  0  0
  6 22  1  0  0  0  0
  6 23  1  0  0  0  0
  7  8  1  0  0  0  0
  7  9  1  0  0  0  0
  7 24  1  0  0  0  0
  8 25  1  0  0  0  0
  8 26  1  0  0  0  0
  8 27  1  0  0  0  0
  9 10  1  0  0  0  0
  9 28  1  0  0  0  0
  9 41  1  0  0  0  0
 10 11  1  0  0  0  0
 10 29  1  0  0  0  0
 10 30  1  0  0  0  0
 11 16  1  0  0  0  0
 11 12  1  0  0  0  0
 11 31  1  0  0  0  0
 12 13  1  0  0  0  0
 12 32  1  0  0  0  0
 12 33  1  0  0  0  0
 13 14  1  0  0  0  0
 13 34  1  0  0  0  0
 13 35  1  0  0  0  0
 14 15  1  0  0  0  0
 14 36  1  0  0  0  0
 14 37  1  0  0  0  0
 15 16  1  0  0  0  0
 15 38  1  0  0  0  0
 15 39  1  0  0  0  0
 17 40  1  0  0  0  0
M  CHG  1   9   1
M  END
> <s_m_source_file>
AV-unprocessed.smi

> <i_m_source_file_index>
3161

> <i_lp_mmshare_version>
43012

> <i_f3d_flags>
0

> <s_epik_input>
W0NIM11jMVtjSF1ubihbY0hdMSlbQ0gyXVtDQEhdKFtDSDNdKVtOSF1bQ0gyXVtDQEBIXTJbQ0gyXVtDSDJdW0NIMl1bQ0gyXU8y

> <s_epik_cmdline>
J2VwaWtfcHl0aG9uJywgJy1waCcsICc3LjAnLCAnLXRuJywgJzgnLCAnLW1hJywgJzIwMCcsICctbWV0YWxfYmluZGluZycsICctaW1hZScsICc8aW5maWxlLm1hZT4nLCAnLW9tYWUnLCAnPG91dGZpbGUubWFlPic=

> <r_lp_tautomer_probability>
1

> <r_epik_Ionization_Penalty>
0.00849661

> <r_epik_Ionization_Penalty_Charging>
0.00848754

> <r_epik_Ionization_Penalty_Neutral>
9.06711e-06

> <r_epik_State_Penalty>
0.00639836

> <r_epik_Charging_Adjusted_Penalty>
0.0148859

> <i_epik_Tot_Q>
1

> <i_epik_Tot_abs_Q>
1

> <r_epik_Metal_State_Penalty>
0.00639921

> <b_epik_Metal_Only>
0

> <s_lp_Force_Field>
OPLS_2005

> <r_lp_Energy>
12.4461

> <b_lp_Chiralities_Consistent>
1

> <s_lp_Variant>
AV-unprocessed.smi:3161-1

> <Gold.Version>
5.8.1

> <Gold.Id.Protein>
6NUR|6NUR_protein|mol2

> <Gold.PLP.Fitness>
45.8392

> <Gold.PLP.PLP>
-41.3425

> <Gold.PLP.part.hbond>
-1.0000

> <Gold.PLP.part.metal>
0.0000

> <Gold.PLP.part.buried>
-4.2972

> <Gold.PLP.part.nonpolar>
-36.7799

> <Gold.PLP.part.repulsive>
0.9217

> <Gold.PLP.ligand.clash>
0.0000

> <Gold.PLP.ligand.torsion>
0.7894

> <Gold.PLP.Chemscore.Hbond>
2.0000

> <Gold.PLP.Chemscore.CHOScore>
0.0000

> <Gold.PLP.Chemscore.Metal>
0.0000

> <Gold.Chemscore.Hbonds>
donor molecule, donor type, donor heavy atom, donor atom, acceptor molecule, acceptor atom, score
      L1  H     9    41       P1  8028  2.00

> <Gold.PLP.Chemscore.Internal.Correction>
0.0755

> <Gold.Rescore>
     Score         DG    S(hbond)    S(metal)    S(lipo)     H(rot)  DE(clash)    DE(int)     intcor
     16.41     -17.37       0.98        0.00     108.10       1.57       0.07       0.89       ----

> <Gold.Chemscore.Fitness>
16.4092

> <Gold.Chemscore.DG>
-17.3728

> <Gold.Chemscore.ZeroCoef>
-5.4800

> <Gold.Chemscore.Hbond>
0.9783

> <Gold.Chemscore.Metal>
0.0000

> <Gold.Chemscore.Lipo>
108.1041

> <Gold.Chemscore.Internal_Hbond>
0.0000

> <Gold.Chemscore.DEClash>
0.0690

> <Gold.Chemscore.DEInternal>
0.8946

> <Gold.Chemscore.Rot>
1.5714

> <Gold.Chemscore.Internal.Correction>
   9.000000E+99

> <Gold.Chemscore.Hbonds>
donor molecule, donor type, donor heavy atom, donor atom, acceptor molecule, acceptor atom, score
      L1  H     9    41       P1  8028  0.97

> <Gold.Chemscore.Hbond.Weighted>
-3.2675

> <Gold.Chemscore.Metal.Weighted>
-0.0000

> <Gold.Chemscore.Lipo.Weighted>
-12.6482

> <Gold.Chemscore.Internal_Hbond.Weighted>
0.0000

> <Gold.Chemscore.DEClash.Weighted>
0.0690

> <Gold.Chemscore.DEInternal.Weighted>
0.8946

> <Gold.Chemscore.Rot.Weighted>
4.0228

> <Gold.Chemscore.Internal.Correction.Weighted>
   9.000000E+99

> <Gold.Protein.RotatedTorsions>
[ 6907 6896 6895 6894 ] final  161.36 input  -60.11 | X-H torsion
[ 7974 7965 7964 7962 ] final  -10.07 input  175.53 | X-H torsion
[ 8008 7997 7996 7995 ] final   82.24 input   59.86 | X-H torsion
[ 10167 10162 10161 10158 ] final  -88.75 input  -65.29 | X-H torsion
[ 10718 10713 10712 10709 ] final   79.16 input   66.30 | X-H torsion
[ 10763 10752 10751 10750 ] final  -54.64 input  -60.55 | X-H torsion
[ 11005 11000 10999 10996 ] final  100.16 input  -57.11 | X-H torsion

> <Gold.Protein.ActiveResidues>
 VAL166  LYS551  ARG553  GLY616  TRP617  ASP618  TYR619  PRO620  LYS621  CYS622 
 ASP623  PHE694  ASN695  SER759  ASP760  ASP761  ALA762  ILE779  LEU786  VAL792 
 PHE793  MET794  SER795  GLU796  ALA797  LYS798  CYS799  TRP800  GLU811  SER814 

> <Gold.Protein.RotatedAtoms>
  151.9567  133.3682  159.4019 H   0  0  0  0  0  0  0  0  0  0  0  0  # atno 6907 bound_to 6896
  150.6971  134.4283  159.5246 H   0  0  0  0  0  0  0  0  0  0  0  0  # atno 6908 bound_to 6896
  152.1965  134.8626  160.0563 H   0  0  0  0  0  0  0  0  0  0  0  0  # atno 6909 bound_to 6896
  146.2232  140.2710  142.8357 H   0  0  0  0  0  0  0  0  0  0  0  0  # atno 7974 bound_to 7965
  155.9079  140.3429  155.6076 H   0  0  0  0  0  0  0  0  0  0  0  0  # atno 8008 bound_to 7997
  155.7422  140.0809  157.2259 H   0  0  0  0  0  0  0  0  0  0  0  0  # atno 8009 bound_to 7997
  154.4052  140.1568  156.2616 H   0  0  0  0  0  0  0  0  0  0  0  0  # atno 8010 bound_to 7997
  140.3716  143.2791  151.9493 H   0  0  0  0  0  0  0  0  0  0  0  0  # atno 10167 bound_to 10162
  157.6768  130.9901  150.1891 H   0  0  0  0  0  0  0  0  0  0  0  0  # atno 10718 bound_to 10713
  154.1781  135.6448  153.5027 H   0  0  0  0  0  0  0  0  0  0  0  0  # atno 10763 bound_to 10752
  153.0066  135.5399  154.6543 H   0  0  0  0  0  0  0  0  0  0  0  0  # atno 10764 bound_to 10752
  154.5900  135.2933  155.0618 H   0  0  0  0  0  0  0  0  0  0  0  0  # atno 10765 bound_to 10752
  139.8771  134.9128  156.4714 H   0  0  0  0  0  0  0  0  0  0  0  0  # atno 11005 bound_to 11000
  144.9268  140.7930  143.5714 LP  0  0  0  0  0  0  0  0  0  0  0  0  # atno 17320 bound_to 7965
  145.2650  139.1977  143.4872 LP  0  0  0  0  0  0  0  0  0  0  0  0  # atno 17321 bound_to 7965
  139.4803  144.5901  151.7786 LP  0  0  0  0  0  0  0  0  0  0  0  0  # atno 17342 bound_to 10162
  140.5027  144.1144  150.5975 LP  0  0  0  0  0  0  0  0  0  0  0  0  # atno 17343 bound_to 10162
  156.2607  130.3710  149.8134 LP  0  0  0  0  0  0  0  0  0  0  0  0  # atno 17370 bound_to 10713
  156.5880  130.8494  151.3400 LP  0  0  0  0  0  0  0  0  0  0  0  0  # atno 17371 bound_to 10713
  140.8793  133.7930  155.9449 LP  0  0  0  0  0  0  0  0  0  0  0  0  # atno 17394 bound_to 11000
  140.8871  134.2540  157.5114 LP  0  0  0  0  0  0  0  0  0  0  0  0  # atno 17395 bound_to 11000

$$$$
