AV-unprocessed.smi:2|AV-procd|sdf|25|dock5
  -GOLD-   2262015133D 1   1.00000     0.00000
 Structure written by MMmdl.
 52 54  0  0  0  0  0  0  0  0  3 V2000
  151.8443  145.5435  160.0448 C   0  0  0  0  0  0  0  0  0  0  0  0
  151.6092  144.4516  158.9918 C   0  0  0  0  0  0  0  0  0  0  0  0
  152.2447  143.1154  159.3901 C   0  0  0  0  0  0  0  0  0  0  0  0
  152.9527  143.0846  160.3962 O   0  0  0  0  0  0  0  0  0  0  0  0
  151.9753  141.9130  158.5462 C   0  0  0  0  0  0  0  0  0  0  0  0
  151.2273  141.9817  157.3477 C   0  0  0  0  0  0  0  0  0  0  0  0
  150.9924  140.8226  156.5835 C   0  0  0  0  0  0  0  0  0  0  0  0
  151.4928  139.5710  156.9918 C   0  0  0  0  0  0  0  0  0  0  0  0
  151.2099  138.4889  156.1862 O   0  0  0  0  0  0  0  0  0  0  0  0
  151.6898  137.2110  156.5831 C   0  0  0  0  0  0  0  0  0  0  0  0
  151.0001  136.1331  155.7322 C   0  0  2  0  0  0  0  0  0  0  0  0
  151.2402  136.4238  154.3703 O   0  0  0  0  0  0  0  0  0  0  0  0
  149.4766  136.0824  155.9958 C   0  0  0  0  0  0  0  0  0  0  0  0
  149.0831  135.0120  156.9192 N   0  0  0  0  0  0  0  0  0  0  0  0
  149.0150  133.6737  156.6453 C   0  0  0  0  0  0  0  0  0  0  0  0
  149.2997  133.0198  155.3752 N   0  3  0  0  0  0  0  0  0  0  0  0
  149.2360  131.7993  155.2978 O   0  0  0  0  0  0  0  0  0  0  0  0
  149.6293  133.7376  154.4359 O   0  5  0  0  0  0  0  0  0  0  0  0
  148.6243  132.9255  157.6764 N   0  0  0  0  0  0  0  0  0  0  0  0
  148.4104  133.8416  158.6858 C   0  0  0  0  0  0  0  0  0  0  0  0
  147.9211  133.6106  160.0586 C   0  0  0  0  0  0  0  0  0  0  0  0
  147.7058  132.4707  160.4730 O   0  0  0  0  0  0  0  0  0  0  0  0
  147.7173  134.7566  160.7789 N   0  0  0  0  0  0  0  0  0  0  0  0
  147.1571  134.6337  162.1385 C   0  0  0  0  0  0  0  0  0  0  0  0
  148.0012  136.0362  160.3390 C   0  0  0  0  0  0  0  0  0  0  0  0
  147.7491  137.0117  161.0531 O   0  0  0  0  0  0  0  0  0  0  0  0
  148.5760  136.1974  159.0978 N   0  0  0  0  0  0  0  0  0  0  0  0
  149.0382  137.5397  158.7155 C   0  0  0  0  0  0  0  0  0  0  0  0
  148.6987  135.1056  158.2777 C   0  0  0  0  0  0  0  0  0  0  0  0
  152.2466  139.4998  158.1885 C   0  0  0  0  0  0  0  0  0  0  0  0
  152.4834  140.6584  158.9530 C   0  0  0  0  0  0  0  0  0  0  0  0
  151.3537  146.4713  159.7505 H   0  0  0  0  0  0  0  0  0  0  0  0
  152.9049  145.7589  160.1755 H   0  0  0  0  0  0  0  0  0  0  0  0
  151.4402  145.2506  161.0146 H   0  0  0  0  0  0  0  0  0  0  0  0
  150.5368  144.2965  158.8692 H   0  0  0  0  0  0  0  0  0  0  0  0
  151.9791  144.7671  158.0166 H   0  0  0  0  0  0  0  0  0  0  0  0
  150.8212  142.9148  156.9885 H   0  0  0  0  0  0  0  0  0  0  0  0
  150.4173  140.8960  155.6720 H   0  0  0  0  0  0  0  0  0  0  0  0
  152.7655  137.1808  156.4026 H   0  0  0  0  0  0  0  0  0  0  0  0
  151.5241  137.0278  157.6463 H   0  0  0  0  0  0  0  0  0  0  0  0
  151.4434  135.1613  155.9463 H   0  0  0  0  0  0  0  0  0  0  0  0
  150.5071  136.9162  154.0334 H   0  0  0  0  0  0  0  0  0  0  0  0
  149.1139  137.0332  156.3700 H   0  0  0  0  0  0  0  0  0  0  0  0
  148.9308  135.9919  155.0607 H   0  0  0  0  0  0  0  0  0  0  0  0
  147.8630  135.0211  162.8750 H   0  0  0  0  0  0  0  0  0  0  0  0
  146.9126  133.6163  162.4458 H   0  0  0  0  0  0  0  0  0  0  0  0
  146.2334  135.2082  162.2251 H   0  0  0  0  0  0  0  0  0  0  0  0
  148.2989  138.0337  158.0851 H   0  0  0  0  0  0  0  0  0  0  0  0
  149.9929  137.5042  158.2007 H   0  0  0  0  0  0  0  0  0  0  0  0
  149.2215  138.1993  159.5647 H   0  0  0  0  0  0  0  0  0  0  0  0
  152.6565  138.5667  158.5440 H   0  0  0  0  0  0  0  0  0  0  0  0
  153.0616  140.5679  159.8614 H   0  0  0  0  0  0  0  0  0  0  0  0
  1  2  1  0  0  0  0
  1 32  1  0  0  0  0
  1 33  1  0  0  0  0
  1 34  1  0  0  0  0
  2  3  1  0  0  0  0
  2 35  1  0  0  0  0
  2 36  1  0  0  0  0
  3  4  2  0  0  0  0
  3  5  1  0  0  0  0
  5 31  1  0  0  0  0
  5  6  2  0  0  0  0
  6  7  1  0  0  0  0
  6 37  1  0  0  0  0
  7  8  2  0  0  0  0
  7 38  1  0  0  0  0
  8  9  1  0  0  0  0
  8 30  1  0  0  0  0
  9 10  1  0  0  0  0
 10 11  1  0  0  0  0
 10 39  1  0  0  0  0
 10 40  1  0  0  0  0
 11 12  1  0  0  0  0
 11 13  1  0  0  0  0
 11 41  1  0  0  0  0
 12 42  1  0  0  0  0
 13 14  1  0  0  0  0
 13 43  1  0  0  0  0
 13 44  1  0  0  0  0
 14 29  1  0  0  0  0
 14 15  1  0  0  0  0
 15 16  1  0  0  0  0
 15 19  2  0  0  0  0
 16 17  2  0  0  0  0
 16 18  1  0  0  0  0
 19 20  1  0  0  0  0
 20 29  2  0  0  0  0
 20 21  1  0  0  0  0
 21 22  2  0  0  0  0
 21 23  1  0  0  0  0
 23 24  1  0  0  0  0
 23 25  1  0  0  0  0
 24 45  1  0  0  0  0
 24 46  1  0  0  0  0
 24 47  1  0  0  0  0
 25 26  2  0  0  0  0
 25 27  1  0  0  0  0
 27 28  1  0  0  0  0
 27 29  1  0  0  0  0
 28 48  1  0  0  0  0
 28 49  1  0  0  0  0
 28 50  1  0  0  0  0
 30 31  2  0  0  0  0
 30 51  1  0  0  0  0
 31 52  1  0  0  0  0
M  CHG  1  16   1
M  CHG  1  18  -1
M  END
> <s_m_source_file>
AV-unprocessed.smi

> <i_m_source_file_index>
2

> <i_lp_mmshare_version>
43012

> <i_f3d_flags>
0

> <s_epik_input>
W0NIM11bQ0gyXUMoPU8pYzFbY0hdW2NIXWMoW2NIXVtjSF0xKU9bQ0gyXVtDQEhdKFtPSF0pW0NIMl1uKGMobjIpW04rXSg9TylbTy1dKWMoYzIzKW4oW0NIM10pYyg9TyluKGMzPU8pW0NIM10=

> <s_epik_cmdline>
J2VwaWtfcHl0aG9uJywgJy1waCcsICc3LjAnLCAnLXRuJywgJzgnLCAnLW1hJywgJzIwMCcsICctbWV0YWxfYmluZGluZycsICctaW1hZScsICc8aW5maWxlLm1hZT4nLCAnLW9tYWUnLCAnPG91dGZpbGUubWFlPic=

> <r_lp_tautomer_probability>
1

> <r_epik_Ionization_Penalty>
1.02275e-06

> <r_epik_Ionization_Penalty_Charging>
4.46226e-11

> <r_epik_Ionization_Penalty_Neutral>
1.02271e-06

> <r_epik_State_Penalty>
-0

> <r_epik_Charging_Adjusted_Penalty>
4.46226e-11

> <i_epik_Tot_Q>
0

> <i_epik_Tot_abs_Q>
2

> <r_epik_Metal_State_Penalty>
-0

> <b_epik_Metal_Only>
0

> <s_lp_Force_Field>
OPLS_2005

> <r_lp_Energy>
60.0216

> <b_lp_Chiralities_Consistent>
1

> <s_lp_Variant>
AV-unprocessed.smi:2-1

> <Gold.Version>
5.8.1

> <Gold.Id.Protein>
6NUR|6NUR_protein|mol2

> <Gold.PLP.Fitness>
56.1710

> <Gold.PLP.PLP>
-48.9366

> <Gold.PLP.part.hbond>
-4.0902

> <Gold.PLP.part.metal>
0.0000

> <Gold.PLP.part.buried>
-8.7604

> <Gold.PLP.part.nonpolar>
-36.7468

> <Gold.PLP.part.repulsive>
0.1263

> <Gold.PLP.ligand.clash>
0.0000

> <Gold.PLP.ligand.torsion>
0.8451

> <Gold.PLP.Chemscore.Hbond>
2.8240

> <Gold.PLP.Chemscore.CHOScore>
0.0000

> <Gold.PLP.Chemscore.Metal>
0.0000

> <Gold.Chemscore.Hbonds>
donor molecule, donor type, donor heavy atom, donor atom, acceptor molecule, acceptor atom, score
      P1  H  6931  6943       L1    26  0.99
      P1  H  6934  6947       L1    26  0.74
      P1  H 10752 10764       L1    12  0.95

> <Gold.PLP.Chemscore.Internal.Correction>
0.4526

> <Gold.Rescore>
     Score         DG    S(hbond)    S(metal)    S(lipo)     H(rot)  DE(clash)    DE(int)     intcor
     14.79     -17.06       2.65        0.00      92.44       3.16       0.00       2.27       ----

> <Gold.Chemscore.Fitness>
14.7898

> <Gold.Chemscore.DG>
-17.0648

> <Gold.Chemscore.ZeroCoef>
-5.4800

> <Gold.Chemscore.Hbond>
2.6522

> <Gold.Chemscore.Metal>
0.0000

> <Gold.Chemscore.Lipo>
92.4369

> <Gold.Chemscore.Internal_Hbond>
0.0000

> <Gold.Chemscore.DEClash>
0.0024

> <Gold.Chemscore.DEInternal>
2.2725

> <Gold.Chemscore.Rot>
3.1597

> <Gold.Chemscore.Internal.Correction>
   9.000000E+99

> <Gold.Chemscore.Hbonds>
donor molecule, donor type, donor heavy atom, donor atom, acceptor molecule, acceptor atom, score
      P1  H  6931  6943       L1    26  0.92
      P1  H  6934  6947       L1    26  0.73
      P1  H 10752 10764       L1    12  0.22

> <Gold.Chemscore.Hbond.Weighted>
-8.8585

> <Gold.Chemscore.Metal.Weighted>
-0.0000

> <Gold.Chemscore.Lipo.Weighted>
-10.8151

> <Gold.Chemscore.Internal_Hbond.Weighted>
0.0000

> <Gold.Chemscore.DEClash.Weighted>
0.0024

> <Gold.Chemscore.DEInternal.Weighted>
2.2725

> <Gold.Chemscore.Rot.Weighted>
8.0888

> <Gold.Chemscore.Internal.Correction.Weighted>
   9.000000E+99

> <Gold.Protein.RotatedTorsions>
[ 6907 6896 6895 6894 ] final   -0.06 input  -60.11 | X-H torsion
[ 7974 7965 7964 7962 ] final  133.06 input  175.53 | X-H torsion
[ 8008 7997 7996 7995 ] final   17.17 input   59.86 | X-H torsion
[ 10167 10162 10161 10158 ] final   47.86 input  -65.29 | X-H torsion
[ 10718 10713 10712 10709 ] final  -98.26 input   66.30 | X-H torsion
[ 10763 10752 10751 10750 ] final  -83.57 input  -60.55 | X-H torsion
[ 11005 11000 10999 10996 ] final -109.00 input  -57.11 | X-H torsion

> <Gold.Protein.ActiveResidues>
 VAL166  LYS551  ARG553  GLY616  TRP617  ASP618  TYR619  PRO620  LYS621  CYS622 
 ASP623  PHE694  ASN695  SER759  ASP760  ASP761  ALA762  ILE779  LEU786  VAL792 
 PHE793  MET794  SER795  GLU796  ALA797  LYS798  CYS799  TRP800  GLU811  SER814 

> <Gold.Protein.RotatedAtoms>
  151.5683  135.1063  159.9988 H   0  0  0  0  0  0  0  0  0  0  0  0  # atno 6907 bound_to 6896
  152.4413  133.7449  159.6672 H   0  0  0  0  0  0  0  0  0  0  0  0  # atno 6908 bound_to 6896
  150.8319  133.8008  159.3118 H   0  0  0  0  0  0  0  0  0  0  0  0  # atno 6909 bound_to 6896
  144.9904  139.4412  143.5342 H   0  0  0  0  0  0  0  0  0  0  0  0  # atno 7974 bound_to 7965
  154.8876  140.2982  155.5389 H   0  0  0  0  0  0  0  0  0  0  0  0  # atno 8008 bound_to 7997
  156.3021  140.2430  156.3821 H   0  0  0  0  0  0  0  0  0  0  0  0  # atno 8009 bound_to 7997
  154.8652  140.0403  157.1679 H   0  0  0  0  0  0  0  0  0  0  0  0  # atno 8010 bound_to 7997
  140.2993  144.2953  150.6222 H   0  0  0  0  0  0  0  0  0  0  0  0  # atno 10167 bound_to 10162
  156.0103  130.5230  150.6496 H   0  0  0  0  0  0  0  0  0  0  0  0  # atno 10718 bound_to 10713
  154.5892  135.5551  153.7262 H   0  0  0  0  0  0  0  0  0  0  0  0  # atno 10763 bound_to 10752
  153.0110  135.6339  154.1873 H   0  0  0  0  0  0  0  0  0  0  0  0  # atno 10764 bound_to 10752
  154.1813  135.2887  155.3031 H   0  0  0  0  0  0  0  0  0  0  0  0  # atno 10765 bound_to 10752
  141.0871  133.9120  157.2160 H   0  0  0  0  0  0  0  0  0  0  0  0  # atno 11005 bound_to 11000
  146.3430  139.9232  142.8764 LP  0  0  0  0  0  0  0  0  0  0  0  0  # atno 17320 bound_to 7965
  145.2293  140.9967  143.4000 LP  0  0  0  0  0  0  0  0  0  0  0  0  # atno 17321 bound_to 7965
  140.5665  143.2185  151.7674 LP  0  0  0  0  0  0  0  0  0  0  0  0  # atno 17342 bound_to 10162
  139.4919  144.4276  151.9908 LP  0  0  0  0  0  0  0  0  0  0  0  0  # atno 17343 bound_to 10162
  157.4260  131.0843  151.1085 LP  0  0  0  0  0  0  0  0  0  0  0  0  # atno 17370 bound_to 10713
  157.1673  130.6251  149.5629 LP  0  0  0  0  0  0  0  0  0  0  0  0  # atno 17371 bound_to 10713
  139.9691  135.0133  156.9465 LP  0  0  0  0  0  0  0  0  0  0  0  0  # atno 17394 bound_to 11000
  140.5337  134.0788  155.7322 LP  0  0  0  0  0  0  0  0  0  0  0  0  # atno 17395 bound_to 11000

$$$$
