AV-unprocessed.smi:2405|AV-procd|sdf|9512|dock1
  -GOLD-   2272013143D 1   1.00000     0.00000
 Structure written by MMmdl.
 36 37  0  0  0  0  0  0  0  0  2 V2000
  152.7971  142.3110  162.2170 C   0  0  0  0  0  0  0  0  0  0  0  0
  152.5249  143.7263  161.6963 C   0  0  0  0  0  0  0  0  0  0  0  0
  152.1205  143.7369  160.2606 C   0  0  0  0  0  0  0  0  0  0  0  0
  151.9853  142.6298  159.5265 N   0  0  0  0  0  0  0  0  0  0  0  0
  151.5408  142.8941  158.2264 C   0  0  0  0  0  0  0  0  0  0  0  0
  151.3125  141.7635  157.2628 C   0  0  0  0  0  0  0  0  0  0  0  0
  151.2165  140.4275  158.0051 C   0  0  0  0  0  0  0  0  0  0  0  0
  152.1243  140.0770  158.7587 O   0  0  0  0  0  0  0  0  0  0  0  0
  150.1146  139.6930  157.7839 N   0  0  0  0  0  0  0  0  0  0  0  0
  149.8002  138.4275  158.4385 C   0  0  2  0  0  0  0  0  0  0  0  0
  150.9388  137.4132  158.2217 C   0  0  0  0  0  0  0  0  0  0  0  0
  150.3768  136.3417  157.2822 C   0  0  0  0  0  0  0  0  0  0  0  0
  148.8732  136.3016  157.5815 C   0  0  1  0  0  0  0  0  0  0  0  0
  148.5858  135.3849  158.7881 C   0  0  0  0  0  0  0  0  0  0  0  0
  148.9480  134.1880  158.7389 O   0  0  0  0  0  0  0  0  0  0  0  0
  147.9871  135.9100  159.7526 O   0  5  0  0  0  0  0  0  0  0  0  0
  148.5322  137.7816  157.8385 C   0  0  0  0  0  0  0  0  0  0  0  0
  151.3493  144.2324  157.9841 C   0  0  0  0  0  0  0  0  0  0  0  0
  151.6980  145.2046  159.3867 S   0  0  0  0  0  0  0  0  0  0  0  0
  153.0900  142.3322  163.2668 H   0  0  0  0  0  0  0  0  0  0  0  0
  153.6014  141.8337  161.6561 H   0  0  0  0  0  0  0  0  0  0  0  0
  151.9102  141.6827  162.1302 H   0  0  0  0  0  0  0  0  0  0  0  0
  151.7355  144.1942  162.2850 H   0  0  0  0  0  0  0  0  0  0  0  0
  153.4146  144.3455  161.8173 H   0  0  0  0  0  0  0  0  0  0  0  0
  150.3933  141.9166  156.6963 H   0  0  0  0  0  0  0  0  0  0  0  0
  152.1211  141.7156  156.5322 H   0  0  0  0  0  0  0  0  0  0  0  0
  149.4218  140.0583  157.1470 H   0  0  0  0  0  0  0  0  0  0  0  0
  149.6710  138.5890  159.5105 H   0  0  0  0  0  0  0  0  0  0  0  0
  151.8514  137.8622  157.8272 H   0  0  0  0  0  0  0  0  0  0  0  0
  151.1976  136.9545  159.1770 H   0  0  0  0  0  0  0  0  0  0  0  0
  150.5299  136.6444  156.2456 H   0  0  0  0  0  0  0  0  0  0  0  0
  150.8742  135.3794  157.4131 H   0  0  0  0  0  0  0  0  0  0  0  0
  148.3135  135.9176  156.7275 H   0  0  0  0  0  0  0  0  0  0  0  0
  147.6584  137.9268  158.4752 H   0  0  0  0  0  0  0  0  0  0  0  0
  148.2862  138.2454  156.8815 H   0  0  0  0  0  0  0  0  0  0  0  0
  151.0120  144.7023  157.0723 H   0  0  0  0  0  0  0  0  0  0  0  0
  1  2  1  0  0  0  0
  1 20  1  0  0  0  0
  1 21  1  0  0  0  0
  1 22  1  0  0  0  0
  2  3  1  0  0  0  0
  2 23  1  0  0  0  0
  2 24  1  0  0  0  0
  3 19  1  0  0  0  0
  3  4  2  0  0  0  0
  4  5  1  0  0  0  0
  5  6  1  0  0  0  0
  5 18  2  0  0  0  0
  6  7  1  0  0  0  0
  6 25  1  0  0  0  0
  6 26  1  0  0  0  0
  7  8  2  0  0  0  0
  7  9  1  0  0  0  0
  9 10  1  0  0  0  0
  9 27  1  0  0  0  0
 10 17  1  0  0  0  0
 10 11  1  0  0  0  0
 10 28  1  0  0  0  0
 11 12  1  0  0  0  0
 11 29  1  0  0  0  0
 11 30  1  0  0  0  0
 12 13  1  0  0  0  0
 12 31  1  0  0  0  0
 12 32  1  0  0  0  0
 13 14  1  0  0  0  0
 13 17  1  0  0  0  0
 13 33  1  0  0  0  0
 14 15  2  0  0  0  0
 14 16  1  0  0  0  0
 17 34  1  0  0  0  0
 17 35  1  0  0  0  0
 18 19  1  0  0  0  0
 18 36  1  0  0  0  0
M  CHG  1  16  -1
M  END
> <s_m_source_file>
AV-unprocessed.smi

> <i_m_source_file_index>
2405

> <i_lp_mmshare_version>
43012

> <i_f3d_flags>
0

> <s_epik_input>
W0NIM11bQ0gyXWMxbmMoW2NIXXMxKVtDSDJdQyg9TylbTkhdW0NAQEhdMltDSDJdW0NIMl1bQ0BIXShbQ0gyXTIpQyg9TylbT0hd

> <s_epik_cmdline>
J2VwaWtfcHl0aG9uJywgJy1waCcsICc3LjAnLCAnLXRuJywgJzgnLCAnLW1hJywgJzIwMCcsICctbWV0YWxfYmluZGluZycsICctaW1hZScsICc8aW5maWxlLm1hZT4nLCAnLW9tYWUnLCAnPG91dGZpbGUubWFlPic=

> <r_epik_Ionization_Penalty>
0.000544611

> <r_epik_Ionization_Penalty_Charging>
0.000481685

> <r_epik_Ionization_Penalty_Neutral>
6.29266e-05

> <r_epik_State_Penalty>
0.00029893

> <r_epik_Charging_Adjusted_Penalty>
0.000780614

> <i_epik_Tot_Q>
-1

> <i_epik_Tot_abs_Q>
1

> <r_epik_Metal_State_Penalty>
-0

> <b_epik_Metal_Only>
0

> <s_lp_Force_Field>
OPLS_2005

> <r_lp_Energy>
8.39141

> <b_lp_Chiralities_Consistent>
1

> <s_lp_Variant>
AV-unprocessed.smi:2405-1

> <Gold.Version>
5.8.1

> <Gold.Id.Protein>
6NUR|6NUR_protein|mol2

> <Gold.PLP.Fitness>
42.7043

> <Gold.PLP.PLP>
-34.3292

> <Gold.PLP.part.hbond>
-1.0000

> <Gold.PLP.part.metal>
0.0000

> <Gold.PLP.part.buried>
-6.6130

> <Gold.PLP.part.nonpolar>
-27.0169

> <Gold.PLP.part.repulsive>
0.1216

> <Gold.PLP.ligand.clash>
0.0000

> <Gold.PLP.ligand.torsion>
0.3449

> <Gold.PLP.Chemscore.Hbond>
2.0000

> <Gold.PLP.Chemscore.CHOScore>
1.0000

> <Gold.PLP.Chemscore.Metal>
0.0000

> <Gold.Chemscore.Hbonds>
donor molecule, donor type, donor heavy atom, donor atom, acceptor molecule, acceptor atom, score
      P1  H  6896  6908       L1    15  2.00
      L1  C    18    36       P1  8028  1.00

> <Gold.PLP.Chemscore.Internal.Correction>
0.0650

> <Gold.Rescore>
     Score         DG    S(hbond)    S(metal)    S(lipo)     H(rot)  DE(clash)    DE(int)     intcor
     11.54     -14.77       0.98        0.00      96.43       2.06       0.10       3.13       ----

> <Gold.Chemscore.Fitness>
11.5385

> <Gold.Chemscore.DG>
-14.7681

> <Gold.Chemscore.ZeroCoef>
-5.4800

> <Gold.Chemscore.Hbond>
0.9844

> <Gold.Chemscore.Metal>
0.0000

> <Gold.Chemscore.Lipo>
96.4327

> <Gold.Chemscore.Internal_Hbond>
0.0000

> <Gold.Chemscore.DEClash>
0.1044

> <Gold.Chemscore.DEInternal>
3.1252

> <Gold.Chemscore.Rot>
2.0635

> <Gold.Chemscore.Internal.Correction>
   9.000000E+99

> <Gold.Chemscore.Hbonds>
donor molecule, donor type, donor heavy atom, donor atom, acceptor molecule, acceptor atom, score
      P1  H  6896  6908       L1    15  0.30

> <Gold.Chemscore.Hbond.Weighted>
-3.2879

> <Gold.Chemscore.Metal.Weighted>
-0.0000

> <Gold.Chemscore.Lipo.Weighted>
-11.2826

> <Gold.Chemscore.Internal_Hbond.Weighted>
0.0000

> <Gold.Chemscore.DEClash.Weighted>
0.1044

> <Gold.Chemscore.DEInternal.Weighted>
3.1252

> <Gold.Chemscore.Rot.Weighted>
5.2825

> <Gold.Chemscore.Internal.Correction.Weighted>
   9.000000E+99

> <Gold.Protein.RotatedTorsions>
[ 6907 6896 6895 6894 ] final  152.96 input  -60.11 | X-H torsion
[ 7974 7965 7964 7962 ] final    9.73 input  175.53 | X-H torsion
[ 8008 7997 7996 7995 ] final -158.02 input   59.86 | X-H torsion
[ 10167 10162 10161 10158 ] final -159.53 input  -65.29 | X-H torsion
[ 10718 10713 10712 10709 ] final -159.99 input   66.30 | X-H torsion
[ 10763 10752 10751 10750 ] final   66.82 input  -60.55 | X-H torsion
[ 11005 11000 10999 10996 ] final   84.73 input  -57.11 | X-H torsion

> <Gold.Protein.ActiveResidues>
 VAL166  LYS551  ARG553  GLY616  TRP617  ASP618  TYR619  PRO620  LYS621  CYS622 
 ASP623  PHE694  ASN695  SER759  ASP760  ASP761  ALA762  ILE779  LEU786  VAL792 
 PHE793  MET794  SER795  GLU796  ALA797  LYS798  CYS799  TRP800  GLU811  SER814 

> <Gold.Protein.RotatedAtoms>
  152.0795  133.4145  159.4494 H   0  0  0  0  0  0  0  0  0  0  0  0  # atno 6907 bound_to 6896
  150.6862  134.2999  159.4711 H   0  0  0  0  0  0  0  0  0  0  0  0  # atno 6908 bound_to 6896
  152.0839  134.9452  160.0623 H   0  0  0  0  0  0  0  0  0  0  0  0  # atno 6909 bound_to 6896
  146.2399  139.9740  142.8443 H   0  0  0  0  0  0  0  0  0  0  0  0  # atno 7974 bound_to 7965
  155.7412  140.0814  157.2245 H   0  0  0  0  0  0  0  0  0  0  0  0  # atno 8008 bound_to 7997
  154.4022  140.1577  156.2673 H   0  0  0  0  0  0  0  0  0  0  0  0  # atno 8009 bound_to 7997
  155.9019  140.3409  155.6035 H   0  0  0  0  0  0  0  0  0  0  0  0  # atno 8010 bound_to 7997
  139.6608  143.9916  152.2224 H   0  0  0  0  0  0  0  0  0  0  0  0  # atno 10167 bound_to 10162
  156.5759  130.8708  151.2851 H   0  0  0  0  0  0  0  0  0  0  0  0  # atno 10718 bound_to 10713
  153.0157  135.5306  154.6884 H   0  0  0  0  0  0  0  0  0  0  0  0  # atno 10763 bound_to 10752
  154.6025  135.2870  155.0522 H   0  0  0  0  0  0  0  0  0  0  0  0  # atno 10764 bound_to 10752
  154.1574  135.6553  153.5030 H   0  0  0  0  0  0  0  0  0  0  0  0  # atno 10765 bound_to 10752
  139.8992  134.8237  156.2485 H   0  0  0  0  0  0  0  0  0  0  0  0  # atno 11005 bound_to 11000
  145.1654  140.9694  143.4353 LP  0  0  0  0  0  0  0  0  0  0  0  0  # atno 17320 bound_to 7965
  145.0077  139.3538  143.6135 LP  0  0  0  0  0  0  0  0  0  0  0  0  # atno 17321 bound_to 7965
  139.9655  144.6529  150.8039 LP  0  0  0  0  0  0  0  0  0  0  0  0  # atno 17342 bound_to 10162
  140.7579  143.3096  151.2878 LP  0  0  0  0  0  0  0  0  0  0  0  0  # atno 17343 bound_to 10162
  157.7338  130.9735  150.1994 LP  0  0  0  0  0  0  0  0  0  0  0  0  # atno 17370 bound_to 10713
  156.2674  130.3718  149.8067 LP  0  0  0  0  0  0  0  0  0  0  0  0  # atno 17371 bound_to 10713
  141.0239  133.7026  156.1314 LP  0  0  0  0  0  0  0  0  0  0  0  0  # atno 17394 bound_to 11000
  140.7194  134.4374  157.5576 LP  0  0  0  0  0  0  0  0  0  0  0  0  # atno 17395 bound_to 11000

$$$$
