#       Name:                AV-unprocessed.smi:3036
#       Creating user name   scv26
#       Creation time:       Fri Mar 27 16:55:55 2020


#       File generated by GOLD software.
#

@<TRIPOS>MOLECULE
AV-unprocessed.smi:3036
    47    48     1
SMALL
NO_CHARGES


@<TRIPOS>ATOM
      1 ****        -3.5464  -0.5917  -2.5461 C.3            1 S1                 0.0000
      2 ****        -2.9498  -0.3388  -1.1520 C.3            1 S1                 0.0000
      3 ****        -3.5310  -1.3088  -0.1046 C.3            1 S1                 0.0000
      4 ****        -3.1092  -0.9758   1.2455 N.pl3          1 S1                 0.0000
      5 ****        -2.0836  -1.5275   1.9845 C.2            1 S1                 0.0000
      6 ****        -2.0562  -0.8818   3.1871 C.2            1 S1                 0.0000
      7 ****        -3.1183   0.0599   3.0886 C.2            1 S1                 0.0000
      8 ****        -3.7477   0.0005   1.9261 N.2            1 S1                 0.0000
      9 ****        -1.5024  -0.5125  -1.1940 N.3            1 S1                 0.0000
     10 ****        -0.8104   0.6728  -1.6841 C.3            1 S1                 0.0000
     11 ****         0.7171   0.5337  -1.5175 C.3            1 S1                 0.0000
     12 ****         1.2146   0.4467  -0.0594 C.2            1 S1                 0.0000
     13 ****         0.4152   0.6313   0.8603 O.2            1 S1                 0.0000
     14 ****         2.5215   0.1737   0.1722 N.am           1 S1                 0.0000
     15 ****         3.0930   0.0786   1.5188 C.3            1 S1                 0.0000
     16 ****         4.0852   1.2395   1.7092 C.3            1 S1                 0.0000
     17 ****         5.0929   1.1774   0.7029 O.3            1 S1                 0.0000
     18 ****         4.5653   1.2398  -0.6199 C.3            1 S1                 0.0000
     19 ****         3.5777   0.0796  -0.8411 C.3            1 S1                 0.0000
     20 ****        -4.6318  -0.4913  -2.5262 H              1 S1                 0.0000
     21 ****        -3.3143  -1.5957  -2.9033 H              1 S1                 0.0000
     22 ****        -3.1721   0.1204  -3.2816 H              1 S1                 0.0000
     23 ****        -3.1882   0.6790  -0.8396 H              1 S1                 0.0000
     24 ****        -4.6214  -1.2848  -0.1342 H              1 S1                 0.0000
     25 ****        -3.2383  -2.3375  -0.3206 H              1 S1                 0.0000
     26 ****        -1.4612  -2.3189   1.5937 H              1 S1                 0.0000
     27 ****        -1.3785  -1.0534   4.0100 H              1 S1                 0.0000
     28 ****        -3.4479   0.7808   3.8222 H              1 S1                 0.0000
     29 ****        -1.2565  -1.3260  -1.7396 H              1 S1                 0.0000
     30 ****        -1.0515   0.8277  -2.7356 H              1 S1                 0.0000
     31 ****        -1.1571   1.5552  -1.1443 H              1 S1                 0.0000
     32 ****         1.0418  -0.3550  -2.0599 H              1 S1                 0.0000
     33 ****         1.2006   1.3896  -1.9898 H              1 S1                 0.0000
     34 ****         2.3381   0.1050   2.3054 H              1 S1                 0.0000
     35 ****         3.6070  -0.8774   1.6269 H              1 S1                 0.0000
     36 ****         3.5715   2.2013   1.6647 H              1 S1                 0.0000
     37 ****         4.5595   1.1746   2.6886 H              1 S1                 0.0000
     38 ****         4.0768   2.2021  -0.7819 H              1 S1                 0.0000
     39 ****         5.3889   1.1758  -1.3312 H              1 S1                 0.0000
     40 ****         4.0930  -0.8759  -0.7348 H              1 S1                 0.0000
     41 ****         3.2132   0.1093  -1.8661 H              1 S1                 0.0000
     42 ****        -4.5222   0.5541   1.6202 LP             1 S1                 0.0000
     43 ****        -1.1977  -0.6535  -0.2520 LP             1 S1                 0.0000
     44 ****        -0.5426   0.8345   0.6570 LP             1 S1                 0.0000
     45 ****         0.7244   0.5778   1.8098 LP             1 S1                 0.0000
     46 ****         5.5933   0.3177   0.8060 LP             1 S1                 0.0000
     47 ****         5.7199   1.9456   0.8323 LP             1 S1                 0.0000
@<TRIPOS>BOND
    1    1    2 1     
    2    1   20 1     
    3    1   21 1     
    4    1   22 1     
    5    2    3 1     
    6    2    9 1     
    7    2   23 1     
    8    3    4 1     
    9    3   24 1     
   10    3   25 1     
   11    4    8 1     
   12    4    5 1     
   13    5    6 2     
   14    5   26 1     
   15    6    7 1     
   16    6   27 1     
   17    7    8 2     
   18    7   28 1     
   19    9   10 1     
   20    9   29 1     
   21   10   11 1     
   22   10   30 1     
   23   10   31 1     
   24   11   12 1     
   25   11   32 1     
   26   11   33 1     
   27   12   13 2     
   28   12   14 am    
   29   14   19 1     
   30   14   15 1     
   31   15   16 1     
   32   15   34 1     
   33   15   35 1     
   34   16   17 1     
   35   16   36 1     
   36   16   37 1     
   37   17   18 1     
   38   18   19 1     
   39   18   38 1     
   40   18   39 1     
   41   19   40 1     
   42   19   41 1     
   43    8   42 1     
   44    9   43 1     
   45   13   44 1     
   46   13   45 1     
   47   17   46 1     
   48   17   47 1     
@<TRIPOS>SUBSTRUCTURE
      1 S1             1
@<TRIPOS>SET
LONE_PAIRS      STATIC     ATOMS    <user>   **** ""
6 42 43 44 45 46 47
DONOR_HYDROGENS      STATIC     ATOMS    <user>   **** ""
1 29
ATOM$BLUE        STATIC     ATOMS    COLORGROUP SYSTEM
6 42 43 44 45 46 47
ATOM$RED        STATIC     ATOMS    COLORGROUP SYSTEM
1 29
