#       Name:                AV-unprocessed.smi:285
#       Creating user name   scv26
#       Creation time:       Thu Mar 26 21:53:12 2020


#       File generated by GOLD software.
#

@<TRIPOS>MOLECULE
AV-unprocessed.smi:285
    40    42     1
SMALL
NO_CHARGES


@<TRIPOS>ATOM
      1 ****        -5.1905   0.0282   0.2214 N.pl3          1 S1                 0.0000
      2 ****        -3.8890   0.3381   0.1410 C.ar           1 S1                 0.0000
      3 ****        -3.5457   1.6397  -0.0002 N.ar           1 S1                 0.0000
      4 ****        -2.2545   1.9753  -0.0871 C.ar           1 S1                 0.0000
      5 ****        -1.1807   1.1817  -0.0559 N.ar           1 S1                 0.0000
      6 ****        -1.5267  -0.1314   0.0903 C.ar           1 S1                 0.0000
      7 ****        -2.8575  -0.6330   0.1944 C.ar           1 S1                 0.0000
      8 ****        -2.8404  -2.0158   0.3273 N.2            1 S1                 0.0000
      9 ****        -1.5663  -2.2910   0.3003 C.2            1 S1                 0.0000
     10 ****        -0.9681  -4.0946   0.4313 Br             1 S1                 0.0000
     11 ****        -0.6964  -1.2330   0.1619 N.pl3          1 S1                 0.0000
     12 ****         0.7978  -1.2448   0.0979 C.3            1 S1                 0.0000
     13 ****         1.2837  -0.9515  -1.3182 C.3            1 S1                 0.0000
     14 ****         2.5847  -0.2404  -1.0221 C.3            1 S1                 0.0000
     15 ****         2.9840   0.5575  -2.1174 O.3            1 S1                 0.0000
     16 ****         2.2080   0.5959   0.2061 C.3            1 S1                 0.0000
     17 ****         3.4110   0.9489   1.0944 C.3            1 S1                 0.0000
     18 ****         3.0938   2.0371   1.9355 O.3            1 S1                 0.0000
     19 ****         1.2964  -0.2367   0.9257 O.3            1 S1                 0.0000
     20 ****        -5.4724  -0.9361   0.3251 H              1 S1                 0.0000
     21 ****        -5.8865   0.7584   0.1768 H              1 S1                 0.0000
     22 ****        -2.0523   3.0304  -0.1983 H              1 S1                 0.0000
     23 ****         1.1136  -2.2177   0.4738 H              1 S1                 0.0000
     24 ****         1.3972  -1.8681  -1.8978 H              1 S1                 0.0000
     25 ****         0.5811  -0.2879  -1.8258 H              1 S1                 0.0000
     26 ****         3.3624  -0.9654  -0.7767 H              1 S1                 0.0000
     27 ****         2.2923   1.1730  -2.3079 H              1 S1                 0.0000
     28 ****         1.6798   1.4954  -0.1161 H              1 S1                 0.0000
     29 ****         3.7336   0.0911   1.6853 H              1 S1                 0.0000
     30 ****         4.2564   1.2523   0.4761 H              1 S1                 0.0000
     31 ****         3.8526   2.2433   2.4598 H              1 S1                 0.0000
     32 ****        -4.2531   2.3455  -0.0393 LP             1 S1                 0.0000
     33 ****        -0.2387   1.5089  -0.1305 LP             1 S1                 0.0000
     34 ****        -3.6131  -2.6437   0.4204 LP             1 S1                 0.0000
     35 ****         3.1485  -0.0226  -2.9152 LP             1 S1                 0.0000
     36 ****         3.8217   1.0524  -1.8867 LP             1 S1                 0.0000
     37 ****         2.3292   1.7910   2.5312 LP             1 S1                 0.0000
     38 ****         2.8420   2.8300   1.3804 LP             1 S1                 0.0000
     39 ****         1.7720  -0.6524   1.7008 LP             1 S1                 0.0000
     40 ****         0.5363   0.3201   1.2607 LP             1 S1                 0.0000
@<TRIPOS>BOND
    1    1    2 1     
    2    1   20 1     
    3    1   21 1     
    4    2    7 ar    
    5    2    3 ar    
    6    3    4 ar    
    7    4    5 ar    
    8    4   22 1     
    9    5    6 ar    
   10    6   11 1     
   11    6    7 ar    
   12    7    8 1     
   13    8    9 2     
   14    9   10 1     
   15    9   11 1     
   16   11   12 1     
   17   12   19 1     
   18   12   13 1     
   19   12   23 1     
   20   13   14 1     
   21   13   24 1     
   22   13   25 1     
   23   14   15 1     
   24   14   16 1     
   25   14   26 1     
   26   15   27 1     
   27   16   17 1     
   28   16   19 1     
   29   16   28 1     
   30   17   18 1     
   31   17   29 1     
   32   17   30 1     
   33   18   31 1     
   34    3   32 1     
   35    5   33 1     
   36    8   34 1     
   37   15   35 1     
   38   15   36 1     
   39   18   37 1     
   40   18   38 1     
   41   19   39 1     
   42   19   40 1     
@<TRIPOS>SUBSTRUCTURE
      1 S1             1
@<TRIPOS>SET
LONE_PAIRS      STATIC     ATOMS    <user>   **** ""
9 32 33 34 35 36 37 38 39 40
DONOR_HYDROGENS      STATIC     ATOMS    <user>   **** ""
4 20 21 27 31
ATOM$BLUE        STATIC     ATOMS    COLORGROUP SYSTEM
9 32 33 34 35 36 37 38 39 40
ATOM$RED        STATIC     ATOMS    COLORGROUP SYSTEM
4 20 21 27 31
