#       Name:                AV-unprocessed.smi:3342
#       Creating user name   scv26
#       Creation time:       Fri Mar 27 19:29:25 2020


#       File generated by GOLD software.
#

@<TRIPOS>MOLECULE
AV-unprocessed.smi:3342
    46    47     1
SMALL
NO_CHARGES


@<TRIPOS>ATOM
      1 ****        -2.4716  -1.9389  -2.0335 C.3            1 S1                 0.0000
      2 ****        -2.4239  -0.8347  -0.9689 C.3            1 S1                 0.0000
      3 ****        -3.4671  -1.0838   0.1421 C.3            1 S1                 0.0000
      4 ****        -3.5759   0.0303   1.0896 N.pl3          1 S1                 0.0000
      5 ****        -3.1100   0.0754   2.3788 C.2            1 S1                 0.0000
      6 ****        -3.4294   1.3166   2.8660 C.2            1 S1                 0.0000
      7 ****        -4.0816   1.9733   1.8570 N.pl3          1 S1                 1.0000
      8 ****        -4.1738   1.1878   0.7792 C.2            1 S1                 0.0000
      9 ****        -1.0713  -0.7713  -0.4168 N.am           1 S1                 0.0000
     10 ****        -0.4114   0.3457  -0.0625 C.2            1 S1                 0.0000
     11 ****        -0.9234   1.4632  -0.1472 O.2            1 S1                 0.0000
     12 ****         0.8331   0.1348   0.4350 N.am           1 S1                 0.0000
     13 ****         1.5951  -1.1238   0.3690 C.3            1 S1                 0.0000
     14 ****         2.6899  -0.9827  -0.7042 C.3            1 S1                 0.0000
     15 ****         3.6114   0.2239  -0.4055 C.3            1 S1                 0.0000
     16 ****         4.6160   0.4461  -1.5441 C.2            1 S1                 0.0000
     17 ****         5.9124   0.3421  -1.2414 N.am           1 S1                 0.0000
     18 ****         4.2301   0.7078  -2.6818 O.2            1 S1                 0.0000
     19 ****         2.7786   1.5009  -0.1425 C.3            1 S1                 0.0000
     20 ****         1.6787   1.2398   0.9027 C.3            1 S1                 0.0000
     21 ****        -3.4582  -1.9978  -2.4941 H              1 S1                 0.0000
     22 ****        -2.2461  -2.9160  -1.6047 H              1 S1                 0.0000
     23 ****        -1.7495  -1.7499  -2.8288 H              1 S1                 0.0000
     24 ****        -2.6595   0.1047  -1.4723 H              1 S1                 0.0000
     25 ****        -4.4560  -1.2370  -0.2925 H              1 S1                 0.0000
     26 ****        -3.2265  -1.9871   0.7048 H              1 S1                 0.0000
     27 ****        -2.5929  -0.7541   2.8389 H              1 S1                 0.0000
     28 ****        -3.2458   1.7702   3.8292 H              1 S1                 0.0000
     29 ****        -4.6308   1.4427  -0.1604 H              1 S1                 0.0000
     30 ****        -0.5873  -1.6508  -0.3071 H              1 S1                 0.0000
     31 ****         2.0511  -1.3175   1.3410 H              1 S1                 0.0000
     32 ****         0.9850  -2.0021   0.1589 H              1 S1                 0.0000
     33 ****         3.2787  -1.8997  -0.7502 H              1 S1                 0.0000
     34 ****         2.2181  -0.8696  -1.6821 H              1 S1                 0.0000
     35 ****         4.1670  -0.0022   0.5067 H              1 S1                 0.0000
     36 ****         6.6110   0.4778  -1.9576 H              1 S1                 0.0000
     37 ****         6.1892   0.1255  -0.2948 H              1 S1                 0.0000
     38 ****         3.4279   2.3069   0.2016 H              1 S1                 0.0000
     39 ****         2.3162   1.8510  -1.0672 H              1 S1                 0.0000
     40 ****         1.1134   2.1542   1.0878 H              1 S1                 0.0000
     41 ****         2.1269   0.9733   1.8609 H              1 S1                 0.0000
     42 ****        -4.4405   2.9182   1.9145 H              1 S1                 0.0000
     43 ****        -1.8584   1.5603  -0.4882 LP             1 S1                 0.0000
     44 ****        -0.4039   2.2732   0.1251 LP             1 S1                 0.0000
     45 ****         3.2513   0.7781  -2.8739 LP             1 S1                 0.0000
     46 ****         4.8951   0.8504  -3.4149 LP             1 S1                 0.0000
@<TRIPOS>BOND
    1    1    2 1     
    2    1   21 1     
    3    1   22 1     
    4    1   23 1     
    5    2    3 1     
    6    2    9 1     
    7    2   24 1     
    8    3    4 1     
    9    3   25 1     
   10    3   26 1     
   11    4    8 1     
   12    4    5 1     
   13    5    6 2     
   14    5   27 1     
   15    6    7 1     
   16    6   28 1     
   17    7    8 2     
   18    7   42 1     
   19    8   29 1     
   20    9   10 am    
   21    9   30 1     
   22   10   11 2     
   23   10   12 am    
   24   12   20 1     
   25   12   13 1     
   26   13   14 1     
   27   13   31 1     
   28   13   32 1     
   29   14   15 1     
   30   14   33 1     
   31   14   34 1     
   32   15   16 1     
   33   15   19 1     
   34   15   35 1     
   35   16   17 am    
   36   16   18 2     
   37   17   36 1     
   38   17   37 1     
   39   19   20 1     
   40   19   38 1     
   41   19   39 1     
   42   20   40 1     
   43   20   41 1     
   44   11   43 1     
   45   11   44 1     
   46   18   45 1     
   47   18   46 1     
@<TRIPOS>SUBSTRUCTURE
      1 S1             1
@<TRIPOS>SET
LONE_PAIRS      STATIC     ATOMS    <user>   **** ""
4 43 44 45 46
DONOR_HYDROGENS      STATIC     ATOMS    <user>   **** ""
4 42 30 36 37
ATOM$BLUE        STATIC     ATOMS    COLORGROUP SYSTEM
4 43 44 45 46
ATOM$RED        STATIC     ATOMS    COLORGROUP SYSTEM
4 42 30 36 37
