AV-unprocessed.smi:43|AV-procd|sdf|393|dock8
  -GOLD-   2262016243D 1   1.00000     0.00000
 Structure written by MMmdl.
 25 26  0  0  0  0  0  0  0  0  2 V2000
  151.3901  137.7864  158.6426 C   0  0  0  0  0  0  0  0  0  0  0  0
  150.1946  137.2024  158.0626 N   0  0  0  0  0  0  0  0  0  0  0  0
  149.5489  136.2050  158.7173 N   0  0  0  0  0  0  0  0  0  0  0  0
  148.5023  135.8998  158.0065 N   0  0  0  0  0  0  0  0  0  0  0  0
  148.4233  136.6792  156.8698 N   0  0  0  0  0  0  0  0  0  0  0  0
  149.4950  137.4596  156.9431 C   0  0  0  0  0  0  0  0  0  0  0  0
  149.8588  138.4294  156.0008 N   0  0  0  0  0  0  0  0  0  0  0  0
  149.0446  139.0232  154.9450 C   0  0  0  0  0  0  0  0  0  0  0  0
  149.5687  140.4382  154.7384 C   0  0  2  0  0  0  0  0  0  0  0  0
  149.2147  140.9707  153.4793 O   0  0  0  0  0  0  0  0  0  0  0  0
  151.0639  140.2395  154.8917 C   0  0  0  0  0  0  0  0  0  0  0  0
  151.1534  139.1226  155.9466 C   0  0  2  0  0  0  0  0  0  0  0  0
  152.3070  138.1512  155.6544 C   0  0  0  0  0  0  0  0  0  0  0  0
  152.0117  136.9417  155.5441 O   0  0  0  0  0  0  0  0  0  0  0  0
  153.4586  138.6302  155.5489 O   0  5  0  0  0  0  0  0  0  0  0  0
  149.1986  141.0915  155.5300 H   0  0  0  0  0  0  0  0  0  0  0  0
  151.3152  139.5760  156.9256 H   0  0  0  0  0  0  0  0  0  0  0  0
  151.3527  138.8723  158.5595 H   0  0  0  0  0  0  0  0  0  0  0  0
  152.2730  137.4086  158.1279 H   0  0  0  0  0  0  0  0  0  0  0  0
  151.4635  137.5274  159.6996 H   0  0  0  0  0  0  0  0  0  0  0  0
  149.1579  138.4260  154.0386 H   0  0  0  0  0  0  0  0  0  0  0  0
  147.9882  139.0463  155.2103 H   0  0  0  0  0  0  0  0  0  0  0  0
  149.1504  140.2585  152.8615 H   0  0  0  0  0  0  0  0  0  0  0  0
  151.4972  139.9227  153.9407 H   0  0  0  0  0  0  0  0  0  0  0  0
  151.5762  141.1505  155.2026 H   0  0  0  0  0  0  0  0  0  0  0  0
  1  2  1  0  0  0  0
  1 18  1  0  0  0  0
  1 19  1  0  0  0  0
  1 20  1  0  0  0  0
  2  6  1  0  0  0  0
  2  3  1  0  0  0  0
  3  4  2  0  0  0  0
  4  5  1  0  0  0  0
  5  6  2  0  0  0  0
  6  7  1  0  0  0  0
  7 12  1  0  0  0  0
  7  8  1  0  0  0  0
  8  9  1  0  0  0  0
  8 21  1  0  0  0  0
  8 22  1  0  0  0  0
  9 16  1  0  0  0  0
  9 10  1  0  0  0  0
  9 11  1  0  0  0  0
 10 23  1  0  0  0  0
 11 12  1  0  0  0  0
 11 24  1  0  0  0  0
 11 25  1  0  0  0  0
 12 17  1  0  0  0  0
 12 13  1  0  0  0  0
 13 14  2  0  0  0  0
 13 15  1  0  0  0  0
M  CHG  1  15  -1
M  END
> <s_m_source_file>
AV-unprocessed.smi

> <i_m_source_file_index>
43

> <i_lp_mmshare_version>
43012

> <i_f3d_flags>
0

> <s_epik_input>
W0NIM11uMW5ubmMxTjJbQ0gyXVtDQEhdKFtPSF0pW0NIMl1bQ0BIXTJDKD1PKVtPSF0=

> <s_epik_cmdline>
J2VwaWtfcHl0aG9uJywgJy1waCcsICc3LjAnLCAnLXRuJywgJzgnLCAnLW1hJywgJzIwMCcsICctbWV0YWxfYmluZGluZycsICctaW1hZScsICc8aW5maWxlLm1hZT4nLCAnLW9tYWUnLCAnPG91dGZpbGUubWFlPic=

> <r_lp_tautomer_probability>
1

> <r_epik_Ionization_Penalty>
0.000193127

> <r_epik_Ionization_Penalty_Charging>
0.000192933

> <r_epik_Ionization_Penalty_Neutral>
1.93728e-07

> <r_epik_State_Penalty>
-0

> <r_epik_Charging_Adjusted_Penalty>
0.000192933

> <i_epik_Tot_Q>
-1

> <i_epik_Tot_abs_Q>
1

> <r_epik_Metal_State_Penalty>
-0

> <b_epik_Metal_Only>
0

> <s_lp_Force_Field>
OPLS_2005

> <r_lp_Energy>
21.0116

> <b_lp_Chiralities_Consistent>
1

> <s_lp_Variant>
AV-unprocessed.smi:43-3

> <Gold.Version>
5.8.1

> <Gold.Id.Protein>
6NUR|6NUR_protein|mol2

> <Gold.PLP.Fitness>
37.2889

> <Gold.PLP.PLP>
-18.0608

> <Gold.PLP.part.hbond>
-6.0000

> <Gold.PLP.part.metal>
0.0000

> <Gold.PLP.part.buried>
0.2013

> <Gold.PLP.part.nonpolar>
-12.1595

> <Gold.PLP.part.repulsive>
0.0616

> <Gold.PLP.ligand.clash>
0.0000

> <Gold.PLP.ligand.torsion>
0.1100

> <Gold.PLP.Chemscore.Hbond>
6.4800

> <Gold.PLP.Chemscore.CHOScore>
0.0000

> <Gold.PLP.Chemscore.Metal>
0.0000

> <Gold.Chemscore.Hbonds>
donor molecule, donor type, donor heavy atom, donor atom, acceptor molecule, acceptor atom, score
      L1  H    10    23       P1  7957  0.69
      P1  H  6896  6909       L1     3  0.81
      P1  H  7997  8009       L1    15  1.73
      P1  H  8011  8017       L1    10  1.00
      P1  H 10752 10763       L1    14  2.00

> <Gold.PLP.Chemscore.Internal.Correction>
0.0080

> <Gold.Rescore>
     Score         DG    S(hbond)    S(metal)    S(lipo)     H(rot)  DE(clash)    DE(int)     intcor
     14.19     -18.17       3.99        0.00      31.54       1.69       1.64       2.33       ----

> <Gold.Chemscore.Fitness>
14.1916

> <Gold.Chemscore.DG>
-18.1654

> <Gold.Chemscore.ZeroCoef>
-5.4800

> <Gold.Chemscore.Hbond>
3.9876

> <Gold.Chemscore.Metal>
0.0000

> <Gold.Chemscore.Lipo>
31.5380

> <Gold.Chemscore.Internal_Hbond>
0.0000

> <Gold.Chemscore.DEClash>
1.6425

> <Gold.Chemscore.DEInternal>
2.3313

> <Gold.Chemscore.Rot>
1.6887

> <Gold.Chemscore.Internal.Correction>
   9.000000E+99

> <Gold.Chemscore.Hbonds>
donor molecule, donor type, donor heavy atom, donor atom, acceptor molecule, acceptor atom, score
      L1  H    10    23       P1  7957  0.68
      P1  H  6896  6909       L1     3  0.76
      P1  H  7997  8009       L1    15  0.85
      P1  H  8011  8017       L1    10  0.29
      P1  H 10752 10763       L1    14  0.95

> <Gold.Chemscore.Hbond.Weighted>
-13.3186

> <Gold.Chemscore.Metal.Weighted>
-0.0000

> <Gold.Chemscore.Lipo.Weighted>
-3.6900

> <Gold.Chemscore.Internal_Hbond.Weighted>
0.0000

> <Gold.Chemscore.DEClash.Weighted>
1.6425

> <Gold.Chemscore.DEInternal.Weighted>
2.3313

> <Gold.Chemscore.Rot.Weighted>
4.3232

> <Gold.Chemscore.Internal.Correction.Weighted>
   9.000000E+99

> <Gold.Protein.RotatedTorsions>
[ 6907 6896 6895 6894 ] final   56.97 input  -60.11 | X-H torsion
[ 7974 7965 7964 7962 ] final -174.40 input  175.53 | X-H torsion
[ 8008 7997 7996 7995 ] final -139.89 input   59.86 | X-H torsion
[ 10167 10162 10161 10158 ] final  -56.07 input  -65.29 | X-H torsion
[ 10718 10713 10712 10709 ] final -133.84 input   66.30 | X-H torsion
[ 10763 10752 10751 10750 ] final   69.65 input  -60.55 | X-H torsion
[ 11005 11000 10999 10996 ] final   49.19 input  -57.11 | X-H torsion

> <Gold.Protein.ActiveResidues>
 VAL166  LYS551  ARG553  GLY616  TRP617  ASP618  TYR619  PRO620  LYS621  CYS622 
 ASP623  PHE694  ASN695  SER759  ASP760  ASP761  ALA762  ILE779  LEU786  VAL792 
 PHE793  MET794  SER795  GLU796  ALA797  LYS798  CYS799  TRP800  GLU811  SER814 

> <Gold.Protein.RotatedAtoms>
  152.3687  134.6766  160.0183 H   0  0  0  0  0  0  0  0  0  0  0  0  # atno 6907 bound_to 6896
  151.7066  133.3306  159.3288 H   0  0  0  0  0  0  0  0  0  0  0  0  # atno 6908 bound_to 6896
  150.7657  134.6504  159.6329 H   0  0  0  0  0  0  0  0  0  0  0  0  # atno 6909 bound_to 6896
  144.7132  140.1477  143.6386 H   0  0  0  0  0  0  0  0  0  0  0  0  # atno 7974 bound_to 7965
  155.4523  140.0539  157.3000 H   0  0  0  0  0  0  0  0  0  0  0  0  # atno 8008 bound_to 7997
  154.4772  140.2066  155.9806 H   0  0  0  0  0  0  0  0  0  0  0  0  # atno 8009 bound_to 7997
  156.1150  140.3198  155.8131 H   0  0  0  0  0  0  0  0  0  0  0  0  # atno 8010 bound_to 7997
  140.6339  143.2472  151.5170 H   0  0  0  0  0  0  0  0  0  0  0  0  # atno 10167 bound_to 10162
  156.2491  130.7142  151.1034 H   0  0  0  0  0  0  0  0  0  0  0  0  # atno 10718 bound_to 10713
  153.0298  135.5203  154.7321 H   0  0  0  0  0  0  0  0  0  0  0  0  # atno 10763 bound_to 10752
  154.6345  135.2904  155.0179 H   0  0  0  0  0  0  0  0  0  0  0  0  # atno 10764 bound_to 10752
  154.1119  135.6621  153.4939 H   0  0  0  0  0  0  0  0  0  0  0  0  # atno 10765 bound_to 10752
  140.1125  134.4936  155.8665 H   0  0  0  0  0  0  0  0  0  0  0  0  # atno 11005 bound_to 11000
  145.9145  139.2507  143.1418 LP  0  0  0  0  0  0  0  0  0  0  0  0  # atno 17320 bound_to 7965
  145.9683  140.8780  143.0175 LP  0  0  0  0  0  0  0  0  0  0  0  0  # atno 17321 bound_to 7965
  139.5550  144.2298  152.1597 LP  0  0  0  0  0  0  0  0  0  0  0  0  # atno 17342 bound_to 10162
  140.1549  144.5080  150.6666 LP  0  0  0  0  0  0  0  0  0  0  0  0  # atno 17343 bound_to 10162
  157.7207  131.0683  150.6146 LP  0  0  0  0  0  0  0  0  0  0  0  0  # atno 17370 bound_to 10713
  156.6225  130.4409  149.5817 LP  0  0  0  0  0  0  0  0  0  0  0  0  # atno 17371 bound_to 10713
  141.2133  133.6732  156.6733 LP  0  0  0  0  0  0  0  0  0  0  0  0  # atno 17394 bound_to 11000
  140.3072  134.8116  157.4146 LP  0  0  0  0  0  0  0  0  0  0  0  0  # atno 17395 bound_to 11000

$$$$
