AV-unprocessed.smi:240|AV-procd|sdf|1832|dock3
  -GOLD-   2262020433D 1   1.00000     0.00000
 Structure written by MMmdl.
 55 59  0  0  0  0  0  0  0  0  1 V2000
  150.8120  140.3214  153.0202 O   0  0  0  0  0  0  0  0  0  0  0  0
  150.5054  139.7504  154.2752 C   0  0  2  0  0  0  0  0  0  0  0  0
  151.4280  138.5748  154.5966 C   0  0  0  0  0  0  0  0  0  0  0  0
  150.6610  137.7577  155.6422 C   0  0  0  0  0  0  0  0  0  0  0  0
  149.1755  138.1138  155.4676 C   0  0  0  0  0  0  0  0  0  0  0  0
  149.1054  139.1208  154.3043 C   0  0  1  0  0  0  0  0  0  0  0  0
  147.9045  140.1153  154.3305 C   0  0  2  0  0  0  0  0  0  0  0  0
  147.8581  141.0024  155.6015 C   0  0  0  0  0  0  0  0  0  0  0  0
  146.7445  141.8869  155.5503 O   0  0  0  0  0  0  0  0  0  0  0  0
  145.5102  141.1847  155.5033 C   0  0  0  0  0  0  0  0  0  0  0  0
  145.4650  140.3468  154.2194 C   0  0  0  0  0  0  0  0  0  0  0  0
  146.6079  139.4429  154.1638 N   0  0  0  0  0  0  0  0  0  0  0  0
  146.4829  138.5830  153.1275 C   0  0  0  0  0  0  0  0  0  0  0  0
  147.4374  138.6377  152.1665 N   0  0  0  0  0  0  0  0  0  0  0  0
  147.3736  137.8171  151.1138 C   0  0  0  0  0  0  0  0  0  0  0  0
  146.4627  136.8811  150.8383 N   0  0  0  0  0  0  0  0  0  0  0  0
  145.5093  136.8143  151.8119 C   0  0  0  0  0  0  0  0  0  0  0  0
  145.4427  137.6213  152.9824 C   0  0  0  0  0  0  0  0  0  0  0  0
  144.3344  137.2640  153.7406 N   0  0  0  0  0  0  0  0  0  0  0  0
  143.7767  136.3029  153.0564 C   0  0  0  0  0  0  0  0  0  0  0  0
  144.4214  135.9621  151.8885 N   0  0  0  0  0  0  0  0  0  0  0  0
  144.0224  134.9334  150.9394 C   0  0  0  0  0  0  0  0  0  0  0  0
  145.0662  133.8021  150.7564 C   0  0  2  0  0  0  0  0  0  0  0  0
  146.2373  134.3413  150.1710 O   0  0  0  0  0  0  0  0  0  0  0  0
  144.5766  132.6283  149.9074 C   0  0  0  0  0  0  0  0  0  0  0  0
  144.0899  131.6384  150.9542 C   0  0  0  0  0  0  0  0  0  0  0  0
  145.0800  131.7536  151.9609 O   0  0  0  0  0  0  0  0  0  0  0  0
  145.4144  133.1299  152.1008 C   0  0  0  0  0  0  0  0  0  0  0  0
  150.5756  139.7057  152.3434 H   0  0  0  0  0  0  0  0  0  0  0  0
  150.6198  140.5039  155.0533 H   0  0  0  0  0  0  0  0  0  0  0  0
  151.5803  137.9642  153.7053 H   0  0  0  0  0  0  0  0  0  0  0  0
  152.4089  138.8941  154.9499 H   0  0  0  0  0  0  0  0  0  0  0  0
  150.8403  136.6891  155.5212 H   0  0  0  0  0  0  0  0  0  0  0  0
  150.9887  138.0314  156.6455 H   0  0  0  0  0  0  0  0  0  0  0  0
  148.5740  137.2291  155.2577 H   0  0  0  0  0  0  0  0  0  0  0  0
  148.7972  138.5402  156.3953 H   0  0  0  0  0  0  0  0  0  0  0  0
  149.0347  138.5269  153.3917 H   0  0  0  0  0  0  0  0  0  0  0  0
  148.0280  140.7953  153.4875 H   0  0  0  0  0  0  0  0  0  0  0  0
  147.8023  140.4075  156.5130 H   0  0  0  0  0  0  0  0  0  0  0  0
  148.7524  141.6188  155.6784 H   0  0  0  0  0  0  0  0  0  0  0  0
  145.3964  140.5552  156.3873 H   0  0  0  0  0  0  0  0  0  0  0  0
  144.6907  141.9034  155.5128 H   0  0  0  0  0  0  0  0  0  0  0  0
  144.5343  139.7784  154.1840 H   0  0  0  0  0  0  0  0  0  0  0  0
  145.4748  141.0031  153.3478 H   0  0  0  0  0  0  0  0  0  0  0  0
  148.1670  137.9251  150.3890 H   0  0  0  0  0  0  0  0  0  0  0  0
  142.8759  135.8082  153.3899 H   0  0  0  0  0  0  0  0  0  0  0  0
  143.0716  134.5158  151.2736 H   0  0  0  0  0  0  0  0  0  0  0  0
  143.8204  135.4147  149.9816 H   0  0  0  0  0  0  0  0  0  0  0  0
  146.3958  133.8932  149.3541 H   0  0  0  0  0  0  0  0  0  0  0  0
  143.8101  132.8825  149.1771 H   0  0  0  0  0  0  0  0  0  0  0  0
  145.4055  132.1753  149.3610 H   0  0  0  0  0  0  0  0  0  0  0  0
  143.1170  131.9311  151.3523 H   0  0  0  0  0  0  0  0  0  0  0  0
  144.0185  130.6197  150.5726 H   0  0  0  0  0  0  0  0  0  0  0  0
  146.4675  133.2277  152.3685 H   0  0  0  0  0  0  0  0  0  0  0  0
  144.8309  133.5512  152.9204 H   0  0  0  0  0  0  0  0  0  0  0  0
  1  2  1  0  0  0  0
  1 29  1  0  0  0  0
  2  6  1  0  0  0  0
  2  3  1  0  0  0  0
  2 30  1  0  0  0  0
  3  4  1  0  0  0  0
  3 31  1  0  0  0  0
  3 32  1  0  0  0  0
  4  5  1  0  0  0  0
  4 33  1  0  0  0  0
  4 34  1  0  0  0  0
  5  6  1  0  0  0  0
  5 35  1  0  0  0  0
  5 36  1  0  0  0  0
  6  7  1  0  0  0  0
  6 37  1  0  0  0  0
  7 12  1  0  0  0  0
  7  8  1  0  0  0  0
  7 38  1  0  0  0  0
  8  9  1  0  0  0  0
  8 39  1  0  0  0  0
  8 40  1  0  0  0  0
  9 10  1  0  0  0  0
 10 11  1  0  0  0  0
 10 41  1  0  0  0  0
 10 42  1  0  0  0  0
 11 12  1  0  0  0  0
 11 43  1  0  0  0  0
 11 44  1  0  0  0  0
 12 13  1  0  0  0  0
 13 18  1  0  0  0  0
 13 14  2  0  0  0  0
 14 15  1  0  0  0  0
 15 16  2  0  0  0  0
 15 45  1  0  0  0  0
 16 17  1  0  0  0  0
 17 21  1  0  0  0  0
 17 18  2  0  0  0  0
 18 19  1  0  0  0  0
 19 20  2  0  0  0  0
 20 21  1  0  0  0  0
 20 46  1  0  0  0  0
 21 22  1  0  0  0  0
 22 23  1  0  0  0  0
 22 47  1  0  0  0  0
 22 48  1  0  0  0  0
 23 28  1  0  0  0  0
 23 24  1  0  0  0  0
 23 25  1  0  0  0  0
 24 49  1  0  0  0  0
 25 26  1  0  0  0  0
 25 50  1  0  0  0  0
 25 51  1  0  0  0  0
 26 27  1  0  0  0  0
 26 52  1  0  0  0  0
 26 53  1  0  0  0  0
 27 28  1  0  0  0  0
 28 54  1  0  0  0  0
 28 55  1  0  0  0  0
M  END
> <s_m_source_file>
AV-unprocessed.smi

> <i_m_source_file_index>
240

> <i_lp_mmshare_version>
43012

> <i_f3d_flags>
0

> <s_epik_input>
W09IXVtDQEBIXTFbQ0gyXVtDSDJdW0NIMl1bQ0BIXTFbQ0BASF0yW0NIMl1PW0NIMl1bQ0gyXU4yYyhuW2NIXW4zKWMoYzM0KW5bY0hdbjRbQ0gyXVtDQEBdNShbT0hdKVtDSDJdW0NIMl1PW0NIMl01

> <s_epik_cmdline>
J2VwaWtfcHl0aG9uJywgJy1waCcsICc3LjAnLCAnLXRuJywgJzgnLCAnLW1hJywgJzIwMCcsICctbWV0YWxfYmluZGluZycsICctaW1hZScsICc8aW5maWxlLm1hZT4nLCAnLW9tYWUnLCAnPG91dGZpbGUubWFlPic=

> <r_lp_tautomer_probability>
1

> <r_epik_Ionization_Penalty>
0.000130618

> <r_epik_Ionization_Penalty_Charging>
0

> <r_epik_Ionization_Penalty_Neutral>
0.000130618

> <r_epik_State_Penalty>
-0

> <r_epik_Charging_Adjusted_Penalty>
0

> <i_epik_Tot_Q>
0

> <i_epik_Tot_abs_Q>
0

> <r_epik_Metal_State_Penalty>
-0

> <b_epik_Metal_Only>
0

> <s_lp_Force_Field>
OPLS_2005

> <r_lp_Energy>
62.3789

> <b_lp_Chiralities_Consistent>
1

> <s_lp_Variant>
AV-unprocessed.smi:240-9

> <Gold.Version>
5.8.1

> <Gold.Id.Protein>
6NUR|6NUR_protein|mol2

> <Gold.PLP.Fitness>
40.3577

> <Gold.PLP.PLP>
-31.7589

> <Gold.PLP.part.hbond>
-2.6434

> <Gold.PLP.part.metal>
0.0000

> <Gold.PLP.part.buried>
-5.3769

> <Gold.PLP.part.nonpolar>
-25.1031

> <Gold.PLP.part.repulsive>
2.0258

> <Gold.PLP.ligand.clash>
0.0000

> <Gold.PLP.ligand.torsion>
0.2473

> <Gold.PLP.Chemscore.Hbond>
2.6240

> <Gold.PLP.Chemscore.CHOScore>
0.3397

> <Gold.PLP.Chemscore.Metal>
0.0000

> <Gold.Chemscore.Hbonds>
donor molecule, donor type, donor heavy atom, donor atom, acceptor molecule, acceptor atom, score
      L1  H     1    29       P1  7957  0.50
      L1  H    24    49       P1  7921  0.13
      P1  H  8011  8017       L1     1  0.07

> <Gold.PLP.Chemscore.Internal.Correction>
0.2022

> <Gold.Rescore>
     Score         DG    S(hbond)    S(metal)    S(lipo)     H(rot)  DE(clash)    DE(int)     intcor
      9.88     -13.18       2.39        0.00      63.29       3.00       1.47       1.83       ----

> <Gold.Chemscore.Fitness>
9.8822

> <Gold.Chemscore.DG>
-13.1820

> <Gold.Chemscore.ZeroCoef>
-5.4800

> <Gold.Chemscore.Hbond>
2.3912

> <Gold.Chemscore.Metal>
0.0000

> <Gold.Chemscore.Lipo>
63.2926

> <Gold.Chemscore.Internal_Hbond>
0.0000

> <Gold.Chemscore.DEClash>
1.4720

> <Gold.Chemscore.DEInternal>
1.8278

> <Gold.Chemscore.Rot>
3.0039

> <Gold.Chemscore.Internal.Correction>
   9.000000E+99

> <Gold.Chemscore.Hbonds>
donor molecule, donor type, donor heavy atom, donor atom, acceptor molecule, acceptor atom, score
      L1  H     1    29       P1  7957  0.19
      P1  H  8011  8017       L1     1  0.04

> <Gold.Chemscore.Hbond.Weighted>
-7.9867

> <Gold.Chemscore.Metal.Weighted>
-0.0000

> <Gold.Chemscore.Lipo.Weighted>
-7.4052

> <Gold.Chemscore.Internal_Hbond.Weighted>
0.0000

> <Gold.Chemscore.DEClash.Weighted>
1.4720

> <Gold.Chemscore.DEInternal.Weighted>
1.8278

> <Gold.Chemscore.Rot.Weighted>
7.6899

> <Gold.Chemscore.Internal.Correction.Weighted>
   9.000000E+99

> <Gold.Protein.RotatedTorsions>
[ 6907 6896 6895 6894 ] final  125.76 input  -60.11 | X-H torsion
[ 7974 7965 7964 7962 ] final  134.69 input  175.53 | X-H torsion
[ 8008 7997 7996 7995 ] final   29.26 input   59.86 | X-H torsion
[ 10167 10162 10161 10158 ] final  -62.24 input  -65.29 | X-H torsion
[ 10718 10713 10712 10709 ] final    9.52 input   66.30 | X-H torsion
[ 10763 10752 10751 10750 ] final  -57.18 input  -60.55 | X-H torsion
[ 11005 11000 10999 10996 ] final   70.03 input  -57.11 | X-H torsion

> <Gold.Protein.ActiveResidues>
 VAL166  LYS551  ARG553  GLY616  TRP617  ASP618  TYR619  PRO620  LYS621  CYS622 
 ASP623  PHE694  ASN695  SER759  ASP760  ASP761  ALA762  ILE779  LEU786  VAL792 
 PHE793  MET794  SER795  GLU796  ALA797  LYS798  CYS799  TRP800  GLU811  SER814 

> <Gold.Protein.RotatedAtoms>
  152.3963  133.6752  159.6278 H   0  0  0  0  0  0  0  0  0  0  0  0  # atno 6907 bound_to 6896
  150.7862  133.8868  159.3310 H   0  0  0  0  0  0  0  0  0  0  0  0  # atno 6908 bound_to 6896
  151.6644  135.0986  160.0237 H   0  0  0  0  0  0  0  0  0  0  0  0  # atno 6909 bound_to 6896
  144.9738  139.4577  143.5420 H   0  0  0  0  0  0  0  0  0  0  0  0  # atno 7974 bound_to 7965
  155.0717  140.3201  155.4628 H   0  0  0  0  0  0  0  0  0  0  0  0  # atno 8008 bound_to 7997
  156.2789  140.2110  156.5790 H   0  0  0  0  0  0  0  0  0  0  0  0  # atno 8009 bound_to 7997
  154.7049  140.0503  157.0482 H   0  0  0  0  0  0  0  0  0  0  0  0  # atno 8010 bound_to 7997
  140.5952  143.2349  151.6052 H   0  0  0  0  0  0  0  0  0  0  0  0  # atno 10167 bound_to 10162
  156.9675  130.5956  149.5666 H   0  0  0  0  0  0  0  0  0  0  0  0  # atno 10718 bound_to 10713
  154.2183  135.6382  153.5137 H   0  0  0  0  0  0  0  0  0  0  0  0  # atno 10763 bound_to 10752
  152.9974  135.5490  154.6141 H   0  0  0  0  0  0  0  0  0  0  0  0  # atno 10764 bound_to 10752
  154.5595  135.2908  155.0907 H   0  0  0  0  0  0  0  0  0  0  0  0  # atno 10765 bound_to 10752
  139.9620  134.7044  156.0625 H   0  0  0  0  0  0  0  0  0  0  0  0  # atno 11005 bound_to 11000
  146.3389  139.8968  142.8800 LP  0  0  0  0  0  0  0  0  0  0  0  0  # atno 17320 bound_to 7965
  145.2520  141.0047  143.3876 LP  0  0  0  0  0  0  0  0  0  0  0  0  # atno 17321 bound_to 7965
  139.5253  144.3077  152.1019 LP  0  0  0  0  0  0  0  0  0  0  0  0  # atno 17342 bound_to 10162
  140.2248  144.4429  150.6326 LP  0  0  0  0  0  0  0  0  0  0  0  0  # atno 17343 bound_to 10162
  156.0296  130.5388  150.8500 LP  0  0  0  0  0  0  0  0  0  0  0  0  # atno 17370 bound_to 10713
  157.5615  131.0946  150.9551 LP  0  0  0  0  0  0  0  0  0  0  0  0  # atno 17371 bound_to 10713
  141.1298  133.6589  156.3433 LP  0  0  0  0  0  0  0  0  0  0  0  0  # atno 17394 bound_to 11000
  140.5479  134.6056  157.5399 LP  0  0  0  0  0  0  0  0  0  0  0  0  # atno 17395 bound_to 11000

$$$$
