AV-unprocessed.smi:1654|AV-procd|sdf|6642|dock10
  -GOLD-   22720 7343D 1   1.00000     0.00000
 Structure written by MMmdl.
 40 41  0  0  0  0  0  0  0  0  1 V2000
  150.3781  139.4333  157.1613 O   0  0  0  0  0  0  0  0  0  0  0  0
  151.2518  140.4054  156.4864 S   0  0  0  0  0  0  0  0  0  0  0  0
  152.4950  139.9774  155.8268 O   0  0  0  0  0  0  0  0  0  0  0  0
  150.2926  141.2689  155.3447 N   0  0  0  0  0  0  0  0  0  0  0  0
  149.2611  140.5375  154.6151 C   0  0  0  0  0  0  0  0  0  0  0  0
  148.5663  141.4619  153.6076 C   0  0  0  0  0  0  0  0  0  0  0  0
  147.4695  142.2849  154.2537 C   0  0  0  0  0  0  0  0  0  0  0  0
  146.6588  143.1432  153.4825 C   0  0  0  0  0  0  0  0  0  0  0  0
  145.6573  143.8926  154.1294 C   0  0  0  0  0  0  0  0  0  0  0  0
  145.5092  143.7515  155.5238 C   0  0  0  0  0  0  0  0  0  0  0  0
  146.2798  142.9329  156.2721 N   0  0  0  0  0  0  0  0  0  0  0  0
  147.2381  142.2180  155.6442 C   0  0  0  0  0  0  0  0  0  0  0  0
  151.6206  141.7014  157.5786 N   0  0  0  0  0  0  0  0  0  0  0  0
  151.4934  141.4410  159.0257 C   0  0  0  0  0  0  0  0  0  0  0  0
  152.7211  141.9612  159.7885 C   0  0  0  0  0  0  0  0  0  0  0  0
  152.6200  143.4250  160.2512 C   0  0  0  0  0  0  0  0  0  0  0  0
  151.9266  144.3911  159.2752 C   0  0  0  0  0  0  0  0  0  0  0  0
  152.2333  144.1356  157.7918 C   0  0  0  0  0  0  0  0  0  0  0  0
  151.3184  143.0775  157.1449 C   0  0  0  0  0  0  0  0  0  0  0  0
  149.9523  142.1506  155.7274 H   0  0  0  0  0  0  0  0  0  0  0  0
  149.7196  139.6899  154.1045 H   0  0  0  0  0  0  0  0  0  0  0  0
  148.5382  140.1371  155.3268 H   0  0  0  0  0  0  0  0  0  0  0  0
  149.2937  142.1358  153.1528 H   0  0  0  0  0  0  0  0  0  0  0  0
  148.1380  140.8754  152.7935 H   0  0  0  0  0  0  0  0  0  0  0  0
  146.8024  143.2285  152.4152 H   0  0  0  0  0  0  0  0  0  0  0  0
  145.0183  144.5605  153.5708 H   0  0  0  0  0  0  0  0  0  0  0  0
  144.7522  144.3119  156.0523 H   0  0  0  0  0  0  0  0  0  0  0  0
  147.8388  141.5753  156.2709 H   0  0  0  0  0  0  0  0  0  0  0  0
  150.5630  141.8612  159.4098 H   0  0  0  0  0  0  0  0  0  0  0  0
  151.4198  140.3657  159.1881 H   0  0  0  0  0  0  0  0  0  0  0  0
  152.8825  141.3405  160.6705 H   0  0  0  0  0  0  0  0  0  0  0  0
  153.6135  141.8252  159.1754 H   0  0  0  0  0  0  0  0  0  0  0  0
  152.0900  143.4653  161.2036 H   0  0  0  0  0  0  0  0  0  0  0  0
  153.6274  143.7858  160.4607 H   0  0  0  0  0  0  0  0  0  0  0  0
  150.8474  144.3617  159.4300 H   0  0  0  0  0  0  0  0  0  0  0  0
  152.2273  145.4070  159.5337 H   0  0  0  0  0  0  0  0  0  0  0  0
  152.0764  145.0718  157.2550 H   0  0  0  0  0  0  0  0  0  0  0  0
  153.2854  143.8866  157.6466 H   0  0  0  0  0  0  0  0  0  0  0  0
  151.4464  143.1440  156.0648 H   0  0  0  0  0  0  0  0  0  0  0  0
  150.2674  143.2959  157.3382 H   0  0  0  0  0  0  0  0  0  0  0  0
  1  2  2  0  0  0  0
  2  3  2  0  0  0  0
  2  4  1  0  0  0  0
  2 13  1  0  0  0  0
  4  5  1  0  0  0  0
  4 20  1  0  0  0  0
  5  6  1  0  0  0  0
  5 21  1  0  0  0  0
  5 22  1  0  0  0  0
  6  7  1  0  0  0  0
  6 23  1  0  0  0  0
  6 24  1  0  0  0  0
  7 12  1  0  0  0  0
  7  8  2  0  0  0  0
  8  9  1  0  0  0  0
  8 25  1  0  0  0  0
  9 10  2  0  0  0  0
  9 26  1  0  0  0  0
 10 11  1  0  0  0  0
 10 27  1  0  0  0  0
 11 12  2  0  0  0  0
 12 28  1  0  0  0  0
 13 19  1  0  0  0  0
 13 14  1  0  0  0  0
 14 15  1  0  0  0  0
 14 29  1  0  0  0  0
 14 30  1  0  0  0  0
 15 16  1  0  0  0  0
 15 31  1  0  0  0  0
 15 32  1  0  0  0  0
 16 17  1  0  0  0  0
 16 33  1  0  0  0  0
 16 34  1  0  0  0  0
 17 18  1  0  0  0  0
 17 35  1  0  0  0  0
 17 36  1  0  0  0  0
 18 19  1  0  0  0  0
 18 37  1  0  0  0  0
 18 38  1  0  0  0  0
 19 39  1  0  0  0  0
 19 40  1  0  0  0  0
M  END
> <s_m_source_file>
AV-unprocessed.smi

> <i_m_source_file_index>
1654

> <i_lp_mmshare_version>
43012

> <i_f3d_flags>
0

> <s_epik_input>
W0NIMl0xW0NIMl1bQ0gyXVtDSDJdW0NIMl1bQ0gyXU4xUyg9TykoPU8pW05IXVtDSDJdW0NIMl1jMltjSF1bY0hdW2NIXW5bY0hdMg==

> <s_epik_cmdline>
J2VwaWtfcHl0aG9uJywgJy1waCcsICc3LjAnLCAnLXRuJywgJzgnLCAnLW1hJywgJzIwMCcsICctbWV0YWxfYmluZGluZycsICctaW1hZScsICc8aW5maWxlLm1hZT4nLCAnLW9tYWUnLCAnPG91dGZpbGUubWFlPic=

> <r_lp_tautomer_probability>
1

> <r_epik_Ionization_Penalty>
0.00688973

> <r_epik_Ionization_Penalty_Charging>
0

> <r_epik_Ionization_Penalty_Neutral>
0.00688973

> <r_epik_State_Penalty>
-0

> <r_epik_Charging_Adjusted_Penalty>
0

> <i_epik_Tot_Q>
0

> <i_epik_Tot_abs_Q>
0

> <r_epik_Metal_State_Penalty>
0.361675

> <b_epik_Metal_Only>
0

> <s_lp_Force_Field>
OPLS_2005

> <r_lp_Energy>
15.461

> <b_lp_Chiralities_Consistent>
1

> <s_lp_Variant>
AV-unprocessed.smi:1654-1

> <Gold.Version>
5.8.1

> <Gold.Id.Protein>
6NUR|6NUR_protein|mol2

> <Gold.PLP.Fitness>
45.0769

> <Gold.PLP.PLP>
-43.6556

> <Gold.PLP.part.hbond>
-1.4428

> <Gold.PLP.part.metal>
0.0000

> <Gold.PLP.part.buried>
-3.8315

> <Gold.PLP.part.nonpolar>
-37.0661

> <Gold.PLP.part.repulsive>
0.1405

> <Gold.PLP.ligand.clash>
0.0000

> <Gold.PLP.ligand.torsion>
1.8538

> <Gold.PLP.Chemscore.Hbond>
1.0087

> <Gold.PLP.Chemscore.CHOScore>
0.0000

> <Gold.PLP.Chemscore.Metal>
0.0000

> <Gold.Chemscore.Hbonds>
donor molecule, donor type, donor heavy atom, donor atom, acceptor molecule, acceptor atom, score
      P1  H  7989  7998       L1     4  0.05
      P1  H  7997  8010       L1     3  1.00

> <Gold.PLP.Chemscore.Internal.Correction>
2.1026

> <Gold.Rescore>
     Score         DG    S(hbond)    S(metal)    S(lipo)     H(rot)  DE(clash)    DE(int)     intcor
     15.30     -17.10       1.00        0.00     103.03       1.47       0.02       1.77       ----

> <Gold.Chemscore.Fitness>
15.3042

> <Gold.Chemscore.DG>
-17.0998

> <Gold.Chemscore.ZeroCoef>
-5.4800

> <Gold.Chemscore.Hbond>
0.9986

> <Gold.Chemscore.Metal>
0.0000

> <Gold.Chemscore.Lipo>
103.0269

> <Gold.Chemscore.Internal_Hbond>
0.0000

> <Gold.Chemscore.DEClash>
0.0239

> <Gold.Chemscore.DEInternal>
1.7717

> <Gold.Chemscore.Rot>
1.4725

> <Gold.Chemscore.Internal.Correction>
   9.000000E+99

> <Gold.Chemscore.Hbonds>
donor molecule, donor type, donor heavy atom, donor atom, acceptor molecule, acceptor atom, score
      P1  H  7997  8010       L1     3  0.96

> <Gold.Chemscore.Hbond.Weighted>
-3.3354

> <Gold.Chemscore.Metal.Weighted>
-0.0000

> <Gold.Chemscore.Lipo.Weighted>
-12.0541

> <Gold.Chemscore.Internal_Hbond.Weighted>
0.0000

> <Gold.Chemscore.DEClash.Weighted>
0.0239

> <Gold.Chemscore.DEInternal.Weighted>
1.7717

> <Gold.Chemscore.Rot.Weighted>
3.7697

> <Gold.Chemscore.Internal.Correction.Weighted>
   9.000000E+99

> <Gold.Protein.RotatedTorsions>
[ 6907 6896 6895 6894 ] final  -98.35 input  -60.11 | X-H torsion
[ 7974 7965 7964 7962 ] final   58.72 input  175.53 | X-H torsion
[ 8008 7997 7996 7995 ] final  102.11 input   59.86 | X-H torsion
[ 10167 10162 10161 10158 ] final  176.77 input  -65.29 | X-H torsion
[ 10718 10713 10712 10709 ] final  137.90 input   66.30 | X-H torsion
[ 10763 10752 10751 10750 ] final  -49.84 input  -60.55 | X-H torsion
[ 11005 11000 10999 10996 ] final -154.27 input  -57.11 | X-H torsion

> <Gold.Protein.ActiveResidues>
 VAL166  LYS551  ARG553  GLY616  TRP617  ASP618  TYR619  PRO620  LYS621  CYS622 
 ASP623  PHE694  ASN695  SER759  ASP760  ASP761  ALA762  ILE779  LEU786  VAL792 
 PHE793  MET794  SER795  GLU796  ALA797  LYS798  CYS799  TRP800  GLU811  SER814 

> <Gold.Protein.RotatedAtoms>
  150.7044  134.1208  159.4033 H   0  0  0  0  0  0  0  0  0  0  0  0  # atno 6907 bound_to 6896
  151.9195  135.0302  160.0530 H   0  0  0  0  0  0  0  0  0  0  0  0  # atno 6908 bound_to 6896
  152.2268  133.4991  159.5230 H   0  0  0  0  0  0  0  0  0  0  0  0  # atno 6909 bound_to 6896
  145.9150  139.3684  143.0512 H   0  0  0  0  0  0  0  0  0  0  0  0  # atno 7974 bound_to 7965
  156.1362  140.3186  155.8425 H   0  0  0  0  0  0  0  0  0  0  0  0  # atno 8008 bound_to 7997
  155.4239  140.0514  157.3041 H   0  0  0  0  0  0  0  0  0  0  0  0  # atno 8009 bound_to 7997
  154.4939  140.2103  155.9501 H   0  0  0  0  0  0  0  0  0  0  0  0  # atno 8010 bound_to 7997
  139.5227  144.2876  152.0492 H   0  0  0  0  0  0  0  0  0  0  0  0  # atno 10167 bound_to 10162
  157.4311  131.1048  151.0249 H   0  0  0  0  0  0  0  0  0  0  0  0  # atno 10718 bound_to 10713
  154.1006  135.6564  153.4867 H   0  0  0  0  0  0  0  0  0  0  0  0  # atno 10763 bound_to 10752
  153.0290  135.5224  154.7290 H   0  0  0  0  0  0  0  0  0  0  0  0  # atno 10764 bound_to 10752
  154.6441  135.2992  155.0037 H   0  0  0  0  0  0  0  0  0  0  0  0  # atno 10765 bound_to 10752
  140.6991  134.3957  157.5211 H   0  0  0  0  0  0  0  0  0  0  0  0  # atno 11005 bound_to 11000
  145.8623  140.9468  143.0694 LP  0  0  0  0  0  0  0  0  0  0  0  0  # atno 17320 bound_to 7965
  144.6747  140.0546  143.7478 LP  0  0  0  0  0  0  0  0  0  0  0  0  # atno 17321 bound_to 7965
  140.2329  144.4350  150.6292 LP  0  0  0  0  0  0  0  0  0  0  0  0  # atno 17342 bound_to 10162
  140.6343  143.2192  151.6428 LP  0  0  0  0  0  0  0  0  0  0  0  0  # atno 17343 bound_to 10162
  157.1145  130.6035  149.5490 LP  0  0  0  0  0  0  0  0  0  0  0  0  # atno 17370 bound_to 10713
  155.9914  130.4968  150.7296 LP  0  0  0  0  0  0  0  0  0  0  0  0  # atno 17371 bound_to 10713
  139.8902  134.8812  156.2383 LP  0  0  0  0  0  0  0  0  0  0  0  0  # atno 17394 bound_to 11000
  141.0178  133.7058  156.1218 LP  0  0  0  0  0  0  0  0  0  0  0  0  # atno 17395 bound_to 11000

$$$$
