AV-unprocessed.smi:1726|AV-procd|sdf|6958|dock6
  -GOLD-   22720 8173D 1   1.00000     0.00000
 Structure written by MMmdl.
 43 44  0  0  0  0  0  0  0  0  2 V2000
  145.6945  131.9754  151.2755 C   0  0  0  0  0  0  0  0  0  0  0  0
  146.4682  133.2805  151.0372 C   0  0  0  0  0  0  0  0  0  0  0  0
  147.2976  133.6653  152.2061 N   0  3  2  0  0  0  0  0  0  0  0  0
  148.3650  132.6731  152.4972 C   0  0  0  0  0  0  0  0  0  0  0  0
  149.3005  133.1722  153.6126 C   0  0  0  0  0  0  0  0  0  0  0  0
  148.5143  133.5501  154.8793 C   0  0  0  0  0  0  0  0  0  0  0  0
  147.3822  134.5394  154.5495 C   0  0  1  0  0  0  0  0  0  0  0  0
  147.9480  135.8380  154.1818 N   0  0  0  0  0  0  0  0  0  0  0  0
  147.5942  137.0177  154.7111 C   0  0  0  0  0  0  0  0  0  0  0  0
  146.7304  137.1335  155.5797 O   0  0  0  0  0  0  0  0  0  0  0  0
  148.2844  138.0241  154.1446 N   0  0  0  0  0  0  0  0  0  0  0  0
  148.2211  139.4029  154.4072 C   0  0  0  0  0  0  0  0  0  0  0  0
  147.0803  140.0926  154.6699 C   0  0  0  0  0  0  0  0  0  0  0  0
  147.0881  141.5196  154.9459 C   0  0  0  0  0  0  0  0  0  0  0  0
  145.7978  142.2968  155.1546 C   0  0  0  0  0  0  0  0  0  0  0  0
  145.5950  143.1718  154.1684 F   0  0  0  0  0  0  0  0  0  0  0  0
  144.7485  141.4760  155.2088 F   0  0  0  0  0  0  0  0  0  0  0  0
  145.8566  142.9712  156.3023 F   0  0  0  0  0  0  0  0  0  0  0  0
  148.2879  142.1289  154.9224 C   0  0  0  0  0  0  0  0  0  0  0  0
  149.4675  141.4230  154.6756 N   0  0  0  0  0  0  0  0  0  0  0  0
  149.5193  140.0973  154.4158 C   0  0  0  0  0  0  0  0  0  0  0  0
  150.5993  139.5467  154.2035 O   0  0  0  0  0  0  0  0  0  0  0  0
  146.4963  133.9613  153.4236 C   0  0  0  0  0  0  0  0  0  0  0  0
  150.3292  141.9494  154.6905 H   0  0  0  0  0  0  0  0  0  0  0  0
  145.0251  131.7693  150.4401 H   0  0  0  0  0  0  0  0  0  0  0  0
  145.0852  132.0382  152.1778 H   0  0  0  0  0  0  0  0  0  0  0  0
  146.3569  131.1164  151.3766 H   0  0  0  0  0  0  0  0  0  0  0  0
  147.0894  133.2061  150.1435 H   0  0  0  0  0  0  0  0  0  0  0  0
  145.7375  134.0661  150.8405 H   0  0  0  0  0  0  0  0  0  0  0  0
  147.9110  131.7227  152.7828 H   0  0  0  0  0  0  0  0  0  0  0  0
  148.9523  132.4857  151.5976 H   0  0  0  0  0  0  0  0  0  0  0  0
  150.0381  132.4048  153.8496 H   0  0  0  0  0  0  0  0  0  0  0  0
  149.8637  134.0358  153.2562 H   0  0  0  0  0  0  0  0  0  0  0  0
  148.0879  132.6478  155.3198 H   0  0  0  0  0  0  0  0  0  0  0  0
  149.1844  133.9697  155.6308 H   0  0  0  0  0  0  0  0  0  0  0  0
  146.7747  134.6763  155.4460 H   0  0  0  0  0  0  0  0  0  0  0  0
  148.6722  135.8347  153.4780 H   0  0  0  0  0  0  0  0  0  0  0  0
  148.9125  137.7723  153.3953 H   0  0  0  0  0  0  0  0  0  0  0  0
  146.1254  139.5942  154.7050 H   0  0  0  0  0  0  0  0  0  0  0  0
  148.4359  143.1870  155.0815 H   0  0  0  0  0  0  0  0  0  0  0  0
  145.6941  134.6607  153.1921 H   0  0  0  0  0  0  0  0  0  0  0  0
  146.0097  133.0465  153.7659 H   0  0  0  0  0  0  0  0  0  0  0  0
  147.7696  134.5204  151.9493 H   0  0  0  0  0  0  0  0  0  0  0  0
  1  2  1  0  0  0  0
  1 25  1  0  0  0  0
  1 26  1  0  0  0  0
  1 27  1  0  0  0  0
  2  3  1  0  0  0  0
  2 28  1  0  0  0  0
  2 29  1  0  0  0  0
  3 23  1  0  0  0  0
  3  4  1  0  0  0  0
  3 43  1  0  0  0  0
  4  5  1  0  0  0  0
  4 30  1  0  0  0  0
  4 31  1  0  0  0  0
  5  6  1  0  0  0  0
  5 32  1  0  0  0  0
  5 33  1  0  0  0  0
  6  7  1  0  0  0  0
  6 34  1  0  0  0  0
  6 35  1  0  0  0  0
  7  8  1  0  0  0  0
  7 23  1  0  0  0  0
  7 36  1  0  0  0  0
  8  9  1  0  0  0  0
  8 37  1  0  0  0  0
  9 10  2  0  0  0  0
  9 11  1  0  0  0  0
 11 12  1  0  0  0  0
 11 38  1  0  0  0  0
 12 21  1  0  0  0  0
 12 13  2  0  0  0  0
 13 14  1  0  0  0  0
 13 39  1  0  0  0  0
 14 15  1  0  0  0  0
 14 19  2  0  0  0  0
 15 16  1  0  0  0  0
 15 17  1  0  0  0  0
 15 18  1  0  0  0  0
 19 20  1  0  0  0  0
 19 40  1  0  0  0  0
 20 24  1  0  0  0  0
 20 21  1  0  0  0  0
 21 22  2  0  0  0  0
 23 41  1  0  0  0  0
 23 42  1  0  0  0  0
M  CHG  1   3   1
M  END
> <s_m_source_file>
AV-unprocessed.smi

> <i_m_source_file_index>
1726

> <i_lp_mmshare_version>
43012

> <i_f3d_flags>
0

> <s_epik_input>
W0NIM11bQ0gyXU4xW0NIMl1bQ0gyXVtDSDJdW0NASF0oW0NIMl0xKVtOSF1DKD1PKVtOSF1jMltjSF1jKEMoRikoRilGKVtjSF1bbkhdYzI9Tw==

> <s_epik_cmdline>
J2VwaWtfcHl0aG9uJywgJy1waCcsICc3LjAnLCAnLXRuJywgJzgnLCAnLW1hJywgJzIwMCcsICctbWV0YWxfYmluZGluZycsICctaW1hZScsICc8aW5maWxlLm1hZT4nLCAnLW9tYWUnLCAnPG91dGZpbGUubWFlPic=

> <r_lp_tautomer_probability>
1

> <r_epik_Ionization_Penalty>
0.00745721

> <r_epik_Ionization_Penalty_Charging>
0.00743804

> <r_epik_Ionization_Penalty_Neutral>
1.91703e-05

> <r_epik_State_Penalty>
-0

> <r_epik_Charging_Adjusted_Penalty>
0.00743804

> <i_epik_Tot_Q>
1

> <i_epik_Tot_abs_Q>
1

> <r_epik_Metal_State_Penalty>
0.37929

> <b_epik_Metal_Only>
0

> <s_lp_Force_Field>
OPLS_2005

> <r_lp_Energy>
34.544

> <b_lp_Chiralities_Consistent>
1

> <s_lp_Variant>
AV-unprocessed.smi:1726-2

> <Gold.Version>
5.8.1

> <Gold.Id.Protein>
6NUR|6NUR_protein|mol2

> <Gold.PLP.Fitness>
42.5378

> <Gold.PLP.PLP>
-29.9655

> <Gold.PLP.part.hbond>
-4.0000

> <Gold.PLP.part.metal>
0.0000

> <Gold.PLP.part.buried>
2.1072

> <Gold.PLP.part.nonpolar>
-28.8977

> <Gold.PLP.part.repulsive>
0.5711

> <Gold.PLP.ligand.clash>
0.0000

> <Gold.PLP.ligand.torsion>
0.4849

> <Gold.PLP.Chemscore.Hbond>
4.3902

> <Gold.PLP.Chemscore.CHOScore>
0.1073

> <Gold.PLP.Chemscore.Metal>
0.0000

> <Gold.Chemscore.Hbonds>
donor molecule, donor type, donor heavy atom, donor atom, acceptor molecule, acceptor atom, score
      L1  H     3    43       P1  7948  2.00
      L1  H     8    37       P1  7948  0.86
      L1  H    11    38       P1  7948  0.50
      P1  H  7989  7998       L1    22  1.00
      L1  C    19    40       P1  8028  0.11

> <Gold.PLP.Chemscore.Internal.Correction>
0.0497

> <Gold.Rescore>
     Score         DG    S(hbond)    S(metal)    S(lipo)     H(rot)  DE(clash)    DE(int)     intcor
     16.17     -18.35       2.81        0.00      58.04       1.29       1.65       0.54       ----

> <Gold.Chemscore.Fitness>
16.1697

> <Gold.Chemscore.DG>
-18.3543

> <Gold.Chemscore.ZeroCoef>
-5.4800

> <Gold.Chemscore.Hbond>
2.8090

> <Gold.Chemscore.Metal>
0.0000

> <Gold.Chemscore.Lipo>
58.0382

> <Gold.Chemscore.Internal_Hbond>
0.0000

> <Gold.Chemscore.DEClash>
1.6451

> <Gold.Chemscore.DEInternal>
0.5395

> <Gold.Chemscore.Rot>
1.2884

> <Gold.Chemscore.Internal.Correction>
   9.000000E+99

> <Gold.Chemscore.Hbonds>
donor molecule, donor type, donor heavy atom, donor atom, acceptor molecule, acceptor atom, score
      L1  H     3    43       P1  7948  0.28
      L1  H     8    37       P1  7948  0.84
      L1  H    11    38       P1  7948  0.51
      P1  H  7989  7998       L1    22  0.45

> <Gold.Chemscore.Hbond.Weighted>
-9.3822

> <Gold.Chemscore.Metal.Weighted>
-0.0000

> <Gold.Chemscore.Lipo.Weighted>
-6.7905

> <Gold.Chemscore.Internal_Hbond.Weighted>
0.0000

> <Gold.Chemscore.DEClash.Weighted>
1.6451

> <Gold.Chemscore.DEInternal.Weighted>
0.5395

> <Gold.Chemscore.Rot.Weighted>
3.2983

> <Gold.Chemscore.Internal.Correction.Weighted>
   9.000000E+99

> <Gold.Protein.RotatedTorsions>
[ 6907 6896 6895 6894 ] final   68.11 input  -60.11 | X-H torsion
[ 7974 7965 7964 7962 ] final  151.47 input  175.53 | X-H torsion
[ 8008 7997 7996 7995 ] final  -46.25 input   59.86 | X-H torsion
[ 10167 10162 10161 10158 ] final  -79.23 input  -65.29 | X-H torsion
[ 10718 10713 10712 10709 ] final  -81.55 input   66.30 | X-H torsion
[ 10763 10752 10751 10750 ] final   87.48 input  -60.55 | X-H torsion
[ 11005 11000 10999 10996 ] final -136.44 input  -57.11 | X-H torsion

> <Gold.Protein.ActiveResidues>
 VAL166  LYS551  ARG553  GLY616  TRP617  ASP618  TYR619  PRO620  LYS621  CYS622 
 ASP623  PHE694  ASN695  SER759  ASP760  ASP761  ALA762  ILE779  LEU786  VAL792 
 PHE793  MET794  SER795  GLU796  ALA797  LYS798  CYS799  TRP800  GLU811  SER814 

> <Gold.Protein.RotatedAtoms>
  152.4598  134.5210  159.9782 H   0  0  0  0  0  0  0  0  0  0  0  0  # atno 6907 bound_to 6896
  151.5261  133.3451  159.2918 H   0  0  0  0  0  0  0  0  0  0  0  0  # atno 6908 bound_to 6896
  150.8556  134.7924  159.7106 H   0  0  0  0  0  0  0  0  0  0  0  0  # atno 6909 bound_to 6896
  144.8290  139.6542  143.6067 H   0  0  0  0  0  0  0  0  0  0  0  0  # atno 7974 bound_to 7965
  154.4006  140.1376  156.3980 H   0  0  0  0  0  0  0  0  0  0  0  0  # atno 8008 bound_to 7997
  155.7851  140.3480  155.5298 H   0  0  0  0  0  0  0  0  0  0  0  0  # atno 8009 bound_to 7997
  155.8635  140.0960  157.1588 H   0  0  0  0  0  0  0  0  0  0  0  0  # atno 8010 bound_to 7997
  140.4612  143.2453  151.8346 H   0  0  0  0  0  0  0  0  0  0  0  0  # atno 10167 bound_to 10162
  156.0048  130.4607  150.3969 H   0  0  0  0  0  0  0  0  0  0  0  0  # atno 10718 bound_to 10713
  153.1672  135.4542  154.9853 H   0  0  0  0  0  0  0  0  0  0  0  0  # atno 10763 bound_to 10752
  154.7940  135.3231  154.7712 H   0  0  0  0  0  0  0  0  0  0  0  0  # atno 10764 bound_to 10752
  153.8194  135.6948  153.4884 H   0  0  0  0  0  0  0  0  0  0  0  0  # atno 10765 bound_to 10752
  140.8805  134.1938  157.4594 H   0  0  0  0  0  0  0  0  0  0  0  0  # atno 11005 bound_to 11000
  146.2594  139.6376  142.9372 LP  0  0  0  0  0  0  0  0  0  0  0  0  # atno 17320 bound_to 7965
  145.4936  141.0438  143.2579 LP  0  0  0  0  0  0  0  0  0  0  0  0  # atno 17321 bound_to 7965
  139.4806  144.5005  151.9066 LP  0  0  0  0  0  0  0  0  0  0  0  0  # atno 17342 bound_to 10162
  140.4091  144.2392  150.5889 LP  0  0  0  0  0  0  0  0  0  0  0  0  # atno 17343 bound_to 10162
  157.2040  131.0445  151.2635 LP  0  0  0  0  0  0  0  0  0  0  0  0  # atno 17370 bound_to 10713
  157.3949  130.7302  149.6724 LP  0  0  0  0  0  0  0  0  0  0  0  0  # atno 17371 bound_to 10713
  139.8719  134.9815  156.5118 LP  0  0  0  0  0  0  0  0  0  0  0  0  # atno 17394 bound_to 11000
  140.8467  133.8163  155.9128 LP  0  0  0  0  0  0  0  0  0  0  0  0  # atno 17395 bound_to 11000

$$$$
