#       Name:                AV-unprocessed.smi:623
#       Creating user name   scv26
#       Creation time:       Fri Mar 27 00:01:18 2020


#       File generated by GOLD software.
#

@<TRIPOS>MOLECULE
AV-unprocessed.smi:623
    51    53     1
SMALL
NO_CHARGES


@<TRIPOS>ATOM
      1 ****        -3.9093  -0.0940  -0.2953 C.3            1 S1                 0.0000
      2 ****        -3.0050  -1.3114   0.0460 C.3            1 S1                 0.0000
      3 ****        -3.8700  -2.2249   0.9596 C.3            1 S1                 0.0000
      4 ****        -2.4161  -2.0290  -1.1852 C.3            1 S1                 0.0000
      5 ****        -1.4728  -3.0888  -0.5739 C.3            1 S1                 0.0000
      6 ****        -0.9224  -2.3680   0.6727 C.3            1 S1                 0.0000
      7 ****        -1.5875  -0.9665   0.5797 C.3            1 S1                 0.0000
      8 ****        -1.5453  -0.1908   1.9079 C.3            1 S1                 0.0000
      9 ****        -0.9461  -0.1971  -0.6193 C.3            1 S1                 0.0000
     10 ****         0.5170  -0.2077  -0.6340 N.am           1 S1                 0.0000
     11 ****         1.3068   0.7430  -0.1129 C.2            1 S1                 0.0000
     12 ****         0.8715   1.7481   0.4511 O.2            1 S1                 0.0000
     13 ****         2.8181   0.5008  -0.2274 C.3            1 S1                 0.0000
     14 ****         3.6033   1.7396  -0.1303 N.am           1 S1                 0.0000
     15 ****         4.1468   2.1298   1.0855 C.2            1 S1                 0.0000
     16 ****         4.8617   3.2678   1.2516 C.2            1 S1                 0.0000
     17 ****         5.0995   4.1619   0.1233 C.2            1 S1                 0.0000
     18 ****         5.7344   5.2131   0.1728 O.2            1 S1                 0.0000
     19 ****         4.5353   3.7355  -1.0821 N.am           1 S1                 0.0000
     20 ****         3.7956   2.5654  -1.2594 C.2            1 S1                 0.0000
     21 ****         3.3365   2.2861  -2.3665 O.2            1 S1                 0.0000
     22 ****        -1.5195  -0.9544  -1.8387 C.3            1 S1                 0.0000
     23 ****         4.6718   4.3243  -1.8908 H              1 S1                 0.0000
     24 ****        -4.8201  -0.4230  -0.7964 H              1 S1                 0.0000
     25 ****        -3.4575   0.6529  -0.9436 H              1 S1                 0.0000
     26 ****        -4.2147   0.4273   0.6123 H              1 S1                 0.0000
     27 ****        -3.3900  -3.1461   1.2820 H              1 S1                 0.0000
     28 ****        -4.7854  -2.5214   0.4467 H              1 S1                 0.0000
     29 ****        -4.1690  -1.6963   1.8651 H              1 S1                 0.0000
     30 ****        -3.1533  -2.4497  -1.8697 H              1 S1                 0.0000
     31 ****        -2.0104  -3.9972  -0.3013 H              1 S1                 0.0000
     32 ****        -0.6791  -3.3815  -1.2621 H              1 S1                 0.0000
     33 ****        -1.2174  -2.8893   1.5836 H              1 S1                 0.0000
     34 ****         0.1667  -2.3410   0.6878 H              1 S1                 0.0000
     35 ****        -0.5182  -0.0234   2.2321 H              1 S1                 0.0000
     36 ****        -2.0521  -0.7357   2.7042 H              1 S1                 0.0000
     37 ****        -2.0241   0.7838   1.8141 H              1 S1                 0.0000
     38 ****        -1.2922   0.8373  -0.6435 H              1 S1                 0.0000
     39 ****         0.9602  -1.0023  -1.0716 H              1 S1                 0.0000
     40 ****         3.1104  -0.1925   0.5626 H              1 S1                 0.0000
     41 ****         3.0409  -0.0177  -1.1622 H              1 S1                 0.0000
     42 ****         3.9901   1.5001   1.9500 H              1 S1                 0.0000
     43 ****         5.2581   3.5189   2.2248 H              1 S1                 0.0000
     44 ****        -0.7474  -1.3977  -2.4697 H              1 S1                 0.0000
     45 ****        -2.0979  -0.2874  -2.4782 H              1 S1                 0.0000
     46 ****        -0.1153   1.8851   0.5375 LP             1 S1                 0.0000
     47 ****         1.5049   2.4269   0.8224 LP             1 S1                 0.0000
     48 ****         6.1360   5.5144   1.0376 LP             1 S1                 0.0000
     49 ****         5.8493   5.7671  -0.6518 LP             1 S1                 0.0000
     50 ****         2.8052   1.4480  -2.4906 LP             1 S1                 0.0000
     51 ****         3.4947   2.8972  -3.1421 LP             1 S1                 0.0000
@<TRIPOS>BOND
    1    1    2 1     
    2    1   24 1     
    3    1   25 1     
    4    1   26 1     
    5    2    7 1     
    6    2    3 1     
    7    2    4 1     
    8    3   27 1     
    9    3   28 1     
   10    3   29 1     
   11    4   22 1     
   12    4    5 1     
   13    4   30 1     
   14    5    6 1     
   15    5   31 1     
   16    5   32 1     
   17    6    7 1     
   18    6   33 1     
   19    6   34 1     
   20    7    8 1     
   21    7    9 1     
   22    8   35 1     
   23    8   36 1     
   24    8   37 1     
   25    9   10 1     
   26    9   22 1     
   27    9   38 1     
   28   10   11 am    
   29   10   39 1     
   30   11   12 2     
   31   11   13 1     
   32   13   14 1     
   33   13   40 1     
   34   13   41 1     
   35   14   20 1     
   36   14   15 1     
   37   15   16 2     
   38   15   42 1     
   39   16   17 1     
   40   16   43 1     
   41   17   18 2     
   42   17   19 1     
   43   19   23 1     
   44   19   20 1     
   45   20   21 2     
   46   22   44 1     
   47   22   45 1     
   48   12   46 1     
   49   12   47 1     
   50   18   48 1     
   51   18   49 1     
   52   21   50 1     
   53   21   51 1     
@<TRIPOS>SUBSTRUCTURE
      1 S1             1
@<TRIPOS>SET
LONE_PAIRS      STATIC     ATOMS    <user>   **** ""
6 46 47 48 49 50 51
DONOR_HYDROGENS      STATIC     ATOMS    <user>   **** ""
2 39 23
ATOM$BLUE        STATIC     ATOMS    COLORGROUP SYSTEM
6 46 47 48 49 50 51
ATOM$RED        STATIC     ATOMS    COLORGROUP SYSTEM
2 39 23
