AV-unprocessed.smi:3203|AV-procd|sdf|12249|dock7
  -GOLD-   2272018 83D 1   1.00000     0.00000
 Structure written by MMmdl.
 32 33  0  0  0  0  0  0  0  0  1 V2000
  153.9527  140.7518  159.9969 C   0  0  0  0  0  0  0  0  0  0  0  0
  153.0363  141.9519  160.1749 C   0  0  0  0  0  0  0  0  0  0  0  0
  153.0221  142.6335  161.4103 C   0  0  0  0  0  0  0  0  0  0  0  0
  152.1748  143.7429  161.5715 C   0  0  0  0  0  0  0  0  0  0  0  0
  151.3725  144.1266  160.4830 C   0  0  0  0  0  0  0  0  0  0  0  0
  151.3796  143.4813  159.2990 N   0  0  0  0  0  0  0  0  0  0  0  0
  152.1921  142.4083  159.1271 C   0  0  0  0  0  0  0  0  0  0  0  0
  152.2524  141.6777  157.9082 N   0  0  0  0  0  0  0  0  0  0  0  0
  151.3810  140.7737  157.4212 C   0  0  0  0  0  0  0  0  0  0  0  0
  150.3537  140.4100  157.9931 O   0  0  0  0  0  0  0  0  0  0  0  0
  151.7387  140.1591  156.0673 C   0  0  0  0  0  0  0  0  0  0  0  0
  150.8041  140.5894  155.0883 O   0  0  0  0  0  0  0  0  0  0  0  0
  149.5116  140.0458  155.2899 C   0  0  0  0  0  0  0  0  0  0  0  0
  148.6286  140.4402  154.1258 C   0  0  0  0  0  0  0  0  0  0  0  0
  147.9462  141.7891  154.1039 C   0  0  0  0  0  0  0  0  0  0  0  0
  147.1292  140.5365  154.2954 C   0  0  0  0  0  0  0  0  0  0  0  0
  154.5165  140.5441  160.9070 H   0  0  0  0  0  0  0  0  0  0  0  0
  154.6672  140.9332  159.1935 H   0  0  0  0  0  0  0  0  0  0  0  0
  153.3737  139.8611  159.7512 H   0  0  0  0  0  0  0  0  0  0  0  0
  153.6523  142.3124  162.2269 H   0  0  0  0  0  0  0  0  0  0  0  0
  152.1412  144.2858  162.5043 H   0  0  0  0  0  0  0  0  0  0  0  0
  150.7071  144.9732  160.5642 H   0  0  0  0  0  0  0  0  0  0  0  0
  153.0515  141.8758  157.3240 H   0  0  0  0  0  0  0  0  0  0  0  0
  152.7484  140.4689  155.7944 H   0  0  0  0  0  0  0  0  0  0  0  0
  151.7305  139.0706  156.1445 H   0  0  0  0  0  0  0  0  0  0  0  0
  149.5598  138.9582  155.3667 H   0  0  0  0  0  0  0  0  0  0  0  0
  149.0761  140.4307  156.2132 H   0  0  0  0  0  0  0  0  0  0  0  0
  148.9802  140.0728  153.1633 H   0  0  0  0  0  0  0  0  0  0  0  0
  148.0772  142.4392  154.9670 H   0  0  0  0  0  0  0  0  0  0  0  0
  147.8695  142.2973  153.1448 H   0  0  0  0  0  0  0  0  0  0  0  0
  146.5086  140.2080  153.4645 H   0  0  0  0  0  0  0  0  0  0  0  0
  146.7178  140.3518  155.2858 H   0  0  0  0  0  0  0  0  0  0  0  0
  1  2  1  0  0  0  0
  1 17  1  0  0  0  0
  1 18  1  0  0  0  0
  1 19  1  0  0  0  0
  2  7  1  0  0  0  0
  2  3  2  0  0  0  0
  3  4  1  0  0  0  0
  3 20  1  0  0  0  0
  4  5  2  0  0  0  0
  4 21  1  0  0  0  0
  5  6  1  0  0  0  0
  5 22  1  0  0  0  0
  6  7  2  0  0  0  0
  7  8  1  0  0  0  0
  8  9  1  0  0  0  0
  8 23  1  0  0  0  0
  9 10  2  0  0  0  0
  9 11  1  0  0  0  0
 11 12  1  0  0  0  0
 11 24  1  0  0  0  0
 11 25  1  0  0  0  0
 12 13  1  0  0  0  0
 13 14  1  0  0  0  0
 13 26  1  0  0  0  0
 13 27  1  0  0  0  0
 14 16  1  0  0  0  0
 14 15  1  0  0  0  0
 14 28  1  0  0  0  0
 15 16  1  0  0  0  0
 15 29  1  0  0  0  0
 15 30  1  0  0  0  0
 16 31  1  0  0  0  0
 16 32  1  0  0  0  0
M  END
> <s_m_source_file>
AV-unprocessed.smi

> <i_m_source_file_index>
3203

> <i_lp_mmshare_version>
43012

> <i_f3d_flags>
0

> <s_epik_input>
W0NIM11jMVtjSF1bY0hdW2NIXW5jMVtOSF1DKD1PKVtDSDJdT1tDSDJdW0NIXTJbQ0gyXVtDSDJdMg==

> <s_epik_cmdline>
J2VwaWtfcHl0aG9uJywgJy1waCcsICc3LjAnLCAnLXRuJywgJzgnLCAnLW1hJywgJzIwMCcsICctbWV0YWxfYmluZGluZycsICctaW1hZScsICc8aW5maWxlLm1hZT4nLCAnLW9tYWUnLCAnPG91dGZpbGUubWFlPic=

> <r_epik_Ionization_Penalty>
0.00323497

> <r_epik_Ionization_Penalty_Charging>
0

> <r_epik_Ionization_Penalty_Neutral>
0.00323497

> <r_epik_State_Penalty>
0.00315819

> <r_epik_Charging_Adjusted_Penalty>
0.00315819

> <i_epik_Tot_Q>
0

> <i_epik_Tot_abs_Q>
0

> <r_epik_Metal_State_Penalty>
-0

> <b_epik_Metal_Only>
0

> <s_lp_Force_Field>
OPLS_2005

> <r_lp_Energy>
15.2792

> <b_lp_Chiralities_Consistent>
1

> <s_lp_Variant>
AV-unprocessed.smi:3203-1

> <Gold.Version>
5.8.1

> <Gold.Id.Protein>
6NUR|6NUR_protein|mol2

> <Gold.PLP.Fitness>
37.1646

> <Gold.PLP.PLP>
-35.7588

> <Gold.PLP.part.hbond>
-1.0000

> <Gold.PLP.part.metal>
0.0000

> <Gold.PLP.part.buried>
-3.2924

> <Gold.PLP.part.nonpolar>
-31.1377

> <Gold.PLP.part.repulsive>
0.1665

> <Gold.PLP.ligand.clash>
0.0000

> <Gold.PLP.ligand.torsion>
1.0708

> <Gold.PLP.Chemscore.Hbond>
0.9920

> <Gold.PLP.Chemscore.CHOScore>
0.0000

> <Gold.PLP.Chemscore.Metal>
0.0000

> <Gold.Chemscore.Hbonds>
donor molecule, donor type, donor heavy atom, donor atom, acceptor molecule, acceptor atom, score
      P1  H  7989  7998       L1    12  0.96

> <Gold.PLP.Chemscore.Internal.Correction>
0.5713

> <Gold.Rescore>
     Score         DG    S(hbond)    S(metal)    S(lipo)     H(rot)  DE(clash)    DE(int)     intcor
     12.34     -14.89       0.94        0.00      87.15       1.54       0.19       2.35       ----

> <Gold.Chemscore.Fitness>
12.3422

> <Gold.Chemscore.DG>
-14.8852

> <Gold.Chemscore.ZeroCoef>
-5.4800

> <Gold.Chemscore.Hbond>
0.9398

> <Gold.Chemscore.Metal>
0.0000

> <Gold.Chemscore.Lipo>
87.1537

> <Gold.Chemscore.Internal_Hbond>
0.0000

> <Gold.Chemscore.DEClash>
0.1879

> <Gold.Chemscore.DEInternal>
2.3550

> <Gold.Chemscore.Rot>
1.5355

> <Gold.Chemscore.Internal.Correction>
   9.000000E+99

> <Gold.Chemscore.Hbonds>
donor molecule, donor type, donor heavy atom, donor atom, acceptor molecule, acceptor atom, score
      P1  H  7989  7998       L1    12  0.72

> <Gold.Chemscore.Hbond.Weighted>
-3.1390

> <Gold.Chemscore.Metal.Weighted>
-0.0000

> <Gold.Chemscore.Lipo.Weighted>
-10.1970

> <Gold.Chemscore.Internal_Hbond.Weighted>
0.0000

> <Gold.Chemscore.DEClash.Weighted>
0.1879

> <Gold.Chemscore.DEInternal.Weighted>
2.3550

> <Gold.Chemscore.Rot.Weighted>
3.9308

> <Gold.Chemscore.Internal.Correction.Weighted>
   9.000000E+99

> <Gold.Protein.RotatedTorsions>
[ 6907 6896 6895 6894 ] final   80.09 input  -60.11 | X-H torsion
[ 7974 7965 7964 7962 ] final  166.97 input  175.53 | X-H torsion
[ 8008 7997 7996 7995 ] final -167.11 input   59.86 | X-H torsion
[ 10167 10162 10161 10158 ] final -129.79 input  -65.29 | X-H torsion
[ 10718 10713 10712 10709 ] final   95.74 input   66.30 | X-H torsion
[ 10763 10752 10751 10750 ] final -118.90 input  -60.55 | X-H torsion
[ 11005 11000 10999 10996 ] final -125.77 input  -57.11 | X-H torsion

> <Gold.Protein.ActiveResidues>
 VAL166  LYS551  ARG553  GLY616  TRP617  ASP618  TYR619  PRO620  LYS621  CYS622 
 ASP623  PHE694  ASN695  SER759  ASP760  ASP761  ALA762  ILE779  LEU786  VAL792 
 PHE793  MET794  SER795  GLU796  ALA797  LYS798  CYS799  TRP800  GLU811  SER814 

> <Gold.Protein.RotatedAtoms>
  152.5222  134.3411  159.9217 H   0  0  0  0  0  0  0  0  0  0  0  0  # atno 6907 bound_to 6896
  151.3360  133.3975  159.2674 H   0  0  0  0  0  0  0  0  0  0  0  0  # atno 6908 bound_to 6896
  150.9841  134.9208  159.7919 H   0  0  0  0  0  0  0  0  0  0  0  0  # atno 6909 bound_to 6896
  144.7442  139.8693  143.6387 H   0  0  0  0  0  0  0  0  0  0  0  0  # atno 7974 bound_to 7965
  155.8732  140.0996  157.1536 H   0  0  0  0  0  0  0  0  0  0  0  0  # atno 8008 bound_to 7997
  154.3998  140.1343  156.4166 H   0  0  0  0  0  0  0  0  0  0  0  0  # atno 8009 bound_to 7997
  155.7727  140.3460  155.5258 H   0  0  0  0  0  0  0  0  0  0  0  0  # atno 8010 bound_to 7997
  139.9361  143.6217  152.2517 H   0  0  0  0  0  0  0  0  0  0  0  0  # atno 10167 bound_to 10162
  157.6935  131.0555  150.4385 H   0  0  0  0  0  0  0  0  0  0  0  0  # atno 10718 bound_to 10713
  154.8601  135.4257  154.2213 H   0  0  0  0  0  0  0  0  0  0  0  0  # atno 10763 bound_to 10752
  153.3217  135.6982  153.7030 H   0  0  0  0  0  0  0  0  0  0  0  0  # atno 10764 bound_to 10752
  153.6082  135.3524  155.2943 H   0  0  0  0  0  0  0  0  0  0  0  0  # atno 10765 bound_to 10752
  140.9735  134.0772  157.3843 H   0  0  0  0  0  0  0  0  0  0  0  0  # atno 11005 bound_to 11000
  146.1292  139.4324  143.0179 LP  0  0  0  0  0  0  0  0  0  0  0  0  # atno 17320 bound_to 7965
  145.7189  141.0081  143.1413 LP  0  0  0  0  0  0  0  0  0  0  0  0  # atno 17321 bound_to 7965
  139.6743  144.7659  151.1725 LP  0  0  0  0  0  0  0  0  0  0  0  0  # atno 17342 bound_to 10162
  140.7624  143.5819  150.8886 LP  0  0  0  0  0  0  0  0  0  0  0  0  # atno 17343 bound_to 10162
  156.4745  130.4060  149.6498 LP  0  0  0  0  0  0  0  0  0  0  0  0  # atno 17370 bound_to 10713
  156.3566  130.7460  151.2426 LP  0  0  0  0  0  0  0  0  0  0  0  0  # atno 17371 bound_to 10713
  139.8921  135.0123  156.6830 LP  0  0  0  0  0  0  0  0  0  0  0  0  # atno 17394 bound_to 11000
  140.7293  133.9072  155.8200 LP  0  0  0  0  0  0  0  0  0  0  0  0  # atno 17395 bound_to 11000

$$$$
