AV-unprocessed.smi:2919|AV-procd|sdf|11192|dock1
  -GOLD-   2272016 83D 1   1.00000     0.00000
 Structure written by MMmdl.
 34 36  0  0  0  0  0  0  0  0  1 V2000
  151.7573  144.7269  160.4532 C   0  0  0  0  0  0  0  0  0  0  0  0
  151.4200  143.4564  159.6929 C   0  0  0  0  0  0  0  0  0  0  0  0
  150.1476  143.3811  159.2447 N   0  0  0  0  0  0  0  0  0  0  0  0
  149.7332  142.3122  158.5630 N   0  0  0  0  0  0  0  0  0  0  0  0
  150.5728  141.2799  158.3066 C   0  0  0  0  0  0  0  0  0  0  0  0
  150.0615  140.1872  157.5819 N   0  0  0  0  0  0  0  0  0  0  0  0
  149.1061  140.3687  156.4941 C   0  0  2  0  0  0  0  0  0  0  0  0
  148.7672  139.0616  155.7655 C   0  0  0  0  0  0  0  0  0  0  0  0
  149.1206  139.4064  154.3136 C   0  0  1  0  0  0  0  0  0  0  0  0
  148.1573  140.4367  153.7084 C   0  0  0  0  0  0  0  0  0  0  0  0
  148.5881  141.7208  154.4166 C   0  0  0  0  0  0  0  0  0  0  0  0
  149.6947  141.2113  155.3495 C   0  0  2  0  0  0  0  0  0  0  0  0
  150.2678  140.2101  154.5238 O   0  0  0  0  0  0  0  0  0  0  0  0
  151.9222  141.2932  158.7458 C   0  0  0  0  0  0  0  0  0  0  0  0
  152.8246  140.1780  158.4658 C   0  0  0  0  0  0  0  0  0  0  0  0
  153.5390  139.2952  158.2440 N   0  0  0  0  0  0  0  0  0  0  0  0
  152.3672  142.4278  159.4702 C   0  0  0  0  0  0  0  0  0  0  0  0
  153.8015  142.5280  159.9833 C   0  0  0  0  0  0  0  0  0  0  0  0
  152.5570  145.2712  159.9504 H   0  0  0  0  0  0  0  0  0  0  0  0
  152.0781  144.4908  161.4679 H   0  0  0  0  0  0  0  0  0  0  0  0
  150.8954  145.3920  160.5232 H   0  0  0  0  0  0  0  0  0  0  0  0
  150.2094  139.2515  157.9323 H   0  0  0  0  0  0  0  0  0  0  0  0
  148.2096  140.8543  156.8828 H   0  0  0  0  0  0  0  0  0  0  0  0
  149.3858  138.2336  156.1149 H   0  0  0  0  0  0  0  0  0  0  0  0
  147.7218  138.7745  155.8833 H   0  0  0  0  0  0  0  0  0  0  0  0
  149.2927  138.5348  153.6816 H   0  0  0  0  0  0  0  0  0  0  0  0
  148.3067  140.5253  152.6318 H   0  0  0  0  0  0  0  0  0  0  0  0
  147.1125  140.1819  153.8898 H   0  0  0  0  0  0  0  0  0  0  0  0
  148.9893  142.4365  153.6982 H   0  0  0  0  0  0  0  0  0  0  0  0
  147.7729  142.2016  154.9586 H   0  0  0  0  0  0  0  0  0  0  0  0
  150.3880  141.9904  155.6690 H   0  0  0  0  0  0  0  0  0  0  0  0
  154.0134  141.7074  160.6695 H   0  0  0  0  0  0  0  0  0  0  0  0
  154.0078  143.4559  160.5136 H   0  0  0  0  0  0  0  0  0  0  0  0
  154.5042  142.4673  159.1515 H   0  0  0  0  0  0  0  0  0  0  0  0
  1  2  1  0  0  0  0
  1 19  1  0  0  0  0
  1 20  1  0  0  0  0
  1 21  1  0  0  0  0
  2 17  1  0  0  0  0
  2  3  2  0  0  0  0
  3  4  1  0  0  0  0
  4  5  2  0  0  0  0
  5  6  1  0  0  0  0
  5 14  1  0  0  0  0
  6  7  1  0  0  0  0
  6 22  1  0  0  0  0
  7 12  1  0  0  0  0
  7  8  1  0  0  0  0
  7 23  1  0  0  0  0
  8  9  1  0  0  0  0
  8 24  1  0  0  0  0
  8 25  1  0  0  0  0
  9 13  1  0  0  0  0
  9 10  1  0  0  0  0
  9 26  1  0  0  0  0
 10 11  1  0  0  0  0
 10 27  1  0  0  0  0
 10 28  1  0  0  0  0
 11 12  1  0  0  0  0
 11 29  1  0  0  0  0
 11 30  1  0  0  0  0
 12 13  1  0  0  0  0
 12 31  1  0  0  0  0
 14 15  1  0  0  0  0
 14 17  2  0  0  0  0
 15 16  3  0  0  0  0
 17 18  1  0  0  0  0
 18 32  1  0  0  0  0
 18 33  1  0  0  0  0
 18 34  1  0  0  0  0
M  END
> <s_m_source_file>
AV-unprocessed.smi

> <i_m_source_file_index>
2919

> <i_lp_mmshare_version>
43012

> <i_f3d_flags>
0

> <s_epik_input>
W0NIM11jMW5uYyhjKEMjTiljMVtDSDNdKVtOSF1bQ0BIXShbQ0gyXVtDQEBIXTIzKVtDQEBIXShPMylbQ0gyXVtDSDJdMg==

> <s_epik_cmdline>
J2VwaWtfcHl0aG9uJywgJy1waCcsICc3LjAnLCAnLXRuJywgJzgnLCAnLW1hJywgJzIwMCcsICctbWV0YWxfYmluZGluZycsICctaW1hZScsICc8aW5maWxlLm1hZT4nLCAnLW9tYWUnLCAnPG91dGZpbGUubWFlPic=

> <r_lp_tautomer_probability>
1

> <r_epik_Ionization_Penalty>
0.00143865

> <r_epik_Ionization_Penalty_Charging>
0

> <r_epik_Ionization_Penalty_Neutral>
0.00143865

> <r_epik_State_Penalty>
-0

> <r_epik_Charging_Adjusted_Penalty>
0

> <i_epik_Tot_Q>
0

> <i_epik_Tot_abs_Q>
0

> <r_epik_Metal_State_Penalty>
-0

> <b_epik_Metal_Only>
0

> <s_lp_Force_Field>
OPLS_2005

> <r_lp_Energy>
49.0133

> <b_lp_Chiralities_Consistent>
1

> <s_lp_Variant>
AV-unprocessed.smi:2919-1

> <Gold.Version>
5.8.1

> <Gold.Id.Protein>
6NUR|6NUR_protein|mol2

> <Gold.PLP.Fitness>
36.9067

> <Gold.PLP.PLP>
-31.4552

> <Gold.PLP.part.hbond>
-2.2596

> <Gold.PLP.part.metal>
0.0000

> <Gold.PLP.part.buried>
-1.6888

> <Gold.PLP.part.nonpolar>
-26.5882

> <Gold.PLP.part.repulsive>
0.3877

> <Gold.PLP.ligand.clash>
0.0000

> <Gold.PLP.ligand.torsion>
0.2850

> <Gold.PLP.Chemscore.Hbond>
2.0000

> <Gold.PLP.Chemscore.CHOScore>
0.0000

> <Gold.PLP.Chemscore.Metal>
0.0000

> <Gold.Chemscore.Hbonds>
donor molecule, donor type, donor heavy atom, donor atom, acceptor molecule, acceptor atom, score
      P1  H  7989  7998       L1    13  1.00
      P1  H  7997  8008       L1    16  1.00

> <Gold.PLP.Chemscore.Internal.Correction>
0.0216

> <Gold.Rescore>
     Score         DG    S(hbond)    S(metal)    S(lipo)     H(rot)  DE(clash)    DE(int)     intcor
     18.49     -18.92       1.79        0.00      85.75       1.00       0.12       0.32       ----

> <Gold.Chemscore.Fitness>
18.4904

> <Gold.Chemscore.DG>
-18.9229

> <Gold.Chemscore.ZeroCoef>
-5.4800

> <Gold.Chemscore.Hbond>
1.7876

> <Gold.Chemscore.Metal>
0.0000

> <Gold.Chemscore.Lipo>
85.7467

> <Gold.Chemscore.Internal_Hbond>
0.0000

> <Gold.Chemscore.DEClash>
0.1174

> <Gold.Chemscore.DEInternal>
0.3151

> <Gold.Chemscore.Rot>
1.0000

> <Gold.Chemscore.Internal.Correction>
   9.000000E+99

> <Gold.Chemscore.Hbonds>
donor molecule, donor type, donor heavy atom, donor atom, acceptor molecule, acceptor atom, score
      P1  H  7989  7998       L1    13  0.80
      P1  H  7997  8008       L1    16  0.30

> <Gold.Chemscore.Hbond.Weighted>
-5.9705

> <Gold.Chemscore.Metal.Weighted>
-0.0000

> <Gold.Chemscore.Lipo.Weighted>
-10.0324

> <Gold.Chemscore.Internal_Hbond.Weighted>
0.0000

> <Gold.Chemscore.DEClash.Weighted>
0.1174

> <Gold.Chemscore.DEInternal.Weighted>
0.3151

> <Gold.Chemscore.Rot.Weighted>
2.5600

> <Gold.Chemscore.Internal.Correction.Weighted>
   9.000000E+99

> <Gold.Protein.RotatedTorsions>
[ 6907 6896 6895 6894 ] final   94.43 input  -60.11 | X-H torsion
[ 7974 7965 7964 7962 ] final -118.27 input  175.53 | X-H torsion
[ 8008 7997 7996 7995 ] final  -86.87 input   59.86 | X-H torsion
[ 10167 10162 10161 10158 ] final  174.93 input  -65.29 | X-H torsion
[ 10718 10713 10712 10709 ] final  140.39 input   66.30 | X-H torsion
[ 10763 10752 10751 10750 ] final -157.83 input  -60.55 | X-H torsion
[ 11005 11000 10999 10996 ] final  -34.66 input  -57.11 | X-H torsion

> <Gold.Protein.ActiveResidues>
 VAL166  LYS551  ARG553  GLY616  TRP617  ASP618  TYR619  PRO620  LYS621  CYS622 
 ASP623  PHE694  ASN695  SER759  ASP760  ASP761  ALA762  ILE779  LEU786  VAL792 
 PHE793  MET794  SER795  GLU796  ALA797  LYS798  CYS799  TRP800  GLU811  SER814 

> <Gold.Protein.RotatedAtoms>
  152.5449  134.1195  159.8392 H   0  0  0  0  0  0  0  0  0  0  0  0  # atno 6907 bound_to 6896
  151.1253  133.5068  159.2608 H   0  0  0  0  0  0  0  0  0  0  0  0  # atno 6908 bound_to 6896
  151.1734  135.0338  159.8816 H   0  0  0  0  0  0  0  0  0  0  0  0  # atno 6909 bound_to 6896
  145.0757  140.8391  143.4069 H   0  0  0  0  0  0  0  0  0  0  0  0  # atno 7974 bound_to 7965
  154.6568  140.0573  157.0017 H   0  0  0  0  0  0  0  0  0  0  0  0  # atno 8008 bound_to 7997
  155.1289  140.3254  155.4460 H   0  0  0  0  0  0  0  0  0  0  0  0  # atno 8009 bound_to 7997
  156.2600  140.1984  156.6409 H   0  0  0  0  0  0  0  0  0  0  0  0  # atno 8010 bound_to 7997
  139.5159  144.3089  152.0309 H   0  0  0  0  0  0  0  0  0  0  0  0  # atno 10167 bound_to 10162
  157.4038  131.1020  151.0524 H   0  0  0  0  0  0  0  0  0  0  0  0  # atno 10718 bound_to 10713
  154.7605  135.3116  154.8388 H   0  0  0  0  0  0  0  0  0  0  0  0  # atno 10763 bound_to 10752
  153.9150  135.6802  153.4754 H   0  0  0  0  0  0  0  0  0  0  0  0  # atno 10764 bound_to 10752
  153.1205  135.4825  154.9119 H   0  0  0  0  0  0  0  0  0  0  0  0  # atno 10765 bound_to 10752
  140.9734  133.7096  156.1562 H   0  0  0  0  0  0  0  0  0  0  0  0  # atno 11005 bound_to 11000
  145.1238  139.2676  143.5574 LP  0  0  0  0  0  0  0  0  0  0  0  0  # atno 17320 bound_to 7965
  146.3530  140.0870  142.8614 LP  0  0  0  0  0  0  0  0  0  0  0  0  # atno 17321 bound_to 7965
  140.2535  144.4144  150.6213 LP  0  0  0  0  0  0  0  0  0  0  0  0  # atno 17342 bound_to 10162
  140.6208  143.2176  151.6698 LP  0  0  0  0  0  0  0  0  0  0  0  0  # atno 17343 bound_to 10162
  157.1513  130.6185  149.5583 LP  0  0  0  0  0  0  0  0  0  0  0  0  # atno 17370 bound_to 10713
  155.9831  130.4848  150.6914 LP  0  0  0  0  0  0  0  0  0  0  0  0  # atno 17371 bound_to 10713
  140.7295  134.4271  157.5567 LP  0  0  0  0  0  0  0  0  0  0  0  0  # atno 17394 bound_to 11000
  139.8921  134.8763  156.2287 LP  0  0  0  0  0  0  0  0  0  0  0  0  # atno 17395 bound_to 11000

$$$$
