AV-unprocessed.smi:957|AV-procd|sdf|4266|dock7
  -GOLD-   22720 2173D 1   1.00000     0.00000
 Structure written by MMmdl.
 30 31  0  0  0  0  0  0  0  0  2 V2000
  152.2680  144.8087  158.6081 C   0  0  0  0  0  0  0  0  0  0  0  0
  152.0869  143.7709  159.7226 C   0  0  0  0  0  0  0  0  0  0  0  0
  152.5844  142.4639  159.3295 N   0  0  0  0  0  0  0  0  0  0  0  0
  153.5743  141.7560  159.8953 C   0  0  0  0  0  0  0  0  0  0  0  0
  153.8252  140.5791  159.3253 N   0  0  0  0  0  0  0  0  0  0  0  0
  152.9216  140.4978  158.2867 N   0  0  0  0  0  0  0  0  0  0  0  0
  152.2092  141.6315  158.3328 C   0  0  0  0  0  0  0  0  0  0  0  0
  151.1091  141.9485  157.3578 C   0  0  1  0  0  0  0  0  0  0  0  0
  151.0381  140.9177  156.2147 C   0  0  0  0  0  0  0  0  0  0  0  0
  149.8948  141.2634  155.2485 C   0  0  0  0  0  0  0  0  0  0  0  0
  148.5619  141.4005  156.0025 C   0  0  0  0  0  0  0  0  0  0  0  0
  148.6741  142.4023  157.0849 N   0  3  0  0  0  0  0  0  0  0  0  0
  149.7416  142.0841  158.0590 C   0  0  0  0  0  0  0  0  0  0  0  0
  151.9012  145.7849  158.9257 H   0  0  0  0  0  0  0  0  0  0  0  0
  151.7241  144.5278  157.7063 H   0  0  0  0  0  0  0  0  0  0  0  0
  153.3198  144.9200  158.3428 H   0  0  0  0  0  0  0  0  0  0  0  0
  152.6232  144.0917  160.6165 H   0  0  0  0  0  0  0  0  0  0  0  0
  151.0382  143.6839  160.0072 H   0  0  0  0  0  0  0  0  0  0  0  0
  154.1300  142.1122  160.7504 H   0  0  0  0  0  0  0  0  0  0  0  0
  151.3245  142.9132  156.9002 H   0  0  0  0  0  0  0  0  0  0  0  0
  151.9846  140.8863  155.6740 H   0  0  0  0  0  0  0  0  0  0  0  0
  150.8783  139.9182  156.6214 H   0  0  0  0  0  0  0  0  0  0  0  0
  150.1214  142.1962  154.7301 H   0  0  0  0  0  0  0  0  0  0  0  0
  149.8114  140.4950  154.4792 H   0  0  0  0  0  0  0  0  0  0  0  0
  147.7687  141.7025  155.3183 H   0  0  0  0  0  0  0  0  0  0  0  0
  148.2670  140.4413  156.4302 H   0  0  0  0  0  0  0  0  0  0  0  0
  148.8738  143.3015  156.6708 H   0  0  0  0  0  0  0  0  0  0  0  0
  149.4809  141.1606  158.5780 H   0  0  0  0  0  0  0  0  0  0  0  0
  149.7775  142.8728  158.8112 H   0  0  0  0  0  0  0  0  0  0  0  0
  147.7916  142.4574  157.5734 H   0  0  0  0  0  0  0  0  0  0  0  0
  1  2  1  0  0  0  0
  1 14  1  0  0  0  0
  1 15  1  0  0  0  0
  1 16  1  0  0  0  0
  2  3  1  0  0  0  0
  2 17  1  0  0  0  0
  2 18  1  0  0  0  0
  3  7  1  0  0  0  0
  3  4  1  0  0  0  0
  4  5  2  0  0  0  0
  4 19  1  0  0  0  0
  5  6  1  0  0  0  0
  6  7  2  0  0  0  0
  7  8  1  0  0  0  0
  8 13  1  0  0  0  0
  8  9  1  0  0  0  0
  8 20  1  0  0  0  0
  9 10  1  0  0  0  0
  9 21  1  0  0  0  0
  9 22  1  0  0  0  0
 10 11  1  0  0  0  0
 10 23  1  0  0  0  0
 10 24  1  0  0  0  0
 11 12  1  0  0  0  0
 11 25  1  0  0  0  0
 11 26  1  0  0  0  0
 12 13  1  0  0  0  0
 12 27  1  0  0  0  0
 12 30  1  0  0  0  0
 13 28  1  0  0  0  0
 13 29  1  0  0  0  0
M  CHG  1  12   1
M  END
> <s_m_source_file>
AV-unprocessed.smi

> <i_m_source_file_index>
957

> <i_lp_mmshare_version>
43012

> <i_f3d_flags>
0

> <s_epik_input>
W0NIM11bQ0gyXW4xW2NIXW5uYzFbQ0BASF0yW0NIMl1bQ0gyXVtDSDJdW05IXVtDSDJdMg==

> <s_epik_cmdline>
J2VwaWtfcHl0aG9uJywgJy1waCcsICc3LjAnLCAnLXRuJywgJzgnLCAnLW1hJywgJzIwMCcsICctbWV0YWxfYmluZGluZycsICctaW1hZScsICc8aW5maWxlLm1hZT4nLCAnLW9tYWUnLCAnPG91dGZpbGUubWFlPic=

> <r_lp_tautomer_probability>
1

> <r_epik_Ionization_Penalty>
0.000442722

> <r_epik_Ionization_Penalty_Charging>
0.000426856

> <r_epik_Ionization_Penalty_Neutral>
1.58656e-05

> <r_epik_State_Penalty>
-0

> <r_epik_Charging_Adjusted_Penalty>
0.000426856

> <i_epik_Tot_Q>
1

> <i_epik_Tot_abs_Q>
1

> <r_epik_Metal_State_Penalty>
-0

> <b_epik_Metal_Only>
0

> <s_lp_Force_Field>
OPLS_2005

> <r_lp_Energy>
16.0383

> <b_lp_Chiralities_Consistent>
1

> <s_lp_Variant>
AV-unprocessed.smi:957-2

> <Gold.Version>
5.8.1

> <Gold.Id.Protein>
6NUR|6NUR_protein|mol2

> <Gold.PLP.Fitness>
37.2901

> <Gold.PLP.PLP>
-30.3333

> <Gold.PLP.part.hbond>
-2.3632

> <Gold.PLP.part.metal>
0.0000

> <Gold.PLP.part.buried>
-2.2683

> <Gold.PLP.part.nonpolar>
-25.8913

> <Gold.PLP.part.repulsive>
0.0232

> <Gold.PLP.ligand.clash>
0.0000

> <Gold.PLP.ligand.torsion>
0.0722

> <Gold.PLP.Chemscore.Hbond>
2.3582

> <Gold.PLP.Chemscore.CHOScore>
0.0000

> <Gold.PLP.Chemscore.Metal>
0.0000

> <Gold.Chemscore.Hbonds>
donor molecule, donor type, donor heavy atom, donor atom, acceptor molecule, acceptor atom, score
      L1  H    12    27       P1  8028  2.00
      P1  H  7997  8008       L1     6  0.34

> <Gold.PLP.Chemscore.Internal.Correction>
0.0267

> <Gold.Rescore>
     Score         DG    S(hbond)    S(metal)    S(lipo)     H(rot)  DE(clash)    DE(int)     intcor
     12.52     -12.63       1.06        0.00      58.24       1.26       0.05       0.06       ----

> <Gold.Chemscore.Fitness>
12.5185

> <Gold.Chemscore.DG>
-12.6296

> <Gold.Chemscore.ZeroCoef>
-5.4800

> <Gold.Chemscore.Hbond>
1.0640

> <Gold.Chemscore.Metal>
0.0000

> <Gold.Chemscore.Lipo>
58.2442

> <Gold.Chemscore.Internal_Hbond>
0.0000

> <Gold.Chemscore.DEClash>
0.0529

> <Gold.Chemscore.DEInternal>
0.0582

> <Gold.Chemscore.Rot>
1.2573

> <Gold.Chemscore.Internal.Correction>
   9.000000E+99

> <Gold.Chemscore.Hbonds>
donor molecule, donor type, donor heavy atom, donor atom, acceptor molecule, acceptor atom, score
      L1  H    12    27       P1  8028  0.88
      P1  H  7997  8008       L1     6  0.03

> <Gold.Chemscore.Hbond.Weighted>
-3.5538

> <Gold.Chemscore.Metal.Weighted>
-0.0000

> <Gold.Chemscore.Lipo.Weighted>
-6.8146

> <Gold.Chemscore.Internal_Hbond.Weighted>
0.0000

> <Gold.Chemscore.DEClash.Weighted>
0.0529

> <Gold.Chemscore.DEInternal.Weighted>
0.0582

> <Gold.Chemscore.Rot.Weighted>
3.2188

> <Gold.Chemscore.Internal.Correction.Weighted>
   9.000000E+99

> <Gold.Protein.RotatedTorsions>
[ 6907 6896 6895 6894 ] final -152.72 input  -60.11 | X-H torsion
[ 7974 7965 7964 7962 ] final  -17.23 input  175.53 | X-H torsion
[ 8008 7997 7996 7995 ] final  -69.82 input   59.86 | X-H torsion
[ 10167 10162 10161 10158 ] final   23.92 input  -65.29 | X-H torsion
[ 10718 10713 10712 10709 ] final   93.95 input   66.30 | X-H torsion
[ 10763 10752 10751 10750 ] final  -52.18 input  -60.55 | X-H torsion
[ 11005 11000 10999 10996 ] final  -88.51 input  -57.11 | X-H torsion

> <Gold.Protein.ActiveResidues>
 VAL166  LYS551  ARG553  GLY616  TRP617  ASP618  TYR619  PRO620  LYS621  CYS622 
 ASP623  PHE694  ASN695  SER759  ASP760  ASP761  ALA762  ILE779  LEU786  VAL792 
 PHE793  MET794  SER795  GLU796  ALA797  LYS798  CYS799  TRP800  GLU811  SER814 

> <Gold.Protein.RotatedAtoms>
  151.2320  133.4445  159.2603 H   0  0  0  0  0  0  0  0  0  0  0  0  # atno 6907 bound_to 6896
  151.0786  134.9844  159.8355 H   0  0  0  0  0  0  0  0  0  0  0  0  # atno 6908 bound_to 6896
  152.5421  134.2261  159.8859 H   0  0  0  0  0  0  0  0  0  0  0  0  # atno 6909 bound_to 6896
  146.1951  140.3749  142.8444 H   0  0  0  0  0  0  0  0  0  0  0  0  # atno 7974 bound_to 7965
  154.4966  140.0846  156.7710 H   0  0  0  0  0  0  0  0  0  0  0  0  # atno 8008 bound_to 7997
  155.4101  140.3441  155.4245 H   0  0  0  0  0  0  0  0  0  0  0  0  # atno 8009 bound_to 7997
  156.1402  140.1527  156.8920 H   0  0  0  0  0  0  0  0  0  0  0  0  # atno 8010 bound_to 7997
  140.5230  143.9970  150.6426 H   0  0  0  0  0  0  0  0  0  0  0  0  # atno 10167 bound_to 10162
  157.6951  131.0496  150.4112 H   0  0  0  0  0  0  0  0  0  0  0  0  # atno 10718 bound_to 10713
  154.1385  135.6509  153.4937 H   0  0  0  0  0  0  0  0  0  0  0  0  # atno 10763 bound_to 10752
  153.0173  135.5310  154.6929 H   0  0  0  0  0  0  0  0  0  0  0  0  # atno 10764 bound_to 10752
  154.6183  135.2962  155.0325 H   0  0  0  0  0  0  0  0  0  0  0  0  # atno 10765 bound_to 10752
  141.1600  133.7574  156.9462 H   0  0  0  0  0  0  0  0  0  0  0  0  # atno 11005 bound_to 11000
  144.8563  140.7075  143.6136 LP  0  0  0  0  0  0  0  0  0  0  0  0  # atno 17320 bound_to 7965
  145.3670  139.1667  143.4352 LP  0  0  0  0  0  0  0  0  0  0  0  0  # atno 17321 bound_to 7965
  140.3324  143.3069  152.0673 LP  0  0  0  0  0  0  0  0  0  0  0  0  # atno 17342 bound_to 10162
  139.4929  144.6500  151.6697 LP  0  0  0  0  0  0  0  0  0  0  0  0  # atno 17343 bound_to 10162
  156.4496  130.4008  149.6645 LP  0  0  0  0  0  0  0  0  0  0  0  0  # atno 17370 bound_to 10713
  156.3799  130.7573  151.2565 LP  0  0  0  0  0  0  0  0  0  0  0  0  # atno 17371 bound_to 10713
  140.1288  134.9369  157.2308 LP  0  0  0  0  0  0  0  0  0  0  0  0  # atno 17394 bound_to 11000
  140.2979  134.3165  155.7297 LP  0  0  0  0  0  0  0  0  0  0  0  0  # atno 17395 bound_to 11000

$$$$
