AV-unprocessed.smi:3010|AV-procd|sdf|11455|dock7
  -GOLD-   2272016393D 1   1.00000     0.00000
 Structure written by MMmdl.
 38 40  0  0  0  0  0  0  0  0  1 V2000
  152.1822  144.0336  160.9818 C   0  0  0  0  0  0  0  0  0  0  0  0
  152.3501  142.8768  160.0822 N   0  0  0  0  0  0  0  0  0  0  0  0
  151.6253  142.8497  158.9195 C   0  0  0  0  0  0  0  0  0  0  0  0
  150.8359  143.7237  158.5581 O   0  0  0  0  0  0  0  0  0  0  0  0
  151.8622  141.6569  158.1023 C   0  0  0  0  0  0  0  0  0  0  0  0
  152.7212  140.6735  158.4620 C   0  0  0  0  0  0  0  0  0  0  0  0
  152.7570  139.6591  157.5118 N   0  0  0  0  0  0  0  0  0  0  0  0
  151.8872  140.1008  156.6019 C   0  0  0  0  0  0  0  0  0  0  0  0
  151.3069  141.2864  156.8796 N   0  0  0  0  0  0  0  0  0  0  0  0
  150.3290  141.9846  156.0596 C   0  0  0  0  0  0  0  0  0  0  0  0
  149.3464  141.0265  155.3572 C   0  0  2  0  0  0  0  0  0  0  0  0
  149.8950  140.5879  154.1287 O   0  0  0  0  0  0  0  0  0  0  0  0
  147.9808  141.6719  155.1821 C   0  0  0  0  0  0  0  0  0  0  0  0
  147.4906  141.9395  153.8859 C   0  0  0  0  0  0  0  0  0  0  0  0
  146.2227  142.5287  153.7138 C   0  0  0  0  0  0  0  0  0  0  0  0
  145.4366  142.8508  154.8369 C   0  0  0  0  0  0  0  0  0  0  0  0
  145.9181  142.5818  156.1324 C   0  0  0  0  0  0  0  0  0  0  0  0
  147.1858  141.9927  156.3050 C   0  0  0  0  0  0  0  0  0  0  0  0
  153.4243  140.8001  159.6856 N   0  0  0  0  0  0  0  0  0  0  0  0
  154.3455  139.7171  160.0421 C   0  0  0  0  0  0  0  0  0  0  0  0
  153.2373  141.8957  160.4940 C   0  0  0  0  0  0  0  0  0  0  0  0
  153.8460  142.0013  161.5622 O   0  0  0  0  0  0  0  0  0  0  0  0
  151.4981  144.8017  160.6196 H   0  0  0  0  0  0  0  0  0  0  0  0
  153.1399  144.5290  161.1495 H   0  0  0  0  0  0  0  0  0  0  0  0
  151.7997  143.7074  161.9503 H   0  0  0  0  0  0  0  0  0  0  0  0
  151.6611  139.5420  155.7055 H   0  0  0  0  0  0  0  0  0  0  0  0
  149.7901  142.6915  156.6910 H   0  0  0  0  0  0  0  0  0  0  0  0
  150.8628  142.5840  155.3205 H   0  0  0  0  0  0  0  0  0  0  0  0
  149.2212  140.1338  155.9708 H   0  0  0  0  0  0  0  0  0  0  0  0
  149.2696  140.7646  153.4423 H   0  0  0  0  0  0  0  0  0  0  0  0
  148.0847  141.6919  153.0181 H   0  0  0  0  0  0  0  0  0  0  0  0
  145.8528  142.7326  152.7198 H   0  0  0  0  0  0  0  0  0  0  0  0
  144.4641  143.3018  154.7047 H   0  0  0  0  0  0  0  0  0  0  0  0
  145.3146  142.8258  156.9943 H   0  0  0  0  0  0  0  0  0  0  0  0
  147.5444  141.7859  157.3028 H   0  0  0  0  0  0  0  0  0  0  0  0
  154.8596  139.8565  160.9934 H   0  0  0  0  0  0  0  0  0  0  0  0
  155.1110  139.6129  159.2725 H   0  0  0  0  0  0  0  0  0  0  0  0
  153.8029  138.7731  160.1027 H   0  0  0  0  0  0  0  0  0  0  0  0
  1  2  1  0  0  0  0
  1 23  1  0  0  0  0
  1 24  1  0  0  0  0
  1 25  1  0  0  0  0
  2 21  1  0  0  0  0
  2  3  1  0  0  0  0
  3  4  2  0  0  0  0
  3  5  1  0  0  0  0
  5  9  1  0  0  0  0
  5  6  2  0  0  0  0
  6  7  1  0  0  0  0
  6 19  1  0  0  0  0
  7  8  2  0  0  0  0
  8  9  1  0  0  0  0
  8 26  1  0  0  0  0
  9 10  1  0  0  0  0
 10 11  1  0  0  0  0
 10 27  1  0  0  0  0
 10 28  1  0  0  0  0
 11 12  1  0  0  0  0
 11 13  1  0  0  0  0
 11 29  1  0  0  0  0
 12 30  1  0  0  0  0
 13 18  1  0  0  0  0
 13 14  2  0  0  0  0
 14 15  1  0  0  0  0
 14 31  1  0  0  0  0
 15 16  2  0  0  0  0
 15 32  1  0  0  0  0
 16 17  1  0  0  0  0
 16 33  1  0  0  0  0
 17 18  2  0  0  0  0
 17 34  1  0  0  0  0
 18 35  1  0  0  0  0
 19 20  1  0  0  0  0
 19 21  1  0  0  0  0
 20 36  1  0  0  0  0
 20 37  1  0  0  0  0
 20 38  1  0  0  0  0
 21 22  2  0  0  0  0
M  END
> <s_m_source_file>
AV-unprocessed.smi

> <i_m_source_file_index>
3010

> <i_lp_mmshare_version>
43012

> <i_f3d_flags>
0

> <s_epik_input>
Tz1jMW4oW0NIM10pYyg9TyluKFtDSDNdKWMoYzEyKW5bY0hdbjJbQ0gyXVtDQEhdKFtPSF0pYzNbY0hdW2NIXVtjSF1bY0hdW2NIXTM=

> <s_epik_cmdline>
J2VwaWtfcHl0aG9uJywgJy1waCcsICc3LjAnLCAnLXRuJywgJzgnLCAnLW1hJywgJzIwMCcsICctbWV0YWxfYmluZGluZycsICctaW1hZScsICc8aW5maWxlLm1hZT4nLCAnLW9tYWUnLCAnPG91dGZpbGUubWFlPic=

> <r_lp_tautomer_probability>
1

> <r_epik_Ionization_Penalty>
1.43747e-06

> <r_epik_Ionization_Penalty_Charging>
3.74189e-09

> <r_epik_Ionization_Penalty_Neutral>
1.43373e-06

> <r_epik_State_Penalty>
-0

> <r_epik_Charging_Adjusted_Penalty>
3.74189e-09

> <i_epik_Tot_Q>
0

> <i_epik_Tot_abs_Q>
0

> <r_epik_Metal_State_Penalty>
-0

> <b_epik_Metal_Only>
0

> <s_lp_Force_Field>
OPLS_2005

> <r_lp_Energy>
35.6617

> <b_lp_Chiralities_Consistent>
1

> <s_lp_Variant>
AV-unprocessed.smi:3010-1

> <Gold.Version>
5.8.1

> <Gold.Id.Protein>
6NUR|6NUR_protein|mol2

> <Gold.PLP.Fitness>
50.7045

> <Gold.PLP.PLP>
-47.0351

> <Gold.PLP.part.hbond>
-3.4775

> <Gold.PLP.part.metal>
0.0000

> <Gold.PLP.part.buried>
-4.6766

> <Gold.PLP.part.nonpolar>
-37.4017

> <Gold.PLP.part.repulsive>
0.1339

> <Gold.PLP.ligand.clash>
0.0000

> <Gold.PLP.ligand.torsion>
0.8007

> <Gold.PLP.Chemscore.Hbond>
1.7492

> <Gold.PLP.Chemscore.CHOScore>
0.0000

> <Gold.PLP.Chemscore.Metal>
0.0000

> <Gold.Chemscore.Hbonds>
donor molecule, donor type, donor heavy atom, donor atom, acceptor molecule, acceptor atom, score
      L1  H    12    30       P1  7957  0.01
      P1  H  7989  7998       L1    12  0.70
      P1  H  7997  8009       L1     7  1.00

> <Gold.PLP.Chemscore.Internal.Correction>
0.0231

> <Gold.Rescore>
     Score         DG    S(hbond)    S(metal)    S(lipo)     H(rot)  DE(clash)    DE(int)     intcor
     12.40     -13.35       1.39        0.00      74.48       2.15       0.19       0.77       ----

> <Gold.Chemscore.Fitness>
12.4007

> <Gold.Chemscore.DG>
-13.3537

> <Gold.Chemscore.ZeroCoef>
-5.4800

> <Gold.Chemscore.Hbond>
1.3943

> <Gold.Chemscore.Metal>
0.0000

> <Gold.Chemscore.Lipo>
74.4802

> <Gold.Chemscore.Internal_Hbond>
0.0000

> <Gold.Chemscore.DEClash>
0.1850

> <Gold.Chemscore.DEInternal>
0.7680

> <Gold.Chemscore.Rot>
2.1474

> <Gold.Chemscore.Internal.Correction>
   9.000000E+99

> <Gold.Chemscore.Hbonds>
donor molecule, donor type, donor heavy atom, donor atom, acceptor molecule, acceptor atom, score
      L1  H    12    30       P1  7957  0.04
      P1  H  7989  7998       L1    12  0.49
      P1  H  7997  8009       L1     7  0.07

> <Gold.Chemscore.Hbond.Weighted>
-4.6569

> <Gold.Chemscore.Metal.Weighted>
-0.0000

> <Gold.Chemscore.Lipo.Weighted>
-8.7142

> <Gold.Chemscore.Internal_Hbond.Weighted>
0.0000

> <Gold.Chemscore.DEClash.Weighted>
0.1850

> <Gold.Chemscore.DEInternal.Weighted>
0.7680

> <Gold.Chemscore.Rot.Weighted>
5.4974

> <Gold.Chemscore.Internal.Correction.Weighted>
   9.000000E+99

> <Gold.Protein.RotatedTorsions>
[ 6907 6896 6895 6894 ] final  153.41 input  -60.11 | X-H torsion
[ 7974 7965 7964 7962 ] final  -63.03 input  175.53 | X-H torsion
[ 8008 7997 7996 7995 ] final -179.14 input   59.86 | X-H torsion
[ 10167 10162 10161 10158 ] final -139.16 input  -65.29 | X-H torsion
[ 10718 10713 10712 10709 ] final  -16.13 input   66.30 | X-H torsion
[ 10763 10752 10751 10750 ] final  -82.59 input  -60.55 | X-H torsion
[ 11005 11000 10999 10996 ] final  116.89 input  -57.11 | X-H torsion

> <Gold.Protein.ActiveResidues>
 VAL166  LYS551  ARG553  GLY616  TRP617  ASP618  TYR619  PRO620  LYS621  CYS622 
 ASP623  PHE694  ASN695  SER759  ASP760  ASP761  ALA762  ILE779  LEU786  VAL792 
 PHE793  MET794  SER795  GLU796  ALA797  LYS798  CYS799  TRP800  GLU811  SER814 

> <Gold.Protein.RotatedAtoms>
  152.0731  133.4116  159.4467 H   0  0  0  0  0  0  0  0  0  0  0  0  # atno 6907 bound_to 6896
  150.6863  134.3069  159.4739 H   0  0  0  0  0  0  0  0  0  0  0  0  # atno 6908 bound_to 6896
  152.0903  134.9411  160.0622 H   0  0  0  0  0  0  0  0  0  0  0  0  # atno 6909 bound_to 6896
  145.7841  140.8746  143.0315 H   0  0  0  0  0  0  0  0  0  0  0  0  # atno 7974 bound_to 7965
  156.0271  140.1274  157.0297 H   0  0  0  0  0  0  0  0  0  0  0  0  # atno 8008 bound_to 7997
  154.4334  140.1057  156.6116 H   0  0  0  0  0  0  0  0  0  0  0  0  # atno 8009 bound_to 7997
  155.5861  140.3468  155.4556 H   0  0  0  0  0  0  0  0  0  0  0  0  # atno 8010 bound_to 7997
  139.8407  143.7326  152.2663 H   0  0  0  0  0  0  0  0  0  0  0  0  # atno 10167 bound_to 10162
  156.5919  130.4801  149.6276 H   0  0  0  0  0  0  0  0  0  0  0  0  # atno 10718 bound_to 10713
  154.5775  135.5586  153.7154 H   0  0  0  0  0  0  0  0  0  0  0  0  # atno 10763 bound_to 10752
  153.0070  135.6312  154.2028 H   0  0  0  0  0  0  0  0  0  0  0  0  # atno 10764 bound_to 10752
  154.1969  135.2880  155.2983 H   0  0  0  0  0  0  0  0  0  0  0  0  # atno 10765 bound_to 10752
  139.9056  134.9603  156.7267 H   0  0  0  0  0  0  0  0  0  0  0  0  # atno 11005 bound_to 11000
  144.6792  140.0030  143.7484 LP  0  0  0  0  0  0  0  0  0  0  0  0  # atno 17320 bound_to 7965
  146.0044  139.3118  143.0908 LP  0  0  0  0  0  0  0  0  0  0  0  0  # atno 17321 bound_to 7965
  139.7562  144.7520  151.0432 LP  0  0  0  0  0  0  0  0  0  0  0  0  # atno 17342 bound_to 10162
  140.7798  143.4803  151.0027 LP  0  0  0  0  0  0  0  0  0  0  0  0  # atno 17343 bound_to 10162
  156.2542  130.6925  151.1673 LP  0  0  0  0  0  0  0  0  0  0  0  0  # atno 17370 bound_to 10713
  157.7301  131.0619  150.5741 LP  0  0  0  0  0  0  0  0  0  0  0  0  # atno 17371 bound_to 10713
  140.6958  133.9350  155.7994 LP  0  0  0  0  0  0  0  0  0  0  0  0  # atno 17394 bound_to 11000
  141.0408  134.0624  157.3904 LP  0  0  0  0  0  0  0  0  0  0  0  0  # atno 17395 bound_to 11000

$$$$
