AV-unprocessed.smi:1964|AV-procd|sdf|7928|dock4
  -GOLD-   2272010 93D 1   1.00000     0.00000
 Structure written by MMmdl.
 46 48  0  0  0  0  0  0  0  0  1 V2000
  157.1477  135.7929  159.0504 C   0  0  0  0  0  0  0  0  0  0  0  0
  157.2274  136.2820  160.5079 C   0  0  2  0  0  0  0  0  0  0  0  0
  157.3657  135.0862  161.4723 C   0  0  0  0  0  0  0  0  0  0  0  0
  157.4632  135.5398  162.9368 C   0  0  0  0  0  0  0  0  0  0  0  0
  156.2580  136.4062  163.3267 C   0  0  0  0  0  0  0  0  0  0  0  0
  156.1152  137.6088  162.3828 C   0  0  0  0  0  0  0  0  0  0  0  0
  156.0196  137.1668  160.9067 C   0  0  1  0  0  0  0  0  0  0  0  0
  155.9409  138.3408  160.0401 N   0  0  0  0  0  0  0  0  0  0  0  0
  154.8549  138.7340  159.3579 C   0  0  0  0  0  0  0  0  0  0  0  0
  153.7779  138.1374  159.4022 O   0  0  0  0  0  0  0  0  0  0  0  0
  155.0299  139.9952  158.4979 C   0  0  0  0  0  0  0  0  0  0  0  0
  153.7698  140.7357  158.2687 N   0  0  0  0  0  0  0  0  0  0  0  0
  152.9698  140.3855  157.1511 C   0  0  0  0  0  0  0  0  0  0  0  0
  153.2985  139.4678  156.3975 O   0  0  0  0  0  0  0  0  0  0  0  0
  151.7651  141.1906  156.9631 C   0  0  0  0  0  0  0  0  0  0  0  0
  150.9497  140.8881  155.8338 C   0  0  0  0  0  0  0  0  0  0  0  0
  150.3071  140.6460  154.9022 N   0  0  0  0  0  0  0  0  0  0  0  0
  151.4489  142.1799  157.8240 C   0  0  0  0  0  0  0  0  0  0  0  0
  152.2208  142.4792  158.9254 N   0  0  0  0  0  0  0  0  0  0  0  0
  151.9545  143.6347  159.7352 C   0  0  0  0  0  0  0  0  0  0  0  0
  150.6086  144.3286  159.6574 C   0  0  0  0  0  0  0  0  0  0  0  0
  151.8317  144.9869  159.0679 C   0  0  0  0  0  0  0  0  0  0  0  0
  153.4352  141.7941  159.1480 C   0  0  0  0  0  0  0  0  0  0  0  0
  154.1884  142.1137  160.0714 O   0  0  0  0  0  0  0  0  0  0  0  0
  156.2490  135.1992  158.8815 H   0  0  0  0  0  0  0  0  0  0  0  0
  158.0080  135.1715  158.8000 H   0  0  0  0  0  0  0  0  0  0  0  0
  157.1352  136.6236  158.3446 H   0  0  0  0  0  0  0  0  0  0  0  0
  158.1327  136.8845  160.6002 H   0  0  0  0  0  0  0  0  0  0  0  0
  156.5101  134.4192  161.3564 H   0  0  0  0  0  0  0  0  0  0  0  0
  158.2488  134.5000  161.2154 H   0  0  0  0  0  0  0  0  0  0  0  0
  157.5231  134.6703  163.5920 H   0  0  0  0  0  0  0  0  0  0  0  0
  158.3848  136.1039  163.0858 H   0  0  0  0  0  0  0  0  0  0  0  0
  155.3482  135.8055  163.2932 H   0  0  0  0  0  0  0  0  0  0  0  0
  156.3641  136.7509  164.3557 H   0  0  0  0  0  0  0  0  0  0  0  0
  155.2317  138.1840  162.6625 H   0  0  0  0  0  0  0  0  0  0  0  0
  156.9693  138.2748  162.5143 H   0  0  0  0  0  0  0  0  0  0  0  0
  155.1115  136.5737  160.7797 H   0  0  0  0  0  0  0  0  0  0  0  0
  156.7826  138.8905  159.9446 H   0  0  0  0  0  0  0  0  0  0  0  0
  155.7782  140.6349  158.9684 H   0  0  0  0  0  0  0  0  0  0  0  0
  155.4891  139.7052  157.5513 H   0  0  0  0  0  0  0  0  0  0  0  0
  150.5532  142.7585  157.6487 H   0  0  0  0  0  0  0  0  0  0  0  0
  152.4300  143.6330  160.7145 H   0  0  0  0  0  0  0  0  0  0  0  0
  149.8685  143.9426  158.9589 H   0  0  0  0  0  0  0  0  0  0  0  0
  150.2065  144.7451  160.5787 H   0  0  0  0  0  0  0  0  0  0  0  0
  152.2436  145.8451  159.5947 H   0  0  0  0  0  0  0  0  0  0  0  0
  151.8986  145.0315  157.9825 H   0  0  0  0  0  0  0  0  0  0  0  0
  1  2  1  0  0  0  0
  1 25  1  0  0  0  0
  1 26  1  0  0  0  0
  1 27  1  0  0  0  0
  2  7  1  0  0  0  0
  2  3  1  0  0  0  0
  2 28  1  0  0  0  0
  3  4  1  0  0  0  0
  3 29  1  0  0  0  0
  3 30  1  0  0  0  0
  4  5  1  0  0  0  0
  4 31  1  0  0  0  0
  4 32  1  0  0  0  0
  5  6  1  0  0  0  0
  5 33  1  0  0  0  0
  5 34  1  0  0  0  0
  6  7  1  0  0  0  0
  6 35  1  0  0  0  0
  6 36  1  0  0  0  0
  7  8  1  0  0  0  0
  7 37  1  0  0  0  0
  8  9  1  0  0  0  0
  8 38  1  0  0  0  0
  9 10  2  0  0  0  0
  9 11  1  0  0  0  0
 11 12  1  0  0  0  0
 11 39  1  0  0  0  0
 11 40  1  0  0  0  0
 12 23  1  0  0  0  0
 12 13  1  0  0  0  0
 13 14  2  0  0  0  0
 13 15  1  0  0  0  0
 15 16  1  0  0  0  0
 15 18  2  0  0  0  0
 16 17  3  0  0  0  0
 18 19  1  0  0  0  0
 18 41  1  0  0  0  0
 19 20  1  0  0  0  0
 19 23  1  0  0  0  0
 20 22  1  0  0  0  0
 20 21  1  0  0  0  0
 20 42  1  0  0  0  0
 21 22  1  0  0  0  0
 21 43  1  0  0  0  0
 21 44  1  0  0  0  0
 22 45  1  0  0  0  0
 22 46  1  0  0  0  0
 23 24  2  0  0  0  0
M  END
> <s_m_source_file>
AV-unprocessed.smi

> <i_m_source_file_index>
1964

> <i_lp_mmshare_version>
43012

> <i_f3d_flags>
0

> <s_epik_input>
W0NIM11bQ0BASF0xW0NIMl1bQ0gyXVtDSDJdW0NIMl1bQ0BIXTFbTkhdQyg9TylbQ0gyXW4yYyg9TyljKEMjTilbY0hdbihjMj1PKVtDSF0zW0NIMl1bQ0gyXTM=

> <s_epik_cmdline>
J2VwaWtfcHl0aG9uJywgJy1waCcsICc3LjAnLCAnLXRuJywgJzgnLCAnLW1hJywgJzIwMCcsICctbWV0YWxfYmluZGluZycsICctaW1hZScsICc8aW5maWxlLm1hZT4nLCAnLW9tYWUnLCAnPG91dGZpbGUubWFlPic=

> <r_lp_tautomer_probability>
1

> <r_epik_Ionization_Penalty>
1.91372e-08

> <r_epik_Ionization_Penalty_Charging>
9.0283e-11

> <r_epik_Ionization_Penalty_Neutral>
1.90469e-08

> <r_epik_State_Penalty>
-0

> <r_epik_Charging_Adjusted_Penalty>
9.0283e-11

> <i_epik_Tot_Q>
0

> <i_epik_Tot_abs_Q>
0

> <r_epik_Metal_State_Penalty>
-0

> <b_epik_Metal_Only>
0

> <s_lp_Force_Field>
OPLS_2005

> <r_lp_Energy>
35.656

> <b_lp_Chiralities_Consistent>
1

> <s_lp_Variant>
AV-unprocessed.smi:1964-1

> <Gold.Version>
5.8.1

> <Gold.Id.Protein>
6NUR|6NUR_protein|mol2

> <Gold.PLP.Fitness>
46.4835

> <Gold.PLP.PLP>
-45.4449

> <Gold.PLP.part.hbond>
-1.9090

> <Gold.PLP.part.metal>
0.0000

> <Gold.PLP.part.buried>
-2.3440

> <Gold.PLP.part.nonpolar>
-40.4913

> <Gold.PLP.part.repulsive>
0.1006

> <Gold.PLP.ligand.clash>
0.0000

> <Gold.PLP.ligand.torsion>
0.9853

> <Gold.PLP.Chemscore.Hbond>
0.9280

> <Gold.PLP.Chemscore.CHOScore>
0.0000

> <Gold.PLP.Chemscore.Metal>
0.0000

> <Gold.Chemscore.Hbonds>
donor molecule, donor type, donor heavy atom, donor atom, acceptor molecule, acceptor atom, score
      P1  H  7989  7998       L1    17  0.90

> <Gold.PLP.Chemscore.Internal.Correction>
0.2251

> <Gold.Rescore>
     Score         DG    S(hbond)    S(metal)    S(lipo)     H(rot)  DE(clash)    DE(int)     intcor
     13.80     -15.15       0.78        0.00      97.56       1.70       0.21       1.13       ----

> <Gold.Chemscore.Fitness>
13.8032

> <Gold.Chemscore.DG>
-15.1471

> <Gold.Chemscore.ZeroCoef>
-5.4800

> <Gold.Chemscore.Hbond>
0.7828

> <Gold.Chemscore.Metal>
0.0000

> <Gold.Chemscore.Lipo>
97.5577

> <Gold.Chemscore.Internal_Hbond>
0.0000

> <Gold.Chemscore.DEClash>
0.2129

> <Gold.Chemscore.DEInternal>
1.1311

> <Gold.Chemscore.Rot>
1.7038

> <Gold.Chemscore.Internal.Correction>
   9.000000E+99

> <Gold.Chemscore.Hbonds>
donor molecule, donor type, donor heavy atom, donor atom, acceptor molecule, acceptor atom, score
      P1  H  7989  7998       L1    17  0.22

> <Gold.Chemscore.Hbond.Weighted>
-2.6146

> <Gold.Chemscore.Metal.Weighted>
-0.0000

> <Gold.Chemscore.Lipo.Weighted>
-11.4142

> <Gold.Chemscore.Internal_Hbond.Weighted>
0.0000

> <Gold.Chemscore.DEClash.Weighted>
0.2129

> <Gold.Chemscore.DEInternal.Weighted>
1.1311

> <Gold.Chemscore.Rot.Weighted>
4.3618

> <Gold.Chemscore.Internal.Correction.Weighted>
   9.000000E+99

> <Gold.Protein.RotatedTorsions>
[ 6907 6896 6895 6894 ] final -121.22 input  -60.11 | X-H torsion
[ 7974 7965 7964 7962 ] final  -77.18 input  175.53 | X-H torsion
[ 8008 7997 7996 7995 ] final   57.54 input   59.86 | X-H torsion
[ 10167 10162 10161 10158 ] final -116.76 input  -65.29 | X-H torsion
[ 10718 10713 10712 10709 ] final  -72.89 input   66.30 | X-H torsion
[ 10763 10752 10751 10750 ] final   97.60 input  -60.55 | X-H torsion
[ 11005 11000 10999 10996 ] final  -40.45 input  -57.11 | X-H torsion

> <Gold.Protein.ActiveResidues>
 VAL166  LYS551  ARG553  GLY616  TRP617  ASP618  TYR619  PRO620  LYS621  CYS622 
 ASP623  PHE694  ASN695  SER759  ASP760  ASP761  ALA762  ILE779  LEU786  VAL792 
 PHE793  MET794  SER795  GLU796  ALA797  LYS798  CYS799  TRP800  GLU811  SER814 

> <Gold.Protein.RotatedAtoms>
  150.8464  133.7855  159.3041 H   0  0  0  0  0  0  0  0  0  0  0  0  # atno 6907 bound_to 6896
  151.5541  135.1065  159.9966 H   0  0  0  0  0  0  0  0  0  0  0  0  # atno 6908 bound_to 6896
  152.4517  133.7599  159.6797 H   0  0  0  0  0  0  0  0  0  0  0  0  # atno 6909 bound_to 6896
  145.6031  140.9404  143.1230 H   0  0  0  0  0  0  0  0  0  0  0  0  # atno 7974 bound_to 7965
  155.5354  140.3483  155.4435 H   0  0  0  0  0  0  0  0  0  0  0  0  # atno 8008 bound_to 7997
  156.0689  140.1358  156.9879 H   0  0  0  0  0  0  0  0  0  0  0  0  # atno 8009 bound_to 7997
  154.4518  140.0970  156.6614 H   0  0  0  0  0  0  0  0  0  0  0  0  # atno 8010 bound_to 7997
  140.0757  143.4835  152.1954 H   0  0  0  0  0  0  0  0  0  0  0  0  # atno 10167 bound_to 10162
  156.0302  130.4382  150.2661 H   0  0  0  0  0  0  0  0  0  0  0  0  # atno 10718 bound_to 10713
  153.2788  135.4177  155.1059 H   0  0  0  0  0  0  0  0  0  0  0  0  # atno 10763 bound_to 10752
  154.8482  135.3490  154.6140 H   0  0  0  0  0  0  0  0  0  0  0  0  # atno 10764 bound_to 10752
  153.6561  135.7050  153.5250 H   0  0  0  0  0  0  0  0  0  0  0  0  # atno 10765 bound_to 10752
  141.0175  133.6878  156.2323 H   0  0  0  0  0  0  0  0  0  0  0  0  # atno 11005 bound_to 11000
  144.7301  139.7751  143.7350 LP  0  0  0  0  0  0  0  0  0  0  0  0  # atno 17320 bound_to 7965
  146.1561  139.4660  143.0018 LP  0  0  0  0  0  0  0  0  0  0  0  0  # atno 17321 bound_to 7965
  139.5809  144.7510  151.3642 LP  0  0  0  0  0  0  0  0  0  0  0  0  # atno 17342 bound_to 10162
  140.7103  143.7407  150.7555 LP  0  0  0  0  0  0  0  0  0  0  0  0  # atno 17343 bound_to 10162
  157.0763  131.0131  151.3172 LP  0  0  0  0  0  0  0  0  0  0  0  0  # atno 17370 bound_to 10713
  157.4961  130.7851  149.7557 LP  0  0  0  0  0  0  0  0  0  0  0  0  # atno 17371 bound_to 10713
  140.6629  134.4948  157.5584 LP  0  0  0  0  0  0  0  0  0  0  0  0  # atno 17394 bound_to 11000
  139.9126  134.8313  156.1476 LP  0  0  0  0  0  0  0  0  0  0  0  0  # atno 17395 bound_to 11000

$$$$
