AV-unprocessed.smi:2280|AV-procd|sdf|9191|dock1
  -GOLD-   2272012403D 1   1.00000     0.00000
 Structure written by MMmdl.
 41 42  0  0  0  0  0  0  0  0  1 V2000
  150.5036  141.6086  155.9618 C   0  0  0  0  0  0  0  0  0  0  0  0
  149.4322  140.8852  155.1653 C   0  0  0  0  0  0  0  0  0  0  0  0
  149.8986  140.0336  154.1594 N   0  0  0  0  0  0  0  0  0  0  0  0
  149.0572  139.3833  153.4239 C   0  0  0  0  0  0  0  0  0  0  0  0
  147.6701  139.5090  153.6028 N   0  0  0  0  0  0  0  0  0  0  0  0
  146.8223  138.7204  152.6940 C   0  0  0  0  0  0  0  0  0  0  0  0
  146.4378  137.3511  153.2983 C   0  0  2  0  0  0  0  0  0  0  0  0
  147.5717  136.7305  153.8697 O   0  0  0  0  0  0  0  0  0  0  0  0
  145.8484  136.3790  152.2629 C   0  0  0  0  0  0  0  0  0  0  0  0
  146.0730  135.0402  152.6865 O   0  0  0  0  0  0  0  0  0  0  0  0
  145.6218  134.0067  151.8925 C   0  0  0  0  0  0  0  0  0  0  0  0
  144.6045  134.1569  150.9157 C   0  0  0  0  0  0  0  0  0  0  0  0
  144.1901  133.0591  150.1393 C   0  0  0  0  0  0  0  0  0  0  0  0
  144.7845  131.7997  150.3275 C   0  0  0  0  0  0  0  0  0  0  0  0
  145.7938  131.6385  151.2937 C   0  0  0  0  0  0  0  0  0  0  0  0
  146.2173  132.7347  152.0790 C   0  0  0  0  0  0  0  0  0  0  0  0
  147.3137  132.5551  153.1246 C   0  0  0  0  0  0  0  0  0  0  0  0
  147.7438  131.2943  153.1859 F   0  0  0  0  0  0  0  0  0  0  0  0
  148.3537  133.3347  152.8275 F   0  0  0  0  0  0  0  0  0  0  0  0
  146.8503  132.8951  154.3277 F   0  0  0  0  0  0  0  0  0  0  0  0
  147.1310  140.3009  154.5745 C   0  0  0  0  0  0  0  0  0  0  0  0
  145.9123  140.3815  154.7412 O   0  0  0  0  0  0  0  0  0  0  0  0
  148.1003  141.0410  155.3987 C   0  0  0  0  0  0  0  0  0  0  0  0
  147.5345  141.9555  156.4782 C   0  0  0  0  0  0  0  0  0  0  0  0
  150.3922  142.6884  155.8592 H   0  0  0  0  0  0  0  0  0  0  0  0
  151.5033  141.3415  155.6176 H   0  0  0  0  0  0  0  0  0  0  0  0
  150.4343  141.3493  157.0183 H   0  0  0  0  0  0  0  0  0  0  0  0
  149.3687  138.7019  152.6303 H   0  0  0  0  0  0  0  0  0  0  0  0
  145.9148  139.2913  152.4875 H   0  0  0  0  0  0  0  0  0  0  0  0
  147.2832  138.5920  151.7120 H   0  0  0  0  0  0  0  0  0  0  0  0
  145.7012  137.4796  154.0923 H   0  0  0  0  0  0  0  0  0  0  0  0
  148.1466  136.4572  153.1708 H   0  0  0  0  0  0  0  0  0  0  0  0
  144.7848  136.5751  152.1155 H   0  0  0  0  0  0  0  0  0  0  0  0
  146.3515  136.5395  151.3079 H   0  0  0  0  0  0  0  0  0  0  0  0
  144.1230  135.1070  150.7419 H   0  0  0  0  0  0  0  0  0  0  0  0
  143.4142  133.1844  149.3983 H   0  0  0  0  0  0  0  0  0  0  0  0
  144.4666  130.9570  149.7313 H   0  0  0  0  0  0  0  0  0  0  0  0
  146.2388  130.6632  151.4235 H   0  0  0  0  0  0  0  0  0  0  0  0
  146.9148  141.3835  157.1698 H   0  0  0  0  0  0  0  0  0  0  0  0
  146.9123  142.7289  156.0266 H   0  0  0  0  0  0  0  0  0  0  0  0
  148.3035  142.4547  157.0652 H   0  0  0  0  0  0  0  0  0  0  0  0
  1  2  1  0  0  0  0
  1 25  1  0  0  0  0
  1 26  1  0  0  0  0
  1 27  1  0  0  0  0
  2 23  2  0  0  0  0
  2  3  1  0  0  0  0
  3  4  2  0  0  0  0
  4  5  1  0  0  0  0
  4 28  1  0  0  0  0
  5  6  1  0  0  0  0
  5 21  1  0  0  0  0
  6  7  1  0  0  0  0
  6 29  1  0  0  0  0
  6 30  1  0  0  0  0
  7  8  1  0  0  0  0
  7  9  1  0  0  0  0
  7 31  1  0  0  0  0
  8 32  1  0  0  0  0
  9 10  1  0  0  0  0
  9 33  1  0  0  0  0
  9 34  1  0  0  0  0
 10 11  1  0  0  0  0
 11 16  1  0  0  0  0
 11 12  2  0  0  0  0
 12 13  1  0  0  0  0
 12 35  1  0  0  0  0
 13 14  2  0  0  0  0
 13 36  1  0  0  0  0
 14 15  1  0  0  0  0
 14 37  1  0  0  0  0
 15 16  2  0  0  0  0
 15 38  1  0  0  0  0
 16 17  1  0  0  0  0
 17 18  1  0  0  0  0
 17 19  1  0  0  0  0
 17 20  1  0  0  0  0
 21 22  2  0  0  0  0
 21 23  1  0  0  0  0
 23 24  1  0  0  0  0
 24 39  1  0  0  0  0
 24 40  1  0  0  0  0
 24 41  1  0  0  0  0
M  END
> <s_m_source_file>
AV-unprocessed.smi

> <i_m_source_file_index>
2280

> <i_lp_mmshare_version>
43012

> <i_f3d_flags>
0

> <s_epik_input>
W0NIM11jMW5bY0hdbihjKD1PKWMxW0NIM10pW0NIMl1bQ0BIXShbT0hdKVtDSDJdT2MyW2NIXVtjSF1bY0hdW2NIXWMyQyhGKShGKUY=

> <s_epik_cmdline>
J2VwaWtfcHl0aG9uJywgJy1waCcsICc3LjAnLCAnLXRuJywgJzgnLCAnLW1hJywgJzIwMCcsICctbWV0YWxfYmluZGluZycsICctaW1hZScsICc8aW5maWxlLm1hZT4nLCAnLW9tYWUnLCAnPG91dGZpbGUubWFlPic=

> <r_lp_tautomer_probability>
1

> <r_epik_Ionization_Penalty>
3.7476e-05

> <r_epik_Ionization_Penalty_Charging>
8.44705e-08

> <r_epik_Ionization_Penalty_Neutral>
3.73915e-05

> <r_epik_State_Penalty>
-0

> <r_epik_Charging_Adjusted_Penalty>
8.44705e-08

> <i_epik_Tot_Q>
0

> <i_epik_Tot_abs_Q>
0

> <r_epik_Metal_State_Penalty>
-0

> <b_epik_Metal_Only>
0

> <s_lp_Force_Field>
OPLS_2005

> <r_lp_Energy>
25.7706

> <b_lp_Chiralities_Consistent>
1

> <s_lp_Variant>
AV-unprocessed.smi:2280-1

> <Gold.Version>
5.8.1

> <Gold.Id.Protein>
6NUR|6NUR_protein|mol2

> <Gold.PLP.Fitness>
43.0019

> <Gold.PLP.PLP>
-34.9506

> <Gold.PLP.part.hbond>
-1.9822

> <Gold.PLP.part.metal>
0.0000

> <Gold.PLP.part.buried>
2.0952

> <Gold.PLP.part.nonpolar>
-35.3614

> <Gold.PLP.part.repulsive>
1.0285

> <Gold.PLP.ligand.clash>
0.4066

> <Gold.PLP.ligand.torsion>
1.0666

> <Gold.PLP.Chemscore.Hbond>
1.9600

> <Gold.PLP.Chemscore.CHOScore>
1.3655

> <Gold.PLP.Chemscore.Metal>
0.0000

> <Gold.Chemscore.Hbonds>
donor molecule, donor type, donor heavy atom, donor atom, acceptor molecule, acceptor atom, score
      L1  H     8    32       P1  7948  1.00
      P1  H  7989  7998       L1     3  0.93
      L1  C     4    28       P1  7948  0.89
      L1  C     4    28       P1  7957  0.35

> <Gold.PLP.Chemscore.Internal.Correction>
0.6145

> <Gold.Rescore>
     Score         DG    S(hbond)    S(metal)    S(lipo)     H(rot)  DE(clash)    DE(int)     intcor
      8.34     -13.42       1.85        0.00      74.73       2.73       1.58       3.50       ----

> <Gold.Chemscore.Fitness>
8.3421

> <Gold.Chemscore.DG>
-13.4210

> <Gold.Chemscore.ZeroCoef>
-5.4800

> <Gold.Chemscore.Hbond>
1.8521

> <Gold.Chemscore.Metal>
0.0000

> <Gold.Chemscore.Lipo>
74.7321

> <Gold.Chemscore.Internal_Hbond>
0.0000

> <Gold.Chemscore.DEClash>
1.5787

> <Gold.Chemscore.DEInternal>
3.5001

> <Gold.Chemscore.Rot>
2.7300

> <Gold.Chemscore.Internal.Correction>
   9.000000E+99

> <Gold.Chemscore.Hbonds>
donor molecule, donor type, donor heavy atom, donor atom, acceptor molecule, acceptor atom, score
      L1  H     8    32       P1  7948  0.95
      P1  H  7989  7998       L1     3  0.46

> <Gold.Chemscore.Hbond.Weighted>
-6.1861

> <Gold.Chemscore.Metal.Weighted>
-0.0000

> <Gold.Chemscore.Lipo.Weighted>
-8.7437

> <Gold.Chemscore.Internal_Hbond.Weighted>
0.0000

> <Gold.Chemscore.DEClash.Weighted>
1.5787

> <Gold.Chemscore.DEInternal.Weighted>
3.5001

> <Gold.Chemscore.Rot.Weighted>
6.9888

> <Gold.Chemscore.Internal.Correction.Weighted>
   9.000000E+99

> <Gold.Protein.RotatedTorsions>
[ 6907 6896 6895 6894 ] final -126.13 input  -60.11 | X-H torsion
[ 7974 7965 7964 7962 ] final   86.24 input  175.53 | X-H torsion
[ 8008 7997 7996 7995 ] final -111.30 input   59.86 | X-H torsion
[ 10167 10162 10161 10158 ] final  143.47 input  -65.29 | X-H torsion
[ 10718 10713 10712 10709 ] final  178.97 input   66.30 | X-H torsion
[ 10763 10752 10751 10750 ] final -157.17 input  -60.55 | X-H torsion
[ 11005 11000 10999 10996 ] final  -92.97 input  -57.11 | X-H torsion

> <Gold.Protein.ActiveResidues>
 VAL166  LYS551  ARG553  GLY616  TRP617  ASP618  TYR619  PRO620  LYS621  CYS622 
 ASP623  PHE694  ASN695  SER759  ASP760  ASP761  ALA762  ILE779  LEU786  VAL792 
 PHE793  MET794  SER795  GLU796  ALA797  LYS798  CYS799  TRP800  GLU811  SER814 

> <Gold.Protein.RotatedAtoms>
  150.8938  133.7208  159.2897 H   0  0  0  0  0  0  0  0  0  0  0  0  # atno 6907 bound_to 6896
  151.4749  135.1047  159.9771 H   0  0  0  0  0  0  0  0  0  0  0  0  # atno 6908 bound_to 6896
  152.4836  133.8269  159.7138 H   0  0  0  0  0  0  0  0  0  0  0  0  # atno 6909 bound_to 6896
  145.5749  139.2318  143.2385 H   0  0  0  0  0  0  0  0  0  0  0  0  # atno 7974 bound_to 7965
  154.9878  140.0395  157.2306 H   0  0  0  0  0  0  0  0  0  0  0  0  # atno 8008 bound_to 7997
  154.7656  140.2792  155.6156 H   0  0  0  0  0  0  0  0  0  0  0  0  # atno 8009 bound_to 7997
  156.2912  140.2620  156.2446 H   0  0  0  0  0  0  0  0  0  0  0  0  # atno 8010 bound_to 7997
  139.4969  144.6038  151.6424 H   0  0  0  0  0  0  0  0  0  0  0  0  # atno 10167 bound_to 10162
  156.8827  130.9821  151.3060 H   0  0  0  0  0  0  0  0  0  0  0  0  # atno 10718 bound_to 10713
  154.7656  135.3130  154.8292 H   0  0  0  0  0  0  0  0  0  0  0  0  # atno 10763 bound_to 10752
  153.9041  135.6812  153.4758 H   0  0  0  0  0  0  0  0  0  0  0  0  # atno 10764 bound_to 10752
  153.1262  135.4800  154.9209 H   0  0  0  0  0  0  0  0  0  0  0  0  # atno 10765 bound_to 10752
  141.1509  133.7857  157.0095 H   0  0  0  0  0  0  0  0  0  0  0  0  # atno 11005 bound_to 11000
  146.1758  140.6576  142.9212 LP  0  0  0  0  0  0  0  0  0  0  0  0  # atno 17320 bound_to 7965
  144.7420  140.4968  143.6862 LP  0  0  0  0  0  0  0  0  0  0  0  0  # atno 17321 bound_to 7965
  140.5694  144.0134  150.6209 LP  0  0  0  0  0  0  0  0  0  0  0  0  # atno 17342 bound_to 10162
  140.3247  143.3115  152.0749 LP  0  0  0  0  0  0  0  0  0  0  0  0  # atno 17343 bound_to 10162
  157.6131  130.8597  149.8983 LP  0  0  0  0  0  0  0  0  0  0  0  0  # atno 17370 bound_to 10713
  156.0669  130.3691  150.0859 LP  0  0  0  0  0  0  0  0  0  0  0  0  # atno 17371 bound_to 10713
  140.0887  134.9605  157.1741 LP  0  0  0  0  0  0  0  0  0  0  0  0  # atno 17394 bound_to 11000
  140.3476  134.2635  155.7203 LP  0  0  0  0  0  0  0  0  0  0  0  0  # atno 17395 bound_to 11000

$$$$
