AV-unprocessed.smi:639|AV-procd|sdf|3149|dock7
  -GOLD-   22720 0 73D 1   1.00000     0.00000
 Structure written by MMmdl.
 23 24  0  0  0  0  0  0  0  0  2 V2000
  152.1347  145.2583  160.0356 C   0  0  0  0  0  0  0  0  0  0  0  0
  151.8565  144.1519  159.1454 N   0  0  0  0  0  0  0  0  0  0  0  0
  152.0568  142.8055  159.3575 C   0  0  0  0  0  0  0  0  0  0  0  0
  151.6432  142.1391  158.2353 C   0  0  0  0  0  0  0  0  0  0  0  0
  151.6368  140.6484  157.9440 C   0  0  2  0  0  0  0  0  0  0  0  0
  152.1317  139.8424  159.1609 C   0  0  0  0  0  0  0  0  0  0  0  0
  152.4228  140.2989  156.7689 N   0  5  0  0  0  0  0  0  0  0  0  0
  151.5966  139.7817  155.8286 C   0  0  0  0  0  0  0  0  0  0  0  0
  151.8918  139.3846  154.7037 O   0  0  0  0  0  0  0  0  0  0  0  0
  150.3387  139.7402  156.2780 N   0  0  0  0  0  0  0  0  0  0  0  0
  150.2427  140.2092  157.5182 C   0  0  0  0  0  0  0  0  0  0  0  0
  149.2267  140.2789  158.2096 O   0  0  0  0  0  0  0  0  0  0  0  0
  151.1974  143.1953  157.3858 C   0  0  0  0  0  0  0  0  0  0  0  0
  151.3280  144.3943  157.9296 N   0  0  0  0  0  0  0  0  0  0  0  0
  152.5690  144.8896  160.9654 H   0  0  0  0  0  0  0  0  0  0  0  0
  151.2102  145.7900  160.2628 H   0  0  0  0  0  0  0  0  0  0  0  0
  152.8380  145.9448  159.5636 H   0  0  0  0  0  0  0  0  0  0  0  0
  152.4727  142.4321  160.2819 H   0  0  0  0  0  0  0  0  0  0  0  0
  151.5157  140.0285  160.0415 H   0  0  0  0  0  0  0  0  0  0  0  0
  153.1574  140.1102  159.4173 H   0  0  0  0  0  0  0  0  0  0  0  0
  152.1117  138.7684  158.9695 H   0  0  0  0  0  0  0  0  0  0  0  0
  149.5602  139.3831  155.7447 H   0  0  0  0  0  0  0  0  0  0  0  0
  150.7849  143.1220  156.3904 H   0  0  0  0  0  0  0  0  0  0  0  0
  1  2  1  0  0  0  0
  1 15  1  0  0  0  0
  1 16  1  0  0  0  0
  1 17  1  0  0  0  0
  2 14  1  0  0  0  0
  2  3  1  0  0  0  0
  3  4  2  0  0  0  0
  3 18  1  0  0  0  0
  4  5  1  0  0  0  0
  4 13  1  0  0  0  0
  5 11  1  0  0  0  0
  5  6  1  0  0  0  0
  5  7  1  0  0  0  0
  6 19  1  0  0  0  0
  6 20  1  0  0  0  0
  6 21  1  0  0  0  0
  7  8  1  0  0  0  0
  8  9  2  0  0  0  0
  8 10  1  0  0  0  0
 10 11  1  0  0  0  0
 10 22  1  0  0  0  0
 11 12  2  0  0  0  0
 13 14  2  0  0  0  0
 13 23  1  0  0  0  0
M  CHG  1   7  -1
M  END
> <s_m_source_file>
AV-unprocessed.smi

> <i_m_source_file_index>
639

> <i_lp_mmshare_version>
43012

> <i_f3d_flags>
0

> <s_epik_input>
W0NIM11uMVtjSF1jKFtjSF1uMSlbQ0BAXTIoW0NIM10pW05IXUMoPU8pW05IXUMyPU8=

> <s_epik_cmdline>
J2VwaWtfcHl0aG9uJywgJy1waCcsICc3LjAnLCAnLXRuJywgJzgnLCAnLW1hJywgJzIwMCcsICctbWV0YWxfYmluZGluZycsICctaW1hZScsICc8aW5maWxlLm1hZT4nLCAnLW9tYWUnLCAnPG91dGZpbGUubWFlPic=

> <r_lp_tautomer_probability>
1

> <r_epik_Ionization_Penalty>
4.83415

> <r_epik_Ionization_Penalty_Charging>
4.8337

> <r_epik_Ionization_Penalty_Neutral>
0.000449923

> <r_epik_State_Penalty>
4.85653

> <r_epik_Charging_Adjusted_Penalty>
9.69023

> <i_epik_Tot_Q>
-1

> <i_epik_Tot_abs_Q>
1

> <r_epik_Metal_State_Penalty>
1.31841

> <b_epik_Metal_Only>
1

> <s_lp_Force_Field>
OPLS_2005

> <r_lp_Energy>
8.78459

> <b_lp_Chiralities_Consistent>
1

> <s_lp_Variant>
AV-unprocessed.smi:639-6

> <Gold.Version>
5.8.1

> <Gold.Id.Protein>
6NUR|6NUR_protein|mol2

> <Gold.PLP.Fitness>
36.9490

> <Gold.PLP.PLP>
-25.7140

> <Gold.PLP.part.hbond>
-2.3358

> <Gold.PLP.part.metal>
0.0000

> <Gold.PLP.part.buried>
-2.1153

> <Gold.PLP.part.nonpolar>
-20.7710

> <Gold.PLP.part.repulsive>
0.2555

> <Gold.PLP.ligand.clash>
0.0000

> <Gold.PLP.ligand.torsion>
0.0537

> <Gold.PLP.Chemscore.Hbond>
3.0000

> <Gold.PLP.Chemscore.CHOScore>
0.7615

> <Gold.PLP.Chemscore.Metal>
0.0000

> <Gold.Chemscore.Hbonds>
donor molecule, donor type, donor heavy atom, donor atom, acceptor molecule, acceptor atom, score
      P1  H  7989  7998       L1     9  0.98
      P1  H  7997  8009       L1     7  2.00
      L1  C    13    23       P1  8028  0.70

> <Gold.PLP.Chemscore.Internal.Correction>
0.0578

> <Gold.Rescore>
     Score         DG    S(hbond)    S(metal)    S(lipo)     H(rot)  DE(clash)    DE(int)     intcor
     14.70     -15.08       1.78        0.00      53.20       1.00       0.33       0.05       ----

> <Gold.Chemscore.Fitness>
14.6982

> <Gold.Chemscore.DG>
-15.0798

> <Gold.Chemscore.ZeroCoef>
-5.4800

> <Gold.Chemscore.Hbond>
1.7772

> <Gold.Chemscore.Metal>
0.0000

> <Gold.Chemscore.Lipo>
53.1961

> <Gold.Chemscore.Internal_Hbond>
0.0000

> <Gold.Chemscore.DEClash>
0.3348

> <Gold.Chemscore.DEInternal>
0.0468

> <Gold.Chemscore.Rot>
1.0000

> <Gold.Chemscore.Internal.Correction>
   9.000000E+99

> <Gold.Chemscore.Hbonds>
donor molecule, donor type, donor heavy atom, donor atom, acceptor molecule, acceptor atom, score
      P1  H  7989  7998       L1     9  0.61
      P1  H  7997  8009       L1     7  0.87

> <Gold.Chemscore.Hbond.Weighted>
-5.9359

> <Gold.Chemscore.Metal.Weighted>
-0.0000

> <Gold.Chemscore.Lipo.Weighted>
-6.2239

> <Gold.Chemscore.Internal_Hbond.Weighted>
0.0000

> <Gold.Chemscore.DEClash.Weighted>
0.3348

> <Gold.Chemscore.DEInternal.Weighted>
0.0468

> <Gold.Chemscore.Rot.Weighted>
2.5600

> <Gold.Chemscore.Internal.Correction.Weighted>
   9.000000E+99

> <Gold.Protein.RotatedTorsions>
[ 6907 6896 6895 6894 ] final  165.08 input  -60.11 | X-H torsion
[ 7974 7965 7964 7962 ] final -115.09 input  175.53 | X-H torsion
[ 8008 7997 7996 7995 ] final -165.70 input   59.86 | X-H torsion
[ 10167 10162 10161 10158 ] final  -94.16 input  -65.29 | X-H torsion
[ 10718 10713 10712 10709 ] final  176.31 input   66.30 | X-H torsion
[ 10763 10752 10751 10750 ] final  -48.75 input  -60.55 | X-H torsion
[ 11005 11000 10999 10996 ] final -179.08 input  -57.11 | X-H torsion

> <Gold.Protein.ActiveResidues>
 VAL166  LYS551  ARG553  GLY616  TRP617  ASP618  TYR619  PRO620  LYS621  CYS622 
 ASP623  PHE694  ASN695  SER759  ASP760  ASP761  ALA762  ILE779  LEU786  VAL792 
 PHE793  MET794  SER795  GLU796  ALA797  LYS798  CYS799  TRP800  GLU811  SER814 

> <Gold.Protein.RotatedAtoms>
  151.8999  133.3535  159.3826 H   0  0  0  0  0  0  0  0  0  0  0  0  # atno 6907 bound_to 6896
  150.7082  134.4839  159.5492 H   0  0  0  0  0  0  0  0  0  0  0  0  # atno 6908 bound_to 6896
  152.2425  134.8214  160.0509 H   0  0  0  0  0  0  0  0  0  0  0  0  # atno 6909 bound_to 6896
  145.1125  140.8620  143.3861 H   0  0  0  0  0  0  0  0  0  0  0  0  # atno 7974 bound_to 7965
  155.8535  140.0967  157.1659 H   0  0  0  0  0  0  0  0  0  0  0  0  # atno 8008 bound_to 7997
  154.3986  140.1378  156.3935 H   0  0  0  0  0  0  0  0  0  0  0  0  # atno 8009 bound_to 7997
  155.7935  140.3455  155.5365 H   0  0  0  0  0  0  0  0  0  0  0  0  # atno 8010 bound_to 7997
  140.3173  143.3070  152.0084 H   0  0  0  0  0  0  0  0  0  0  0  0  # atno 10167 bound_to 10162
  156.9219  130.9943  151.3003 H   0  0  0  0  0  0  0  0  0  0  0  0  # atno 10718 bound_to 10713
  154.0829  135.6588  153.4840 H   0  0  0  0  0  0  0  0  0  0  0  0  # atno 10763 bound_to 10752
  153.0349  135.5184  154.7456 H   0  0  0  0  0  0  0  0  0  0  0  0  # atno 10764 bound_to 10752
  154.6557  135.3007  154.9899 H   0  0  0  0  0  0  0  0  0  0  0  0  # atno 10765 bound_to 10752
  140.4226  134.6591  157.4672 H   0  0  0  0  0  0  0  0  0  0  0  0  # atno 11005 bound_to 11000
  145.0831  139.2945  143.5773 LP  0  0  0  0  0  0  0  0  0  0  0  0  # atno 17320 bound_to 7965
  146.3525  140.0343  142.8648 LP  0  0  0  0  0  0  0  0  0  0  0  0  # atno 17321 bound_to 7965
  139.4881  144.6338  151.7016 LP  0  0  0  0  0  0  0  0  0  0  0  0  # atno 17342 bound_to 10162
  140.5515  144.0417  150.6129 LP  0  0  0  0  0  0  0  0  0  0  0  0  # atno 17343 bound_to 10162
  157.5902  130.8438  149.8648 LP  0  0  0  0  0  0  0  0  0  0  0  0  # atno 17370 bound_to 10713
  156.0487  130.3722  150.1255 LP  0  0  0  0  0  0  0  0  0  0  0  0  # atno 17371 bound_to 10713
  140.0189  134.6577  155.9268 LP  0  0  0  0  0  0  0  0  0  0  0  0  # atno 17394 bound_to 11000
  141.1778  133.6542  156.4897 LP  0  0  0  0  0  0  0  0  0  0  0  0  # atno 17395 bound_to 11000

$$$$
