AV-unprocessed.smi:34|AV-procd|sdf|219|dock8
  -GOLD-   2262015533D 1   1.00000     0.00000
 Structure written by MMmdl.
 55 59  0  0  0  0  0  0  0  0  1 V2000
  146.8403  135.1773  160.4217 O   0  0  0  0  0  0  0  0  0  0  0  0
  147.5403  134.4304  159.7372 C   0  0  0  0  0  0  0  0  0  0  0  0
  148.2605  134.9030  158.5676 N   0  0  0  0  0  0  0  0  0  0  0  0
  148.2215  136.1335  158.0043 C   0  0  0  0  0  0  0  0  0  0  0  0
  147.4738  137.1464  158.5172 N   0  0  0  0  0  0  0  0  0  0  0  0
  147.4610  138.3431  157.9226 C   0  0  0  0  0  0  0  0  0  0  0  0
  148.1107  138.7361  156.8247 N   0  0  0  0  0  0  0  0  0  0  0  0
  148.8620  137.7234  156.3044 C   0  0  0  0  0  0  0  0  0  0  0  0
  148.9671  136.4052  156.8275 C   0  0  0  0  0  0  0  0  0  0  0  0
  149.8142  135.6505  156.0263 N   0  0  0  0  0  0  0  0  0  0  0  0
  150.1845  136.4792  155.0863 C   0  0  0  0  0  0  0  0  0  0  0  0
  149.6682  137.7549  155.1877 N   0  0  0  0  0  0  0  0  0  0  0  0
  149.8638  138.9417  154.2944 C   0  0  2  0  0  0  0  0  0  0  0  0
  150.8669  139.7465  154.8398 O   0  0  0  0  0  0  0  0  0  0  0  0
  150.2652  140.7610  155.6319 C   0  0  1  0  0  0  0  0  0  0  0  0
  151.2524  141.9095  155.8675 C   0  0  0  0  0  0  0  0  0  0  0  0
  150.9831  142.5095  157.1240 O   0  0  0  0  0  0  0  0  0  0  0  0
  151.4322  141.9356  158.2566 C   0  0  0  0  0  0  0  0  0  0  0  0
  151.6680  140.7304  158.3635 O   0  0  0  0  0  0  0  0  0  0  0  0
  151.6112  142.9119  159.3699 C   0  0  0  0  0  0  0  0  0  0  0  0
  152.1697  142.4736  160.5932 C   0  0  0  0  0  0  0  0  0  0  0  0
  152.3488  143.3720  161.6629 C   0  0  0  0  0  0  0  0  0  0  0  0
  151.9721  144.7203  161.5226 C   0  0  0  0  0  0  0  0  0  0  0  0
  151.4169  145.1693  160.3101 C   0  0  0  0  0  0  0  0  0  0  0  0
  151.2366  144.2722  159.2392 C   0  0  0  0  0  0  0  0  0  0  0  0
  149.0455  141.1354  154.7952 C   0  0  2  0  0  0  0  0  0  0  0  0
  148.1013  141.7257  155.5291 F   0  0  0  0  0  0  0  0  0  0  0  0
  148.5766  139.7908  154.2570 C   0  0  1  0  0  0  0  0  0  0  0  0
  148.0620  139.9320  152.9491 O   0  0  0  0  0  0  0  0  0  0  0  0
  147.7694  132.9969  160.1188 C   0  0  0  0  0  0  0  0  0  0  0  0
  148.3839  132.1122  159.2043 C   0  0  0  0  0  0  0  0  0  0  0  0
  148.6212  130.7702  159.5599 C   0  0  0  0  0  0  0  0  0  0  0  0
  148.2527  130.3032  160.8356 C   0  0  0  0  0  0  0  0  0  0  0  0
  147.6503  131.1802  161.7570 C   0  0  0  0  0  0  0  0  0  0  0  0
  147.4127  132.5228  161.4027 C   0  0  0  0  0  0  0  0  0  0  0  0
  148.8546  134.2263  158.1114 H   0  0  0  0  0  0  0  0  0  0  0  0
  146.8420  139.0918  158.3948 H   0  0  0  0  0  0  0  0  0  0  0  0
  150.8497  136.1734  154.2920 H   0  0  0  0  0  0  0  0  0  0  0  0
  150.1662  138.5179  153.3359 H   0  0  0  0  0  0  0  0  0  0  0  0
  149.9545  140.3270  156.5840 H   0  0  0  0  0  0  0  0  0  0  0  0
  152.2731  141.5246  155.8645 H   0  0  0  0  0  0  0  0  0  0  0  0
  151.1781  142.6490  155.0690 H   0  0  0  0  0  0  0  0  0  0  0  0
  152.4667  141.4431  160.7250 H   0  0  0  0  0  0  0  0  0  0  0  0
  152.7765  143.0256  162.5923 H   0  0  0  0  0  0  0  0  0  0  0  0
  152.1088  145.4089  162.3431 H   0  0  0  0  0  0  0  0  0  0  0  0
  151.1285  146.2041  160.2007 H   0  0  0  0  0  0  0  0  0  0  0  0
  150.8085  144.6500  158.3222 H   0  0  0  0  0  0  0  0  0  0  0  0
  149.3269  141.8136  153.9877 H   0  0  0  0  0  0  0  0  0  0  0  0
  147.8185  139.3567  154.9110 H   0  0  0  0  0  0  0  0  0  0  0  0
  148.7843  140.0901  152.3598 H   0  0  0  0  0  0  0  0  0  0  0  0
  148.6742  132.4557  158.2216 H   0  0  0  0  0  0  0  0  0  0  0  0
  149.0880  130.0996  158.8535 H   0  0  0  0  0  0  0  0  0  0  0  0
  148.4359  129.2743  161.1084 H   0  0  0  0  0  0  0  0  0  0  0  0
  147.3733  130.8239  162.7384 H   0  0  0  0  0  0  0  0  0  0  0  0
  146.9590  133.1815  162.1290 H   0  0  0  0  0  0  0  0  0  0  0  0
  1  2  2  0  0  0  0
  2  3  1  0  0  0  0
  2 30  1  0  0  0  0
  3  4  1  0  0  0  0
  3 36  1  0  0  0  0
  4  9  1  0  0  0  0
  4  5  2  0  0  0  0
  5  6  1  0  0  0  0
  6  7  2  0  0  0  0
  6 37  1  0  0  0  0
  7  8  1  0  0  0  0
  8 12  1  0  0  0  0
  8  9  2  0  0  0  0
  9 10  1  0  0  0  0
 10 11  2  0  0  0  0
 11 12  1  0  0  0  0
 11 38  1  0  0  0  0
 12 13  1  0  0  0  0
 13 28  1  0  0  0  0
 13 14  1  0  0  0  0
 13 39  1  0  0  0  0
 14 15  1  0  0  0  0
 15 16  1  0  0  0  0
 15 26  1  0  0  0  0
 15 40  1  0  0  0  0
 16 17  1  0  0  0  0
 16 41  1  0  0  0  0
 16 42  1  0  0  0  0
 17 18  1  0  0  0  0
 18 19  2  0  0  0  0
 18 20  1  0  0  0  0
 20 25  1  0  0  0  0
 20 21  2  0  0  0  0
 21 22  1  0  0  0  0
 21 43  1  0  0  0  0
 22 23  2  0  0  0  0
 22 44  1  0  0  0  0
 23 24  1  0  0  0  0
 23 45  1  0  0  0  0
 24 25  2  0  0  0  0
 24 46  1  0  0  0  0
 25 47  1  0  0  0  0
 26 27  1  0  0  0  0
 26 28  1  0  0  0  0
 26 48  1  0  0  0  0
 28 29  1  0  0  0  0
 28 49  1  0  0  0  0
 29 50  1  0  0  0  0
 30 35  1  0  0  0  0
 30 31  2  0  0  0  0
 31 32  1  0  0  0  0
 31 51  1  0  0  0  0
 32 33  2  0  0  0  0
 32 52  1  0  0  0  0
 33 34  1  0  0  0  0
 33 53  1  0  0  0  0
 34 35  2  0  0  0  0
 34 54  1  0  0  0  0
 35 55  1  0  0  0  0
M  END
> <s_m_source_file>
AV-unprocessed.smi

> <i_m_source_file_index>
34

> <i_lp_mmshare_version>
43012

> <i_f3d_flags>
0

> <s_epik_input>
W2NIXTFbY0hdW2NIXVtjSF1bY0hdYzFDKD1PKVtOSF1jKG5bY0hdbjIpYyhjMjMpbltjSF1uM1tDQEBIXTRPW0NASF0oW0NAQEhdKEYpW0NASF00W09IXSlbQ0gyXU9DKD1PKWM1W2NIXVtjSF1bY0hdW2NIXVtjSF01

> <s_epik_cmdline>
J2VwaWtfcHl0aG9uJywgJy1waCcsICc3LjAnLCAnLXRuJywgJzgnLCAnLW1hJywgJzIwMCcsICctbWV0YWxfYmluZGluZycsICctaW1hZScsICc8aW5maWxlLm1hZT4nLCAnLW9tYWUnLCAnPG91dGZpbGUubWFlPic=

> <r_lp_tautomer_probability>
1

> <r_epik_Ionization_Penalty>
0.00257489

> <r_epik_Ionization_Penalty_Charging>
0

> <r_epik_Ionization_Penalty_Neutral>
0.00257489

> <r_epik_State_Penalty>
0.00519398

> <r_epik_Charging_Adjusted_Penalty>
0.00519398

> <i_epik_Tot_Q>
0

> <i_epik_Tot_abs_Q>
0

> <r_epik_Metal_State_Penalty>
0.335891

> <b_epik_Metal_Only>
0

> <s_epik_Chemistry_Notes>
This compound has an ester and may undergo hydrolysis at high or low pH. This compound contains an acetal/aminal-like group ( X-CH(R)-Y where X, Y are N, S, or O) that may be acid/base labile, releasing an aldehyde.

> <s_lp_Force_Field>
OPLS_2005

> <r_lp_Energy>
42.7442

> <b_lp_Chiralities_Consistent>
1

> <s_lp_Variant>
AV-unprocessed.smi:34-5

> <Gold.Version>
5.8.1

> <Gold.Id.Protein>
6NUR|6NUR_protein|mol2

> <Gold.PLP.Fitness>
52.4043

> <Gold.PLP.PLP>
-46.7864

> <Gold.PLP.part.hbond>
-1.6891

> <Gold.PLP.part.metal>
0.0000

> <Gold.PLP.part.buried>
-5.9652

> <Gold.PLP.part.nonpolar>
-38.2399

> <Gold.PLP.part.repulsive>
0.3283

> <Gold.PLP.ligand.clash>
0.0000

> <Gold.PLP.ligand.torsion>
1.6877

> <Gold.PLP.Chemscore.Hbond>
2.0000

> <Gold.PLP.Chemscore.CHOScore>
0.8998

> <Gold.PLP.Chemscore.Metal>
0.0000

> <Gold.Chemscore.Hbonds>
donor molecule, donor type, donor heavy atom, donor atom, acceptor molecule, acceptor atom, score
      L1  H    29    50       P1  7957  0.80
      P1  H  7989  7998       L1    14  0.90
      L1  C    11    38       P1  7949  0.24

> <Gold.PLP.Chemscore.Internal.Correction>
0.2939

> <Gold.Rescore>
     Score         DG    S(hbond)    S(metal)    S(lipo)     H(rot)  DE(clash)    DE(int)     intcor
     12.56     -17.67       1.57        0.00     118.80       2.72       0.70       4.41       ----

> <Gold.Chemscore.Fitness>
12.5591

> <Gold.Chemscore.DG>
-17.6683

> <Gold.Chemscore.ZeroCoef>
-5.4800

> <Gold.Chemscore.Hbond>
1.5737

> <Gold.Chemscore.Metal>
0.0000

> <Gold.Chemscore.Lipo>
118.7980

> <Gold.Chemscore.Internal_Hbond>
0.0000

> <Gold.Chemscore.DEClash>
0.6996

> <Gold.Chemscore.DEInternal>
4.4096

> <Gold.Chemscore.Rot>
2.7215

> <Gold.Chemscore.Internal.Correction>
   9.000000E+99

> <Gold.Chemscore.Hbonds>
donor molecule, donor type, donor heavy atom, donor atom, acceptor molecule, acceptor atom, score
      L1  H    29    50       P1  7957  0.78
      P1  H  7989  7998       L1    14  0.14

> <Gold.Chemscore.Hbond.Weighted>
-5.2560

> <Gold.Chemscore.Metal.Weighted>
-0.0000

> <Gold.Chemscore.Lipo.Weighted>
-13.8994

> <Gold.Chemscore.Internal_Hbond.Weighted>
0.0000

> <Gold.Chemscore.DEClash.Weighted>
0.6996

> <Gold.Chemscore.DEInternal.Weighted>
4.4096

> <Gold.Chemscore.Rot.Weighted>
6.9670

> <Gold.Chemscore.Internal.Correction.Weighted>
   9.000000E+99

> <Gold.Protein.RotatedTorsions>
[ 6907 6896 6895 6894 ] final -120.00 input  -60.11 | X-H torsion
[ 7974 7965 7964 7962 ] final  127.02 input  175.53 | X-H torsion
[ 8008 7997 7996 7995 ] final  115.00 input   59.86 | X-H torsion
[ 10167 10162 10161 10158 ] final   -9.76 input  -65.29 | X-H torsion
[ 10718 10713 10712 10709 ] final  -97.00 input   66.30 | X-H torsion
[ 10763 10752 10751 10750 ] final  -65.91 input  -60.55 | X-H torsion
[ 11005 11000 10999 10996 ] final -168.61 input  -57.11 | X-H torsion

> <Gold.Protein.ActiveResidues>
 VAL166  LYS551  ARG553  GLY616  TRP617  ASP618  TYR619  PRO620  LYS621  CYS622 
 ASP623  PHE694  ASN695  SER759  ASP760  ASP761  ALA762  ILE779  LEU786  VAL792 
 PHE793  MET794  SER795  GLU796  ALA797  LYS798  CYS799  TRP800  GLU811  SER814 

> <Gold.Protein.RotatedAtoms>
  150.8354  133.8021  159.3081 H   0  0  0  0  0  0  0  0  0  0  0  0  # atno 6907 bound_to 6896
  151.5739  135.1060  160.0011 H   0  0  0  0  0  0  0  0  0  0  0  0  # atno 6908 bound_to 6896
  152.4427  133.7437  159.6711 H   0  0  0  0  0  0  0  0  0  0  0  0  # atno 6909 bound_to 6896
  145.0552  139.3850  143.5033 H   0  0  0  0  0  0  0  0  0  0  0  0  # atno 7974 bound_to 7965
  156.2355  140.2947  156.0302 H   0  0  0  0  0  0  0  0  0  0  0  0  # atno 8008 bound_to 7997
  155.2103  140.0412  157.2949 H   0  0  0  0  0  0  0  0  0  0  0  0  # atno 8009 bound_to 7997
  154.6072  140.2442  155.7723 H   0  0  0  0  0  0  0  0  0  0  0  0  # atno 8010 bound_to 7997
  140.7096  143.5823  150.8979 H   0  0  0  0  0  0  0  0  0  0  0  0  # atno 10167 bound_to 10162
  156.0074  130.5175  150.6310 H   0  0  0  0  0  0  0  0  0  0  0  0  # atno 10718 bound_to 10713
  154.3520  135.6134  153.5647 H   0  0  0  0  0  0  0  0  0  0  0  0  # atno 10763 bound_to 10752
  152.9798  135.5794  154.4733 H   0  0  0  0  0  0  0  0  0  0  0  0  # atno 10764 bound_to 10752
  154.4455  135.2851  155.1795 H   0  0  0  0  0  0  0  0  0  0  0  0  # atno 10765 bound_to 10752
  140.5401  134.5531  157.5097 H   0  0  0  0  0  0  0  0  0  0  0  0  # atno 11005 bound_to 11000
  146.3521  140.0223  142.8657 LP  0  0  0  0  0  0  0  0  0  0  0  0  # atno 17320 bound_to 7965
  145.1477  140.9606  143.4451 LP  0  0  0  0  0  0  0  0  0  0  0  0  # atno 17321 bound_to 7965
  139.9549  143.6230  152.3019 LP  0  0  0  0  0  0  0  0  0  0  0  0  # atno 17342 bound_to 10162
  139.6762  144.7658  151.1692 LP  0  0  0  0  0  0  0  0  0  0  0  0  # atno 17343 bound_to 10162
  157.4108  131.0823  151.1223 LP  0  0  0  0  0  0  0  0  0  0  0  0  # atno 17370 bound_to 10713
  157.1855  130.6328  149.5686 LP  0  0  0  0  0  0  0  0  0  0  0  0  # atno 17371 bound_to 10713
  139.9508  134.7620  156.0452 LP  0  0  0  0  0  0  0  0  0  0  0  0  # atno 17394 bound_to 11000
  141.1232  133.6607  156.3268 LP  0  0  0  0  0  0  0  0  0  0  0  0  # atno 17395 bound_to 11000

$$$$
