AV-unprocessed.smi:2800|AV-procd|sdf|10793|dock3
  -GOLD-   2272015223D 1   1.00000     0.00000
 Structure written by MMmdl.
 51 52  0  0  0  0  0  0  0  0  1 V2000
  151.2924  138.0487  154.1116 C   0  0  0  0  0  0  0  0  0  0  0  0
  150.4311  138.9382  154.9910 C   0  0  0  0  0  0  0  0  0  0  0  0
  151.1015  139.8650  155.7093 N   0  0  0  0  0  0  0  0  0  0  0  0
  150.4106  140.7028  156.5174 C   0  0  0  0  0  0  0  0  0  0  0  0
  151.1508  141.6513  157.2506 N   0  0  0  0  0  0  0  0  0  0  0  0
  150.5651  142.9080  157.6906 C   0  0  0  0  0  0  0  0  0  0  0  0
  151.6498  143.5606  158.5458 C   0  0  0  0  0  0  0  0  0  0  0  0
  152.3607  142.3628  159.1761 C   0  0  0  0  0  0  0  0  0  0  0  0
  152.2587  141.2632  158.1124 C   0  0  0  0  0  0  0  0  0  0  0  0
  149.0034  140.6288  156.6337 C   0  0  0  0  0  0  0  0  0  0  0  0
  148.3038  139.6627  155.8866 C   0  0  0  0  0  0  0  0  0  0  0  0
  149.0262  138.7830  155.0469 C   0  0  0  0  0  0  0  0  0  0  0  0
  148.4054  137.7943  154.2336 N   0  0  0  0  0  0  0  0  0  0  0  0
  147.2761  137.1060  154.4707 C   0  0  0  0  0  0  0  0  0  0  0  0
  146.5805  137.2088  155.4807 O   0  0  0  0  0  0  0  0  0  0  0  0
  147.0073  136.2667  153.4597 N   0  0  0  0  0  0  0  0  0  0  0  0
  145.8729  135.3424  153.3699 C   0  0  2  0  0  0  0  0  0  0  0  0
  146.4316  133.9082  153.1960 C   0  0  0  0  0  0  0  0  0  0  0  0
  147.3995  133.8509  152.1685 O   0  0  0  0  0  0  0  0  0  0  0  0
  144.8519  135.8167  152.2809 C   0  0  0  0  0  0  0  0  0  0  0  0
  145.5808  135.9772  150.9280 C   0  0  0  0  0  0  0  0  0  0  0  0
  144.2522  137.1903  152.6473 C   0  0  0  0  0  0  0  0  0  0  0  0
  143.6974  134.8072  152.0869 C   0  0  0  0  0  0  0  0  0  0  0  0
  145.3505  135.3560  154.3287 H   0  0  0  0  0  0  0  0  0  0  0  0
  151.1690  137.0033  154.3950 H   0  0  0  0  0  0  0  0  0  0  0  0
  152.3505  138.2984  154.2020 H   0  0  0  0  0  0  0  0  0  0  0  0
  151.0088  138.1595  153.0648 H   0  0  0  0  0  0  0  0  0  0  0  0
  150.2814  143.5394  156.8478 H   0  0  0  0  0  0  0  0  0  0  0  0
  149.6745  142.7048  158.2866 H   0  0  0  0  0  0  0  0  0  0  0  0
  152.3453  144.1071  157.9071 H   0  0  0  0  0  0  0  0  0  0  0  0
  151.2484  144.2572  159.2822 H   0  0  0  0  0  0  0  0  0  0  0  0
  153.3902  142.5798  159.4619 H   0  0  0  0  0  0  0  0  0  0  0  0
  151.8231  142.0531  160.0731 H   0  0  0  0  0  0  0  0  0  0  0  0
  152.1004  140.2883  158.5750 H   0  0  0  0  0  0  0  0  0  0  0  0
  153.1696  141.2169  157.5149 H   0  0  0  0  0  0  0  0  0  0  0  0
  148.4530  141.2938  157.2822 H   0  0  0  0  0  0  0  0  0  0  0  0
  147.2281  139.6254  155.9617 H   0  0  0  0  0  0  0  0  0  0  0  0
  148.9172  137.5345  153.4033 H   0  0  0  0  0  0  0  0  0  0  0  0
  147.6449  136.2617  152.6775 H   0  0  0  0  0  0  0  0  0  0  0  0
  146.8474  133.5106  154.1205 H   0  0  0  0  0  0  0  0  0  0  0  0
  145.6342  133.2254  152.8990 H   0  0  0  0  0  0  0  0  0  0  0  0
  147.6877  134.7302  151.9765 H   0  0  0  0  0  0  0  0  0  0  0  0
  144.9105  136.3597  150.1575 H   0  0  0  0  0  0  0  0  0  0  0  0
  145.9784  135.0304  150.5620 H   0  0  0  0  0  0  0  0  0  0  0  0
  146.4159  136.6743  151.0077 H   0  0  0  0  0  0  0  0  0  0  0  0
  145.0326  137.9306  152.8264 H   0  0  0  0  0  0  0  0  0  0  0  0
  143.6329  137.1363  153.5424 H   0  0  0  0  0  0  0  0  0  0  0  0
  143.6172  137.5727  151.8474 H   0  0  0  0  0  0  0  0  0  0  0  0
  143.0106  135.1440  151.3095 H   0  0  0  0  0  0  0  0  0  0  0  0
  143.1087  134.6780  152.9942 H   0  0  0  0  0  0  0  0  0  0  0  0
  144.0597  133.8240  151.7856 H   0  0  0  0  0  0  0  0  0  0  0  0
  1  2  1  0  0  0  0
  1 25  1  0  0  0  0
  1 26  1  0  0  0  0
  1 27  1  0  0  0  0
  2 12  1  0  0  0  0
  2  3  2  0  0  0  0
  3  4  1  0  0  0  0
  4  5  1  0  0  0  0
  4 10  2  0  0  0  0
  5  9  1  0  0  0  0
  5  6  1  0  0  0  0
  6  7  1  0  0  0  0
  6 28  1  0  0  0  0
  6 29  1  0  0  0  0
  7  8  1  0  0  0  0
  7 30  1  0  0  0  0
  7 31  1  0  0  0  0
  8  9  1  0  0  0  0
  8 32  1  0  0  0  0
  8 33  1  0  0  0  0
  9 34  1  0  0  0  0
  9 35  1  0  0  0  0
 10 11  1  0  0  0  0
 10 36  1  0  0  0  0
 11 12  2  0  0  0  0
 11 37  1  0  0  0  0
 12 13  1  0  0  0  0
 13 14  1  0  0  0  0
 13 38  1  0  0  0  0
 14 15  2  0  0  0  0
 14 16  1  0  0  0  0
 16 17  1  0  0  0  0
 16 39  1  0  0  0  0
 17 24  1  0  0  0  0
 17 18  1  0  0  0  0
 17 20  1  0  0  0  0
 18 19  1  0  0  0  0
 18 40  1  0  0  0  0
 18 41  1  0  0  0  0
 19 42  1  0  0  0  0
 20 21  1  0  0  0  0
 20 22  1  0  0  0  0
 20 23  1  0  0  0  0
 21 43  1  0  0  0  0
 21 44  1  0  0  0  0
 21 45  1  0  0  0  0
 22 46  1  0  0  0  0
 22 47  1  0  0  0  0
 22 48  1  0  0  0  0
 23 49  1  0  0  0  0
 23 50  1  0  0  0  0
 23 51  1  0  0  0  0
M  END
> <s_m_source_file>
AV-unprocessed.smi

> <i_m_source_file_index>
2800

> <i_lp_mmshare_version>
43012

> <i_f3d_flags>
0

> <s_epik_input>
W0NIMl0xW0NIMl1bQ0gyXVtDSDJdTjFjKG5jMltDSDNdKVtjSF1bY0hdYzJbTkhdQyg9TylbTkhdW0NASF0oW0NIMl1bT0hdKUMoW0NIM10pKFtDSDNdKVtDSDNd

> <s_epik_cmdline>
J2VwaWtfcHl0aG9uJywgJy1waCcsICc3LjAnLCAnLXRuJywgJzgnLCAnLW1hJywgJzIwMCcsICctbWV0YWxfYmluZGluZycsICctaW1hZScsICc8aW5maWxlLm1hZT4nLCAnLW9tYWUnLCAnPG91dGZpbGUubWFlPic=

> <r_lp_tautomer_probability>
1

> <r_epik_Ionization_Penalty>
0.307546

> <r_epik_Ionization_Penalty_Charging>
0

> <r_epik_Ionization_Penalty_Neutral>
0.307546

> <r_epik_State_Penalty>
0.300796

> <r_epik_Charging_Adjusted_Penalty>
0.300796

> <i_epik_Tot_Q>
0

> <i_epik_Tot_abs_Q>
0

> <r_epik_Metal_State_Penalty>
0.196869

> <b_epik_Metal_Only>
0

> <s_lp_Force_Field>
OPLS_2005

> <r_lp_Energy>
36.8798

> <b_lp_Chiralities_Consistent>
1

> <s_lp_Variant>
AV-unprocessed.smi:2800-1

> <Gold.Version>
5.8.1

> <Gold.Id.Protein>
6NUR|6NUR_protein|mol2

> <Gold.PLP.Fitness>
40.7657

> <Gold.PLP.PLP>
-33.8857

> <Gold.PLP.part.hbond>
-2.9487

> <Gold.PLP.part.metal>
0.0000

> <Gold.PLP.part.buried>
-3.3107

> <Gold.PLP.part.nonpolar>
-27.1187

> <Gold.PLP.part.repulsive>
0.0350

> <Gold.PLP.ligand.clash>
0.0000

> <Gold.PLP.ligand.torsion>
1.0289

> <Gold.PLP.Chemscore.Hbond>
2.8960

> <Gold.PLP.Chemscore.CHOScore>
0.0000

> <Gold.PLP.Chemscore.Metal>
0.0000

> <Gold.Chemscore.Hbonds>
donor molecule, donor type, donor heavy atom, donor atom, acceptor molecule, acceptor atom, score
      L1  H    13    38       P1  7948  0.90
      L1  H    16    39       P1  7948  1.00
      L1  H    19    42       P1  7948  1.00

> <Gold.PLP.Chemscore.Internal.Correction>
0.2498

> <Gold.Rescore>
     Score         DG    S(hbond)    S(metal)    S(lipo)     H(rot)  DE(clash)    DE(int)     intcor
     17.91     -19.67       2.72        0.00      85.83       1.92       0.00       1.76       ----

> <Gold.Chemscore.Fitness>
17.9082

> <Gold.Chemscore.DG>
-19.6742

> <Gold.Chemscore.ZeroCoef>
-5.4800

> <Gold.Chemscore.Hbond>
2.7163

> <Gold.Chemscore.Metal>
0.0000

> <Gold.Chemscore.Lipo>
85.8347

> <Gold.Chemscore.Internal_Hbond>
0.0000

> <Gold.Chemscore.DEClash>
0.0025

> <Gold.Chemscore.DEInternal>
1.7635

> <Gold.Chemscore.Rot>
1.9222

> <Gold.Chemscore.Internal.Correction>
   9.000000E+99

> <Gold.Chemscore.Hbonds>
donor molecule, donor type, donor heavy atom, donor atom, acceptor molecule, acceptor atom, score
      L1  H    13    38       P1  7948  0.85
      L1  H    16    39       P1  7948  0.93
      L1  H    19    42       P1  7948  0.54

> <Gold.Chemscore.Hbond.Weighted>
-9.0723

> <Gold.Chemscore.Metal.Weighted>
-0.0000

> <Gold.Chemscore.Lipo.Weighted>
-10.0427

> <Gold.Chemscore.Internal_Hbond.Weighted>
0.0000

> <Gold.Chemscore.DEClash.Weighted>
0.0025

> <Gold.Chemscore.DEInternal.Weighted>
1.7635

> <Gold.Chemscore.Rot.Weighted>
4.9208

> <Gold.Chemscore.Internal.Correction.Weighted>
   9.000000E+99

> <Gold.Protein.RotatedTorsions>
[ 6907 6896 6895 6894 ] final  167.46 input  -60.11 | X-H torsion
[ 7974 7965 7964 7962 ] final -146.36 input  175.53 | X-H torsion
[ 8008 7997 7996 7995 ] final   45.53 input   59.86 | X-H torsion
[ 10167 10162 10161 10158 ] final  175.68 input  -65.29 | X-H torsion
[ 10718 10713 10712 10709 ] final  -47.10 input   66.30 | X-H torsion
[ 10763 10752 10751 10750 ] final  -89.86 input  -60.55 | X-H torsion
[ 11005 11000 10999 10996 ] final  140.56 input  -57.11 | X-H torsion

> <Gold.Protein.ActiveResidues>
 VAL166  LYS551  ARG553  GLY616  TRP617  ASP618  TYR619  PRO620  LYS621  CYS622 
 ASP623  PHE694  ASN695  SER759  ASP760  ASP761  ALA762  ILE779  LEU786  VAL792 
 PHE793  MET794  SER795  GLU796  ALA797  LYS798  CYS799  TRP800  GLU811  SER814 

> <Gold.Protein.RotatedAtoms>
  151.8630  133.3461  159.3709 H   0  0  0  0  0  0  0  0  0  0  0  0  # atno 6907 bound_to 6896
  150.7174  134.5187  159.5652 H   0  0  0  0  0  0  0  0  0  0  0  0  # atno 6908 bound_to 6896
  152.2705  134.7939  160.0466 H   0  0  0  0  0  0  0  0  0  0  0  0  # atno 6909 bound_to 6896
  144.8165  140.5466  143.5607 H   0  0  0  0  0  0  0  0  0  0  0  0  # atno 7974 bound_to 7965
  155.3375  140.3406  155.4239 H   0  0  0  0  0  0  0  0  0  0  0  0  # atno 8008 bound_to 7997
  156.1830  140.1671  156.8274 H   0  0  0  0  0  0  0  0  0  0  0  0  # atno 8009 bound_to 7997
  154.5355  140.0736  156.8403 H   0  0  0  0  0  0  0  0  0  0  0  0  # atno 8010 bound_to 7997
  139.5186  144.3003  152.0384 H   0  0  0  0  0  0  0  0  0  0  0  0  # atno 10167 bound_to 10162
  156.2118  130.4161  149.9105 H   0  0  0  0  0  0  0  0  0  0  0  0  # atno 10718 bound_to 10713
  154.6597  135.5325  153.8003 H   0  0  0  0  0  0  0  0  0  0  0  0  # atno 10763 bound_to 10752
  153.0434  135.6502  154.0890 H   0  0  0  0  0  0  0  0  0  0  0  0  # atno 10764 bound_to 10752
  154.0800  135.2947  155.3272 H   0  0  0  0  0  0  0  0  0  0  0  0  # atno 10765 bound_to 10752
  140.0336  134.9340  157.0710 H   0  0  0  0  0  0  0  0  0  0  0  0  # atno 11005 bound_to 11000
  145.5203  139.1477  143.3556 LP  0  0  0  0  0  0  0  0  0  0  0  0  # atno 17320 bound_to 7965
  146.2468  140.5344  142.8910 LP  0  0  0  0  0  0  0  0  0  0  0  0  # atno 17321 bound_to 7965
  140.2451  144.4228  150.6244 LP  0  0  0  0  0  0  0  0  0  0  0  0  # atno 17342 bound_to 10162
  140.6264  143.2182  151.6588 LP  0  0  0  0  0  0  0  0  0  0  0  0  # atno 17343 bound_to 10162
  156.6781  130.8847  151.3572 LP  0  0  0  0  0  0  0  0  0  0  0  0  # atno 17370 bound_to 10713
  157.7042  130.9367  150.0879 LP  0  0  0  0  0  0  0  0  0  0  0  0  # atno 17371 bound_to 10713
  140.4184  134.1906  155.7164 LP  0  0  0  0  0  0  0  0  0  0  0  0  # atno 17394 bound_to 11000
  141.1845  133.8343  157.1138 LP  0  0  0  0  0  0  0  0  0  0  0  0  # atno 17395 bound_to 11000

$$$$
