AV-unprocessed.smi:2120|AV-procd|sdf|8639|dock10
  -GOLD-   2272011383D 1   1.00000     0.00000
 Structure written by MMmdl.
 46 49  0  0  0  0  0  0  0  0  2 V2000
  148.5000  142.0319  158.0290 O   0  0  0  0  0  0  0  0  0  0  0  0
  149.5983  142.2331  157.5088 C   0  0  0  0  0  0  0  0  0  0  0  0
  149.8833  141.8185  156.2626 N   0  0  0  0  0  0  0  0  0  0  0  0
  148.9682  141.0927  155.3900 C   0  0  0  0  0  0  0  0  0  0  0  0
  148.2663  142.0307  154.3927 C   0  0  0  0  0  0  0  0  0  0  0  0
  146.8444  142.3530  154.8095 C   0  0  0  0  0  0  0  0  0  0  0  0
  146.4690  142.2978  156.1702 C   0  0  0  0  0  0  0  0  0  0  0  0
  145.1409  142.6019  156.5345 C   0  0  0  0  0  0  0  0  0  0  0  0
  144.2181  142.9574  155.5297 C   0  0  0  0  0  0  0  0  0  0  0  0
  144.6138  143.0012  154.2384 N   0  3  0  0  0  0  0  0  0  0  0  0
  145.8756  142.7151  153.8484 C   0  0  0  0  0  0  0  0  0  0  0  0
  150.6916  142.9908  158.2990 C   0  0  0  0  0  0  0  0  0  0  0  0
  150.0127  143.9481  159.3163 C   0  0  0  0  0  0  0  0  0  0  0  0
  151.0792  144.6816  160.1584 C   0  0  1  0  0  0  0  0  0  0  0  0
  151.9224  143.6491  160.9355 C   0  0  0  0  0  0  0  0  0  0  0  0
  152.6204  142.7058  159.9336 C   0  0  2  0  0  0  0  0  0  0  0  0
  153.5417  143.5246  159.0063 C   0  0  0  0  0  0  0  0  0  0  0  0
  152.6961  144.5587  158.2347 C   0  0  2  0  0  0  0  0  0  0  0  0
  151.9962  145.5062  159.2312 C   0  0  0  0  0  0  0  0  0  0  0  0
  151.6346  143.8289  157.3843 C   0  0  0  0  0  0  0  0  0  0  0  0
  151.5569  141.9703  159.0901 C   0  0  0  0  0  0  0  0  0  0  0  0
  150.8043  142.0162  155.8985 H   0  0  0  0  0  0  0  0  0  0  0  0
  149.5410  140.3380  154.8503 H   0  0  0  0  0  0  0  0  0  0  0  0
  148.2363  140.5542  155.9943 H   0  0  0  0  0  0  0  0  0  0  0  0
  148.8151  142.9687  154.3004 H   0  0  0  0  0  0  0  0  0  0  0  0
  148.2603  141.5806  153.3989 H   0  0  0  0  0  0  0  0  0  0  0  0
  147.1902  142.0234  156.9267 H   0  0  0  0  0  0  0  0  0  0  0  0
  144.8351  142.5631  157.5700 H   0  0  0  0  0  0  0  0  0  0  0  0
  143.1839  143.2061  155.7186 H   0  0  0  0  0  0  0  0  0  0  0  0
  146.0688  142.7850  152.7877 H   0  0  0  0  0  0  0  0  0  0  0  0
  149.3913  144.6775  158.7941 H   0  0  0  0  0  0  0  0  0  0  0  0
  149.3428  143.3970  159.9787 H   0  0  0  0  0  0  0  0  0  0  0  0
  150.5850  145.3494  160.8648 H   0  0  0  0  0  0  0  0  0  0  0  0
  152.6619  144.1552  161.5572 H   0  0  0  0  0  0  0  0  0  0  0  0
  151.2884  143.0773  161.6142 H   0  0  0  0  0  0  0  0  0  0  0  0
  153.2159  141.9743  160.4807 H   0  0  0  0  0  0  0  0  0  0  0  0
  154.3145  144.0272  159.5894 H   0  0  0  0  0  0  0  0  0  0  0  0
  154.0604  142.8644  158.3100 H   0  0  0  0  0  0  0  0  0  0  0  0
  153.3465  145.1398  157.5801 H   0  0  0  0  0  0  0  0  0  0  0  0
  151.4154  146.2579  158.6953 H   0  0  0  0  0  0  0  0  0  0  0  0
  152.7363  146.0509  159.8188 H   0  0  0  0  0  0  0  0  0  0  0  0
  152.1324  143.1876  156.6550 H   0  0  0  0  0  0  0  0  0  0  0  0
  151.0662  144.5653  156.8139 H   0  0  0  0  0  0  0  0  0  0  0  0
  150.9353  141.3609  159.7482 H   0  0  0  0  0  0  0  0  0  0  0  0
  152.0456  141.2760  158.4048 H   0  0  0  0  0  0  0  0  0  0  0  0
  143.9303  143.2623  153.5270 H   0  0  0  0  0  0  0  0  0  0  0  0
  1  2  2  0  0  0  0
  2  3  1  0  0  0  0
  2 12  1  0  0  0  0
  3  4  1  0  0  0  0
  3 22  1  0  0  0  0
  4  5  1  0  0  0  0
  4 23  1  0  0  0  0
  4 24  1  0  0  0  0
  5  6  1  0  0  0  0
  5 25  1  0  0  0  0
  5 26  1  0  0  0  0
  6 11  1  0  0  0  0
  6  7  2  0  0  0  0
  7  8  1  0  0  0  0
  7 27  1  0  0  0  0
  8  9  2  0  0  0  0
  8 28  1  0  0  0  0
  9 10  1  0  0  0  0
  9 29  1  0  0  0  0
 10 11  2  0  0  0  0
 10 46  1  0  0  0  0
 11 30  1  0  0  0  0
 12 20  1  0  0  0  0
 12 21  1  0  0  0  0
 12 13  1  0  0  0  0
 13 14  1  0  0  0  0
 13 31  1  0  0  0  0
 13 32  1  0  0  0  0
 14 19  1  0  0  0  0
 14 15  1  0  0  0  0
 14 33  1  0  0  0  0
 15 16  1  0  0  0  0
 15 34  1  0  0  0  0
 15 35  1  0  0  0  0
 16 17  1  0  0  0  0
 16 21  1  0  0  0  0
 16 36  1  0  0  0  0
 17 18  1  0  0  0  0
 17 37  1  0  0  0  0
 17 38  1  0  0  0  0
 18 19  1  0  0  0  0
 18 20  1  0  0  0  0
 18 39  1  0  0  0  0
 19 40  1  0  0  0  0
 19 41  1  0  0  0  0
 20 42  1  0  0  0  0
 20 43  1  0  0  0  0
 21 44  1  0  0  0  0
 21 45  1  0  0  0  0
M  CHG  1  10   1
M  END
> <s_m_source_file>
AV-unprocessed.smi

> <i_m_source_file_index>
2120

> <i_lp_mmshare_version>
43012

> <i_f3d_flags>
0

> <s_epik_input>
W0NIMl0xW0NASF0oW0NIMl0yKVtDSDJdW0NASF0oW0NIMl0zKVtDSDJdW0NAQEhdMVtDSDJdQzIzQyg9TylbTkhdW0NIMl1bQ0gyXWM0W2NIXVtjSF1bY0hdbltjSF00

> <s_epik_cmdline>
J2VwaWtfcHl0aG9uJywgJy1waCcsICc3LjAnLCAnLXRuJywgJzgnLCAnLW1hJywgJzIwMCcsICctbWV0YWxfYmluZGluZycsICctaW1hZScsICc8aW5maWxlLm1hZT4nLCAnLW9tYWUnLCAnPG91dGZpbGUubWFlPic=

> <r_epik_Ionization_Penalty>
2.23732

> <r_epik_Ionization_Penalty_Charging>
2.23732

> <r_epik_Ionization_Penalty_Neutral>
2.68417e-08

> <r_epik_State_Penalty>
2.38345

> <r_epik_Charging_Adjusted_Penalty>
4.62076

> <i_epik_Tot_Q>
1

> <i_epik_Tot_abs_Q>
1

> <r_epik_Metal_State_Penalty>
2.39692

> <b_epik_Metal_Only>
0

> <s_lp_Force_Field>
OPLS_2005

> <r_lp_Energy>
42.1143

> <b_lp_Chiralities_Consistent>
1

> <s_lp_Variant>
AV-unprocessed.smi:2120-2

> <Gold.Version>
5.8.1

> <Gold.Id.Protein>
6NUR|6NUR_protein|mol2

> <Gold.PLP.Fitness>
47.3310

> <Gold.PLP.PLP>
-45.9975

> <Gold.PLP.part.hbond>
-2.2324

> <Gold.PLP.part.metal>
0.0000

> <Gold.PLP.part.buried>
-2.0478

> <Gold.PLP.part.nonpolar>
-41.5670

> <Gold.PLP.part.repulsive>
0.2154

> <Gold.PLP.ligand.clash>
0.0000

> <Gold.PLP.ligand.torsion>
1.9294

> <Gold.PLP.Chemscore.Hbond>
1.7280

> <Gold.PLP.Chemscore.CHOScore>
0.0000

> <Gold.PLP.Chemscore.Metal>
0.0000

> <Gold.Chemscore.Hbonds>
donor molecule, donor type, donor heavy atom, donor atom, acceptor molecule, acceptor atom, score
      L1  H    10    46       P1 10174  1.73

> <Gold.PLP.Chemscore.Internal.Correction>
0.0083

> <Gold.Rescore>
     Score         DG    S(hbond)    S(metal)    S(lipo)     H(rot)  DE(clash)    DE(int)     intcor
     16.40     -19.79       0.11        0.00     150.03       1.41       0.60       2.79       ----

> <Gold.Chemscore.Fitness>
16.4006

> <Gold.Chemscore.DG>
-19.7910

> <Gold.Chemscore.ZeroCoef>
-5.4800

> <Gold.Chemscore.Hbond>
0.1134

> <Gold.Chemscore.Metal>
0.0000

> <Gold.Chemscore.Lipo>
150.0285

> <Gold.Chemscore.Internal_Hbond>
0.0000

> <Gold.Chemscore.DEClash>
0.6035

> <Gold.Chemscore.DEInternal>
2.7869

> <Gold.Chemscore.Rot>
1.4145

> <Gold.Chemscore.Internal.Correction>
   9.000000E+99

> <Gold.Chemscore.Hbonds>
donor molecule, donor type, donor heavy atom, donor atom, acceptor molecule, acceptor atom, score
      L1  H    10    46       P1 10174  0.20

> <Gold.Chemscore.Hbond.Weighted>
-0.3787

> <Gold.Chemscore.Metal.Weighted>
-0.0000

> <Gold.Chemscore.Lipo.Weighted>
-17.5533

> <Gold.Chemscore.Internal_Hbond.Weighted>
0.0000

> <Gold.Chemscore.DEClash.Weighted>
0.6035

> <Gold.Chemscore.DEInternal.Weighted>
2.7869

> <Gold.Chemscore.Rot.Weighted>
3.6210

> <Gold.Chemscore.Internal.Correction.Weighted>
   9.000000E+99

> <Gold.Protein.RotatedTorsions>
[ 6907 6896 6895 6894 ] final   20.25 input  -60.11 | X-H torsion
[ 7974 7965 7964 7962 ] final -109.33 input  175.53 | X-H torsion
[ 8008 7997 7996 7995 ] final   52.54 input   59.86 | X-H torsion
[ 10167 10162 10161 10158 ] final   -3.10 input  -65.29 | X-H torsion
[ 10718 10713 10712 10709 ] final   32.74 input   66.30 | X-H torsion
[ 10763 10752 10751 10750 ] final  165.50 input  -60.55 | X-H torsion
[ 11005 11000 10999 10996 ] final -132.14 input  -57.11 | X-H torsion

> <Gold.Protein.ActiveResidues>
 VAL166  LYS551  ARG553  GLY616  TRP617  ASP618  TYR619  PRO620  LYS621  CYS622 
 ASP623  PHE694  ASN695  SER759  ASP760  ASP761  ALA762  ILE779  LEU786  VAL792 
 PHE793  MET794  SER795  GLU796  ALA797  LYS798  CYS799  TRP800  GLU811  SER814 

> <Gold.Protein.RotatedAtoms>
  151.8935  135.0407  160.0499 H   0  0  0  0  0  0  0  0  0  0  0  0  # atno 6907 bound_to 6896
  152.2416  133.5136  159.5282 H   0  0  0  0  0  0  0  0  0  0  0  0  # atno 6908 bound_to 6896
  150.7055  134.0997  159.4004 H   0  0  0  0  0  0  0  0  0  0  0  0  # atno 6909 bound_to 6896
  145.1818  140.8974  143.3475 H   0  0  0  0  0  0  0  0  0  0  0  0  # atno 7974 bound_to 7965
  155.4535  140.3459  155.4303 H   0  0  0  0  0  0  0  0  0  0  0  0  # atno 8008 bound_to 7997
  156.1206  140.1486  156.9240 H   0  0  0  0  0  0  0  0  0  0  0  0  # atno 8009 bound_to 7997
  154.4820  140.0867  156.7379 H   0  0  0  0  0  0  0  0  0  0  0  0  # atno 8010 bound_to 7997
  140.6877  143.6580  150.8292 H   0  0  0  0  0  0  0  0  0  0  0  0  # atno 10167 bound_to 10162
  157.2891  130.7293  149.6600 H   0  0  0  0  0  0  0  0  0  0  0  0  # atno 10718 bound_to 10713
  154.3250  135.2755  155.2500 H   0  0  0  0  0  0  0  0  0  0  0  0  # atno 10763 bound_to 10752
  154.4837  135.5851  153.6412 H   0  0  0  0  0  0  0  0  0  0  0  0  # atno 10764 bound_to 10752
  152.9872  135.6117  154.3438 H   0  0  0  0  0  0  0  0  0  0  0  0  # atno 10765 bound_to 10752
  140.9197  134.1461  157.4324 H   0  0  0  0  0  0  0  0  0  0  0  0  # atno 11005 bound_to 11000
  145.0129  139.3494  143.6111 LP  0  0  0  0  0  0  0  0  0  0  0  0  # atno 17320 bound_to 7965
  146.3452  139.9398  142.8742 LP  0  0  0  0  0  0  0  0  0  0  0  0  # atno 17321 bound_to 7965
  140.0289  143.5464  152.2769 LP  0  0  0  0  0  0  0  0  0  0  0  0  # atno 17342 bound_to 10162
  139.6250  144.7635  151.2658 LP  0  0  0  0  0  0  0  0  0  0  0  0  # atno 17343 bound_to 10162
  155.9666  130.4314  150.4920 LP  0  0  0  0  0  0  0  0  0  0  0  0  # atno 17370 bound_to 10713
  157.2879  131.0620  151.2153 LP  0  0  0  0  0  0  0  0  0  0  0  0  # atno 17371 bound_to 10713
  139.8773  134.9966  156.5806 LP  0  0  0  0  0  0  0  0  0  0  0  0  # atno 17394 bound_to 11000
  140.8004  133.8510  155.8722 LP  0  0  0  0  0  0  0  0  0  0  0  0  # atno 17395 bound_to 11000

$$$$
