AV-unprocessed.smi:862|AV-procd|sdf|3979|dock7
  -GOLD-   22720 1453D 1   1.00000     0.00000
 Structure written by MMmdl.
 44 46  0  0  0  0  0  0  0  0  2 V2000
  148.6181  138.6398  153.2547 N   0  0  0  0  0  0  0  0  0  0  0  0
  148.5350  138.3837  154.5638 C   0  0  0  0  0  0  0  0  0  0  0  0
  147.4444  138.2288  155.1100 O   0  0  0  0  0  0  0  0  0  0  0  0
  149.7236  138.2677  155.2087 N   0  0  0  0  0  0  0  0  0  0  0  0
  151.0434  138.6296  154.6657 C   0  0  0  0  0  0  0  0  0  0  0  0
  151.4974  139.9511  155.3122 C   0  0  0  0  0  0  0  0  0  0  0  0
  151.5345  139.8374  156.8508 C   0  0  0  0  0  0  0  0  0  0  0  0
  151.8471  141.1551  157.4463 N   0  3  0  0  0  0  0  0  0  0  0  0
  152.1759  141.1469  158.8893 C   0  0  1  0  0  0  0  0  0  0  0  0
  153.1500  140.0290  159.2751 C   0  0  0  0  0  0  0  0  0  0  0  0
  153.8346  140.5144  160.5609 C   0  0  0  0  0  0  0  0  0  0  0  0
  153.5994  142.0315  160.6376 C   0  0  0  0  0  0  0  0  0  0  0  0
  152.9236  142.4152  159.3131 C   0  0  2  0  0  0  0  0  0  0  0  0
  152.0614  143.5831  159.4126 N   0  0  0  0  0  0  0  0  0  0  0  0
  151.3650  144.1897  158.3748 C   0  0  0  0  0  0  0  0  0  0  0  0
  150.6709  145.2430  158.9261 C   0  0  0  0  0  0  0  0  0  0  0  0
  150.9197  145.3025  160.2945 N   0  0  0  0  0  0  0  0  0  0  0  0
  151.7498  144.2910  160.5094 C   0  0  0  0  0  0  0  0  0  0  0  0
  150.1994  139.2751  157.3912 C   0  0  0  0  0  0  0  0  0  0  0  0
  149.7993  137.9876  156.6479 C   0  0  0  0  0  0  0  0  0  0  0  0
  147.7725  138.7281  152.7097 H   0  0  0  0  0  0  0  0  0  0  0  0
  149.5205  138.7336  152.8123 H   0  0  0  0  0  0  0  0  0  0  0  0
  151.7558  137.8367  154.8977 H   0  0  0  0  0  0  0  0  0  0  0  0
  151.0623  138.7261  153.5805 H   0  0  0  0  0  0  0  0  0  0  0  0
  152.4823  140.2277  154.9342 H   0  0  0  0  0  0  0  0  0  0  0  0
  150.8159  140.7493  155.0136 H   0  0  0  0  0  0  0  0  0  0  0  0
  152.3346  139.1414  157.1061 H   0  0  0  0  0  0  0  0  0  0  0  0
  152.6370  141.5495  156.9557 H   0  0  0  0  0  0  0  0  0  0  0  0
  151.2683  141.0494  159.4855 H   0  0  0  0  0  0  0  0  0  0  0  0
  152.6525  139.0682  159.4109 H   0  0  0  0  0  0  0  0  0  0  0  0
  153.9018  139.9021  158.4944 H   0  0  0  0  0  0  0  0  0  0  0  0
  153.4018  140.0259  161.4347 H   0  0  0  0  0  0  0  0  0  0  0  0
  154.8980  140.2738  160.5490 H   0  0  0  0  0  0  0  0  0  0  0  0
  152.9527  142.2488  161.4884 H   0  0  0  0  0  0  0  0  0  0  0  0
  154.5275  142.5833  160.7897 H   0  0  0  0  0  0  0  0  0  0  0  0
  153.7060  142.6274  158.5816 H   0  0  0  0  0  0  0  0  0  0  0  0
  151.4179  143.8334  157.3565 H   0  0  0  0  0  0  0  0  0  0  0  0
  150.0150  145.9554  158.4475 H   0  0  0  0  0  0  0  0  0  0  0  0
  152.1368  144.0579  161.4907 H   0  0  0  0  0  0  0  0  0  0  0  0
  150.2718  139.0657  158.4584 H   0  0  0  0  0  0  0  0  0  0  0  0
  149.4090  140.0188  157.2756 H   0  0  0  0  0  0  0  0  0  0  0  0
  148.8615  137.6005  157.0493 H   0  0  0  0  0  0  0  0  0  0  0  0
  150.5392  137.2058  156.8256 H   0  0  0  0  0  0  0  0  0  0  0  0
  151.0491  141.7570  157.3002 H   0  0  0  0  0  0  0  0  0  0  0  0
  1  2  1  0  0  0  0
  1 21  1  0  0  0  0
  1 22  1  0  0  0  0
  2  3  2  0  0  0  0
  2  4  1  0  0  0  0
  4 20  1  0  0  0  0
  4  5  1  0  0  0  0
  5  6  1  0  0  0  0
  5 23  1  0  0  0  0
  5 24  1  0  0  0  0
  6  7  1  0  0  0  0
  6 25  1  0  0  0  0
  6 26  1  0  0  0  0
  7  8  1  0  0  0  0
  7 19  1  0  0  0  0
  7 27  1  0  0  0  0
  8  9  1  0  0  0  0
  8 28  1  0  0  0  0
  8 44  1  0  0  0  0
  9 13  1  0  0  0  0
  9 10  1  0  0  0  0
  9 29  1  0  0  0  0
 10 11  1  0  0  0  0
 10 30  1  0  0  0  0
 10 31  1  0  0  0  0
 11 12  1  0  0  0  0
 11 32  1  0  0  0  0
 11 33  1  0  0  0  0
 12 13  1  0  0  0  0
 12 34  1  0  0  0  0
 12 35  1  0  0  0  0
 13 14  1  0  0  0  0
 13 36  1  0  0  0  0
 14 18  1  0  0  0  0
 14 15  1  0  0  0  0
 15 16  2  0  0  0  0
 15 37  1  0  0  0  0
 16 17  1  0  0  0  0
 16 38  1  0  0  0  0
 17 18  2  0  0  0  0
 18 39  1  0  0  0  0
 19 20  1  0  0  0  0
 19 40  1  0  0  0  0
 19 41  1  0  0  0  0
 20 42  1  0  0  0  0
 20 43  1  0  0  0  0
M  CHG  1   8   1
M  END
> <s_m_source_file>
AV-unprocessed.smi

> <i_m_source_file_index>
862

> <i_lp_mmshare_version>
43012

> <i_f3d_flags>
0

> <s_epik_input>
W05IMl1DKD1PKU4xW0NIMl1bQ0gyXVtDSF0oW0NIMl1bQ0gyXTEpW05IXVtDQEBIXTJbQ0gyXVtDSDJdW0NIMl1bQ0BIXTJuM1tjSF1bY0hdbltjSF0z

> <s_epik_cmdline>
J2VwaWtfcHl0aG9uJywgJy1waCcsICc3LjAnLCAnLXRuJywgJzgnLCAnLW1hJywgJzIwMCcsICctbWV0YWxfYmluZGluZycsICctaW1hZScsICc8aW5maWxlLm1hZT4nLCAnLW9tYWUnLCAnPG91dGZpbGUubWFlPic=

> <r_lp_tautomer_probability>
1

> <r_epik_Ionization_Penalty>
0.0731506

> <r_epik_Ionization_Penalty_Charging>
0.0731

> <r_epik_Ionization_Penalty_Neutral>
5.05966e-05

> <r_epik_State_Penalty>
0.128895

> <r_epik_Charging_Adjusted_Penalty>
0.201995

> <i_epik_Tot_Q>
1

> <i_epik_Tot_abs_Q>
1

> <r_epik_Metal_State_Penalty>
0.113934

> <b_epik_Metal_Only>
0

> <s_lp_Force_Field>
OPLS_2005

> <r_lp_Energy>
55.4297

> <b_lp_Chiralities_Consistent>
1

> <s_lp_Variant>
AV-unprocessed.smi:862-4

> <Gold.Version>
5.8.1

> <Gold.Id.Protein>
6NUR|6NUR_protein|mol2

> <Gold.PLP.Fitness>
44.2936

> <Gold.PLP.PLP>
-40.8641

> <Gold.PLP.part.hbond>
-2.0000

> <Gold.PLP.part.metal>
0.0000

> <Gold.PLP.part.buried>
-3.4151

> <Gold.PLP.part.nonpolar>
-35.7511

> <Gold.PLP.part.repulsive>
0.4268

> <Gold.PLP.ligand.clash>
0.0000

> <Gold.PLP.ligand.torsion>
0.2479

> <Gold.PLP.Chemscore.Hbond>
0.3013

> <Gold.PLP.Chemscore.CHOScore>
0.9902

> <Gold.PLP.Chemscore.Metal>
0.0000

> <Gold.Chemscore.Hbonds>
donor molecule, donor type, donor heavy atom, donor atom, acceptor molecule, acceptor atom, score
      L1  H     1    22       P1  7957  0.28
      L1  C    16    38       P1  8029  1.00

> <Gold.PLP.Chemscore.Internal.Correction>
0.0508

> <Gold.Rescore>
     Score         DG    S(hbond)    S(metal)    S(lipo)     H(rot)  DE(clash)    DE(int)     intcor
     14.07     -14.26       0.87        0.00      86.21       1.64       0.05       0.14       ----

> <Gold.Chemscore.Fitness>
14.0681

> <Gold.Chemscore.DG>
-14.2557

> <Gold.Chemscore.ZeroCoef>
-5.4800

> <Gold.Chemscore.Hbond>
0.8655

> <Gold.Chemscore.Metal>
0.0000

> <Gold.Chemscore.Lipo>
86.2080

> <Gold.Chemscore.Internal_Hbond>
0.0000

> <Gold.Chemscore.DEClash>
0.0456

> <Gold.Chemscore.DEInternal>
0.1420

> <Gold.Chemscore.Rot>
1.6411

> <Gold.Chemscore.Internal.Correction>
   9.000000E+99

> <Gold.Chemscore.Hbonds>
donor molecule, donor type, donor heavy atom, donor atom, acceptor molecule, acceptor atom, score
      L1  H     1    22       P1  7957  0.25

> <Gold.Chemscore.Hbond.Weighted>
-2.8907

> <Gold.Chemscore.Metal.Weighted>
-0.0000

> <Gold.Chemscore.Lipo.Weighted>
-10.0863

> <Gold.Chemscore.Internal_Hbond.Weighted>
0.0000

> <Gold.Chemscore.DEClash.Weighted>
0.0456

> <Gold.Chemscore.DEInternal.Weighted>
0.1420

> <Gold.Chemscore.Rot.Weighted>
4.2013

> <Gold.Chemscore.Internal.Correction.Weighted>
   9.000000E+99

> <Gold.Protein.RotatedTorsions>
[ 6907 6896 6895 6894 ] final  124.97 input  -60.11 | X-H torsion
[ 7974 7965 7964 7962 ] final -134.19 input  175.53 | X-H torsion
[ 8008 7997 7996 7995 ] final -135.85 input   59.86 | X-H torsion
[ 10167 10162 10161 10158 ] final  -93.85 input  -65.29 | X-H torsion
[ 10718 10713 10712 10709 ] final  -88.20 input   66.30 | X-H torsion
[ 10763 10752 10751 10750 ] final  106.62 input  -60.55 | X-H torsion
[ 11005 11000 10999 10996 ] final -133.50 input  -57.11 | X-H torsion

> <Gold.Protein.ActiveResidues>
 VAL166  LYS551  ARG553  GLY616  TRP617  ASP618  TYR619  PRO620  LYS621  CYS622 
 ASP623  PHE694  ASN695  SER759  ASP760  ASP761  ALA762  ILE779  LEU786  VAL792 
 PHE793  MET794  SER795  GLU796  ALA797  LYS798  CYS799  TRP800  GLU811  SER814 

> <Gold.Protein.RotatedAtoms>
  152.4032  133.6849  159.6333 H   0  0  0  0  0  0  0  0  0  0  0  0  # atno 6907 bound_to 6896
  150.7920  133.8755  159.3279 H   0  0  0  0  0  0  0  0  0  0  0  0  # atno 6908 bound_to 6896
  151.6515  135.1002  160.0213 H   0  0  0  0  0  0  0  0  0  0  0  0  # atno 6909 bound_to 6896
  144.9125  140.6913  143.5016 H   0  0  0  0  0  0  0  0  0  0  0  0  # atno 7974 bound_to 7965
  155.3856  140.0496  157.3042 H   0  0  0  0  0  0  0  0  0  0  0  0  # atno 8008 bound_to 7997
  154.5061  140.2175  155.9210 H   0  0  0  0  0  0  0  0  0  0  0  0  # atno 8009 bound_to 7997
  156.1527  140.3132  155.8680 H   0  0  0  0  0  0  0  0  0  0  0  0  # atno 8010 bound_to 7997
  140.3205  143.3052  152.0052 H   0  0  0  0  0  0  0  0  0  0  0  0  # atno 10167 bound_to 10162
  155.9984  130.4827  150.4983 H   0  0  0  0  0  0  0  0  0  0  0  0  # atno 10718 bound_to 10713
  153.3955  135.3871  155.1952 H   0  0  0  0  0  0  0  0  0  0  0  0  # atno 10763 bound_to 10752
  154.8724  135.3758  154.4684 H   0  0  0  0  0  0  0  0  0  0  0  0  # atno 10764 bound_to 10752
  153.5175  135.7087  153.5810 H   0  0  0  0  0  0  0  0  0  0  0  0  # atno 10765 bound_to 10752
  140.9075  134.1611  157.4414 H   0  0  0  0  0  0  0  0  0  0  0  0  # atno 11005 bound_to 11000
  145.3431  139.1727  143.4475 LP  0  0  0  0  0  0  0  0  0  0  0  0  # atno 17320 bound_to 7965
  146.3165  140.3474  142.8653 LP  0  0  0  0  0  0  0  0  0  0  0  0  # atno 17321 bound_to 7965
  139.4875  144.6315  151.7061 LP  0  0  0  0  0  0  0  0  0  0  0  0  # atno 17342 bound_to 10162
  140.5488  144.0459  150.6118 LP  0  0  0  0  0  0  0  0  0  0  0  0  # atno 17343 bound_to 10162
  157.2971  131.0638  151.2094 LP  0  0  0  0  0  0  0  0  0  0  0  0  # atno 17370 bound_to 10713
  157.3087  130.6878  149.6203 LP  0  0  0  0  0  0  0  0  0  0  0  0  # atno 17371 bound_to 10713
  139.8752  134.9922  156.5588 LP  0  0  0  0  0  0  0  0  0  0  0  0  # atno 17394 bound_to 11000
  140.8152  133.8397  155.8846 LP  0  0  0  0  0  0  0  0  0  0  0  0  # atno 17395 bound_to 11000

$$$$
