AV-unprocessed.smi:149|AV-procd|sdf|1238|dock7
  -GOLD-   2262018453D 1   1.00000     0.00000
 Structure written by MMmdl.
 59 63  0  0  0  0  0  0  0  0  1 V2000
  154.0612  140.3120  160.0254 C   0  0  0  0  0  0  0  0  0  0  0  0
  152.6430  140.4361  159.4395 C   0  0  2  0  0  0  0  0  0  0  0  0
  152.3360  139.2507  158.5062 C   0  0  0  0  0  0  0  0  0  0  0  0
  151.9738  139.8164  157.2202 N   0  0  0  0  0  0  0  0  0  0  0  0
  151.3714  139.0517  156.2701 C   0  0  0  0  0  0  0  0  0  0  0  0
  151.0537  139.6262  155.0787 N   0  0  0  0  0  0  0  0  0  0  0  0
  150.4702  138.9139  154.1116 C   0  0  0  0  0  0  0  0  0  0  0  0
  150.1269  137.6258  154.1172 N   0  0  0  0  0  0  0  0  0  0  0  0
  150.4515  137.0338  155.3017 C   0  0  0  0  0  0  0  0  0  0  0  0
  151.0635  137.6659  156.4235 C   0  0  0  0  0  0  0  0  0  0  0  0
  151.2247  136.7362  157.4459 N   0  0  0  0  0  0  0  0  0  0  0  0
  150.7308  135.6299  156.9624 C   0  0  0  0  0  0  0  0  0  0  0  0
  150.2725  135.7112  155.6679 N   0  0  0  0  0  0  0  0  0  0  0  0
  149.6574  134.6648  154.9049 C   0  0  0  0  0  0  0  0  0  0  0  0
  148.3558  134.0005  155.3663 C   0  0  0  0  0  0  0  0  0  0  0  0
  148.8302  132.6669  154.7421 C   0  0  0  0  0  0  0  0  0  0  0  0
  148.5416  131.3722  155.5279 C   0  0  0  0  0  0  0  0  0  0  0  0
  149.4071  130.3137  155.1689 O   0  0  0  0  0  0  0  0  0  0  0  0
  148.3898  132.4219  153.2864 C   0  0  0  0  0  0  0  0  0  0  0  0
  148.8658  131.1828  152.8018 O   0  0  0  0  0  0  0  0  0  0  0  0
  150.2535  133.2536  154.8795 C   0  0  0  0  0  0  0  0  0  0  0  0
  151.5779  141.1970  157.4185 C   0  0  0  0  0  0  0  0  0  0  0  0
  152.4263  141.7144  158.5896 C   0  0  1  0  0  0  0  0  0  0  0  0
  151.8037  142.8566  159.2802 N   0  0  0  0  0  0  0  0  0  0  0  0
  151.7147  144.0315  158.4103 C   0  0  0  0  0  0  0  0  0  0  0  0
  151.0734  145.2374  159.1180 C   0  0  0  0  0  0  0  0  0  0  0  0
  151.8146  145.5485  160.2913 O   0  0  0  0  0  0  0  0  0  0  0  0
  151.8794  144.4530  161.1961 C   0  0  0  0  0  0  0  0  0  0  0  0
  152.5170  143.2389  160.4984 C   0  0  0  0  0  0  0  0  0  0  0  0
  154.8133  140.2965  159.2357 H   0  0  0  0  0  0  0  0  0  0  0  0
  154.1643  139.3892  160.5969 H   0  0  0  0  0  0  0  0  0  0  0  0
  154.3074  141.1350  160.6937 H   0  0  0  0  0  0  0  0  0  0  0  0
  151.9159  140.4140  160.2526 H   0  0  0  0  0  0  0  0  0  0  0  0
  153.2074  138.6062  158.3890 H   0  0  0  0  0  0  0  0  0  0  0  0
  151.5188  138.6463  158.9024 H   0  0  0  0  0  0  0  0  0  0  0  0
  150.2515  139.4523  153.2011 H   0  0  0  0  0  0  0  0  0  0  0  0
  150.6968  134.7173  157.5397 H   0  0  0  0  0  0  0  0  0  0  0  0
  149.5511  135.0561  153.8917 H   0  0  0  0  0  0  0  0  0  0  0  0
  148.2710  133.9654  156.4538 H   0  0  0  0  0  0  0  0  0  0  0  0
  147.4547  134.4250  154.9229 H   0  0  0  0  0  0  0  0  0  0  0  0
  148.6476  131.5308  156.6013 H   0  0  0  0  0  0  0  0  0  0  0  0
  147.5175  131.0374  155.3592 H   0  0  0  0  0  0  0  0  0  0  0  0
  148.8836  129.5530  154.9677 H   0  0  0  0  0  0  0  0  0  0  0  0
  147.3036  132.4207  153.1934 H   0  0  0  0  0  0  0  0  0  0  0  0
  148.7493  133.2146  152.6295 H   0  0  0  0  0  0  0  0  0  0  0  0
  149.1204  131.2914  151.8982 H   0  0  0  0  0  0  0  0  0  0  0  0
  150.9133  133.0608  154.0329 H   0  0  0  0  0  0  0  0  0  0  0  0
  150.7472  132.9996  155.8188 H   0  0  0  0  0  0  0  0  0  0  0  0
  151.7435  141.7887  156.5173 H   0  0  0  0  0  0  0  0  0  0  0  0
  150.5146  141.2309  157.6628 H   0  0  0  0  0  0  0  0  0  0  0  0
  153.3933  142.0197  158.1857 H   0  0  0  0  0  0  0  0  0  0  0  0
  152.7106  144.3082  158.0608 H   0  0  0  0  0  0  0  0  0  0  0  0
  151.1255  143.8040  157.5222 H   0  0  0  0  0  0  0  0  0  0  0  0
  151.0688  146.1056  158.4590 H   0  0  0  0  0  0  0  0  0  0  0  0
  150.0350  145.0264  159.3783 H   0  0  0  0  0  0  0  0  0  0  0  0
  152.4700  144.7431  162.0651 H   0  0  0  0  0  0  0  0  0  0  0  0
  150.8786  144.2094  161.5558 H   0  0  0  0  0  0  0  0  0  0  0  0
  152.5180  142.4117  161.2066 H   0  0  0  0  0  0  0  0  0  0  0  0
  153.5592  143.4610  160.2643 H   0  0  0  0  0  0  0  0  0  0  0  0
  1  2  1  0  0  0  0
  1 30  1  0  0  0  0
  1 31  1  0  0  0  0
  1 32  1  0  0  0  0
  2 23  1  0  0  0  0
  2  3  1  0  0  0  0
  2 33  1  0  0  0  0
  3  4  1  0  0  0  0
  3 34  1  0  0  0  0
  3 35  1  0  0  0  0
  4  5  1  0  0  0  0
  4 22  1  0  0  0  0
  5 10  1  0  0  0  0
  5  6  2  0  0  0  0
  6  7  1  0  0  0  0
  7  8  2  0  0  0  0
  7 36  1  0  0  0  0
  8  9  1  0  0  0  0
  9 13  1  0  0  0  0
  9 10  2  0  0  0  0
 10 11  1  0  0  0  0
 11 12  2  0  0  0  0
 12 13  1  0  0  0  0
 12 37  1  0  0  0  0
 13 14  1  0  0  0  0
 14 21  1  0  0  0  0
 14 15  1  0  0  0  0
 14 38  1  0  0  0  0
 15 16  1  0  0  0  0
 15 39  1  0  0  0  0
 15 40  1  0  0  0  0
 16 17  1  0  0  0  0
 16 19  1  0  0  0  0
 16 21  1  0  0  0  0
 17 18  1  0  0  0  0
 17 41  1  0  0  0  0
 17 42  1  0  0  0  0
 18 43  1  0  0  0  0
 19 20  1  0  0  0  0
 19 44  1  0  0  0  0
 19 45  1  0  0  0  0
 20 46  1  0  0  0  0
 21 47  1  0  0  0  0
 21 48  1  0  0  0  0
 22 23  1  0  0  0  0
 22 49  1  0  0  0  0
 22 50  1  0  0  0  0
 23 24  1  0  0  0  0
 23 51  1  0  0  0  0
 24 29  1  0  0  0  0
 24 25  1  0  0  0  0
 25 26  1  0  0  0  0
 25 52  1  0  0  0  0
 25 53  1  0  0  0  0
 26 27  1  0  0  0  0
 26 54  1  0  0  0  0
 26 55  1  0  0  0  0
 27 28  1  0  0  0  0
 28 29  1  0  0  0  0
 28 56  1  0  0  0  0
 28 57  1  0  0  0  0
 29 58  1  0  0  0  0
 29 59  1  0  0  0  0
M  END
> <s_m_source_file>
AV-unprocessed.smi

> <i_m_source_file_index>
149

> <i_lp_mmshare_version>
43012

> <i_f3d_flags>
0

> <s_epik_input>
W0NIMl0xW0NIMl1PW0NIMl1bQ0gyXU4xW0NAQEhdMltDSDJdTihbQ0gyXVtDQEhdMltDSDNdKWMobltjSF1uMyljKGMzNCluW2NIXW40W0NIXShbQ0gyXTUpW0NIMl1DNShbQ0gyXVtPSF0pW0NIMl1bT0hd

> <s_epik_cmdline>
J2VwaWtfcHl0aG9uJywgJy1waCcsICc3LjAnLCAnLXRuJywgJzgnLCAnLW1hJywgJzIwMCcsICctbWV0YWxfYmluZGluZycsICctaW1hZScsICc8aW5maWxlLm1hZT4nLCAnLW9tYWUnLCAnPG91dGZpbGUubWFlPic=

> <r_lp_tautomer_probability>
1

> <r_epik_Ionization_Penalty>
0.41918

> <r_epik_Ionization_Penalty_Charging>
0

> <r_epik_Ionization_Penalty_Neutral>
0.41918

> <r_epik_State_Penalty>
0.654916

> <r_epik_Charging_Adjusted_Penalty>
0.654916

> <i_epik_Tot_Q>
0

> <i_epik_Tot_abs_Q>
0

> <r_epik_Metal_State_Penalty>
0.653217

> <b_epik_Metal_Only>
0

> <s_lp_Force_Field>
OPLS_2005

> <r_lp_Energy>
75.7626

> <b_lp_Chiralities_Consistent>
1

> <s_lp_Variant>
AV-unprocessed.smi:149-5

> <Gold.Version>
5.8.1

> <Gold.Id.Protein>
6NUR|6NUR_protein|mol2

> <Gold.PLP.Fitness>
49.5787

> <Gold.PLP.PLP>
-43.9046

> <Gold.PLP.part.hbond>
-1.8197

> <Gold.PLP.part.metal>
0.0000

> <Gold.PLP.part.buried>
-7.0174

> <Gold.PLP.part.nonpolar>
-37.4318

> <Gold.PLP.part.repulsive>
2.1616

> <Gold.PLP.ligand.clash>
0.0000

> <Gold.PLP.ligand.torsion>
0.8739

> <Gold.PLP.Chemscore.Hbond>
1.1723

> <Gold.PLP.Chemscore.CHOScore>
1.0000

> <Gold.PLP.Chemscore.Metal>
0.0000

> <Gold.Chemscore.Hbonds>
donor molecule, donor type, donor heavy atom, donor atom, acceptor molecule, acceptor atom, score
      L1  H    20    46       P1 10747  1.00
      P1  H  7989  7998       L1     6  0.17
      L1  C     7    36       P1  7957  1.00

> <Gold.PLP.Chemscore.Internal.Correction>
0.9051

> <Gold.Rescore>
     Score         DG    S(hbond)    S(metal)    S(lipo)     H(rot)  DE(clash)    DE(int)     intcor
     10.69     -13.17       0.94        0.00     112.02       3.34       0.43       2.05       ----

> <Gold.Chemscore.Fitness>
10.6935

> <Gold.Chemscore.DG>
-13.1702

> <Gold.Chemscore.ZeroCoef>
-5.4800

> <Gold.Chemscore.Hbond>
0.9396

> <Gold.Chemscore.Metal>
0.0000

> <Gold.Chemscore.Lipo>
112.0219

> <Gold.Chemscore.Internal_Hbond>
0.0000

> <Gold.Chemscore.DEClash>
0.4285

> <Gold.Chemscore.DEInternal>
2.0482

> <Gold.Chemscore.Rot>
3.3416

> <Gold.Chemscore.Internal.Correction>
   9.000000E+99

> <Gold.Chemscore.Hbonds>
donor molecule, donor type, donor heavy atom, donor atom, acceptor molecule, acceptor atom, score
      L1  H    20    46       P1 10747  0.43

> <Gold.Chemscore.Hbond.Weighted>
-3.1381

> <Gold.Chemscore.Metal.Weighted>
-0.0000

> <Gold.Chemscore.Lipo.Weighted>
-13.1066

> <Gold.Chemscore.Internal_Hbond.Weighted>
0.0000

> <Gold.Chemscore.DEClash.Weighted>
0.4285

> <Gold.Chemscore.DEInternal.Weighted>
2.0482

> <Gold.Chemscore.Rot.Weighted>
8.5545

> <Gold.Chemscore.Internal.Correction.Weighted>
   9.000000E+99

> <Gold.Protein.RotatedTorsions>
[ 6907 6896 6895 6894 ] final -135.24 input  -60.11 | X-H torsion
[ 7974 7965 7964 7962 ] final  160.58 input  175.53 | X-H torsion
[ 8008 7997 7996 7995 ] final -170.39 input   59.86 | X-H torsion
[ 10167 10162 10161 10158 ] final  -93.47 input  -65.29 | X-H torsion
[ 10718 10713 10712 10709 ] final -148.68 input   66.30 | X-H torsion
[ 10763 10752 10751 10750 ] final -118.38 input  -60.55 | X-H torsion
[ 11005 11000 10999 10996 ] final  -96.59 input  -57.11 | X-H torsion

> <Gold.Protein.ActiveResidues>
 VAL166  LYS551  ARG553  GLY616  TRP617  ASP618  TYR619  PRO620  LYS621  CYS622 
 ASP623  PHE694  ASN695  SER759  ASP760  ASP761  ALA762  ILE779  LEU786  VAL792 
 PHE793  MET794  SER795  GLU796  ALA797  LYS798  CYS799  TRP800  GLU811  SER814 

> <Gold.Protein.RotatedAtoms>
  150.9955  133.6108  159.2702 H   0  0  0  0  0  0  0  0  0  0  0  0  # atno 6907 bound_to 6896
  151.3313  135.0841  159.9349 H   0  0  0  0  0  0  0  0  0  0  0  0  # atno 6908 bound_to 6896
  152.5258  133.9583  159.7759 H   0  0  0  0  0  0  0  0  0  0  0  0  # atno 6909 bound_to 6896
  144.7730  139.7777  143.6290 H   0  0  0  0  0  0  0  0  0  0  0  0  # atno 7974 bound_to 7965
  155.9177  140.1068  157.1231 H   0  0  0  0  0  0  0  0  0  0  0  0  # atno 8008 bound_to 7997
  154.4049  140.1262  156.4703 H   0  0  0  0  0  0  0  0  0  0  0  0  # atno 8009 bound_to 7997
  155.7234  140.3469  155.5028 H   0  0  0  0  0  0  0  0  0  0  0  0  # atno 8010 bound_to 7997
  140.3244  143.3031  152.0011 H   0  0  0  0  0  0  0  0  0  0  0  0  # atno 10167 bound_to 10162
  156.4233  130.8039  151.2263 H   0  0  0  0  0  0  0  0  0  0  0  0  # atno 10718 bound_to 10713
  154.8585  135.4276  154.2130 H   0  0  0  0  0  0  0  0  0  0  0  0  # atno 10763 bound_to 10752
  153.3151  135.6978  153.7086 H   0  0  0  0  0  0  0  0  0  0  0  0  # atno 10764 bound_to 10752
  153.6163  135.3510  155.2970 H   0  0  0  0  0  0  0  0  0  0  0  0  # atno 10765 bound_to 10752
  141.1406  133.8109  157.0592 H   0  0  0  0  0  0  0  0  0  0  0  0  # atno 11005 bound_to 11000
  146.1889  139.5119  142.9818 LP  0  0  0  0  0  0  0  0  0  0  0  0  # atno 17320 bound_to 7965
  145.6269  141.0312  143.1884 LP  0  0  0  0  0  0  0  0  0  0  0  0  # atno 17321 bound_to 7965
  139.4868  144.6285  151.7116 LP  0  0  0  0  0  0  0  0  0  0  0  0  # atno 17342 bound_to 10162
  140.5455  144.0511  150.6105 LP  0  0  0  0  0  0  0  0  0  0  0  0  # atno 17343 bound_to 10162
  157.7508  131.0221  150.3778 LP  0  0  0  0  0  0  0  0  0  0  0  0  # atno 17370 bound_to 10713
  156.4100  130.3932  149.6898 LP  0  0  0  0  0  0  0  0  0  0  0  0  # atno 17371 bound_to 10713
  140.0582  134.9769  157.1258 LP  0  0  0  0  0  0  0  0  0  0  0  0  # atno 17394 bound_to 11000
  140.3888  134.2207  155.7167 LP  0  0  0  0  0  0  0  0  0  0  0  0  # atno 17395 bound_to 11000

$$$$
