AV-unprocessed.smi:2102|AV-procd|sdf|8581|dock1
  -GOLD-   2272011313D 1   1.00000     0.00000
 Structure written by MMmdl.
 29 30  0  0  0  0  0  0  0  0  1 V2000
  152.8829  143.0465  161.1882 C   0  0  0  0  0  0  0  0  0  0  0  0
  152.2540  143.0775  159.8842 N   0  0  0  0  0  0  0  0  0  0  0  0
  151.8161  144.3161  159.3554 C   0  0  0  0  0  0  0  0  0  0  0  0
  151.9498  145.3815  159.9582 O   0  0  0  0  0  0  0  0  0  0  0  0
  151.1922  144.2232  158.0407 C   0  0  0  0  0  0  0  0  0  0  0  0
  151.0633  143.0326  157.4153 C   0  0  0  0  0  0  0  0  0  0  0  0
  151.5011  141.8368  157.9548 N   0  0  0  0  0  0  0  0  0  0  0  0
  151.3400  140.5910  157.1940 C   0  0  0  0  0  0  0  0  0  0  0  0
  150.3422  140.7249  156.0352 C   0  0  0  0  0  0  0  0  0  0  0  0
  150.7127  140.5825  154.8689 O   0  0  0  0  0  0  0  0  0  0  0  0
  149.0798  141.0198  156.3773 N   0  0  0  0  0  0  0  0  0  0  0  0
  147.9937  141.1932  155.4677 C   0  0  0  0  0  0  0  0  0  0  0  0
  147.9217  140.2672  154.2730 C   0  0  0  0  0  0  0  0  0  0  0  0
  148.3143  141.7060  154.0802 C   0  0  0  0  0  0  0  0  0  0  0  0
  152.1158  141.8365  159.2252 C   0  0  0  0  0  0  0  0  0  0  0  0
  152.5152  140.7848  159.7319 O   0  0  0  0  0  0  0  0  0  0  0  0
  152.9771  144.0471  161.6086 H   0  0  0  0  0  0  0  0  0  0  0  0
  153.8744  142.6080  161.0609 H   0  0  0  0  0  0  0  0  0  0  0  0
  152.2549  142.4296  161.8332 H   0  0  0  0  0  0  0  0  0  0  0  0
  150.8302  145.1206  157.5611 H   0  0  0  0  0  0  0  0  0  0  0  0
  150.5972  143.0182  156.4407 H   0  0  0  0  0  0  0  0  0  0  0  0
  152.3073  140.2552  156.8153 H   0  0  0  0  0  0  0  0  0  0  0  0
  150.9903  139.7953  157.8533 H   0  0  0  0  0  0  0  0  0  0  0  0
  148.8699  141.1223  157.3596 H   0  0  0  0  0  0  0  0  0  0  0  0
  147.0379  141.5087  155.8842 H   0  0  0  0  0  0  0  0  0  0  0  0
  148.7010  139.5153  154.1627 H   0  0  0  0  0  0  0  0  0  0  0  0
  146.9333  139.9663  153.9314 H   0  0  0  0  0  0  0  0  0  0  0  0
  147.5885  142.3672  153.6109 H   0  0  0  0  0  0  0  0  0  0  0  0
  149.3555  141.9137  153.8406 H   0  0  0  0  0  0  0  0  0  0  0  0
  1  2  1  0  0  0  0
  1 17  1  0  0  0  0
  1 18  1  0  0  0  0
  1 19  1  0  0  0  0
  2 15  1  0  0  0  0
  2  3  1  0  0  0  0
  3  4  2  0  0  0  0
  3  5  1  0  0  0  0
  5  6  2  0  0  0  0
  5 20  1  0  0  0  0
  6  7  1  0  0  0  0
  6 21  1  0  0  0  0
  7  8  1  0  0  0  0
  7 15  1  0  0  0  0
  8  9  1  0  0  0  0
  8 22  1  0  0  0  0
  8 23  1  0  0  0  0
  9 10  2  0  0  0  0
  9 11  1  0  0  0  0
 11 12  1  0  0  0  0
 11 24  1  0  0  0  0
 12 14  1  0  0  0  0
 12 13  1  0  0  0  0
 12 25  1  0  0  0  0
 13 14  1  0  0  0  0
 13 26  1  0  0  0  0
 13 27  1  0  0  0  0
 14 28  1  0  0  0  0
 14 29  1  0  0  0  0
 15 16  2  0  0  0  0
M  END
> <s_m_source_file>
AV-unprocessed.smi

> <i_m_source_file_index>
2102

> <i_lp_mmshare_version>
43012

> <i_f3d_flags>
0

> <s_epik_input>
W0NIM11uMWMoPU8pW2NIXVtjSF1uKGMxPU8pW0NIMl1DKD1PKVtOSF1bQ0hdMltDSDJdW0NIMl0y

> <s_epik_cmdline>
J2VwaWtfcHl0aG9uJywgJy1waCcsICc3LjAnLCAnLXRuJywgJzgnLCAnLW1hJywgJzIwMCcsICctbWV0YWxfYmluZGluZycsICctaW1hZScsICc8aW5maWxlLm1hZT4nLCAnLW9tYWUnLCAnPG91dGZpbGUubWFlPic=

> <r_lp_tautomer_probability>
1

> <r_epik_Ionization_Penalty>
3.25544e-08

> <r_epik_Ionization_Penalty_Charging>
1.18841e-08

> <r_epik_Ionization_Penalty_Neutral>
2.06703e-08

> <r_epik_State_Penalty>
-0

> <r_epik_Charging_Adjusted_Penalty>
1.18841e-08

> <i_epik_Tot_Q>
0

> <i_epik_Tot_abs_Q>
0

> <r_epik_Metal_State_Penalty>
-0

> <b_epik_Metal_Only>
0

> <s_lp_Force_Field>
OPLS_2005

> <r_lp_Energy>
23.1094

> <b_lp_Chiralities_Consistent>
1

> <s_lp_Variant>
AV-unprocessed.smi:2102-1

> <Gold.Version>
5.8.1

> <Gold.Id.Protein>
6NUR|6NUR_protein|mol2

> <Gold.PLP.Fitness>
37.9686

> <Gold.PLP.PLP>
-33.4202

> <Gold.PLP.part.hbond>
-1.0000

> <Gold.PLP.part.metal>
0.0000

> <Gold.PLP.part.buried>
-3.6775

> <Gold.PLP.part.nonpolar>
-29.5308

> <Gold.PLP.part.repulsive>
0.2305

> <Gold.PLP.ligand.clash>
0.0000

> <Gold.PLP.ligand.torsion>
0.5462

> <Gold.PLP.Chemscore.Hbond>
0.9920

> <Gold.PLP.Chemscore.CHOScore>
0.8758

> <Gold.PLP.Chemscore.Metal>
0.0000

> <Gold.Chemscore.Hbonds>
donor molecule, donor type, donor heavy atom, donor atom, acceptor molecule, acceptor atom, score
      P1  H  7989  7998       L1    10  0.99
      L1  C     6    21       P1  8028  0.87

> <Gold.PLP.Chemscore.Internal.Correction>
0.0375

> <Gold.Rescore>
     Score         DG    S(hbond)    S(metal)    S(lipo)     H(rot)  DE(clash)    DE(int)     intcor
      9.12     -11.08       0.96        0.00      55.87       1.62       0.07       1.89       ----

> <Gold.Chemscore.Fitness>
9.1199

> <Gold.Chemscore.DG>
-11.0829

> <Gold.Chemscore.ZeroCoef>
-5.4800

> <Gold.Chemscore.Hbond>
0.9616

> <Gold.Chemscore.Metal>
0.0000

> <Gold.Chemscore.Lipo>
55.8669

> <Gold.Chemscore.Internal_Hbond>
0.0000

> <Gold.Chemscore.DEClash>
0.0730

> <Gold.Chemscore.DEInternal>
1.8900

> <Gold.Chemscore.Rot>
1.6192

> <Gold.Chemscore.Internal.Correction>
   9.000000E+99

> <Gold.Chemscore.Hbonds>
donor molecule, donor type, donor heavy atom, donor atom, acceptor molecule, acceptor atom, score
      P1  H  7989  7998       L1    10  0.93

> <Gold.Chemscore.Hbond.Weighted>
-3.2117

> <Gold.Chemscore.Metal.Weighted>
-0.0000

> <Gold.Chemscore.Lipo.Weighted>
-6.5364

> <Gold.Chemscore.Internal_Hbond.Weighted>
0.0000

> <Gold.Chemscore.DEClash.Weighted>
0.0730

> <Gold.Chemscore.DEInternal.Weighted>
1.8900

> <Gold.Chemscore.Rot.Weighted>
4.1452

> <Gold.Chemscore.Internal.Correction.Weighted>
   9.000000E+99

> <Gold.Protein.RotatedTorsions>
[ 6907 6896 6895 6894 ] final   30.57 input  -60.11 | X-H torsion
[ 7974 7965 7964 7962 ] final    5.13 input  175.53 | X-H torsion
[ 8008 7997 7996 7995 ] final  -36.96 input   59.86 | X-H torsion
[ 10167 10162 10161 10158 ] final -151.88 input  -65.29 | X-H torsion
[ 10718 10713 10712 10709 ] final  116.52 input   66.30 | X-H torsion
[ 10763 10752 10751 10750 ] final  149.96 input  -60.55 | X-H torsion
[ 11005 11000 10999 10996 ] final -167.70 input  -57.11 | X-H torsion

> <Gold.Protein.ActiveResidues>
 VAL166  LYS551  ARG553  GLY616  TRP617  ASP618  TYR619  PRO620  LYS621  CYS622 
 ASP623  PHE694  ASN695  SER759  ASP760  ASP761  ALA762  ILE779  LEU786  VAL792 
 PHE793  MET794  SER795  GLU796  ALA797  LYS798  CYS799  TRP800  GLU811  SER814 

> <Gold.Protein.RotatedAtoms>
  152.0479  134.9672  160.0574 H   0  0  0  0  0  0  0  0  0  0  0  0  # atno 6907 bound_to 6896
  152.1085  133.4283  159.4628 H   0  0  0  0  0  0  0  0  0  0  0  0  # atno 6908 bound_to 6896
  150.6842  134.2596  159.4587 H   0  0  0  0  0  0  0  0  0  0  0  0  # atno 6909 bound_to 6896
  146.2442  140.0430  142.8380 H   0  0  0  0  0  0  0  0  0  0  0  0  # atno 7974 bound_to 7965
  154.4062  140.1617  156.2460 H   0  0  0  0  0  0  0  0  0  0  0  0  # atno 8008 bound_to 7997
  155.9160  140.3424  155.6113 H   0  0  0  0  0  0  0  0  0  0  0  0  # atno 8009 bound_to 7997
  155.7279  140.0776  157.2293 H   0  0  0  0  0  0  0  0  0  0  0  0  # atno 8010 bound_to 7997
  139.7229  143.8928  152.2509 H   0  0  0  0  0  0  0  0  0  0  0  0  # atno 10167 bound_to 10162
  157.6155  131.1026  150.7485 H   0  0  0  0  0  0  0  0  0  0  0  0  # atno 10718 bound_to 10713
  154.0798  135.2860  155.3292 H   0  0  0  0  0  0  0  0  0  0  0  0  # atno 10763 bound_to 10752
  154.6691  135.5306  153.8119 H   0  0  0  0  0  0  0  0  0  0  0  0  # atno 10764 bound_to 10752
  153.0453  135.6553  154.0973 H   0  0  0  0  0  0  0  0  0  0  0  0  # atno 10765 bound_to 10752
  140.5503  134.5434  157.5121 H   0  0  0  0  0  0  0  0  0  0  0  0  # atno 11005 bound_to 11000
  145.1053  140.9371  143.4689 LP  0  0  0  0  0  0  0  0  0  0  0  0  # atno 17320 bound_to 7965
  145.0631  139.3089  143.5870 LP  0  0  0  0  0  0  0  0  0  0  0  0  # atno 17321 bound_to 7965
  139.8829  144.7008  150.8857 LP  0  0  0  0  0  0  0  0  0  0  0  0  # atno 17342 bound_to 10162
  140.7757  143.3647  151.1762 LP  0  0  0  0  0  0  0  0  0  0  0  0  # atno 17343 bound_to 10162
  156.7853  130.4872  149.5394 LP  0  0  0  0  0  0  0  0  0  0  0  0  # atno 17370 bound_to 10713
  156.1275  130.6154  151.0285 LP  0  0  0  0  0  0  0  0  0  0  0  0  # atno 17371 bound_to 10713
  139.9458  134.7704  156.0565 LP  0  0  0  0  0  0  0  0  0  0  0  0  # atno 17394 bound_to 11000
  141.1175  133.6623  156.3131 LP  0  0  0  0  0  0  0  0  0  0  0  0  # atno 17395 bound_to 11000

$$$$
