AV-unprocessed.smi:50|AV-procd|sdf|497|dock5
  -GOLD-   2262016363D 1   1.00000     0.00000
 Structure written by MMmdl.
 42 43  0  0  0  0  0  0  0  0  2 V2000
  143.8537  133.0288  149.0638 C   0  0  0  0  0  0  0  0  0  0  0  0
  144.8298  133.3911  150.1968 C   0  0  0  0  0  0  0  0  0  0  0  0
  144.9451  132.2240  151.1971 C   0  0  0  0  0  0  0  0  0  0  0  0
  144.4892  134.7653  150.8384 C   0  0  2  0  0  0  0  0  0  0  0  0
  144.4846  135.8245  149.8282 N   0  0  0  0  0  0  0  0  0  0  0  0
  145.3463  135.1190  152.0695 C   0  0  0  0  0  0  0  0  0  0  0  0
  145.6391  134.3064  152.9470 O   0  0  0  0  0  0  0  0  0  0  0  0
  145.7367  136.4078  152.0475 O   0  0  0  0  0  0  0  0  0  0  0  0
  146.3554  136.9751  153.1899 C   0  0  0  0  0  0  0  0  0  0  0  0
  146.4860  138.4877  152.9969 C   0  0  0  0  0  0  0  0  0  0  0  0
  147.3147  139.0065  154.0232 O   0  0  0  0  0  0  0  0  0  0  0  0
  147.8504  140.2478  153.7077 C   0  0  0  0  0  0  0  0  0  0  0  0
  149.2146  140.2773  154.1955 N   0  0  0  0  0  0  0  0  0  0  0  0
  149.8823  141.3416  154.6814 C   0  0  0  0  0  0  0  0  0  0  0  0
  151.1352  141.1022  155.0670 N   0  0  0  0  0  0  0  0  0  0  0  0
  151.2691  139.7454  154.7931 C   0  0  0  0  0  0  0  0  0  0  0  0
  152.4057  138.8097  154.9712 C   0  0  0  0  0  0  0  0  0  0  0  0
  153.4611  139.2322  155.4401 O   0  0  0  0  0  0  0  0  0  0  0  0
  152.1705  137.5185  154.5856 N   0  5  0  0  0  0  0  0  0  0  0  0
  150.9248  137.1509  154.0571 C   0  0  0  0  0  0  0  0  0  0  0  0
  150.8619  135.8171  153.7175 N   0  0  0  0  0  0  0  0  0  0  0  0
  149.8808  137.9211  153.8707 N   0  0  0  0  0  0  0  0  0  0  0  0
  150.1188  139.2247  154.2649 C   0  0  0  0  0  0  0  0  0  0  0  0
  143.4595  134.6897  151.1895 H   0  0  0  0  0  0  0  0  0  0  0  0
  142.8458  132.8519  149.4404 H   0  0  0  0  0  0  0  0  0  0  0  0
  144.1744  132.1244  148.5464 H   0  0  0  0  0  0  0  0  0  0  0  0
  143.7970  133.8264  148.3228 H   0  0  0  0  0  0  0  0  0  0  0  0
  145.8095  133.4992  149.7283 H   0  0  0  0  0  0  0  0  0  0  0  0
  143.9808  131.9665  151.6351 H   0  0  0  0  0  0  0  0  0  0  0  0
  145.6313  132.4608  152.0105 H   0  0  0  0  0  0  0  0  0  0  0  0
  145.3247  131.3289  150.7038 H   0  0  0  0  0  0  0  0  0  0  0  0
  144.4331  136.7404  150.2505 H   0  0  0  0  0  0  0  0  0  0  0  0
  145.3302  135.8123  149.2757 H   0  0  0  0  0  0  0  0  0  0  0  0
  145.7614  136.7622  154.0798 H   0  0  0  0  0  0  0  0  0  0  0  0
  147.3401  136.5286  153.3348 H   0  0  0  0  0  0  0  0  0  0  0  0
  146.9201  138.7045  152.0195 H   0  0  0  0  0  0  0  0  0  0  0  0
  145.5004  138.9545  153.0344 H   0  0  0  0  0  0  0  0  0  0  0  0
  147.8588  140.4038  152.6276 H   0  0  0  0  0  0  0  0  0  0  0  0
  147.2854  141.0484  154.1878 H   0  0  0  0  0  0  0  0  0  0  0  0
  149.4357  142.3222  154.7543 H   0  0  0  0  0  0  0  0  0  0  0  0
  151.6309  135.1746  153.8369 H   0  0  0  0  0  0  0  0  0  0  0  0
  150.0373  135.3873  153.3248 H   0  0  0  0  0  0  0  0  0  0  0  0
  1  2  1  0  0  0  0
  1 25  1  0  0  0  0
  1 26  1  0  0  0  0
  1 27  1  0  0  0  0
  2  3  1  0  0  0  0
  2  4  1  0  0  0  0
  2 28  1  0  0  0  0
  3 29  1  0  0  0  0
  3 30  1  0  0  0  0
  3 31  1  0  0  0  0
  4 24  1  0  0  0  0
  4  5  1  0  0  0  0
  4  6  1  0  0  0  0
  5 32  1  0  0  0  0
  5 33  1  0  0  0  0
  6  7  2  0  0  0  0
  6  8  1  0  0  0  0
  8  9  1  0  0  0  0
  9 10  1  0  0  0  0
  9 34  1  0  0  0  0
  9 35  1  0  0  0  0
 10 11  1  0  0  0  0
 10 36  1  0  0  0  0
 10 37  1  0  0  0  0
 11 12  1  0  0  0  0
 12 13  1  0  0  0  0
 12 38  1  0  0  0  0
 12 39  1  0  0  0  0
 13 23  1  0  0  0  0
 13 14  1  0  0  0  0
 14 15  2  0  0  0  0
 14 40  1  0  0  0  0
 15 16  1  0  0  0  0
 16 23  2  0  0  0  0
 16 17  1  0  0  0  0
 17 18  2  0  0  0  0
 17 19  1  0  0  0  0
 19 20  1  0  0  0  0
 20 21  1  0  0  0  0
 20 22  2  0  0  0  0
 21 41  1  0  0  0  0
 21 42  1  0  0  0  0
 22 23  1  0  0  0  0
M  CHG  1  19  -1
M  END
> <s_m_source_file>
AV-unprocessed.smi

> <i_m_source_file_index>
50

> <i_lp_mmshare_version>
43012

> <i_f3d_flags>
0

> <s_epik_input>
W0NIM11bQ0hdKFtDSDNdKVtDQEhdKFtOSDJdKUMoPU8pT1tDSDJdW0NIMl1PW0NIMl1uKFtjSF1uMSljKGMxMiluYyhbTkgyXSlbbkhdYzI9Tw==

> <s_epik_cmdline>
J2VwaWtfcHl0aG9uJywgJy1waCcsICc3LjAnLCAnLXRuJywgJzgnLCAnLW1hJywgJzIwMCcsICctbWV0YWxfYmluZGluZycsICctaW1hZScsICc8aW5maWxlLm1hZT4nLCAnLW9tYWUnLCAnPG91dGZpbGUubWFlPic=

> <r_lp_tautomer_probability>
0.99994

> <r_epik_Ionization_Penalty>
4.26118

> <r_epik_Ionization_Penalty_Charging>
1.23364e-10

> <r_epik_Ionization_Penalty_Neutral>
4.26118

> <r_epik_State_Penalty>
4.27372

> <r_epik_Charging_Adjusted_Penalty>
4.27372

> <i_epik_Tot_Q>
-1

> <i_epik_Tot_abs_Q>
1

> <r_epik_Metal_State_Penalty>
1.24306

> <b_epik_Metal_Only>
1

> <s_epik_Chemistry_Notes>
This compound has an ester and may undergo hydrolysis at high or low pH. This compound contains an acetal/aminal-like group ( X-CH(R)-Y where X, Y are N, S, or O) that may be acid/base labile, releasing an aldehyde.

> <s_lp_Force_Field>
OPLS_2005

> <r_lp_Energy>
24.4723

> <b_lp_Chiralities_Consistent>
1

> <s_lp_Variant>
AV-unprocessed.smi:50-7

> <Gold.Version>
5.8.1

> <Gold.Id.Protein>
6NUR|6NUR_protein|mol2

> <Gold.PLP.Fitness>
49.5830

> <Gold.PLP.PLP>
-36.7785

> <Gold.PLP.part.hbond>
-7.0000

> <Gold.PLP.part.metal>
0.0000

> <Gold.PLP.part.buried>
-2.2772

> <Gold.PLP.part.nonpolar>
-29.7873

> <Gold.PLP.part.repulsive>
2.0404

> <Gold.PLP.ligand.clash>
0.0000

> <Gold.PLP.ligand.torsion>
1.2586

> <Gold.PLP.Chemscore.Hbond>
4.4466

> <Gold.PLP.Chemscore.CHOScore>
0.5621

> <Gold.PLP.Chemscore.Metal>
0.0000

> <Gold.Chemscore.Hbonds>
donor molecule, donor type, donor heavy atom, donor atom, acceptor molecule, acceptor atom, score
      L1  H     5    32       P1 10171  0.78
      L1  H     5    33       P1  7921  0.73
      L1  H    21    42       P1  7948  0.02
      P1  H  7997  8010       L1    18  0.50
      P1  H 10752 10765       L1    19  0.91
      L1  C    14    40       P1  8028  0.80

> <Gold.PLP.Chemscore.Internal.Correction>
0.2959

> <Gold.Rescore>
     Score         DG    S(hbond)    S(metal)    S(lipo)     H(rot)  DE(clash)    DE(int)     intcor
      3.77      -8.09       2.66        0.00      49.83       4.72       0.34       3.98       ----

> <Gold.Chemscore.Fitness>
3.7710

> <Gold.Chemscore.DG>
-8.0898

> <Gold.Chemscore.ZeroCoef>
-5.4800

> <Gold.Chemscore.Hbond>
2.6566

> <Gold.Chemscore.Metal>
0.0000

> <Gold.Chemscore.Lipo>
49.8293

> <Gold.Chemscore.Internal_Hbond>
0.0000

> <Gold.Chemscore.DEClash>
0.3385

> <Gold.Chemscore.DEInternal>
3.9803

> <Gold.Chemscore.Rot>
4.7239

> <Gold.Chemscore.Internal.Correction>
   9.000000E+99

> <Gold.Chemscore.Hbonds>
donor molecule, donor type, donor heavy atom, donor atom, acceptor molecule, acceptor atom, score
      L1  H     5    32       P1 10171  0.76
      L1  H     5    33       P1  7921  0.69
      P1  H  7997  8010       L1    18  0.50
      P1  H 10752 10765       L1    19  0.09

> <Gold.Chemscore.Hbond.Weighted>
-8.8731

> <Gold.Chemscore.Metal.Weighted>
-0.0000

> <Gold.Chemscore.Lipo.Weighted>
-5.8300

> <Gold.Chemscore.Internal_Hbond.Weighted>
0.0000

> <Gold.Chemscore.DEClash.Weighted>
0.3385

> <Gold.Chemscore.DEInternal.Weighted>
3.9803

> <Gold.Chemscore.Rot.Weighted>
12.0933

> <Gold.Chemscore.Internal.Correction.Weighted>
   9.000000E+99

> <Gold.Protein.RotatedTorsions>
[ 6907 6896 6895 6894 ] final  162.00 input  -60.11 | X-H torsion
[ 7974 7965 7964 7962 ] final -173.29 input  175.53 | X-H torsion
[ 8008 7997 7996 7995 ] final   60.72 input   59.86 | X-H torsion
[ 10167 10162 10161 10158 ] final  -39.39 input  -65.29 | X-H torsion
[ 10718 10713 10712 10709 ] final   42.52 input   66.30 | X-H torsion
[ 10763 10752 10751 10750 ] final -170.97 input  -60.55 | X-H torsion
[ 11005 11000 10999 10996 ] final -102.93 input  -57.11 | X-H torsion

> <Gold.Protein.ActiveResidues>
 VAL166  LYS551  ARG553  GLY616  TRP617  ASP618  TYR619  PRO620  LYS621  CYS622 
 ASP623  PHE694  ASN695  SER759  ASP760  ASP761  ALA762  ILE779  LEU786  VAL792 
 PHE793  MET794  SER795  GLU796  ALA797  LYS798  CYS799  TRP800  GLU811  SER814 

> <Gold.Protein.RotatedAtoms>
  151.9470  133.3654  159.3985 H   0  0  0  0  0  0  0  0  0  0  0  0  # atno 6907 bound_to 6896
  150.6987  134.4380  159.5288 H   0  0  0  0  0  0  0  0  0  0  0  0  # atno 6908 bound_to 6896
  152.2046  134.8556  160.0555 H   0  0  0  0  0  0  0  0  0  0  0  0  # atno 6909 bound_to 6896
  144.7139  140.1643  143.6373 H   0  0  0  0  0  0  0  0  0  0  0  0  # atno 7974 bound_to 7965
  155.5868  140.3492  155.4555 H   0  0  0  0  0  0  0  0  0  0  0  0  # atno 8008 bound_to 7997
  156.0332  140.1279  157.0261 H   0  0  0  0  0  0  0  0  0  0  0  0  # atno 8009 bound_to 7997
  154.4360  140.1039  156.6115 H   0  0  0  0  0  0  0  0  0  0  0  0  # atno 8010 bound_to 7997
  140.7065  143.3217  151.2776 H   0  0  0  0  0  0  0  0  0  0  0  0  # atno 10167 bound_to 10162
  157.4057  130.7885  149.7387 H   0  0  0  0  0  0  0  0  0  0  0  0  # atno 10718 bound_to 10713
  154.6356  135.2892  155.0164 H   0  0  0  0  0  0  0  0  0  0  0  0  # atno 10763 bound_to 10752
  154.1309  135.6533  153.4926 H   0  0  0  0  0  0  0  0  0  0  0  0  # atno 10764 bound_to 10752
  153.0301  135.5310  154.7202 H   0  0  0  0  0  0  0  0  0  0  0  0  # atno 10765 bound_to 10752
  141.1168  133.8598  157.1422 H   0  0  0  0  0  0  0  0  0  0  0  0  # atno 11005 bound_to 11000
  145.9001  139.2425  143.1498 LP  0  0  0  0  0  0  0  0  0  0  0  0  # atno 17320 bound_to 7965
  145.9819  140.8676  143.0110 LP  0  0  0  0  0  0  0  0  0  0  0  0  # atno 17321 bound_to 7965
  139.6673  144.0083  152.2731 LP  0  0  0  0  0  0  0  0  0  0  0  0  # atno 17342 bound_to 10162
  139.9670  144.6520  150.8025 LP  0  0  0  0  0  0  0  0  0  0  0  0  # atno 17343 bound_to 10162
  155.9836  130.3999  150.3356 LP  0  0  0  0  0  0  0  0  0  0  0  0  # atno 17370 bound_to 10713
  157.1488  131.0315  151.2894 LP  0  0  0  0  0  0  0  0  0  0  0  0  # atno 17371 bound_to 10713
  140.0096  134.9994  157.0366 LP  0  0  0  0  0  0  0  0  0  0  0  0  # atno 17394 bound_to 11000
  140.4623  134.1472  155.7193 LP  0  0  0  0  0  0  0  0  0  0  0  0  # atno 17395 bound_to 11000

$$$$
