AV-unprocessed.smi:183|AV-procd|sdf|1460|dock3
  -GOLD-   2262019263D 1   1.00000     0.00000
 Structure written by MMmdl.
 55 57  0  0  0  0  0  0  0  0  1 V2000
  152.6190  144.7854  158.6212 C   0  0  0  0  0  0  0  0  0  0  0  0
  152.1074  143.3715  158.8730 C   0  0  0  0  0  0  0  0  0  0  0  0
  152.5800  142.6975  159.7884 O   0  0  0  0  0  0  0  0  0  0  0  0
  151.1384  142.9346  158.0534 N   0  0  0  0  0  0  0  0  0  0  0  0
  150.5241  141.6156  158.1320 C   0  0  0  0  0  0  0  0  0  0  0  0
  150.7143  140.8298  156.8180 C   0  0  0  0  0  0  0  0  0  0  0  0
  149.6870  139.8084  156.5924 N   0  0  0  0  0  0  0  0  0  0  0  0
  149.7220  138.8583  157.5603 C   0  0  0  0  0  0  0  0  0  0  0  0
  150.9176  138.6374  158.1629 N   0  0  0  0  0  0  0  0  0  0  0  0
  151.0337  137.6906  159.0980 C   0  0  0  0  0  0  0  0  0  0  0  0
  150.1007  136.8577  159.5624 N   0  0  0  0  0  0  0  0  0  0  0  0
  148.8995  137.0681  158.9522 C   0  0  0  0  0  0  0  0  0  0  0  0
  148.6194  138.0467  157.9567 C   0  0  0  0  0  0  0  0  0  0  0  0
  147.2836  137.9662  157.5801 N   0  0  0  0  0  0  0  0  0  0  0  0
  146.8041  136.9948  158.3066 C   0  0  0  0  0  0  0  0  0  0  0  0
  147.7109  136.3858  159.1440 N   0  0  0  0  0  0  0  0  0  0  0  0
  147.4532  135.2705  160.0408 C   0  0  0  0  0  0  0  0  0  0  0  0
  146.3325  135.5445  161.0826 C   0  0  2  0  0  0  0  0  0  0  0  0
  145.0917  135.6951  160.4192 O   0  0  0  0  0  0  0  0  0  0  0  0
  146.5783  136.7731  161.9507 C   0  0  0  0  0  0  0  0  0  0  0  0
  147.5024  136.2320  163.0374 C   0  0  0  0  0  0  0  0  0  0  0  0
  147.1575  134.8576  163.1874 O   0  0  0  0  0  0  0  0  0  0  0  0
  146.2230  134.4713  162.1825 C   0  0  2  0  0  0  0  0  0  0  0  0
  146.4543  133.0149  161.7530 C   0  0  0  0  0  0  0  0  0  0  0  0
  149.3511  139.3943  155.2197 C   0  0  0  0  0  0  0  0  0  0  0  0
  150.4876  138.5748  154.5785 C   0  0  0  0  0  0  0  0  0  0  0  0
  149.0304  140.5935  154.3007 C   0  0  0  0  0  0  0  0  0  0  0  0
  151.8239  145.5124  158.7884 H   0  0  0  0  0  0  0  0  0  0  0  0
  152.9721  144.8871  157.5946 H   0  0  0  0  0  0  0  0  0  0  0  0
  153.4460  145.0231  159.2914 H   0  0  0  0  0  0  0  0  0  0  0  0
  150.8069  143.5548  157.3288 H   0  0  0  0  0  0  0  0  0  0  0  0
  150.9625  141.0690  158.9670 H   0  0  0  0  0  0  0  0  0  0  0  0
  149.4684  141.7396  158.3718 H   0  0  0  0  0  0  0  0  0  0  0  0
  150.7117  141.5248  155.9765 H   0  0  0  0  0  0  0  0  0  0  0  0
  151.7020  140.3702  156.7963 H   0  0  0  0  0  0  0  0  0  0  0  0
  152.0165  137.5799  159.5315 H   0  0  0  0  0  0  0  0  0  0  0  0
  145.7723  136.6818  158.2395 H   0  0  0  0  0  0  0  0  0  0  0  0
  147.2014  134.4023  159.4308 H   0  0  0  0  0  0  0  0  0  0  0  0
  148.3882  135.0248  160.5457 H   0  0  0  0  0  0  0  0  0  0  0  0
  144.8203  134.8510  160.0929 H   0  0  0  0  0  0  0  0  0  0  0  0
  146.9895  137.6338  161.4252 H   0  0  0  0  0  0  0  0  0  0  0  0
  145.6458  137.0991  162.4152 H   0  0  0  0  0  0  0  0  0  0  0  0
  148.5449  136.2987  162.7243 H   0  0  0  0  0  0  0  0  0  0  0  0
  147.3964  136.7736  163.9775 H   0  0  0  0  0  0  0  0  0  0  0  0
  145.2365  134.5417  162.6452 H   0  0  0  0  0  0  0  0  0  0  0  0
  145.7620  132.7258  160.9617 H   0  0  0  0  0  0  0  0  0  0  0  0
  146.2995  132.3373  162.5926 H   0  0  0  0  0  0  0  0  0  0  0  0
  147.4696  132.8560  161.3898 H   0  0  0  0  0  0  0  0  0  0  0  0
  148.4702  138.7538  155.2639 H   0  0  0  0  0  0  0  0  0  0  0  0
  150.2449  138.3072  153.5499 H   0  0  0  0  0  0  0  0  0  0  0  0
  150.6681  137.6406  155.1093 H   0  0  0  0  0  0  0  0  0  0  0  0
  151.4213  139.1380  154.5617 H   0  0  0  0  0  0  0  0  0  0  0  0
  148.8250  140.2602  153.2832 H   0  0  0  0  0  0  0  0  0  0  0  0
  149.8676  141.2908  154.2561 H   0  0  0  0  0  0  0  0  0  0  0  0
  148.1524  141.1493  154.6277 H   0  0  0  0  0  0  0  0  0  0  0  0
  1  2  1  0  0  0  0
  1 28  1  0  0  0  0
  1 29  1  0  0  0  0
  1 30  1  0  0  0  0
  2  3  2  0  0  0  0
  2  4  1  0  0  0  0
  4  5  1  0  0  0  0
  4 31  1  0  0  0  0
  5  6  1  0  0  0  0
  5 32  1  0  0  0  0
  5 33  1  0  0  0  0
  6  7  1  0  0  0  0
  6 34  1  0  0  0  0
  6 35  1  0  0  0  0
  7  8  1  0  0  0  0
  7 25  1  0  0  0  0
  8 13  1  0  0  0  0
  8  9  2  0  0  0  0
  9 10  1  0  0  0  0
 10 11  2  0  0  0  0
 10 36  1  0  0  0  0
 11 12  1  0  0  0  0
 12 16  1  0  0  0  0
 12 13  2  0  0  0  0
 13 14  1  0  0  0  0
 14 15  2  0  0  0  0
 15 16  1  0  0  0  0
 15 37  1  0  0  0  0
 16 17  1  0  0  0  0
 17 18  1  0  0  0  0
 17 38  1  0  0  0  0
 17 39  1  0  0  0  0
 18 23  1  0  0  0  0
 18 19  1  0  0  0  0
 18 20  1  0  0  0  0
 19 40  1  0  0  0  0
 20 21  1  0  0  0  0
 20 41  1  0  0  0  0
 20 42  1  0  0  0  0
 21 22  1  0  0  0  0
 21 43  1  0  0  0  0
 21 44  1  0  0  0  0
 22 23  1  0  0  0  0
 23 24  1  0  0  0  0
 23 45  1  0  0  0  0
 24 46  1  0  0  0  0
 24 47  1  0  0  0  0
 24 48  1  0  0  0  0
 25 26  1  0  0  0  0
 25 27  1  0  0  0  0
 25 49  1  0  0  0  0
 26 50  1  0  0  0  0
 26 51  1  0  0  0  0
 26 52  1  0  0  0  0
 27 53  1  0  0  0  0
 27 54  1  0  0  0  0
 27 55  1  0  0  0  0
M  END
> <s_m_source_file>
AV-unprocessed.smi

> <i_m_source_file_index>
183

> <i_lp_mmshare_version>
43012

> <i_f3d_flags>
0

> <s_epik_input>
W0NIM11DKD1PKVtOSF1bQ0gyXVtDSDJdTihbQ0hdKFtDSDNdKVtDSDNdKWMobltjSF1uMSljKGMxMiluW2NIXW4yW0NIMl1bQ0BAXTMoW09IXSlbQ0gyXVtDSDJdT1tDQEhdM1tDSDNd

> <s_epik_cmdline>
J2VwaWtfcHl0aG9uJywgJy1waCcsICc3LjAnLCAnLXRuJywgJzgnLCAnLW1hJywgJzIwMCcsICctbWV0YWxfYmluZGluZycsICctaW1hZScsICc8aW5maWxlLm1hZT4nLCAnLW9tYWUnLCAnPG91dGZpbGUubWFlPic=

> <r_lp_tautomer_probability>
1

> <r_epik_Ionization_Penalty>
0.00156158

> <r_epik_Ionization_Penalty_Charging>
0

> <r_epik_Ionization_Penalty_Neutral>
0.00156158

> <r_epik_State_Penalty>
0.000865808

> <r_epik_Charging_Adjusted_Penalty>
0.000865808

> <i_epik_Tot_Q>
0

> <i_epik_Tot_abs_Q>
0

> <r_epik_Metal_State_Penalty>
-0

> <b_epik_Metal_Only>
0

> <s_lp_Force_Field>
OPLS_2005

> <r_lp_Energy>
30.6117

> <b_lp_Chiralities_Consistent>
1

> <s_lp_Variant>
AV-unprocessed.smi:183-4

> <Gold.Version>
5.8.1

> <Gold.Id.Protein>
6NUR|6NUR_protein|mol2

> <Gold.PLP.Fitness>
49.4033

> <Gold.PLP.PLP>
-47.1334

> <Gold.PLP.part.hbond>
-1.6317

> <Gold.PLP.part.metal>
0.0000

> <Gold.PLP.part.buried>
-8.6034

> <Gold.PLP.part.nonpolar>
-37.6585

> <Gold.PLP.part.repulsive>
0.0430

> <Gold.PLP.ligand.clash>
0.0000

> <Gold.PLP.ligand.torsion>
0.8233

> <Gold.PLP.Chemscore.Hbond>
0.9588

> <Gold.PLP.Chemscore.CHOScore>
0.0000

> <Gold.PLP.Chemscore.Metal>
0.0000

> <Gold.Chemscore.Hbonds>
donor molecule, donor type, donor heavy atom, donor atom, acceptor molecule, acceptor atom, score
      P1  H  6896  6909       L1    11  0.93

> <Gold.PLP.Chemscore.Internal.Correction>
1.0404

> <Gold.Rescore>
     Score         DG    S(hbond)    S(metal)    S(lipo)     H(rot)  DE(clash)    DE(int)     intcor
     10.27     -13.55       1.77        0.00      93.95       3.45       1.48       1.80       ----

> <Gold.Chemscore.Fitness>
10.2706

> <Gold.Chemscore.DG>
-13.5510

> <Gold.Chemscore.ZeroCoef>
-5.4800

> <Gold.Chemscore.Hbond>
1.7661

> <Gold.Chemscore.Metal>
0.0000

> <Gold.Chemscore.Lipo>
93.9454

> <Gold.Chemscore.Internal_Hbond>
0.0000

> <Gold.Chemscore.DEClash>
1.4848

> <Gold.Chemscore.DEInternal>
1.7955

> <Gold.Chemscore.Rot>
3.4451

> <Gold.Chemscore.Internal.Correction>
   9.000000E+99

> <Gold.Chemscore.Hbonds>
donor molecule, donor type, donor heavy atom, donor atom, acceptor molecule, acceptor atom, score
      P1  H  6896  6909       L1    11  0.44

> <Gold.Chemscore.Hbond.Weighted>
-5.8988

> <Gold.Chemscore.Metal.Weighted>
-0.0000

> <Gold.Chemscore.Lipo.Weighted>
-10.9916

> <Gold.Chemscore.Internal_Hbond.Weighted>
0.0000

> <Gold.Chemscore.DEClash.Weighted>
1.4848

> <Gold.Chemscore.DEInternal.Weighted>
1.7955

> <Gold.Chemscore.Rot.Weighted>
8.8194

> <Gold.Chemscore.Internal.Correction.Weighted>
   9.000000E+99

> <Gold.Protein.RotatedTorsions>
[ 6907 6896 6895 6894 ] final   90.27 input  -60.11 | X-H torsion
[ 7974 7965 7964 7962 ] final -138.55 input  175.53 | X-H torsion
[ 8008 7997 7996 7995 ] final  159.99 input   59.86 | X-H torsion
[ 10167 10162 10161 10158 ] final -136.38 input  -65.29 | X-H torsion
[ 10718 10713 10712 10709 ] final  -58.49 input   66.30 | X-H torsion
[ 10763 10752 10751 10750 ] final   99.94 input  -60.55 | X-H torsion
[ 11005 11000 10999 10996 ] final  -84.18 input  -57.11 | X-H torsion

> <Gold.Protein.ActiveResidues>
 VAL166  LYS551  ARG553  GLY616  TRP617  ASP618  TYR619  PRO620  LYS621  CYS622 
 ASP623  PHE694  ASN695  SER759  ASP760  ASP761  ALA762  ILE779  LEU786  VAL792 
 PHE793  MET794  SER795  GLU796  ALA797  LYS798  CYS799  TRP800  GLU811  SER814 

> <Gold.Protein.RotatedAtoms>
  152.5443  134.1837  159.8645 H   0  0  0  0  0  0  0  0  0  0  0  0  # atno 6907 bound_to 6896
  151.1838  133.4702  159.2602 H   0  0  0  0  0  0  0  0  0  0  0  0  # atno 6908 bound_to 6896
  151.1152  135.0060  159.8568 H   0  0  0  0  0  0  0  0  0  0  0  0  # atno 6909 bound_to 6896
  144.8749  140.6422  143.5243 H   0  0  0  0  0  0  0  0  0  0  0  0  # atno 7974 bound_to 7965
  156.2202  140.1816  156.7494 H   0  0  0  0  0  0  0  0  0  0  0  0  # atno 8008 bound_to 7997
  154.5854  140.0659  156.9192 H   0  0  0  0  0  0  0  0  0  0  0  0  # atno 8009 bound_to 7997
  155.2429  140.3323  155.4293 H   0  0  0  0  0  0  0  0  0  0  0  0  # atno 8010 bound_to 7997
  139.8683  143.6989  152.2643 H   0  0  0  0  0  0  0  0  0  0  0  0  # atno 10167 bound_to 10162
  156.1131  130.4173  150.0585 H   0  0  0  0  0  0  0  0  0  0  0  0  # atno 10718 bound_to 10713
  153.3077  135.4096  155.1309 H   0  0  0  0  0  0  0  0  0  0  0  0  # atno 10763 bound_to 10752
  154.8567  135.3557  154.5765 H   0  0  0  0  0  0  0  0  0  0  0  0  # atno 10764 bound_to 10752
  153.6193  135.7065  153.5375 H   0  0  0  0  0  0  0  0  0  0  0  0  # atno 10765 bound_to 10752
  141.1652  133.7333  156.8830 H   0  0  0  0  0  0  0  0  0  0  0  0  # atno 11005 bound_to 11000
  145.4061  139.1588  143.4151 LP  0  0  0  0  0  0  0  0  0  0  0  0  # atno 17320 bound_to 7965
  146.2956  140.4161  142.8723 LP  0  0  0  0  0  0  0  0  0  0  0  0  # atno 17321 bound_to 7965
  139.7308  144.7583  151.0805 LP  0  0  0  0  0  0  0  0  0  0  0  0  # atno 17342 bound_to 10162
  140.7764  143.5091  150.9675 LP  0  0  0  0  0  0  0  0  0  0  0  0  # atno 17343 bound_to 10162
  156.8543  130.9470  151.3623 LP  0  0  0  0  0  0  0  0  0  0  0  0  # atno 17370 bound_to 10713
  157.6313  130.8731  149.9279 LP  0  0  0  0  0  0  0  0  0  0  0  0  # atno 17371 bound_to 10713
  140.1701  134.9106  157.2823 LP  0  0  0  0  0  0  0  0  0  0  0  0  # atno 17394 bound_to 11000
  140.2511  134.3681  155.7442 LP  0  0  0  0  0  0  0  0  0  0  0  0  # atno 17395 bound_to 11000

$$$$
