AV-unprocessed.smi:198|AV-procd|sdf|1556|dock9
  -GOLD-   2262019423D 1   1.00000     0.00000
 Structure written by MMmdl.
 59 63  0  0  0  0  0  0  0  0  2 V2000
  152.7192  139.8997  155.6697 C   0  0  0  0  0  0  0  0  0  0  0  0
  151.3104  139.9058  155.2203 N   0  3  1  0  0  0  0  0  0  0  0  0
  150.8382  138.5552  154.8289 C   0  0  0  0  0  0  0  0  0  0  0  0
  149.4256  138.6198  154.2303 C   0  0  0  0  0  0  0  0  0  0  0  0
  148.4380  139.2759  155.2192 C   0  0  1  0  0  0  0  0  0  0  0  0
  148.9610  140.6560  155.6827 C   0  0  2  0  0  0  0  0  0  0  0  0
  148.8022  141.7287  154.5851 C   0  0  0  0  0  0  0  0  0  0  0  0
  147.3483  141.7793  154.0951 C   0  0  0  0  0  0  0  0  0  0  0  0
  146.8727  140.3957  153.6267 C   0  0  0  0  0  0  0  0  0  0  0  0
  147.0797  139.3902  154.6725 N   0  0  0  0  0  0  0  0  0  0  0  0
  146.3921  138.2230  154.5654 C   0  0  0  0  0  0  0  0  0  0  0  0
  145.9744  137.5820  155.6899 N   0  0  0  0  0  0  0  0  0  0  0  0
  145.2770  136.4460  155.6013 C   0  0  0  0  0  0  0  0  0  0  0  0
  144.8912  135.7881  154.5070 N   0  0  0  0  0  0  0  0  0  0  0  0
  145.3115  136.4201  153.3739 C   0  0  0  0  0  0  0  0  0  0  0  0
  146.0636  137.6279  153.3138 C   0  0  0  0  0  0  0  0  0  0  0  0
  146.3253  137.9542  151.9885 N   0  0  0  0  0  0  0  0  0  0  0  0
  145.7556  136.9994  151.3054 C   0  0  0  0  0  0  0  0  0  0  0  0
  145.1074  136.0443  152.0567 N   0  0  0  0  0  0  0  0  0  0  0  0
  144.4134  134.8855  151.5688 C   0  0  0  0  0  0  0  0  0  0  0  0
  144.8996  133.4804  151.9255 C   0  0  0  0  0  0  0  0  0  0  0  0
  144.5105  132.9744  150.5177 C   0  0  0  0  0  0  0  0  0  0  0  0
  145.5820  132.1295  149.8119 C   0  0  0  0  0  0  0  0  0  0  0  0
  146.8775  132.6484  150.0349 O   0  0  0  0  0  0  0  0  0  0  0  0
  143.1717  132.2142  150.3846 C   0  0  0  0  0  0  0  0  0  0  0  0
  142.7200  132.1099  149.0498 O   0  0  0  0  0  0  0  0  0  0  0  0
  144.4920  134.4622  150.0981 C   0  0  0  0  0  0  0  0  0  0  0  0
  150.4076  140.5500  156.2077 C   0  0  0  0  0  0  0  0  0  0  0  0
  152.8392  139.2996  156.5728 H   0  0  0  0  0  0  0  0  0  0  0  0
  153.0596  140.9132  155.8844 H   0  0  0  0  0  0  0  0  0  0  0  0
  153.3692  139.4883  154.8965 H   0  0  0  0  0  0  0  0  0  0  0  0
  151.5225  138.1262  154.0959 H   0  0  0  0  0  0  0  0  0  0  0  0
  150.8492  137.8957  155.6983 H   0  0  0  0  0  0  0  0  0  0  0  0
  149.4571  139.1711  153.2905 H   0  0  0  0  0  0  0  0  0  0  0  0
  149.0931  137.6115  153.9807 H   0  0  0  0  0  0  0  0  0  0  0  0
  148.4078  138.6447  156.1061 H   0  0  0  0  0  0  0  0  0  0  0  0
  148.3402  140.9743  156.5219 H   0  0  0  0  0  0  0  0  0  0  0  0
  149.0943  142.7065  154.9698 H   0  0  0  0  0  0  0  0  0  0  0  0
  149.4637  141.5189  153.7443 H   0  0  0  0  0  0  0  0  0  0  0  0
  146.7039  142.1296  154.9026 H   0  0  0  0  0  0  0  0  0  0  0  0
  147.2495  142.5020  153.2848 H   0  0  0  0  0  0  0  0  0  0  0  0
  145.8141  140.4527  153.3693 H   0  0  0  0  0  0  0  0  0  0  0  0
  147.4043  140.1016  152.7211 H   0  0  0  0  0  0  0  0  0  0  0  0
  144.9837  136.0027  156.5414 H   0  0  0  0  0  0  0  0  0  0  0  0
  145.7961  136.9683  150.2264 H   0  0  0  0  0  0  0  0  0  0  0  0
  143.3692  135.0053  151.8594 H   0  0  0  0  0  0  0  0  0  0  0  0
  145.9756  133.4481  152.1056 H   0  0  0  0  0  0  0  0  0  0  0  0
  144.3545  133.0132  152.7464 H   0  0  0  0  0  0  0  0  0  0  0  0
  145.5533  131.0923  150.1481 H   0  0  0  0  0  0  0  0  0  0  0  0
  145.4146  132.1088  148.7346 H   0  0  0  0  0  0  0  0  0  0  0  0
  147.5097  131.9776  149.8262 H   0  0  0  0  0  0  0  0  0  0  0  0
  143.2622  131.2027  150.7816 H   0  0  0  0  0  0  0  0  0  0  0  0
  142.3833  132.7039  150.9567 H   0  0  0  0  0  0  0  0  0  0  0  0
  142.0411  132.7526  148.9110 H   0  0  0  0  0  0  0  0  0  0  0  0
  143.6273  134.7580  149.5029 H   0  0  0  0  0  0  0  0  0  0  0  0
  145.4160  134.7755  149.6112 H   0  0  0  0  0  0  0  0  0  0  0  0
  150.4211  139.9689  157.1313 H   0  0  0  0  0  0  0  0  0  0  0  0
  150.7833  141.5427  156.4590 H   0  0  0  0  0  0  0  0  0  0  0  0
  151.2784  140.4751  154.3864 H   0  0  0  0  0  0  0  0  0  0  0  0
  1  2  1  0  0  0  0
  1 29  1  0  0  0  0
  1 30  1  0  0  0  0
  1 31  1  0  0  0  0
  2 28  1  0  0  0  0
  2  3  1  0  0  0  0
  2 59  1  0  0  0  0
  3  4  1  0  0  0  0
  3 32  1  0  0  0  0
  3 33  1  0  0  0  0
  4  5  1  0  0  0  0
  4 34  1  0  0  0  0
  4 35  1  0  0  0  0
  5 10  1  0  0  0  0
  5  6  1  0  0  0  0
  5 36  1  0  0  0  0
  6  7  1  0  0  0  0
  6 28  1  0  0  0  0
  6 37  1  0  0  0  0
  7  8  1  0  0  0  0
  7 38  1  0  0  0  0
  7 39  1  0  0  0  0
  8  9  1  0  0  0  0
  8 40  1  0  0  0  0
  8 41  1  0  0  0  0
  9 10  1  0  0  0  0
  9 42  1  0  0  0  0
  9 43  1  0  0  0  0
 10 11  1  0  0  0  0
 11 16  1  0  0  0  0
 11 12  2  0  0  0  0
 12 13  1  0  0  0  0
 13 14  2  0  0  0  0
 13 44  1  0  0  0  0
 14 15  1  0  0  0  0
 15 19  1  0  0  0  0
 15 16  2  0  0  0  0
 16 17  1  0  0  0  0
 17 18  2  0  0  0  0
 18 19  1  0  0  0  0
 18 45  1  0  0  0  0
 19 20  1  0  0  0  0
 20 27  1  0  0  0  0
 20 21  1  0  0  0  0
 20 46  1  0  0  0  0
 21 22  1  0  0  0  0
 21 47  1  0  0  0  0
 21 48  1  0  0  0  0
 22 23  1  0  0  0  0
 22 25  1  0  0  0  0
 22 27  1  0  0  0  0
 23 24  1  0  0  0  0
 23 49  1  0  0  0  0
 23 50  1  0  0  0  0
 24 51  1  0  0  0  0
 25 26  1  0  0  0  0
 25 52  1  0  0  0  0
 25 53  1  0  0  0  0
 26 54  1  0  0  0  0
 27 55  1  0  0  0  0
 27 56  1  0  0  0  0
 28 57  1  0  0  0  0
 28 58  1  0  0  0  0
M  CHG  1   2   1
M  END
> <s_m_source_file>
AV-unprocessed.smi

> <i_m_source_file_index>
198

> <i_lp_mmshare_version>
43012

> <i_f3d_flags>
0

> <s_epik_input>
W0NIMl0xW0NIMl1OKFtDSDNdKVtDSDJdW0NAQEhdKFtDQEhdMTIpW0NIMl1bQ0gyXVtDSDJdTjJjKG5bY0hdbjMpYyhjMzQpbltjSF1uNFtDSF0oW0NIMl01KVtDSDJdQzUoW0NIMl1bT0hdKVtDSDJdW09IXQ==

> <s_epik_cmdline>
J2VwaWtfcHl0aG9uJywgJy1waCcsICc3LjAnLCAnLXRuJywgJzgnLCAnLW1hJywgJzIwMCcsICctbWV0YWxfYmluZGluZycsICctaW1hZScsICc8aW5maWxlLm1hZT4nLCAnLW9tYWUnLCAnPG91dGZpbGUubWFlPic=

> <r_lp_tautomer_probability>
1

> <r_epik_Ionization_Penalty>
0.00239938

> <r_epik_Ionization_Penalty_Charging>
0.00138697

> <r_epik_Ionization_Penalty_Neutral>
0.00101241

> <r_epik_State_Penalty>
-0

> <r_epik_Charging_Adjusted_Penalty>
0.00138697

> <i_epik_Tot_Q>
1

> <i_epik_Tot_abs_Q>
1

> <r_epik_Metal_State_Penalty>
-0

> <b_epik_Metal_Only>
0

> <s_lp_Force_Field>
OPLS_2005

> <r_lp_Energy>
58.4616

> <b_lp_Chiralities_Consistent>
1

> <s_lp_Variant>
AV-unprocessed.smi:198-5

> <Gold.Version>
5.8.1

> <Gold.Id.Protein>
6NUR|6NUR_protein|mol2

> <Gold.PLP.Fitness>
46.3330

> <Gold.PLP.PLP>
-37.4165

> <Gold.PLP.part.hbond>
-4.1989

> <Gold.PLP.part.metal>
0.0000

> <Gold.PLP.part.buried>
1.5993

> <Gold.PLP.part.nonpolar>
-37.5221

> <Gold.PLP.part.repulsive>
2.6314

> <Gold.PLP.ligand.clash>
0.0000

> <Gold.PLP.ligand.torsion>
0.7418

> <Gold.PLP.Chemscore.Hbond>
2.9500

> <Gold.PLP.Chemscore.CHOScore>
0.2132

> <Gold.PLP.Chemscore.Metal>
0.0000

> <Gold.Chemscore.Hbonds>
donor molecule, donor type, donor heavy atom, donor atom, acceptor molecule, acceptor atom, score
      L1  H    24    51       P1 10747  1.00
      L1  H    26    54       P1 10186  0.96
      P1  H 10785 10796       L1    26  0.91
      L1  C    18    45       P1 10171  0.35

> <Gold.PLP.Chemscore.Internal.Correction>
0.9103

> <Gold.Rescore>
     Score         DG    S(hbond)    S(metal)    S(lipo)     H(rot)  DE(clash)    DE(int)     intcor
     12.00     -17.17       2.28        0.00     102.17       3.08       3.21       1.97       ----

> <Gold.Chemscore.Fitness>
11.9969

> <Gold.Chemscore.DG>
-17.1679

> <Gold.Chemscore.ZeroCoef>
-5.4800

> <Gold.Chemscore.Hbond>
2.2798

> <Gold.Chemscore.Metal>
0.0000

> <Gold.Chemscore.Lipo>
102.1653

> <Gold.Chemscore.Internal_Hbond>
0.0000

> <Gold.Chemscore.DEClash>
3.2058

> <Gold.Chemscore.DEInternal>
1.9652

> <Gold.Chemscore.Rot>
3.0781

> <Gold.Chemscore.Internal.Correction>
   9.000000E+99

> <Gold.Chemscore.Hbonds>
donor molecule, donor type, donor heavy atom, donor atom, acceptor molecule, acceptor atom, score
      L1  H    24    51       P1 10747  0.97
      L1  H    26    54       P1 10186  0.87
      P1  H 10785 10796       L1    26  0.20

> <Gold.Chemscore.Hbond.Weighted>
-7.6145

> <Gold.Chemscore.Metal.Weighted>
-0.0000

> <Gold.Chemscore.Lipo.Weighted>
-11.9533

> <Gold.Chemscore.Internal_Hbond.Weighted>
0.0000

> <Gold.Chemscore.DEClash.Weighted>
3.2058

> <Gold.Chemscore.DEInternal.Weighted>
1.9652

> <Gold.Chemscore.Rot.Weighted>
7.8800

> <Gold.Chemscore.Internal.Correction.Weighted>
   9.000000E+99

> <Gold.Protein.RotatedTorsions>
[ 6907 6896 6895 6894 ] final -150.78 input  -60.11 | X-H torsion
[ 7974 7965 7964 7962 ] final  151.57 input  175.53 | X-H torsion
[ 8008 7997 7996 7995 ] final   14.21 input   59.86 | X-H torsion
[ 10167 10162 10161 10158 ] final  174.56 input  -65.29 | X-H torsion
[ 10718 10713 10712 10709 ] final  106.48 input   66.30 | X-H torsion
[ 10763 10752 10751 10750 ] final -126.42 input  -60.55 | X-H torsion
[ 11005 11000 10999 10996 ] final  160.96 input  -57.11 | X-H torsion

> <Gold.Protein.ActiveResidues>
 VAL166  LYS551  ARG553  GLY616  TRP617  ASP618  TYR619  PRO620  LYS621  CYS622 
 ASP623  PHE694  ASN695  SER759  ASP760  ASP761  ALA762  ILE779  LEU786  VAL792 
 PHE793  MET794  SER795  GLU796  ALA797  LYS798  CYS799  TRP800  GLU811  SER814 

> <Gold.Protein.RotatedAtoms>
  151.2036  133.4596  159.2596 H   0  0  0  0  0  0  0  0  0  0  0  0  # atno 6907 bound_to 6896
  151.1045  134.9991  159.8475 H   0  0  0  0  0  0  0  0  0  0  0  0  # atno 6908 bound_to 6896
  152.5446  134.1960  159.8746 H   0  0  0  0  0  0  0  0  0  0  0  0  # atno 6909 bound_to 6896
  144.8283  139.6555  143.6070 H   0  0  0  0  0  0  0  0  0  0  0  0  # atno 7974 bound_to 7965
  154.8452  140.2921  155.5633 H   0  0  0  0  0  0  0  0  0  0  0  0  # atno 8008 bound_to 7997
  156.3014  140.2506  156.3333 H   0  0  0  0  0  0  0  0  0  0  0  0  # atno 8009 bound_to 7997
  154.9081  140.0389  157.1920 H   0  0  0  0  0  0  0  0  0  0  0  0  # atno 8010 bound_to 7997
  139.5146  144.3132  152.0272 H   0  0  0  0  0  0  0  0  0  0  0  0  # atno 10167 bound_to 10162
  157.6666  131.0851  150.6013 H   0  0  0  0  0  0  0  0  0  0  0  0  # atno 10718 bound_to 10713
  154.8745  135.3996  154.3428 H   0  0  0  0  0  0  0  0  0  0  0  0  # atno 10763 bound_to 10752
  153.4224  135.7023  153.6290 H   0  0  0  0  0  0  0  0  0  0  0  0  # atno 10764 bound_to 10752
  153.4946  135.3741  155.2479 H   0  0  0  0  0  0  0  0  0  0  0  0  # atno 10765 bound_to 10752
  140.2111  134.8267  157.3122 H   0  0  0  0  0  0  0  0  0  0  0  0  # atno 11005 bound_to 11000
  146.2587  139.6362  142.9377 LP  0  0  0  0  0  0  0  0  0  0  0  0  # atno 17320 bound_to 7965
  145.4951  141.0438  143.2571 LP  0  0  0  0  0  0  0  0  0  0  0  0  # atno 17321 bound_to 7965
  140.2576  144.4102  150.6198 LP  0  0  0  0  0  0  0  0  0  0  0  0  # atno 17342 bound_to 10162
  140.6180  143.2174  151.6752 LP  0  0  0  0  0  0  0  0  0  0  0  0  # atno 17343 bound_to 10162
  156.6314  130.4433  149.5785 LP  0  0  0  0  0  0  0  0  0  0  0  0  # atno 17370 bound_to 10713
  156.2279  130.6777  151.1434 LP  0  0  0  0  0  0  0  0  0  0  0  0  # atno 17371 bound_to 10713
  140.1950  134.4325  155.7694 LP  0  0  0  0  0  0  0  0  0  0  0  0  # atno 17394 bound_to 11000
  141.2226  133.7045  156.8089 LP  0  0  0  0  0  0  0  0  0  0  0  0  # atno 17395 bound_to 11000

$$$$
