AV-unprocessed.smi:496|AV-procd|sdf|2717|dock5
  -GOLD-   2262023163D 1   1.00000     0.00000
 Structure written by MMmdl.
 42 44  0  0  0  0  0  0  0  0  1 V2000
  150.2584  138.9427  154.3321 C   0  0  0  0  0  0  0  0  0  0  0  0
  150.8379  140.1570  154.7764 O   0  0  0  0  0  0  0  0  0  0  0  0
  149.8699  141.0808  155.2429 C   0  0  0  0  0  0  0  0  0  0  0  0
  149.2273  140.5222  156.5186 C   0  0  0  0  0  0  0  0  0  0  0  0
  150.2040  140.3450  157.5836 N   0  0  0  0  0  0  0  0  0  0  0  0
  150.5606  139.2034  158.2303 C   0  0  0  0  0  0  0  0  0  0  0  0
  149.9609  137.8585  157.9097 C   0  0  1  0  0  0  0  0  0  0  0  0
  151.0263  136.8188  157.5326 C   0  0  0  0  0  0  0  0  0  0  0  0
  149.2113  137.4228  159.0853 N   0  0  0  0  0  0  0  0  0  0  0  0
  148.8030  136.1699  159.3395 C   0  0  0  0  0  0  0  0  0  0  0  0
  149.0388  135.2129  158.6020 O   0  0  0  0  0  0  0  0  0  0  0  0
  148.0285  135.9905  160.5820 C   0  0  0  0  0  0  0  0  0  0  0  0
  147.5688  134.8616  161.2084 C   0  0  0  0  0  0  0  0  0  0  0  0
  146.8801  135.2948  162.3751 C   0  0  0  0  0  0  0  0  0  0  0  0
  146.9659  136.6574  162.3772 C   0  0  0  0  0  0  0  0  0  0  0  0
  147.6602  137.0963  161.2923 O   0  0  0  0  0  0  0  0  0  0  0  0
  151.4850  139.3496  159.1838 N   0  0  0  0  0  0  0  0  0  0  0  0
  151.7622  140.7008  159.1418 C   0  0  0  0  0  0  0  0  0  0  0  0
  152.6649  141.4763  159.9042 C   0  0  0  0  0  0  0  0  0  0  0  0
  152.7815  142.8633  159.6779 C   0  0  0  0  0  0  0  0  0  0  0  0
  151.9992  143.4928  158.6884 C   0  0  0  0  0  0  0  0  0  0  0  0
  151.0933  142.7381  157.9186 C   0  0  0  0  0  0  0  0  0  0  0  0
  150.9795  141.3534  158.1488 C   0  0  0  0  0  0  0  0  0  0  0  0
  151.0406  138.2716  153.9776 H   0  0  0  0  0  0  0  0  0  0  0  0
  149.5635  139.1147  153.5090 H   0  0  0  0  0  0  0  0  0  0  0  0
  149.7261  138.4407  155.1413 H   0  0  0  0  0  0  0  0  0  0  0  0
  150.3421  142.0435  155.4428 H   0  0  0  0  0  0  0  0  0  0  0  0
  149.1067  141.2396  154.4791 H   0  0  0  0  0  0  0  0  0  0  0  0
  148.4502  141.2033  156.8662 H   0  0  0  0  0  0  0  0  0  0  0  0
  148.7238  139.5752  156.3253 H   0  0  0  0  0  0  0  0  0  0  0  0
  149.2837  137.9514  157.0628 H   0  0  0  0  0  0  0  0  0  0  0  0
  151.5948  137.1406  156.6600 H   0  0  0  0  0  0  0  0  0  0  0  0
  150.5685  135.8587  157.2924 H   0  0  0  0  0  0  0  0  0  0  0  0
  151.7324  136.6553  158.3474 H   0  0  0  0  0  0  0  0  0  0  0  0
  148.9646  138.1418  159.7499 H   0  0  0  0  0  0  0  0  0  0  0  0
  147.7107  133.8453  160.8709 H   0  0  0  0  0  0  0  0  0  0  0  0
  146.3849  134.6871  163.1180 H   0  0  0  0  0  0  0  0  0  0  0  0
  146.6089  137.4312  163.0407 H   0  0  0  0  0  0  0  0  0  0  0  0
  153.2697  141.0028  160.6634 H   0  0  0  0  0  0  0  0  0  0  0  0
  153.4751  143.4467  160.2656 H   0  0  0  0  0  0  0  0  0  0  0  0
  152.0950  144.5557  158.5206 H   0  0  0  0  0  0  0  0  0  0  0  0
  150.4949  143.2197  157.1595 H   0  0  0  0  0  0  0  0  0  0  0  0
  1  2  1  0  0  0  0
  1 24  1  0  0  0  0
  1 25  1  0  0  0  0
  1 26  1  0  0  0  0
  2  3  1  0  0  0  0
  3  4  1  0  0  0  0
  3 27  1  0  0  0  0
  3 28  1  0  0  0  0
  4  5  1  0  0  0  0
  4 29  1  0  0  0  0
  4 30  1  0  0  0  0
  5 23  1  0  0  0  0
  5  6  1  0  0  0  0
  6  7  1  0  0  0  0
  6 17  2  0  0  0  0
  7  8  1  0  0  0  0
  7  9  1  0  0  0  0
  7 31  1  0  0  0  0
  8 32  1  0  0  0  0
  8 33  1  0  0  0  0
  8 34  1  0  0  0  0
  9 10  1  0  0  0  0
  9 35  1  0  0  0  0
 10 11  2  0  0  0  0
 10 12  1  0  0  0  0
 12 16  1  0  0  0  0
 12 13  2  0  0  0  0
 13 14  1  0  0  0  0
 13 36  1  0  0  0  0
 14 15  2  0  0  0  0
 14 37  1  0  0  0  0
 15 16  1  0  0  0  0
 15 38  1  0  0  0  0
 17 18  1  0  0  0  0
 18 23  2  0  0  0  0
 18 19  1  0  0  0  0
 19 20  2  0  0  0  0
 19 39  1  0  0  0  0
 20 21  1  0  0  0  0
 20 40  1  0  0  0  0
 21 22  2  0  0  0  0
 21 41  1  0  0  0  0
 22 23  1  0  0  0  0
 22 42  1  0  0  0  0
M  END
> <s_m_source_file>
AV-unprocessed.smi

> <i_m_source_file_index>
496

> <i_lp_mmshare_version>
43012

> <i_f3d_flags>
0

> <s_epik_input>
W2NIXTFbY0hdW2NIXVtjSF1jKGMxMiluKFtDSDJdW0NIMl1PW0NIM10pYyhuMilbQ0BIXShbQ0gzXSlbTkhdQyg9TyljM1tjSF1bY0hdW2NIXW8z

> <s_epik_cmdline>
J2VwaWtfcHl0aG9uJywgJy1waCcsICc3LjAnLCAnLXRuJywgJzgnLCAnLW1hJywgJzIwMCcsICctbWV0YWxfYmluZGluZycsICctaW1hZScsICc8aW5maWxlLm1hZT4nLCAnLW9tYWUnLCAnPG91dGZpbGUubWFlPic=

> <r_epik_Ionization_Penalty>
0.116528

> <r_epik_Ionization_Penalty_Charging>
0

> <r_epik_Ionization_Penalty_Neutral>
0.116528

> <r_epik_State_Penalty>
0.106132

> <r_epik_Charging_Adjusted_Penalty>
0.106132

> <i_epik_Tot_Q>
0

> <i_epik_Tot_abs_Q>
0

> <r_epik_Metal_State_Penalty>
0.0963468

> <b_epik_Metal_Only>
0

> <s_lp_Force_Field>
OPLS_2005

> <r_lp_Energy>
8.49443

> <b_lp_Chiralities_Consistent>
1

> <s_lp_Variant>
AV-unprocessed.smi:496-2

> <Gold.Version>
5.8.1

> <Gold.Id.Protein>
6NUR|6NUR_protein|mol2

> <Gold.PLP.Fitness>
57.7597

> <Gold.PLP.PLP>
-47.0399

> <Gold.PLP.part.hbond>
-4.0000

> <Gold.PLP.part.metal>
0.0000

> <Gold.PLP.part.buried>
-6.6922

> <Gold.PLP.part.nonpolar>
-37.1010

> <Gold.PLP.part.repulsive>
0.2936

> <Gold.PLP.ligand.clash>
0.0000

> <Gold.PLP.ligand.torsion>
0.3247

> <Gold.PLP.Chemscore.Hbond>
3.7680

> <Gold.PLP.Chemscore.CHOScore>
0.0000

> <Gold.PLP.Chemscore.Metal>
0.0000

> <Gold.Chemscore.Hbonds>
donor molecule, donor type, donor heavy atom, donor atom, acceptor molecule, acceptor atom, score
      P1  H  6896  6907       L1    11  1.00
      P1  H  6931  6943       L1    16  1.00
      P1  H  6934  6947       L1    16  0.86
      P1  H  7989  7998       L1     2  1.00

> <Gold.PLP.Chemscore.Internal.Correction>
0.0653

> <Gold.Rescore>
     Score         DG    S(hbond)    S(metal)    S(lipo)     H(rot)  DE(clash)    DE(int)     intcor
     21.76     -23.73       3.03        0.00     109.97       1.85       0.08       1.89       ----

> <Gold.Chemscore.Fitness>
21.7621

> <Gold.Chemscore.DG>
-23.7267

> <Gold.Chemscore.ZeroCoef>
-5.4800

> <Gold.Chemscore.Hbond>
3.0273

> <Gold.Chemscore.Metal>
0.0000

> <Gold.Chemscore.Lipo>
109.9700

> <Gold.Chemscore.Internal_Hbond>
0.0000

> <Gold.Chemscore.DEClash>
0.0775

> <Gold.Chemscore.DEInternal>
1.8871

> <Gold.Chemscore.Rot>
1.8480

> <Gold.Chemscore.Internal.Correction>
   9.000000E+99

> <Gold.Chemscore.Hbonds>
donor molecule, donor type, donor heavy atom, donor atom, acceptor molecule, acceptor atom, score
      P1  H  6896  6907       L1    11  0.25
      P1  H  6931  6943       L1    16  0.59
      P1  H  6934  6947       L1    16  0.57
      P1  H  7989  7998       L1     2  0.42

> <Gold.Chemscore.Hbond.Weighted>
-10.1111

> <Gold.Chemscore.Metal.Weighted>
-0.0000

> <Gold.Chemscore.Lipo.Weighted>
-12.8665

> <Gold.Chemscore.Internal_Hbond.Weighted>
0.0000

> <Gold.Chemscore.DEClash.Weighted>
0.0775

> <Gold.Chemscore.DEInternal.Weighted>
1.8871

> <Gold.Chemscore.Rot.Weighted>
4.7308

> <Gold.Chemscore.Internal.Correction.Weighted>
   9.000000E+99

> <Gold.Protein.RotatedTorsions>
[ 6907 6896 6895 6894 ] final  -78.21 input  -60.11 | X-H torsion
[ 7974 7965 7964 7962 ] final -157.91 input  175.53 | X-H torsion
[ 8008 7997 7996 7995 ] final  105.05 input   59.86 | X-H torsion
[ 10167 10162 10161 10158 ] final  -74.34 input  -65.29 | X-H torsion
[ 10718 10713 10712 10709 ] final   -2.84 input   66.30 | X-H torsion
[ 10763 10752 10751 10750 ] final  -10.62 input  -60.55 | X-H torsion
[ 11005 11000 10999 10996 ] final  -46.80 input  -57.11 | X-H torsion

> <Gold.Protein.ActiveResidues>
 VAL166  LYS551  ARG553  GLY616  TRP617  ASP618  TYR619  PRO620  LYS621  CYS622 
 ASP623  PHE694  ASN695  SER759  ASP760  ASP761  ALA762  ILE779  LEU786  VAL792 
 PHE793  MET794  SER795  GLU796  ALA797  LYS798  CYS799  TRP800  GLU811  SER814 

> <Gold.Protein.RotatedAtoms>
  150.6978  134.4306  159.5246 H   0  0  0  0  0  0  0  0  0  0  0  0  # atno 6907 bound_to 6896
  152.2033  134.8565  160.0514 H   0  0  0  0  0  0  0  0  0  0  0  0  # atno 6908 bound_to 6896
  151.9477  133.3622  159.4025 H   0  0  0  0  0  0  0  0  0  0  0  0  # atno 6909 bound_to 6896
  144.7528  140.3903  143.6035 H   0  0  0  0  0  0  0  0  0  0  0  0  # atno 7974 bound_to 7965
  156.1626  140.3137  155.8833 H   0  0  0  0  0  0  0  0  0  0  0  0  # atno 8008 bound_to 7997
  155.3751  140.0484  157.3062 H   0  0  0  0  0  0  0  0  0  0  0  0  # atno 8009 bound_to 7997
  154.5161  140.2182  155.9074 H   0  0  0  0  0  0  0  0  0  0  0  0  # atno 8010 bound_to 7997
  140.5035  143.2357  151.7713 H   0  0  0  0  0  0  0  0  0  0  0  0  # atno 10167 bound_to 10162
  156.7849  130.5342  149.5745 H   0  0  0  0  0  0  0  0  0  0  0  0  # atno 10718 bound_to 10713
  153.4718  135.7017  153.5989 H   0  0  0  0  0  0  0  0  0  0  0  0  # atno 10763 bound_to 10752
  153.4240  135.3818  155.2129 H   0  0  0  0  0  0  0  0  0  0  0  0  # atno 10764 bound_to 10752
  154.8725  135.3934  154.4157 H   0  0  0  0  0  0  0  0  0  0  0  0  # atno 10765 bound_to 10752
  141.0601  133.6712  156.3206 H   0  0  0  0  0  0  0  0  0  0  0  0  # atno 11005 bound_to 11000
  145.6884  139.1633  143.2661 LP  0  0  0  0  0  0  0  0  0  0  0  0  # atno 17320 bound_to 7965
  146.1501  140.6938  142.9326 LP  0  0  0  0  0  0  0  0  0  0  0  0  # atno 17321 bound_to 7965
  139.4878  144.4490  151.9676 LP  0  0  0  0  0  0  0  0  0  0  0  0  # atno 17342 bound_to 10162
  140.3579  144.3008  150.5938 LP  0  0  0  0  0  0  0  0  0  0  0  0  # atno 17343 bound_to 10162
  156.1195  130.6099  151.0172 LP  0  0  0  0  0  0  0  0  0  0  0  0  # atno 17370 bound_to 10713
  157.6629  131.0877  150.7797 LP  0  0  0  0  0  0  0  0  0  0  0  0  # atno 17371 bound_to 10713
  140.5886  134.5674  157.5495 LP  0  0  0  0  0  0  0  0  0  0  0  0  # atno 17394 bound_to 11000
  139.9425  134.7761  156.0643 LP  0  0  0  0  0  0  0  0  0  0  0  0  # atno 17395 bound_to 11000

$$$$
