AV-unprocessed.smi:243|AV-procd|sdf|1852|dock3
  -GOLD-   2262020473D 1   1.00000     0.00000
 Structure written by MMmdl.
 58 61  0  0  0  0  0  0  0  0  2 V2000
  153.2216  142.8226  159.7275 C   0  0  0  0  0  0  0  0  0  0  0  0
  152.8797  141.3340  159.5411 C   0  0  0  0  0  0  0  0  0  0  0  0
  152.0788  141.0371  158.3255 N   0  3  2  0  0  0  0  0  0  0  0  0
  150.9406  141.9644  158.1073 C   0  0  0  0  0  0  0  0  0  0  0  0
  150.3504  141.7650  156.7042 C   0  0  0  0  0  0  0  0  0  0  0  0
  149.9280  140.2912  156.4968 C   0  0  1  0  0  0  0  0  0  0  0  0
  149.1953  140.0120  155.2510 N   0  0  0  0  0  0  0  0  0  0  0  0
  149.1534  141.0253  154.2027 C   0  0  0  0  0  0  0  0  0  0  0  0
  148.3757  138.9415  155.0771 C   0  0  0  0  0  0  0  0  0  0  0  0
  148.4198  137.9060  155.9543 N   0  0  0  0  0  0  0  0  0  0  0  0
  147.6115  136.8531  155.8043 C   0  0  0  0  0  0  0  0  0  0  0  0
  146.6961  136.6335  154.8599 N   0  0  0  0  0  0  0  0  0  0  0  0
  146.6434  137.6682  153.9736 C   0  0  0  0  0  0  0  0  0  0  0  0
  147.4343  138.8519  154.0117 C   0  0  0  0  0  0  0  0  0  0  0  0
  147.0994  139.6751  152.9428 N   0  0  0  0  0  0  0  0  0  0  0  0
  146.1639  139.0189  152.3130 C   0  0  0  0  0  0  0  0  0  0  0  0
  145.8362  137.7979  152.8571 N   0  0  0  0  0  0  0  0  0  0  0  0
  144.8469  136.8567  152.3554 C   0  0  0  0  0  0  0  0  0  0  0  0
  145.4499  135.7593  151.4469 C   0  0  2  0  0  0  0  0  0  0  0  0
  146.3502  136.3587  150.5316 O   0  0  0  0  0  0  0  0  0  0  0  0
  144.4141  134.9650  150.6548 C   0  0  0  0  0  0  0  0  0  0  0  0
  145.0431  133.5819  150.5625 C   0  0  0  0  0  0  0  0  0  0  0  0
  145.6248  133.4248  151.8449 O   0  0  0  0  0  0  0  0  0  0  0  0
  146.2054  134.6666  152.2298 C   0  0  0  0  0  0  0  0  0  0  0  0
  151.0994  139.3146  156.7951 C   0  0  1  0  0  0  0  0  0  0  0  0
  152.2117  139.2821  155.7316 C   0  0  0  0  0  0  0  0  0  0  0  0
  151.6777  139.6122  158.1954 C   0  0  0  0  0  0  0  0  0  0  0  0
  153.8094  142.9646  160.6344 H   0  0  0  0  0  0  0  0  0  0  0  0
  152.3267  143.4368  159.8253 H   0  0  0  0  0  0  0  0  0  0  0  0
  153.8123  143.2118  158.8984 H   0  0  0  0  0  0  0  0  0  0  0  0
  153.8013  140.7521  159.5020 H   0  0  0  0  0  0  0  0  0  0  0  0
  152.3350  140.9744  160.4148 H   0  0  0  0  0  0  0  0  0  0  0  0
  150.1701  141.7983  158.8609 H   0  0  0  0  0  0  0  0  0  0  0  0
  151.2788  142.9956  158.2167 H   0  0  0  0  0  0  0  0  0  0  0  0
  149.4913  142.4238  156.5717 H   0  0  0  0  0  0  0  0  0  0  0  0
  151.0975  142.0769  155.9764 H   0  0  0  0  0  0  0  0  0  0  0  0
  149.1839  140.1015  157.2721 H   0  0  0  0  0  0  0  0  0  0  0  0
  148.1331  141.1797  153.8497 H   0  0  0  0  0  0  0  0  0  0  0  0
  149.7705  140.7265  153.3558 H   0  0  0  0  0  0  0  0  0  0  0  0
  149.5315  141.9831  154.5587 H   0  0  0  0  0  0  0  0  0  0  0  0
  147.7126  136.0752  156.5465 H   0  0  0  0  0  0  0  0  0  0  0  0
  145.6909  139.4070  151.4226 H   0  0  0  0  0  0  0  0  0  0  0  0
  144.3346  136.4055  153.2064 H   0  0  0  0  0  0  0  0  0  0  0  0
  144.0907  137.4216  151.8086 H   0  0  0  0  0  0  0  0  0  0  0  0
  147.1910  136.4494  150.9529 H   0  0  0  0  0  0  0  0  0  0  0  0
  143.4849  134.8866  151.2206 H   0  0  0  0  0  0  0  0  0  0  0  0
  144.1750  135.3963  149.6817 H   0  0  0  0  0  0  0  0  0  0  0  0
  144.3150  132.7988  150.3506 H   0  0  0  0  0  0  0  0  0  0  0  0
  145.8199  133.5519  149.7968 H   0  0  0  0  0  0  0  0  0  0  0  0
  147.2716  134.6565  151.9963 H   0  0  0  0  0  0  0  0  0  0  0  0
  146.1104  134.7864  153.3094 H   0  0  0  0  0  0  0  0  0  0  0  0
  150.6933  138.3038  156.8388 H   0  0  0  0  0  0  0  0  0  0  0  0
  152.6557  140.2650  155.5746 H   0  0  0  0  0  0  0  0  0  0  0  0
  151.8308  138.9244  154.7753 H   0  0  0  0  0  0  0  0  0  0  0  0
  153.0127  138.6032  156.0247 H   0  0  0  0  0  0  0  0  0  0  0  0
  152.5346  138.9656  158.3897 H   0  0  0  0  0  0  0  0  0  0  0  0
  150.9306  139.3748  158.9537 H   0  0  0  0  0  0  0  0  0  0  0  0
  152.7093  141.2055  157.5544 H   0  0  0  0  0  0  0  0  0  0  0  0
  1  2  1  0  0  0  0
  1 28  1  0  0  0  0
  1 29  1  0  0  0  0
  1 30  1  0  0  0  0
  2  3  1  0  0  0  0
  2 31  1  0  0  0  0
  2 32  1  0  0  0  0
  3 27  1  0  0  0  0
  3  4  1  0  0  0  0
  3 58  1  0  0  0  0
  4  5  1  0  0  0  0
  4 33  1  0  0  0  0
  4 34  1  0  0  0  0
  5  6  1  0  0  0  0
  5 35  1  0  0  0  0
  5 36  1  0  0  0  0
  6  7  1  0  0  0  0
  6 25  1  0  0  0  0
  6 37  1  0  0  0  0
  7  8  1  0  0  0  0
  7  9  1  0  0  0  0
  8 38  1  0  0  0  0
  8 39  1  0  0  0  0
  8 40  1  0  0  0  0
  9 14  1  0  0  0  0
  9 10  2  0  0  0  0
 10 11  1  0  0  0  0
 11 12  2  0  0  0  0
 11 41  1  0  0  0  0
 12 13  1  0  0  0  0
 13 17  1  0  0  0  0
 13 14  2  0  0  0  0
 14 15  1  0  0  0  0
 15 16  2  0  0  0  0
 16 17  1  0  0  0  0
 16 42  1  0  0  0  0
 17 18  1  0  0  0  0
 18 19  1  0  0  0  0
 18 43  1  0  0  0  0
 18 44  1  0  0  0  0
 19 24  1  0  0  0  0
 19 20  1  0  0  0  0
 19 21  1  0  0  0  0
 20 45  1  0  0  0  0
 21 22  1  0  0  0  0
 21 46  1  0  0  0  0
 21 47  1  0  0  0  0
 22 23  1  0  0  0  0
 22 48  1  0  0  0  0
 22 49  1  0  0  0  0
 23 24  1  0  0  0  0
 24 50  1  0  0  0  0
 24 51  1  0  0  0  0
 25 26  1  0  0  0  0
 25 27  1  0  0  0  0
 25 52  1  0  0  0  0
 26 53  1  0  0  0  0
 26 54  1  0  0  0  0
 26 55  1  0  0  0  0
 27 56  1  0  0  0  0
 27 57  1  0  0  0  0
M  CHG  1   3   1
M  END
> <s_m_source_file>
AV-unprocessed.smi

> <i_m_source_file_index>
243

> <i_lp_mmshare_version>
43012

> <i_f3d_flags>
0

> <s_epik_input>
W0NIM11bQ0gyXU4xW0NIMl1bQ0gyXVtDQEhdKFtDQEBIXShbQ0gzXSlbQ0gyXTEpTihbQ0gzXSljKG5bY0hdbjIpYyhjMjMpbltjSF1uM1tDSDJdW0NAQF00KFtPSF0pW0NIMl1bQ0gyXU9bQ0gyXTQ=

> <s_epik_cmdline>
J2VwaWtfcHl0aG9uJywgJy1waCcsICc3LjAnLCAnLXRuJywgJzgnLCAnLW1hJywgJzIwMCcsICctbWV0YWxfYmluZGluZycsICctaW1hZScsICc8aW5maWxlLm1hZT4nLCAnLW9tYWUnLCAnPG91dGZpbGUubWFlPic=

> <r_lp_tautomer_probability>
1

> <r_epik_Ionization_Penalty>
0.00253099

> <r_epik_Ionization_Penalty_Charging>
0.00137877

> <r_epik_Ionization_Penalty_Neutral>
0.00115221

> <r_epik_State_Penalty>
-0

> <r_epik_Charging_Adjusted_Penalty>
0.00137877

> <i_epik_Tot_Q>
1

> <i_epik_Tot_abs_Q>
1

> <r_epik_Metal_State_Penalty>
-0

> <b_epik_Metal_Only>
0

> <s_lp_Force_Field>
OPLS_2005

> <r_lp_Energy>
49.3868

> <b_lp_Chiralities_Consistent>
1

> <s_lp_Variant>
AV-unprocessed.smi:243-5

> <Gold.Version>
5.8.1

> <Gold.Id.Protein>
6NUR|6NUR_protein|mol2

> <Gold.PLP.Fitness>
41.7170

> <Gold.PLP.PLP>
-35.7567

> <Gold.PLP.part.hbond>
-1.9895

> <Gold.PLP.part.metal>
0.0000

> <Gold.PLP.part.buried>
3.0566

> <Gold.PLP.part.nonpolar>
-37.0516

> <Gold.PLP.part.repulsive>
1.0528

> <Gold.PLP.ligand.clash>
0.0000

> <Gold.PLP.ligand.torsion>
0.9031

> <Gold.PLP.Chemscore.Hbond>
1.0000

> <Gold.PLP.Chemscore.CHOScore>
1.4361

> <Gold.PLP.Chemscore.Metal>
0.0000

> <Gold.Chemscore.Hbonds>
donor molecule, donor type, donor heavy atom, donor atom, acceptor molecule, acceptor atom, score
      L1  H    20    45       P1  7948  1.00
      L1  C    16    42       P1 10171  0.98
      L1  C    16    42       P1 10175  0.41

> <Gold.PLP.Chemscore.Internal.Correction>
0.4581

> <Gold.Rescore>
     Score         DG    S(hbond)    S(metal)    S(lipo)     H(rot)  DE(clash)    DE(int)     intcor
     10.62     -13.60       0.98        0.00      90.50       2.24       0.69       2.30       ----

> <Gold.Chemscore.Fitness>
10.6206

> <Gold.Chemscore.DG>
-13.6029

> <Gold.Chemscore.ZeroCoef>
-5.4800

> <Gold.Chemscore.Hbond>
0.9769

> <Gold.Chemscore.Metal>
0.0000

> <Gold.Chemscore.Lipo>
90.5047

> <Gold.Chemscore.Internal_Hbond>
0.0000

> <Gold.Chemscore.DEClash>
0.6870

> <Gold.Chemscore.DEInternal>
2.2953

> <Gold.Chemscore.Rot>
2.2379

> <Gold.Chemscore.Internal.Correction>
   9.000000E+99

> <Gold.Chemscore.Hbonds>
donor molecule, donor type, donor heavy atom, donor atom, acceptor molecule, acceptor atom, score
      L1  H    20    45       P1  7948  0.98

> <Gold.Chemscore.Hbond.Weighted>
-3.2629

> <Gold.Chemscore.Metal.Weighted>
-0.0000

> <Gold.Chemscore.Lipo.Weighted>
-10.5891

> <Gold.Chemscore.Internal_Hbond.Weighted>
0.0000

> <Gold.Chemscore.DEClash.Weighted>
0.6870

> <Gold.Chemscore.DEInternal.Weighted>
2.2953

> <Gold.Chemscore.Rot.Weighted>
5.7291

> <Gold.Chemscore.Internal.Correction.Weighted>
   9.000000E+99

> <Gold.Protein.RotatedTorsions>
[ 6907 6896 6895 6894 ] final    0.26 input  -60.11 | X-H torsion
[ 7974 7965 7964 7962 ] final   49.05 input  175.53 | X-H torsion
[ 8008 7997 7996 7995 ] final  123.55 input   59.86 | X-H torsion
[ 10167 10162 10161 10158 ] final  176.31 input  -65.29 | X-H torsion
[ 10718 10713 10712 10709 ] final  141.78 input   66.30 | X-H torsion
[ 10763 10752 10751 10750 ] final -100.86 input  -60.55 | X-H torsion
[ 11005 11000 10999 10996 ] final  116.69 input  -57.11 | X-H torsion

> <Gold.Protein.ActiveResidues>
 VAL166  LYS551  ARG553  GLY616  TRP617  ASP618  TYR619  PRO620  LYS621  CYS622 
 ASP623  PHE694  ASN695  SER759  ASP760  ASP761  ALA762  ILE779  LEU786  VAL792 
 PHE793  MET794  SER795  GLU796  ALA797  LYS798  CYS799  TRP800  GLU811  SER814 

> <Gold.Protein.RotatedAtoms>
  151.5736  135.1061  160.0000 H   0  0  0  0  0  0  0  0  0  0  0  0  # atno 6907 bound_to 6896
  152.4389  133.7407  159.6650 H   0  0  0  0  0  0  0  0  0  0  0  0  # atno 6908 bound_to 6896
  150.8291  133.8052  159.3129 H   0  0  0  0  0  0  0  0  0  0  0  0  # atno 6909 bound_to 6896
  146.0146  139.4581  142.9935 H   0  0  0  0  0  0  0  0  0  0  0  0  # atno 7974 bound_to 7965
  156.2770  140.2760  156.1646 H   0  0  0  0  0  0  0  0  0  0  0  0  # atno 8008 bound_to 7997
  155.0718  140.0387  157.2629 H   0  0  0  0  0  0  0  0  0  0  0  0  # atno 8009 bound_to 7997
  154.7034  140.2654  155.6703 H   0  0  0  0  0  0  0  0  0  0  0  0  # atno 8010 bound_to 7997
  139.5209  144.2930  152.0447 H   0  0  0  0  0  0  0  0  0  0  0  0  # atno 10167 bound_to 10162
  157.3881  131.1001  151.0673 H   0  0  0  0  0  0  0  0  0  0  0  0  # atno 10718 bound_to 10713
  154.7612  135.4919  153.9468 H   0  0  0  0  0  0  0  0  0  0  0  0  # atno 10763 bound_to 10752
  153.1254  135.6741  153.9274 H   0  0  0  0  0  0  0  0  0  0  0  0  # atno 10764 bound_to 10752
  153.8993  135.3111  155.3427 H   0  0  0  0  0  0  0  0  0  0  0  0  # atno 10765 bound_to 10752
  139.9049  134.9601  156.7237 H   0  0  0  0  0  0  0  0  0  0  0  0  # atno 11005 bound_to 11000
  145.7289  141.0049  143.1362 LP  0  0  0  0  0  0  0  0  0  0  0  0  # atno 17320 bound_to 7965
  144.6966  139.8961  143.7456 LP  0  0  0  0  0  0  0  0  0  0  0  0  # atno 17321 bound_to 7965
  140.2380  144.4299  150.6272 LP  0  0  0  0  0  0  0  0  0  0  0  0  # atno 17342 bound_to 10162
  140.6310  143.2187  151.6496 LP  0  0  0  0  0  0  0  0  0  0  0  0  # atno 17343 bound_to 10162
  157.1717  130.6270  149.5642 LP  0  0  0  0  0  0  0  0  0  0  0  0  # atno 17370 bound_to 10713
  155.9791  130.4783  150.6699 LP  0  0  0  0  0  0  0  0  0  0  0  0  # atno 17371 bound_to 10713
  140.6980  133.9331  155.8007 LP  0  0  0  0  0  0  0  0  0  0  0  0  # atno 17394 bound_to 11000
  141.0392  134.0645  157.3922 LP  0  0  0  0  0  0  0  0  0  0  0  0  # atno 17395 bound_to 11000

$$$$
