AV-unprocessed.smi:3314|AV-procd|sdf|12740|dock2
  -GOLD-   2272019 83D 1   1.00000     0.00000
 Structure written by MMmdl.
 38 39  0  0  0  0  0  0  0  0  2 V2000
  151.9377  145.9214  160.1403 C   0  0  0  0  0  0  0  0  0  0  0  0
  152.1822  144.4876  159.7166 C   0  0  0  0  0  0  0  0  0  0  0  0
  152.9810  143.6017  160.5465 C   0  0  0  0  0  0  0  0  0  0  0  0
  153.1854  142.3331  160.1532 C   0  0  0  0  0  0  0  0  0  0  0  0
  154.0007  141.3291  160.9408 C   0  0  0  0  0  0  0  0  0  0  0  0
  152.6428  141.8583  158.9658 N   0  0  0  0  0  0  0  0  0  0  0  0
  151.8607  142.6516  158.1079 C   0  0  0  0  0  0  0  0  0  0  0  0
  151.3314  142.2563  156.9865 N   0  0  0  0  0  0  0  0  0  0  0  0
  151.4791  140.9595  156.5016 C   0  0  0  0  0  0  0  0  0  0  0  0
  152.4895  140.2521  156.4532 O   0  0  0  0  0  0  0  0  0  0  0  0
  150.1588  140.3974  155.9611 C   0  0  1  0  0  0  0  0  0  0  0  0
  149.0513  141.4727  155.9765 C   0  0  0  0  0  0  0  0  0  0  0  0
  147.8108  140.9471  155.3614 N   0  3  1  0  0  0  0  0  0  0  0  0
  146.7028  141.9256  155.3862 C   0  0  0  0  0  0  0  0  0  0  0  0
  148.0763  140.4177  154.0046 C   0  0  0  0  0  0  0  0  0  0  0  0
  149.2039  139.3742  154.0522 C   0  0  0  0  0  0  0  0  0  0  0  0
  150.3686  139.9596  154.6206 O   0  0  0  0  0  0  0  0  0  0  0  0
  151.6576  144.0199  158.5593 C   0  0  0  0  0  0  0  0  0  0  0  0
  152.4281  146.1421  161.0889 H   0  0  0  0  0  0  0  0  0  0  0  0
  150.8695  146.1050  160.2587 H   0  0  0  0  0  0  0  0  0  0  0  0
  152.3250  146.6101  159.3889 H   0  0  0  0  0  0  0  0  0  0  0  0
  153.4069  143.9608  161.4720 H   0  0  0  0  0  0  0  0  0  0  0  0
  154.3815  141.7670  161.8640 H   0  0  0  0  0  0  0  0  0  0  0  0
  154.8512  140.9855  160.3514 H   0  0  0  0  0  0  0  0  0  0  0  0
  153.3902  140.4640  161.2012 H   0  0  0  0  0  0  0  0  0  0  0  0
  149.8557  139.5402  156.5667 H   0  0  0  0  0  0  0  0  0  0  0  0
  148.8425  141.7811  157.0023 H   0  0  0  0  0  0  0  0  0  0  0  0
  149.3753  142.3632  155.4339 H   0  0  0  0  0  0  0  0  0  0  0  0
  146.9472  142.8104  154.7969 H   0  0  0  0  0  0  0  0  0  0  0  0
  146.4936  142.2425  156.4086 H   0  0  0  0  0  0  0  0  0  0  0  0
  145.7912  141.4852  154.9807 H   0  0  0  0  0  0  0  0  0  0  0  0
  147.1694  139.9668  153.5999 H   0  0  0  0  0  0  0  0  0  0  0  0
  148.3537  141.2361  153.3381 H   0  0  0  0  0  0  0  0  0  0  0  0
  148.9027  138.4983  154.6290 H   0  0  0  0  0  0  0  0  0  0  0  0
  149.4381  139.0274  153.0455 H   0  0  0  0  0  0  0  0  0  0  0  0
  151.0694  144.7080  157.9688 H   0  0  0  0  0  0  0  0  0  0  0  0
  152.8413  140.8933  158.7432 H   0  0  0  0  0  0  0  0  0  0  0  0
  147.5175  140.1627  155.9261 H   0  0  0  0  0  0  0  0  0  0  0  0
  1  2  1  0  0  0  0
  1 19  1  0  0  0  0
  1 20  1  0  0  0  0
  1 21  1  0  0  0  0
  2 18  2  0  0  0  0
  2  3  1  0  0  0  0
  3  4  2  0  0  0  0
  3 22  1  0  0  0  0
  4  5  1  0  0  0  0
  4  6  1  0  0  0  0
  5 23  1  0  0  0  0
  5 24  1  0  0  0  0
  5 25  1  0  0  0  0
  6  7  1  0  0  0  0
  6 37  1  0  0  0  0
  7  8  2  0  0  0  0
  7 18  1  0  0  0  0
  8  9  1  0  0  0  0
  9 10  2  0  0  0  0
  9 11  1  0  0  0  0
 11 17  1  0  0  0  0
 11 12  1  0  0  0  0
 11 26  1  0  0  0  0
 12 13  1  0  0  0  0
 12 27  1  0  0  0  0
 12 28  1  0  0  0  0
 13 14  1  0  0  0  0
 13 15  1  0  0  0  0
 13 38  1  0  0  0  0
 14 29  1  0  0  0  0
 14 30  1  0  0  0  0
 14 31  1  0  0  0  0
 15 16  1  0  0  0  0
 15 32  1  0  0  0  0
 15 33  1  0  0  0  0
 16 17  1  0  0  0  0
 16 34  1  0  0  0  0
 16 35  1  0  0  0  0
 18 36  1  0  0  0  0
M  CHG  1  13   1
M  END
> <s_m_source_file>
AV-unprocessed.smi

> <i_m_source_file_index>
3314

> <i_lp_mmshare_version>
43012

> <i_f3d_flags>
0

> <s_epik_input>
W0NIM11jMVtjSF1jKFtDSDNdKW5jKFtjSF0xKVtOSF1DKD1PKVtDQEBIXTJbQ0gyXU4oW0NIM10pW0NIMl1bQ0gyXU8y

> <s_epik_cmdline>
J2VwaWtfcHl0aG9uJywgJy1waCcsICc3LjAnLCAnLXRuJywgJzgnLCAnLW1hJywgJzIwMCcsICctbWV0YWxfYmluZGluZycsICctaW1hZScsICc8aW5maWxlLm1hZT4nLCAnLW9tYWUnLCAnPG91dGZpbGUubWFlPic=

> <r_epik_Ionization_Penalty>
0.519783

> <r_epik_Ionization_Penalty_Charging>
0.519783

> <r_epik_Ionization_Penalty_Neutral>
1.74183e-13

> <r_epik_State_Penalty>
2.39351

> <r_epik_Charging_Adjusted_Penalty>
2.91329

> <i_epik_Tot_Q>
1

> <i_epik_Tot_abs_Q>
1

> <r_epik_Metal_State_Penalty>
2.41924

> <b_epik_Metal_Only>
0

> <s_lp_Force_Field>
OPLS_2005

> <r_lp_Energy>
34.3137

> <b_lp_Chiralities_Consistent>
1

> <s_lp_Variant>
AV-unprocessed.smi:3314-10

> <Gold.Version>
5.8.1

> <Gold.Id.Protein>
6NUR|6NUR_protein|mol2

> <Gold.PLP.Fitness>
42.5953

> <Gold.PLP.PLP>
-37.4381

> <Gold.PLP.part.hbond>
-2.0000

> <Gold.PLP.part.metal>
0.0000

> <Gold.PLP.part.buried>
-1.5053

> <Gold.PLP.part.nonpolar>
-33.2628

> <Gold.PLP.part.repulsive>
0.2655

> <Gold.PLP.ligand.clash>
0.0000

> <Gold.PLP.ligand.torsion>
0.4219

> <Gold.PLP.Chemscore.Hbond>
2.0000

> <Gold.PLP.Chemscore.CHOScore>
0.0000

> <Gold.PLP.Chemscore.Metal>
0.0000

> <Gold.Chemscore.Hbonds>
donor molecule, donor type, donor heavy atom, donor atom, acceptor molecule, acceptor atom, score
      P1  H  7989  7998       L1    17  1.00
      P1  H  7997  8008       L1    10  1.00

> <Gold.PLP.Chemscore.Internal.Correction>
0.0010

> <Gold.Rescore>
     Score         DG    S(hbond)    S(metal)    S(lipo)     H(rot)  DE(clash)    DE(int)     intcor
     18.80     -20.33       1.91        0.00      94.43       1.00       0.16       1.38       ----

> <Gold.Chemscore.Fitness>
18.7957

> <Gold.Chemscore.DG>
-20.3330

> <Gold.Chemscore.ZeroCoef>
-5.4800

> <Gold.Chemscore.Hbond>
1.9055

> <Gold.Chemscore.Metal>
0.0000

> <Gold.Chemscore.Lipo>
94.4332

> <Gold.Chemscore.Internal_Hbond>
0.0000

> <Gold.Chemscore.DEClash>
0.1565

> <Gold.Chemscore.DEInternal>
1.3808

> <Gold.Chemscore.Rot>
1.0000

> <Gold.Chemscore.Internal.Correction>
   9.000000E+99

> <Gold.Chemscore.Hbonds>
donor molecule, donor type, donor heavy atom, donor atom, acceptor molecule, acceptor atom, score
      P1  H  7989  7998       L1    17  0.95
      P1  H  7997  8008       L1    10  0.95

> <Gold.Chemscore.Hbond.Weighted>
-6.3643

> <Gold.Chemscore.Metal.Weighted>
-0.0000

> <Gold.Chemscore.Lipo.Weighted>
-11.0487

> <Gold.Chemscore.Internal_Hbond.Weighted>
0.0000

> <Gold.Chemscore.DEClash.Weighted>
0.1565

> <Gold.Chemscore.DEInternal.Weighted>
1.3808

> <Gold.Chemscore.Rot.Weighted>
2.5600

> <Gold.Chemscore.Internal.Correction.Weighted>
   9.000000E+99

> <Gold.Protein.RotatedTorsions>
[ 6907 6896 6895 6894 ] final   36.91 input  -60.11 | X-H torsion
[ 7974 7965 7964 7962 ] final -130.04 input  175.53 | X-H torsion
[ 8008 7997 7996 7995 ] final  -37.52 input   59.86 | X-H torsion
[ 10167 10162 10161 10158 ] final   21.40 input  -65.29 | X-H torsion
[ 10718 10713 10712 10709 ] final   67.75 input   66.30 | X-H torsion
[ 10763 10752 10751 10750 ] final -176.57 input  -60.55 | X-H torsion
[ 11005 11000 10999 10996 ] final  -89.30 input  -57.11 | X-H torsion

> <Gold.Protein.ActiveResidues>
 VAL166  LYS551  ARG553  GLY616  TRP617  ASP618  TYR619  PRO620  LYS621  CYS622 
 ASP623  PHE694  ASN695  SER759  ASP760  ASP761  ALA762  ILE779  LEU786  VAL792 
 PHE793  MET794  SER795  GLU796  ALA797  LYS798  CYS799  TRP800  GLU811  SER814 

> <Gold.Protein.RotatedAtoms>
  152.1361  134.9098  160.0556 H   0  0  0  0  0  0  0  0  0  0  0  0  # atno 6907 bound_to 6896
  152.0184  133.3884  159.4256 H   0  0  0  0  0  0  0  0  0  0  0  0  # atno 6908 bound_to 6896
  150.6860  134.3575  159.4979 H   0  0  0  0  0  0  0  0  0  0  0  0  # atno 6909 bound_to 6896
  144.9513  140.7348  143.4786 H   0  0  0  0  0  0  0  0  0  0  0  0  # atno 7974 bound_to 7965
  154.4052  140.1602  156.2550 H   0  0  0  0  0  0  0  0  0  0  0  0  # atno 8008 bound_to 7997
  155.9086  140.3428  155.6059 H   0  0  0  0  0  0  0  0  0  0  0  0  # atno 8009 bound_to 7997
  155.7362  140.0786  157.2257 H   0  0  0  0  0  0  0  0  0  0  0  0  # atno 8010 bound_to 7997
  140.5430  143.9644  150.6530 H   0  0  0  0  0  0  0  0  0  0  0  0  # atno 10167 bound_to 10162
  157.6249  130.9337  150.0285 H   0  0  0  0  0  0  0  0  0  0  0  0  # atno 10718 bound_to 10713
  154.5708  135.2828  155.0829 H   0  0  0  0  0  0  0  0  0  0  0  0  # atno 10763 bound_to 10752
  154.2202  135.6392  153.5146 H   0  0  0  0  0  0  0  0  0  0  0  0  # atno 10764 bound_to 10752
  153.0057  135.5512  154.6331 H   0  0  0  0  0  0  0  0  0  0  0  0  # atno 10765 bound_to 10752
  141.1587  133.7621  156.9574 H   0  0  0  0  0  0  0  0  0  0  0  0  # atno 11005 bound_to 11000
  145.2839  139.1908  143.4776 LP  0  0  0  0  0  0  0  0  0  0  0  0  # atno 17320 bound_to 7965
  146.3322  140.2806  142.8610 LP  0  0  0  0  0  0  0  0  0  0  0  0  # atno 17321 bound_to 7965
  140.3050  143.3235  152.0935 LP  0  0  0  0  0  0  0  0  0  0  0  0  # atno 17342 bound_to 10162
  139.4996  144.6673  151.6327 LP  0  0  0  0  0  0  0  0  0  0  0  0  # atno 17343 bound_to 10162
  156.1415  130.3642  149.9575 LP  0  0  0  0  0  0  0  0  0  0  0  0  # atno 17370 bound_to 10713
  156.7615  130.9152  151.3641 LP  0  0  0  0  0  0  0  0  0  0  0  0  # atno 17371 bound_to 10713
  140.1216  134.9413  157.2211 LP  0  0  0  0  0  0  0  0  0  0  0  0  # atno 17394 bound_to 11000
  140.3065  134.3072  155.7277 LP  0  0  0  0  0  0  0  0  0  0  0  0  # atno 17395 bound_to 11000

$$$$
