AV-unprocessed.smi:754|AV-procd|sdf|3609|dock8
  -GOLD-   22720 1 03D 1   1.00000     0.00000
 Structure written by MMmdl.
 37 38  0  0  0  0  0  0  0  0  1 V2000
  153.2672  142.4126  161.1867 C   0  0  0  0  0  0  0  0  0  0  0  0
  152.3053  143.3636  160.4717 C   0  0  0  0  0  0  0  0  0  0  0  0
  151.3563  142.5970  159.7497 O   0  0  0  0  0  0  0  0  0  0  0  0
  151.7670  142.3196  158.4202 C   0  0  2  0  0  0  0  0  0  0  0  0
  151.3133  143.3531  157.3846 C   0  0  0  0  0  0  0  0  0  0  0  0
  151.0824  142.1601  156.4559 C   0  0  2  0  0  0  0  0  0  0  0  0
  149.8937  142.3163  155.6272 N   0  0  0  0  0  0  0  0  0  0  0  0
  149.4363  141.3863  154.7758 C   0  0  0  0  0  0  0  0  0  0  0  0
  150.0339  140.3393  154.5293 O   0  0  0  0  0  0  0  0  0  0  0  0
  148.0825  141.6679  154.1245 C   0  0  0  0  0  0  0  0  0  0  0  0
  147.0521  141.8260  155.1344 N   0  0  0  0  0  0  0  0  0  0  0  0
  145.7211  141.8356  155.0355 C   0  0  0  0  0  0  0  0  0  0  0  0
  145.1447  142.0405  156.2098 N   0  0  0  0  0  0  0  0  0  0  0  0
  146.2219  142.1599  157.0721 N   0  0  0  0  0  0  0  0  0  0  0  0
  147.3563  142.0336  156.4399 N   0  0  0  0  0  0  0  0  0  0  0  0
  150.8735  141.2715  157.7125 C   0  0  0  0  0  0  0  0  0  0  0  0
  151.4502  139.8583  157.6318 C   0  0  0  0  0  0  0  0  0  0  0  0
  149.4358  141.1369  158.2476 C   0  0  0  0  0  0  0  0  0  0  0  0
  154.0156  142.9678  161.7523 H   0  0  0  0  0  0  0  0  0  0  0  0
  153.7907  141.7763  160.4726 H   0  0  0  0  0  0  0  0  0  0  0  0
  152.7325  141.7663  161.8831 H   0  0  0  0  0  0  0  0  0  0  0  0
  151.8041  144.0015  161.2007 H   0  0  0  0  0  0  0  0  0  0  0  0
  152.8599  144.0113  159.7915 H   0  0  0  0  0  0  0  0  0  0  0  0
  152.8298  142.0790  158.3389 H   0  0  0  0  0  0  0  0  0  0  0  0
  150.4003  143.8781  157.6715 H   0  0  0  0  0  0  0  0  0  0  0  0
  152.0923  144.0426  157.0585 H   0  0  0  0  0  0  0  0  0  0  0  0
  151.9864  141.9031  155.8983 H   0  0  0  0  0  0  0  0  0  0  0  0
  149.3466  143.1536  155.7641 H   0  0  0  0  0  0  0  0  0  0  0  0
  148.1371  142.5779  153.5256 H   0  0  0  0  0  0  0  0  0  0  0  0
  147.8065  140.8527  153.4539 H   0  0  0  0  0  0  0  0  0  0  0  0
  145.1797  141.7038  154.1103 H   0  0  0  0  0  0  0  0  0  0  0  0
  150.8639  139.2247  156.9655 H   0  0  0  0  0  0  0  0  0  0  0  0
  151.4709  139.3788  158.6109 H   0  0  0  0  0  0  0  0  0  0  0  0
  152.4725  139.8638  157.2530 H   0  0  0  0  0  0  0  0  0  0  0  0
  148.8225  140.5076  157.6013 H   0  0  0  0  0  0  0  0  0  0  0  0
  148.9334  142.1011  158.3256 H   0  0  0  0  0  0  0  0  0  0  0  0
  149.4218  140.6897  159.2418 H   0  0  0  0  0  0  0  0  0  0  0  0
  1  2  1  0  0  0  0
  1 19  1  0  0  0  0
  1 20  1  0  0  0  0
  1 21  1  0  0  0  0
  2  3  1  0  0  0  0
  2 22  1  0  0  0  0
  2 23  1  0  0  0  0
  3  4  1  0  0  0  0
  4 16  1  0  0  0  0
  4  5  1  0  0  0  0
  4 24  1  0  0  0  0
  5  6  1  0  0  0  0
  5 25  1  0  0  0  0
  5 26  1  0  0  0  0
  6  7  1  0  0  0  0
  6 16  1  0  0  0  0
  6 27  1  0  0  0  0
  7  8  1  0  0  0  0
  7 28  1  0  0  0  0
  8  9  2  0  0  0  0
  8 10  1  0  0  0  0
 10 11  1  0  0  0  0
 10 29  1  0  0  0  0
 10 30  1  0  0  0  0
 11 15  1  0  0  0  0
 11 12  1  0  0  0  0
 12 13  2  0  0  0  0
 12 31  1  0  0  0  0
 13 14  1  0  0  0  0
 14 15  2  0  0  0  0
 16 17  1  0  0  0  0
 16 18  1  0  0  0  0
 17 32  1  0  0  0  0
 17 33  1  0  0  0  0
 17 34  1  0  0  0  0
 18 35  1  0  0  0  0
 18 36  1  0  0  0  0
 18 37  1  0  0  0  0
M  END
> <s_m_source_file>
AV-unprocessed.smi

> <i_m_source_file_index>
754

> <i_lp_mmshare_version>
43012

> <i_f3d_flags>
0

> <s_epik_input>
W0NIM11bQ0gyXU9bQ0BASF0oQzEoW0NIM10pW0NIM10pW0NIMl1bQ0BIXTFbTkhdQyg9TylbQ0gyXW4yW2NIXW5ubjI=

> <s_epik_cmdline>
J2VwaWtfcHl0aG9uJywgJy1waCcsICc3LjAnLCAnLXRuJywgJzgnLCAnLW1hJywgJzIwMCcsICctbWV0YWxfYmluZGluZycsICctaW1hZScsICc8aW5maWxlLm1hZT4nLCAnLW9tYWUnLCAnPG91dGZpbGUubWFlPic=

> <r_lp_tautomer_probability>
1

> <r_epik_Ionization_Penalty>
8.28422e-07

> <r_epik_Ionization_Penalty_Charging>
0

> <r_epik_Ionization_Penalty_Neutral>
8.28422e-07

> <r_epik_State_Penalty>
-0

> <r_epik_Charging_Adjusted_Penalty>
0

> <i_epik_Tot_Q>
0

> <i_epik_Tot_abs_Q>
0

> <r_epik_Metal_State_Penalty>
-0

> <b_epik_Metal_Only>
0

> <s_lp_Force_Field>
OPLS_2005

> <r_lp_Energy>
20.4803

> <b_lp_Chiralities_Consistent>
1

> <s_lp_Variant>
AV-unprocessed.smi:754-3

> <Gold.Version>
5.8.1

> <Gold.Id.Protein>
6NUR|6NUR_protein|mol2

> <Gold.PLP.Fitness>
40.8408

> <Gold.PLP.PLP>
-33.1883

> <Gold.PLP.part.hbond>
-2.7544

> <Gold.PLP.part.metal>
0.0000

> <Gold.PLP.part.buried>
-4.6876

> <Gold.PLP.part.nonpolar>
-25.6246

> <Gold.PLP.part.repulsive>
0.5840

> <Gold.PLP.ligand.clash>
0.0000

> <Gold.PLP.ligand.torsion>
0.7247

> <Gold.PLP.Chemscore.Hbond>
1.9440

> <Gold.PLP.Chemscore.CHOScore>
0.9814

> <Gold.PLP.Chemscore.Metal>
0.0000

> <Gold.Chemscore.Hbonds>
donor molecule, donor type, donor heavy atom, donor atom, acceptor molecule, acceptor atom, score
      L1  H     7    28       P1  8028  1.00
      P1  H  7989  7998       L1     9  0.96
      L1  C    12    31       P1 10175  0.95

> <Gold.PLP.Chemscore.Internal.Correction>
0.3257

> <Gold.Rescore>
     Score         DG    S(hbond)    S(metal)    S(lipo)     H(rot)  DE(clash)    DE(int)     intcor
     10.10     -13.61       1.73        0.00      73.96       2.46       0.07       3.44       ----

> <Gold.Chemscore.Fitness>
10.0967

> <Gold.Chemscore.DG>
-13.6078

> <Gold.Chemscore.ZeroCoef>
-5.4800

> <Gold.Chemscore.Hbond>
1.7295

> <Gold.Chemscore.Metal>
0.0000

> <Gold.Chemscore.Lipo>
73.9570

> <Gold.Chemscore.Internal_Hbond>
0.0000

> <Gold.Chemscore.DEClash>
0.0671

> <Gold.Chemscore.DEInternal>
3.4441

> <Gold.Chemscore.Rot>
2.4616

> <Gold.Chemscore.Internal.Correction>
   9.000000E+99

> <Gold.Chemscore.Hbonds>
donor molecule, donor type, donor heavy atom, donor atom, acceptor molecule, acceptor atom, score
      L1  H     7    28       P1  8028  0.99
      P1  H  7989  7998       L1     9  0.45

> <Gold.Chemscore.Hbond.Weighted>
-5.7765

> <Gold.Chemscore.Metal.Weighted>
-0.0000

> <Gold.Chemscore.Lipo.Weighted>
-8.6530

> <Gold.Chemscore.Internal_Hbond.Weighted>
0.0000

> <Gold.Chemscore.DEClash.Weighted>
0.0671

> <Gold.Chemscore.DEInternal.Weighted>
3.4441

> <Gold.Chemscore.Rot.Weighted>
6.3016

> <Gold.Chemscore.Internal.Correction.Weighted>
   9.000000E+99

> <Gold.Protein.RotatedTorsions>
[ 6907 6896 6895 6894 ] final  164.64 input  -60.11 | X-H torsion
[ 7974 7965 7964 7962 ] final  -93.99 input  175.53 | X-H torsion
[ 8008 7997 7996 7995 ] final  -49.55 input   59.86 | X-H torsion
[ 10167 10162 10161 10158 ] final -132.49 input  -65.29 | X-H torsion
[ 10718 10713 10712 10709 ] final  -97.00 input   66.30 | X-H torsion
[ 10763 10752 10751 10750 ] final   67.27 input  -60.55 | X-H torsion
[ 11005 11000 10999 10996 ] final  -46.64 input  -57.11 | X-H torsion

> <Gold.Protein.ActiveResidues>
 VAL166  LYS551  ARG553  GLY616  TRP617  ASP618  TYR619  PRO620  LYS621  CYS622 
 ASP623  PHE694  ASN695  SER759  ASP760  ASP761  ALA762  ILE779  LEU786  VAL792 
 PHE793  MET794  SER795  GLU796  ALA797  LYS798  CYS799  TRP800  GLU811  SER814 

> <Gold.Protein.RotatedAtoms>
  151.9067  133.3551  159.3849 H   0  0  0  0  0  0  0  0  0  0  0  0  # atno 6907 bound_to 6896
  150.7067  134.4773  159.5463 H   0  0  0  0  0  0  0  0  0  0  0  0  # atno 6908 bound_to 6896
  152.2372  134.8265  160.0516 H   0  0  0  0  0  0  0  0  0  0  0  0  # atno 6909 bound_to 6896
  145.3792  140.9515  143.2403 H   0  0  0  0  0  0  0  0  0  0  0  0  # atno 7974 bound_to 7965
  154.4046  140.1294  156.4521 H   0  0  0  0  0  0  0  0  0  0  0  0  # atno 8008 bound_to 7997
  155.7356  140.3490  155.5060 H   0  0  0  0  0  0  0  0  0  0  0  0  # atno 8009 bound_to 7997
  155.9086  140.1032  157.1286 H   0  0  0  0  0  0  0  0  0  0  0  0  # atno 8010 bound_to 7997
  139.9080  143.6528  152.2581 H   0  0  0  0  0  0  0  0  0  0  0  0  # atno 10167 bound_to 10162
  156.0074  130.5175  150.6309 H   0  0  0  0  0  0  0  0  0  0  0  0  # atno 10718 bound_to 10713
  153.0178  135.5290  154.6953 H   0  0  0  0  0  0  0  0  0  0  0  0  # atno 10763 bound_to 10752
  154.6077  135.2875  155.0469 H   0  0  0  0  0  0  0  0  0  0  0  0  # atno 10764 bound_to 10752
  154.1502  135.6564  153.5014 H   0  0  0  0  0  0  0  0  0  0  0  0  # atno 10765 bound_to 10752
  141.0591  133.6715  156.3184 H   0  0  0  0  0  0  0  0  0  0  0  0  # atno 11005 bound_to 11000
  144.8520  139.5307  143.6852 LP  0  0  0  0  0  0  0  0  0  0  0  0  # atno 17320 bound_to 7965
  146.2850  139.6979  142.9202 LP  0  0  0  0  0  0  0  0  0  0  0  0  # atno 17321 bound_to 7965
  139.6967  144.7640  151.1344 LP  0  0  0  0  0  0  0  0  0  0  0  0  # atno 17342 bound_to 10162
  140.7692  143.5514  150.9200 LP  0  0  0  0  0  0  0  0  0  0  0  0  # atno 17343 bound_to 10162
  157.4107  131.0823  151.1223 LP  0  0  0  0  0  0  0  0  0  0  0  0  # atno 17370 bound_to 10713
  157.1856  130.6329  149.5686 LP  0  0  0  0  0  0  0  0  0  0  0  0  # atno 17371 bound_to 10713
  140.5904  134.5656  157.5498 LP  0  0  0  0  0  0  0  0  0  0  0  0  # atno 17394 bound_to 11000
  139.9417  134.7776  156.0663 LP  0  0  0  0  0  0  0  0  0  0  0  0  # atno 17395 bound_to 11000

$$$$
