AV-unprocessed.smi:2562|AV-procd|sdf|10044|dock6
  -GOLD-   2272014 93D 1   1.00000     0.00000
 Structure written by MMmdl.
 31 32  0  0  0  0  0  0  0  0  2 V2000
  138.6628  138.4279  154.9948 C   0  0  0  0  0  0  0  0  0  0  0  0
  139.4970  137.1630  154.7646 C   0  0  0  0  0  0  0  0  0  0  0  0
  140.9689  137.4740  154.4560 C   0  0  0  0  0  0  0  0  0  0  0  0
  141.7709  136.2343  154.2338 C   0  0  0  0  0  0  0  0  0  0  0  0
  141.3514  135.0509  154.6793 N   0  0  0  0  0  0  0  0  0  0  0  0
  142.3678  134.2393  154.3201 N   0  0  0  0  0  0  0  0  0  0  0  0
  143.3141  134.9580  153.7114 C   0  0  0  0  0  0  0  0  0  0  0  0
  144.5881  134.3466  153.2205 C   0  0  2  0  0  0  0  0  0  0  0  0
  145.6965  135.3956  153.0059 C   0  0  0  0  0  0  0  0  0  0  0  0
  146.8927  134.7554  152.4252 N   0  3  0  0  0  0  0  0  0  0  0  0
  146.5650  134.0250  151.1848 C   0  0  0  0  0  0  0  0  0  0  0  0
  145.4274  133.0222  151.4460 C   0  0  0  0  0  0  0  0  0  0  0  0
  144.2979  133.7044  151.9809 O   0  0  0  0  0  0  0  0  0  0  0  0
  142.9979  136.2472  153.6316 N   0  0  0  0  0  0  0  0  0  0  0  0
  142.3732  133.2473  154.5103 H   0  0  0  0  0  0  0  0  0  0  0  0
  137.6292  138.1732  155.2297 H   0  0  0  0  0  0  0  0  0  0  0  0
  138.6560  139.0617  154.1073 H   0  0  0  0  0  0  0  0  0  0  0  0
  139.0572  139.0151  155.8243 H   0  0  0  0  0  0  0  0  0  0  0  0
  139.4363  136.5275  155.6489 H   0  0  0  0  0  0  0  0  0  0  0  0
  139.0627  136.5917  153.9433 H   0  0  0  0  0  0  0  0  0  0  0  0
  141.0396  138.1090  153.5718 H   0  0  0  0  0  0  0  0  0  0  0  0
  141.4116  138.0383  155.2777 H   0  0  0  0  0  0  0  0  0  0  0  0
  144.9144  133.5977  153.9451 H   0  0  0  0  0  0  0  0  0  0  0  0
  145.3527  136.1819  152.3318 H   0  0  0  0  0  0  0  0  0  0  0  0
  145.9634  135.8740  153.9487 H   0  0  0  0  0  0  0  0  0  0  0  0
  147.5886  135.4603  152.2267 H   0  0  0  0  0  0  0  0  0  0  0  0
  146.2683  134.7395  150.4157 H   0  0  0  0  0  0  0  0  0  0  0  0
  147.4550  133.5110  150.8213 H   0  0  0  0  0  0  0  0  0  0  0  0
  145.1371  132.5320  150.5167 H   0  0  0  0  0  0  0  0  0  0  0  0
  145.7502  132.2380  152.1327 H   0  0  0  0  0  0  0  0  0  0  0  0
  147.2693  134.1010  153.0963 H   0  0  0  0  0  0  0  0  0  0  0  0
  1  2  1  0  0  0  0
  1 16  1  0  0  0  0
  1 17  1  0  0  0  0
  1 18  1  0  0  0  0
  2  3  1  0  0  0  0
  2 19  1  0  0  0  0
  2 20  1  0  0  0  0
  3  4  1  0  0  0  0
  3 21  1  0  0  0  0
  3 22  1  0  0  0  0
  4 14  1  0  0  0  0
  4  5  2  0  0  0  0
  5  6  1  0  0  0  0
  6 15  1  0  0  0  0
  6  7  1  0  0  0  0
  7  8  1  0  0  0  0
  7 14  2  0  0  0  0
  8 13  1  0  0  0  0
  8  9  1  0  0  0  0
  8 23  1  0  0  0  0
  9 10  1  0  0  0  0
  9 24  1  0  0  0  0
  9 25  1  0  0  0  0
 10 11  1  0  0  0  0
 10 26  1  0  0  0  0
 10 31  1  0  0  0  0
 11 12  1  0  0  0  0
 11 27  1  0  0  0  0
 11 28  1  0  0  0  0
 12 13  1  0  0  0  0
 12 29  1  0  0  0  0
 12 30  1  0  0  0  0
M  CHG  1  10   1
M  END
> <s_m_source_file>
AV-unprocessed.smi

> <i_m_source_file_index>
2562

> <i_lp_mmshare_version>
43012

> <i_f3d_flags>
0

> <s_epik_input>
W0NIM11bQ0gyXVtDSDJdYzFuW25IXWMobjEpW0NAQEhdMltDSDJdW05IXVtDSDJdW0NIMl1PMg==

> <s_epik_cmdline>
J2VwaWtfcHl0aG9uJywgJy1waCcsICc3LjAnLCAnLXRuJywgJzgnLCAnLW1hJywgJzIwMCcsICctbWV0YWxfYmluZGluZycsICctaW1hZScsICc8aW5maWxlLm1hZT4nLCAnLW9tYWUnLCAnPG91dGZpbGUubWFlPic=

> <r_epik_Ionization_Penalty>
0.162344

> <r_epik_Ionization_Penalty_Charging>
0.125708

> <r_epik_Ionization_Penalty_Neutral>
0.0366364

> <r_epik_State_Penalty>
0.771409

> <r_epik_Charging_Adjusted_Penalty>
0.897117

> <i_epik_Tot_Q>
1

> <i_epik_Tot_abs_Q>
1

> <r_epik_Metal_State_Penalty>
0.893868

> <b_epik_Metal_Only>
0

> <s_lp_Force_Field>
OPLS_2005

> <r_lp_Energy>
9.76643

> <b_lp_Chiralities_Consistent>
1

> <s_lp_Variant>
AV-unprocessed.smi:2562-3

> <Gold.Version>
5.8.1

> <Gold.Id.Protein>
6NUR|6NUR_protein|mol2

> <Gold.PLP.Fitness>
35.7487

> <Gold.PLP.PLP>
-25.3109

> <Gold.PLP.part.hbond>
-3.4181

> <Gold.PLP.part.metal>
0.0000

> <Gold.PLP.part.buried>
-6.6327

> <Gold.PLP.part.nonpolar>
-15.2389

> <Gold.PLP.part.repulsive>
0.5618

> <Gold.PLP.ligand.clash>
0.0000

> <Gold.PLP.ligand.torsion>
0.7616

> <Gold.PLP.Chemscore.Hbond>
3.9840

> <Gold.PLP.Chemscore.CHOScore>
0.0000

> <Gold.PLP.Chemscore.Metal>
0.0000

> <Gold.Chemscore.Hbonds>
donor molecule, donor type, donor heavy atom, donor atom, acceptor molecule, acceptor atom, score
      L1  H     6    15       P1 10957  0.98
      L1  H    10    26       P1  7948  2.00
      P1  H 11000 11005       L1     5  0.74

> <Gold.PLP.Chemscore.Internal.Correction>
0.0090

> <Gold.Rescore>
     Score         DG    S(hbond)    S(metal)    S(lipo)     H(rot)  DE(clash)    DE(int)     intcor
     14.52     -15.55       2.64        0.00      43.63       1.51       0.05       0.97       ----

> <Gold.Chemscore.Fitness>
14.5242

> <Gold.Chemscore.DG>
-15.5458

> <Gold.Chemscore.ZeroCoef>
-5.4800

> <Gold.Chemscore.Hbond>
2.6439

> <Gold.Chemscore.Metal>
0.0000

> <Gold.Chemscore.Lipo>
43.6280

> <Gold.Chemscore.Internal_Hbond>
0.0000

> <Gold.Chemscore.DEClash>
0.0515

> <Gold.Chemscore.DEInternal>
0.9701

> <Gold.Chemscore.Rot>
1.5115

> <Gold.Chemscore.Internal.Correction>
   9.000000E+99

> <Gold.Chemscore.Hbonds>
donor molecule, donor type, donor heavy atom, donor atom, acceptor molecule, acceptor atom, score
      L1  H     6    15       P1 10957  0.92
      L1  H    10    26       P1  7948  0.98
      P1  H 11000 11005       L1     5  0.40

> <Gold.Chemscore.Hbond.Weighted>
-8.8308

> <Gold.Chemscore.Metal.Weighted>
-0.0000

> <Gold.Chemscore.Lipo.Weighted>
-5.1045

> <Gold.Chemscore.Internal_Hbond.Weighted>
0.0000

> <Gold.Chemscore.DEClash.Weighted>
0.0515

> <Gold.Chemscore.DEInternal.Weighted>
0.9701

> <Gold.Chemscore.Rot.Weighted>
3.8695

> <Gold.Chemscore.Internal.Correction.Weighted>
   9.000000E+99

> <Gold.Protein.RotatedTorsions>
[ 6907 6896 6895 6894 ] final   62.59 input  -60.11 | X-H torsion
[ 7974 7965 7964 7962 ] final -126.50 input  175.53 | X-H torsion
[ 8008 7997 7996 7995 ] final  174.06 input   59.86 | X-H torsion
[ 10167 10162 10161 10158 ] final -131.91 input  -65.29 | X-H torsion
[ 10718 10713 10712 10709 ] final   28.69 input   66.30 | X-H torsion
[ 10763 10752 10751 10750 ] final   58.66 input  -60.55 | X-H torsion
[ 11005 11000 10999 10996 ] final   19.69 input  -57.11 | X-H torsion

> <Gold.Protein.ActiveResidues>
 VAL166  LYS551  ARG553  GLY616  TRP617  ASP618  TYR619  PRO620  LYS621  CYS622 
 ASP623  PHE694  ASN695  SER759  ASP760  ASP761  ALA762  ILE779  LEU786  VAL792 
 PHE793  MET794  SER795  GLU796  ALA797  LYS798  CYS799  TRP800  GLU811  SER814 

> <Gold.Protein.RotatedAtoms>
  152.4185  134.5999  159.9996 H   0  0  0  0  0  0  0  0  0  0  0  0  # atno 6907 bound_to 6896
  151.6156  133.3338  159.3085 H   0  0  0  0  0  0  0  0  0  0  0  0  # atno 6908 bound_to 6896
  150.8073  134.7244  159.6721 H   0  0  0  0  0  0  0  0  0  0  0  0  # atno 6909 bound_to 6896
  144.9866  140.7692  143.4580 H   0  0  0  0  0  0  0  0  0  0  0  0  # atno 7974 bound_to 7965
  156.1013  140.1444  156.9464 H   0  0  0  0  0  0  0  0  0  0  0  0  # atno 8008 bound_to 7997
  154.4704  140.0912  156.7175 H   0  0  0  0  0  0  0  0  0  0  0  0  # atno 8009 bound_to 7997
  155.4755  140.3443  155.4334 H   0  0  0  0  0  0  0  0  0  0  0  0  # atno 8010 bound_to 7997
  139.9140  143.6460  152.2569 H   0  0  0  0  0  0  0  0  0  0  0  0  # atno 10167 bound_to 10162
  157.2368  130.7050  149.6339 H   0  0  0  0  0  0  0  0  0  0  0  0  # atno 10718 bound_to 10713
  152.9876  135.5599  154.5588 H   0  0  0  0  0  0  0  0  0  0  0  0  # atno 10763 bound_to 10752
  154.5011  135.2797  155.1422 H   0  0  0  0  0  0  0  0  0  0  0  0  # atno 10764 bound_to 10752
  154.2852  135.6337  153.5416 H   0  0  0  0  0  0  0  0  0  0  0  0  # atno 10765 bound_to 10752
  140.4109  134.1620  155.7667 H   0  0  0  0  0  0  0  0  0  0  0  0  # atno 11005 bound_to 11000
  145.2345  139.2100  143.5025 LP  0  0  0  0  0  0  0  0  0  0  0  0  # atno 17320 bound_to 7965
  146.3421  140.2229  142.8592 LP  0  0  0  0  0  0  0  0  0  0  0  0  # atno 17321 bound_to 7965
  139.6918  144.7646  151.1425 LP  0  0  0  0  0  0  0  0  0  0  0  0  # atno 17342 bound_to 10162
  140.7678  143.5578  150.9132 LP  0  0  0  0  0  0  0  0  0  0  0  0  # atno 17343 bound_to 10162
  155.9672  130.4471  150.5566 LP  0  0  0  0  0  0  0  0  0  0  0  0  # atno 17370 bound_to 10713
  157.3420  131.0718  151.1780 LP  0  0  0  0  0  0  0  0  0  0  0  0  # atno 17371 bound_to 10713
  141.1821  133.8391  157.1219 LP  0  0  0  0  0  0  0  0  0  0  0  0  # atno 17394 bound_to 11000
  140.0268  134.9920  157.0703 LP  0  0  0  0  0  0  0  0  0  0  0  0  # atno 17395 bound_to 11000

$$$$
