AV-unprocessed.smi:581|AV-procd|sdf|2993|dock8
  -GOLD-   2262023493D 1   1.00000     0.00000
 Structure written by MMmdl.
 35 36  0  0  0  0  0  0  0  0  2 V2000
  153.0486  137.7376  156.4299 C   0  0  0  0  0  0  0  0  0  0  0  0
  152.2290  138.9906  156.1824 C   0  0  0  0  0  0  0  0  0  0  0  0
  152.4355  140.0093  157.0450 N   0  0  0  0  0  0  0  0  0  0  0  0
  151.7288  141.1324  156.8732 C   0  0  0  0  0  0  0  0  0  0  0  0
  151.9469  142.1803  157.7773 N   0  0  0  0  0  0  0  0  0  0  0  0
  152.3329  141.9445  159.1704 C   0  0  0  0  0  0  0  0  0  0  0  0
  153.2577  143.0647  159.6756 C   0  0  0  0  0  0  0  0  0  0  0  0
  152.6309  144.3282  159.4915 O   0  0  0  0  0  0  0  0  0  0  0  0
  152.3743  144.5904  158.1174 C   0  0  0  0  0  0  0  0  0  0  0  0
  151.4162  143.5274  157.5544 C   0  0  0  0  0  0  0  0  0  0  0  0
  150.8258  141.3259  155.9038 N   0  0  0  0  0  0  0  0  0  0  0  0
  150.6026  140.3233  155.0279 C   0  0  0  0  0  0  0  0  0  0  0  0
  149.6751  140.5261  154.0476 O   0  0  0  0  0  0  0  0  0  0  0  0
  151.2997  139.0960  155.1197 C   0  0  0  0  0  0  0  0  0  0  0  0
  151.0478  137.9568  154.1385 C   0  0  0  0  0  0  0  0  0  0  0  0
  149.9465  136.9984  154.6352 C   0  0  0  0  0  0  0  0  0  0  0  0
  150.3082  136.2861  155.9454 C   0  0  0  0  0  0  0  0  0  0  0  0
  149.5247  136.4613  156.9039 O   0  0  0  0  0  0  0  0  0  0  0  0
  151.3479  135.5906  155.9862 O   0  5  0  0  0  0  0  0  0  0  0  0
  149.9050  140.1016  153.2358 H   0  0  0  0  0  0  0  0  0  0  0  0
  152.4026  136.8617  156.4903 H   0  0  0  0  0  0  0  0  0  0  0  0
  153.6077  137.8055  157.3640 H   0  0  0  0  0  0  0  0  0  0  0  0
  153.7629  137.5863  155.6206 H   0  0  0  0  0  0  0  0  0  0  0  0
  152.8484  140.9933  159.2991 H   0  0  0  0  0  0  0  0  0  0  0  0
  151.4299  141.9001  159.7800 H   0  0  0  0  0  0  0  0  0  0  0  0
  153.4692  142.9253  160.7359 H   0  0  0  0  0  0  0  0  0  0  0  0
  154.2162  143.0412  159.1548 H   0  0  0  0  0  0  0  0  0  0  0  0
  151.9305  145.5816  158.0231 H   0  0  0  0  0  0  0  0  0  0  0  0
  153.3105  144.6061  157.5566 H   0  0  0  0  0  0  0  0  0  0  0  0
  150.4454  143.6030  158.0449 H   0  0  0  0  0  0  0  0  0  0  0  0
  151.2517  143.7397  156.4986 H   0  0  0  0  0  0  0  0  0  0  0  0
  151.9766  137.4135  153.9643 H   0  0  0  0  0  0  0  0  0  0  0  0
  150.7711  138.3757  153.1701 H   0  0  0  0  0  0  0  0  0  0  0  0
  149.0166  137.5462  154.7898 H   0  0  0  0  0  0  0  0  0  0  0  0
  149.7436  136.2421  153.8758 H   0  0  0  0  0  0  0  0  0  0  0  0
  1 21  1  0  0  0  0
  1 22  1  0  0  0  0
  1 23  1  0  0  0  0
  1  2  1  0  0  0  0
  2 14  2  0  0  0  0
  2  3  1  0  0  0  0
  3  4  2  0  0  0  0
  4  5  1  0  0  0  0
  4 11  1  0  0  0  0
  5 10  1  0  0  0  0
  5  6  1  0  0  0  0
  6  7  1  0  0  0  0
  6 24  1  0  0  0  0
  6 25  1  0  0  0  0
  7  8  1  0  0  0  0
  7 26  1  0  0  0  0
  7 27  1  0  0  0  0
  8  9  1  0  0  0  0
  9 10  1  0  0  0  0
  9 28  1  0  0  0  0
  9 29  1  0  0  0  0
 10 30  1  0  0  0  0
 10 31  1  0  0  0  0
 11 12  2  0  0  0  0
 12 13  1  0  0  0  0
 12 14  1  0  0  0  0
 13 20  1  0  0  0  0
 14 15  1  0  0  0  0
 15 16  1  0  0  0  0
 15 32  1  0  0  0  0
 15 33  1  0  0  0  0
 16 17  1  0  0  0  0
 16 34  1  0  0  0  0
 16 35  1  0  0  0  0
 17 18  2  0  0  0  0
 17 19  1  0  0  0  0
M  CHG  1  19  -1
M  END
> <s_m_source_file>
AV-unprocessed.smi

> <i_m_source_file_index>
581

> <i_lp_mmshare_version>
43012

> <i_f3d_flags>
0

> <s_epik_input>
W0NIMl0xW0NIMl1PW0NIMl1bQ0gyXU4xYyhuYzJbQ0gzXSlbbkhdYyg9TyljMltDSDJdW0NIMl1DKD1PKVtPSF0=

> <s_epik_cmdline>
J2VwaWtfcHl0aG9uJywgJy1waCcsICc3LjAnLCAnLXRuJywgJzgnLCAnLW1hJywgJzIwMCcsICctbWV0YWxfYmluZGluZycsICctaW1hZScsICc8aW5maWxlLm1hZT4nLCAnLW9tYWUnLCAnPG91dGZpbGUubWFlPic=

> <r_lp_tautomer_probability>
0.0131408

> <r_epik_Ionization_Penalty>
9.14148

> <r_epik_Ionization_Penalty_Charging>
0.00124504

> <r_epik_Ionization_Penalty_Neutral>
9.14023

> <r_epik_State_Penalty>
2.72329

> <r_epik_Charging_Adjusted_Penalty>
2.72453

> <i_epik_Tot_Q>
-1

> <i_epik_Tot_abs_Q>
1

> <r_epik_Metal_State_Penalty>
2.96989

> <b_epik_Metal_Only>
0

> <s_lp_Force_Field>
OPLS_2005

> <r_lp_Energy>
10.3836

> <b_lp_Chiralities_Consistent>
1

> <s_lp_Variant>
AV-unprocessed.smi:581-3

> <Gold.Version>
5.8.1

> <Gold.Id.Protein>
6NUR|6NUR_protein|mol2

> <Gold.PLP.Fitness>
43.6666

> <Gold.PLP.PLP>
-35.1899

> <Gold.PLP.part.hbond>
-4.0000

> <Gold.PLP.part.metal>
0.0000

> <Gold.PLP.part.buried>
-2.3540

> <Gold.PLP.part.nonpolar>
-28.4917

> <Gold.PLP.part.repulsive>
0.0951

> <Gold.PLP.ligand.clash>
0.0000

> <Gold.PLP.ligand.torsion>
0.6062

> <Gold.PLP.Chemscore.Hbond>
3.1999

> <Gold.PLP.Chemscore.CHOScore>
0.0000

> <Gold.PLP.Chemscore.Metal>
0.0000

> <Gold.Chemscore.Hbonds>
donor molecule, donor type, donor heavy atom, donor atom, acceptor molecule, acceptor atom, score
      L1  H    13    20       P1  7957  0.78
      P1  H  7997  8008       L1     3  0.63
      P1  H 10752 10764       L1    19  2.00

> <Gold.PLP.Chemscore.Internal.Correction>
0.0894

> <Gold.Rescore>
     Score         DG    S(hbond)    S(metal)    S(lipo)     H(rot)  DE(clash)    DE(int)     intcor
     10.23     -12.86       1.30        0.00      80.13       2.48       0.95       1.68       ----

> <Gold.Chemscore.Fitness>
10.2335

> <Gold.Chemscore.DG>
-12.8592

> <Gold.Chemscore.ZeroCoef>
-5.4800

> <Gold.Chemscore.Hbond>
1.3011

> <Gold.Chemscore.Metal>
0.0000

> <Gold.Chemscore.Lipo>
80.1344

> <Gold.Chemscore.Internal_Hbond>
0.0000

> <Gold.Chemscore.DEClash>
0.9499

> <Gold.Chemscore.DEInternal>
1.6759

> <Gold.Chemscore.Rot>
2.4774

> <Gold.Chemscore.Internal.Correction>
   9.000000E+99

> <Gold.Chemscore.Hbonds>
donor molecule, donor type, donor heavy atom, donor atom, acceptor molecule, acceptor atom, score
      L1  H    13    20       P1  7957  0.74
      P1  H  7997  8008       L1     3  0.12
      P1  H 10752 10764       L1    19  0.96

> <Gold.Chemscore.Hbond.Weighted>
-4.3455

> <Gold.Chemscore.Metal.Weighted>
-0.0000

> <Gold.Chemscore.Lipo.Weighted>
-9.3757

> <Gold.Chemscore.Internal_Hbond.Weighted>
0.0000

> <Gold.Chemscore.DEClash.Weighted>
0.9499

> <Gold.Chemscore.DEInternal.Weighted>
1.6759

> <Gold.Chemscore.Rot.Weighted>
6.3420

> <Gold.Chemscore.Internal.Correction.Weighted>
   9.000000E+99

> <Gold.Protein.RotatedTorsions>
[ 6907 6896 6895 6894 ] final -167.84 input  -60.11 | X-H torsion
[ 7974 7965 7964 7962 ] final   81.92 input  175.53 | X-H torsion
[ 8008 7997 7996 7995 ] final  -80.37 input   59.86 | X-H torsion
[ 10167 10162 10161 10158 ] final  -77.56 input  -65.29 | X-H torsion
[ 10718 10713 10712 10709 ] final -109.31 input   66.30 | X-H torsion
[ 10763 10752 10751 10750 ] final  -38.06 input  -60.55 | X-H torsion
[ 11005 11000 10999 10996 ] final  -58.04 input  -57.11 | X-H torsion

> <Gold.Protein.ActiveResidues>
 VAL166  LYS551  ARG553  GLY616  TRP617  ASP618  TYR619  PRO620  LYS621  CYS622 
 ASP623  PHE694  ASN695  SER759  ASP760  ASP761  ALA762  ILE779  LEU786  VAL792 
 PHE793  MET794  SER795  GLU796  ALA797  LYS798  CYS799  TRP800  GLU811  SER814 

> <Gold.Protein.RotatedAtoms>
  151.4660  133.3581  159.2815 H   0  0  0  0  0  0  0  0  0  0  0  0  # atno 6907 bound_to 6896
  150.8993  134.8406  159.7360 H   0  0  0  0  0  0  0  0  0  0  0  0  # atno 6908 bound_to 6896
  152.4870  134.4578  159.9647 H   0  0  0  0  0  0  0  0  0  0  0  0  # atno 6909 bound_to 6896
  145.6318  139.2406  143.2080 H   0  0  0  0  0  0  0  0  0  0  0  0  # atno 7974 bound_to 7965
  154.5876  140.0664  156.9194 H   0  0  0  0  0  0  0  0  0  0  0  0  # atno 8008 bound_to 7997
  155.2351  140.3340  155.4280 H   0  0  0  0  0  0  0  0  0  0  0  0  # atno 8009 bound_to 7997
  156.2234  140.1808  156.7407 H   0  0  0  0  0  0  0  0  0  0  0  0  # atno 8010 bound_to 7997
  140.4759  143.2414  151.8133 H   0  0  0  0  0  0  0  0  0  0  0  0  # atno 10167 bound_to 10162
  156.0530  130.5757  150.8081 H   0  0  0  0  0  0  0  0  0  0  0  0  # atno 10718 bound_to 10713
  153.9066  135.6797  153.4753 H   0  0  0  0  0  0  0  0  0  0  0  0  # atno 10763 bound_to 10752
  153.1101  135.4787  154.9017 H   0  0  0  0  0  0  0  0  0  0  0  0  # atno 10764 bound_to 10752
  154.7548  135.3194  154.8445 H   0  0  0  0  0  0  0  0  0  0  0  0  # atno 10765 bound_to 10752
  141.1190  133.6611  156.4860 H   0  0  0  0  0  0  0  0  0  0  0  0  # atno 11005 bound_to 11000
  146.1350  140.7134  142.9394 LP  0  0  0  0  0  0  0  0  0  0  0  0  # atno 17320 bound_to 7965
  144.7190  140.4311  143.7022 LP  0  0  0  0  0  0  0  0  0  0  0  0  # atno 17321 bound_to 7965
  139.4825  144.4833  151.9278 LP  0  0  0  0  0  0  0  0  0  0  0  0  # atno 17342 bound_to 10162
  140.3918  144.2605  150.5899 LP  0  0  0  0  0  0  0  0  0  0  0  0  # atno 17343 bound_to 10162
  157.5474  131.0943  150.9743 LP  0  0  0  0  0  0  0  0  0  0  0  0  # atno 17370 bound_to 10713
  157.0011  130.5600  149.5311 LP  0  0  0  0  0  0  0  0  0  0  0  0  # atno 17371 bound_to 10713
  140.4561  134.6884  157.5063 LP  0  0  0  0  0  0  0  0  0  0  0  0  # atno 17394 bound_to 11000
  140.0134  134.6656  155.9347 LP  0  0  0  0  0  0  0  0  0  0  0  0  # atno 17395 bound_to 11000

$$$$
