AV-unprocessed.smi:1007|AV-procd|sdf|4400|dock9
  -GOLD-   22720 2333D 1   1.00000     0.00000
 Structure written by MMmdl.
 56 58  0  0  0  0  0  0  0  0  2 V2000
  147.8505  132.1959  153.1106 C   0  0  0  0  0  0  0  0  0  0  0  0
  148.9534  132.1825  154.0003 O   0  0  0  0  0  0  0  0  0  0  0  0
  149.5657  133.4553  154.1259 C   0  0  0  0  0  0  0  0  0  0  0  0
  148.5660  134.4295  154.7680 C   0  0  0  0  0  0  0  0  0  0  0  0
  148.9912  135.8473  154.6506 N   0  3  0  0  0  0  0  0  0  0  0  0
  150.1914  136.1836  155.4631 C   0  0  0  0  0  0  0  0  0  0  0  0
  150.5903  137.6597  155.2523 C   0  0  0  0  0  0  0  0  0  0  0  0
  149.5118  138.6010  155.5528 N   0  0  0  0  0  0  0  0  0  0  0  0
  149.2394  138.7080  156.9935 C   0  0  0  0  0  0  0  0  0  0  0  0
  150.3850  138.3102  157.9508 C   0  0  2  0  0  0  0  0  0  0  0  0
  149.9419  138.3519  159.2933 O   0  0  0  0  0  0  0  0  0  0  0  0
  151.6864  139.1161  157.7566 C   0  0  0  0  0  0  0  0  0  0  0  0
  151.4341  140.5257  157.5198 N   0  0  0  0  0  0  0  0  0  0  0  0
  151.0424  141.0997  156.3659 C   0  0  0  0  0  0  0  0  0  0  0  0
  150.8700  142.4183  156.3699 N   0  0  0  0  0  0  0  0  0  0  0  0
  151.1918  142.7379  157.6779 C   0  0  0  0  0  0  0  0  0  0  0  0
  151.2139  143.9858  158.3384 C   0  0  0  0  0  0  0  0  0  0  0  0
  151.5791  144.0785  159.7004 C   0  0  0  0  0  0  0  0  0  0  0  0
  151.5893  145.4408  160.3710 C   0  0  0  0  0  0  0  0  0  0  0  0
  151.9292  142.9098  160.4235 C   0  0  0  0  0  0  0  0  0  0  0  0
  152.3212  142.9848  161.8886 C   0  0  0  0  0  0  0  0  0  0  0  0
  151.9135  141.6554  159.7787 C   0  0  0  0  0  0  0  0  0  0  0  0
  151.5488  141.5762  158.4232 C   0  0  0  0  0  0  0  0  0  0  0  0
  148.3514  138.2469  154.7319 C   0  0  0  0  0  0  0  0  0  0  0  0
  147.8818  136.7933  154.9373 C   0  0  0  0  0  0  0  0  0  0  0  0
  147.4180  131.1973  153.0481 H   0  0  0  0  0  0  0  0  0  0  0  0
  148.1559  132.4938  152.1066 H   0  0  0  0  0  0  0  0  0  0  0  0
  147.0729  132.8782  153.4570 H   0  0  0  0  0  0  0  0  0  0  0  0
  150.4464  133.3717  154.7646 H   0  0  0  0  0  0  0  0  0  0  0  0
  149.9114  133.8161  153.1570 H   0  0  0  0  0  0  0  0  0  0  0  0
  147.6011  134.2968  154.2767 H   0  0  0  0  0  0  0  0  0  0  0  0
  148.4128  134.1797  155.8188 H   0  0  0  0  0  0  0  0  0  0  0  0
  149.9974  135.9803  156.5168 H   0  0  0  0  0  0  0  0  0  0  0  0
  151.0303  135.5525  155.1734 H   0  0  0  0  0  0  0  0  0  0  0  0
  151.4678  137.8960  155.8554 H   0  0  0  0  0  0  0  0  0  0  0  0
  150.9003  137.7956  154.2151 H   0  0  0  0  0  0  0  0  0  0  0  0
  148.8802  139.7042  157.2510 H   0  0  0  0  0  0  0  0  0  0  0  0
  148.4072  138.0398  157.2195 H   0  0  0  0  0  0  0  0  0  0  0  0
  150.6076  137.2603  157.7562 H   0  0  0  0  0  0  0  0  0  0  0  0
  149.8347  139.2571  159.5440 H   0  0  0  0  0  0  0  0  0  0  0  0
  152.3188  139.0267  158.6406 H   0  0  0  0  0  0  0  0  0  0  0  0
  152.2652  138.7258  156.9185 H   0  0  0  0  0  0  0  0  0  0  0  0
  150.8713  140.5159  155.4731 H   0  0  0  0  0  0  0  0  0  0  0  0
  150.9469  144.8755  157.7873 H   0  0  0  0  0  0  0  0  0  0  0  0
  152.5855  145.6744  160.7469 H   0  0  0  0  0  0  0  0  0  0  0  0
  150.8898  145.4604  161.2068 H   0  0  0  0  0  0  0  0  0  0  0  0
  151.3020  146.2297  159.6751 H   0  0  0  0  0  0  0  0  0  0  0  0
  152.5782  142.0011  162.2826 H   0  0  0  0  0  0  0  0  0  0  0  0
  151.4972  143.3788  162.4838 H   0  0  0  0  0  0  0  0  0  0  0  0
  153.1868  143.6343  162.0210 H   0  0  0  0  0  0  0  0  0  0  0  0
  152.1780  140.7576  160.3174 H   0  0  0  0  0  0  0  0  0  0  0  0
  147.5281  138.9360  154.9134 H   0  0  0  0  0  0  0  0  0  0  0  0
  148.6101  138.3836  153.6810 H   0  0  0  0  0  0  0  0  0  0  0  0
  147.0471  136.5894  154.2655 H   0  0  0  0  0  0  0  0  0  0  0  0
  147.5116  136.6415  155.9520 H   0  0  0  0  0  0  0  0  0  0  0  0
  149.2406  135.9936  153.6825 H   0  0  0  0  0  0  0  0  0  0  0  0
  1  2  1  0  0  0  0
  1 26  1  0  0  0  0
  1 27  1  0  0  0  0
  1 28  1  0  0  0  0
  2  3  1  0  0  0  0
  3  4  1  0  0  0  0
  3 29  1  0  0  0  0
  3 30  1  0  0  0  0
  4  5  1  0  0  0  0
  4 31  1  0  0  0  0
  4 32  1  0  0  0  0
  5 25  1  0  0  0  0
  5  6  1  0  0  0  0
  5 56  1  0  0  0  0
  6  7  1  0  0  0  0
  6 33  1  0  0  0  0
  6 34  1  0  0  0  0
  7  8  1  0  0  0  0
  7 35  1  0  0  0  0
  7 36  1  0  0  0  0
  8  9  1  0  0  0  0
  8 24  1  0  0  0  0
  9 10  1  0  0  0  0
  9 37  1  0  0  0  0
  9 38  1  0  0  0  0
 10 11  1  0  0  0  0
 10 12  1  0  0  0  0
 10 39  1  0  0  0  0
 11 40  1  0  0  0  0
 12 13  1  0  0  0  0
 12 41  1  0  0  0  0
 12 42  1  0  0  0  0
 13 23  1  0  0  0  0
 13 14  1  0  0  0  0
 14 15  2  0  0  0  0
 14 43  1  0  0  0  0
 15 16  1  0  0  0  0
 16 23  2  0  0  0  0
 16 17  1  0  0  0  0
 17 18  2  0  0  0  0
 17 44  1  0  0  0  0
 18 19  1  0  0  0  0
 18 20  1  0  0  0  0
 19 45  1  0  0  0  0
 19 46  1  0  0  0  0
 19 47  1  0  0  0  0
 20 21  1  0  0  0  0
 20 22  2  0  0  0  0
 21 48  1  0  0  0  0
 21 49  1  0  0  0  0
 21 50  1  0  0  0  0
 22 23  1  0  0  0  0
 22 51  1  0  0  0  0
 24 25  1  0  0  0  0
 24 52  1  0  0  0  0
 24 53  1  0  0  0  0
 25 54  1  0  0  0  0
 25 55  1  0  0  0  0
M  CHG  1   5   1
M  END
> <s_m_source_file>
AV-unprocessed.smi

> <i_m_source_file_index>
1007

> <i_lp_mmshare_version>
43012

> <i_f3d_flags>
0

> <s_epik_input>
W0NIM11PW0NIMl1bQ0gyXU4xW0NIMl1bQ0gyXU4oW0NIMl1bQ0gyXTEpW0NIMl1bQ0BIXShbT0hdKVtDSDJdbihbY0hdbjIpYyhjMjMpW2NIXWMoW0NIM10pYyhbY0hdMylbQ0gzXQ==

> <s_epik_cmdline>
J2VwaWtfcHl0aG9uJywgJy1waCcsICc3LjAnLCAnLXRuJywgJzgnLCAnLW1hJywgJzIwMCcsICctbWV0YWxfYmluZGluZycsICctaW1hZScsICc8aW5maWxlLm1hZT4nLCAnLW9tYWUnLCAnPG91dGZpbGUubWFlPic=

> <r_epik_Ionization_Penalty>
0.186009

> <r_epik_Ionization_Penalty_Charging>
0.0613973

> <r_epik_Ionization_Penalty_Neutral>
0.124612

> <r_epik_State_Penalty>
1.21927

> <r_epik_Charging_Adjusted_Penalty>
1.28067

> <i_epik_Tot_Q>
1

> <i_epik_Tot_abs_Q>
1

> <r_epik_Metal_State_Penalty>
1.13901

> <b_epik_Metal_Only>
0

> <s_lp_Force_Field>
OPLS_2005

> <r_lp_Energy>
39.6127

> <b_lp_Chiralities_Consistent>
1

> <s_lp_Variant>
AV-unprocessed.smi:1007-3

> <Gold.Version>
5.8.1

> <Gold.Id.Protein>
6NUR|6NUR_protein|mol2

> <Gold.PLP.Fitness>
51.4275

> <Gold.PLP.PLP>
-47.2935

> <Gold.PLP.part.hbond>
-2.0000

> <Gold.PLP.part.metal>
0.0000

> <Gold.PLP.part.buried>
-5.7521

> <Gold.PLP.part.nonpolar>
-38.3890

> <Gold.PLP.part.repulsive>
0.3138

> <Gold.PLP.ligand.clash>
0.0000

> <Gold.PLP.ligand.torsion>
1.0845

> <Gold.PLP.Chemscore.Hbond>
2.0000

> <Gold.PLP.Chemscore.CHOScore>
0.0000

> <Gold.PLP.Chemscore.Metal>
0.0000

> <Gold.Chemscore.Hbonds>
donor molecule, donor type, donor heavy atom, donor atom, acceptor molecule, acceptor atom, score
      L1  H     5    56       P1  7948  2.00

> <Gold.PLP.Chemscore.Internal.Correction>
0.3030

> <Gold.Rescore>
     Score         DG    S(hbond)    S(metal)    S(lipo)     H(rot)  DE(clash)    DE(int)     intcor
     15.32     -16.40       0.99        0.00     121.10       2.56       0.01       1.07       ----

> <Gold.Chemscore.Fitness>
15.3241

> <Gold.Chemscore.DG>
-16.3970

> <Gold.Chemscore.ZeroCoef>
-5.4800

> <Gold.Chemscore.Hbond>
0.9882

> <Gold.Chemscore.Metal>
0.0000

> <Gold.Chemscore.Lipo>
121.1006

> <Gold.Chemscore.Internal_Hbond>
0.0000

> <Gold.Chemscore.DEClash>
0.0075

> <Gold.Chemscore.DEInternal>
1.0655

> <Gold.Chemscore.Rot>
2.5594

> <Gold.Chemscore.Internal.Correction>
   9.000000E+99

> <Gold.Chemscore.Hbonds>
donor molecule, donor type, donor heavy atom, donor atom, acceptor molecule, acceptor atom, score
      L1  H     5    56       P1  7948  0.81

> <Gold.Chemscore.Hbond.Weighted>
-3.3004

> <Gold.Chemscore.Metal.Weighted>
-0.0000

> <Gold.Chemscore.Lipo.Weighted>
-14.1688

> <Gold.Chemscore.Internal_Hbond.Weighted>
0.0000

> <Gold.Chemscore.DEClash.Weighted>
0.0075

> <Gold.Chemscore.DEInternal.Weighted>
1.0655

> <Gold.Chemscore.Rot.Weighted>
6.5522

> <Gold.Chemscore.Internal.Correction.Weighted>
   9.000000E+99

> <Gold.Protein.RotatedTorsions>
[ 6907 6896 6895 6894 ] final -150.58 input  -60.11 | X-H torsion
[ 7974 7965 7964 7962 ] final   29.26 input  175.53 | X-H torsion
[ 8008 7997 7996 7995 ] final  -76.17 input   59.86 | X-H torsion
[ 10167 10162 10161 10158 ] final -138.15 input  -65.29 | X-H torsion
[ 10718 10713 10712 10709 ] final -169.33 input   66.30 | X-H torsion
[ 10763 10752 10751 10750 ] final -140.49 input  -60.55 | X-H torsion
[ 11005 11000 10999 10996 ] final  -61.22 input  -57.11 | X-H torsion

> <Gold.Protein.ActiveResidues>
 VAL166  LYS551  ARG553  GLY616  TRP617  ASP618  TYR619  PRO620  LYS621  CYS622 
 ASP623  PHE694  ASN695  SER759  ASP760  ASP761  ALA762  ILE779  LEU786  VAL792 
 PHE793  MET794  SER795  GLU796  ALA797  LYS798  CYS799  TRP800  GLU811  SER814 

> <Gold.Protein.RotatedAtoms>
  151.2006  133.4613  159.2595 H   0  0  0  0  0  0  0  0  0  0  0  0  # atno 6907 bound_to 6896
  151.1073  135.0006  159.8487 H   0  0  0  0  0  0  0  0  0  0  0  0  # atno 6908 bound_to 6896
  152.5448  134.1928  159.8734 H   0  0  0  0  0  0  0  0  0  0  0  0  # atno 6909 bound_to 6896
  146.1681  139.6945  142.8986 H   0  0  0  0  0  0  0  0  0  0  0  0  # atno 7974 bound_to 7965
  154.5481  140.0731  156.8623 H   0  0  0  0  0  0  0  0  0  0  0  0  # atno 8008 bound_to 7997
  155.3047  140.3386  155.4228 H   0  0  0  0  0  0  0  0  0  0  0  0  # atno 8009 bound_to 7997
  156.1937  140.1695  156.8028 H   0  0  0  0  0  0  0  0  0  0  0  0  # atno 8010 bound_to 7997
  139.8507  143.7203  152.2658 H   0  0  0  0  0  0  0  0  0  0  0  0  # atno 10167 bound_to 10162
  156.7099  130.9229  151.3088 H   0  0  0  0  0  0  0  0  0  0  0  0  # atno 10718 bound_to 10713
  154.8577  135.3552  154.5715 H   0  0  0  0  0  0  0  0  0  0  0  0  # atno 10763 bound_to 10752
  153.6328  135.7001  153.5274 H   0  0  0  0  0  0  0  0  0  0  0  0  # atno 10764 bound_to 10752
  153.3035  135.4199  155.1233 H   0  0  0  0  0  0  0  0  0  0  0  0  # atno 10765 bound_to 10752
  141.1316  133.6628  156.5342 H   0  0  0  0  0  0  0  0  0  0  0  0  # atno 11005 bound_to 11000
  145.4412  141.0422  143.2856 LP  0  0  0  0  0  0  0  0  0  0  0  0  # atno 17320 bound_to 7965
  144.8123  139.5940  143.7024 LP  0  0  0  0  0  0  0  0  0  0  0  0  # atno 17321 bound_to 7965
  139.7468  144.7545  151.0567 LP  0  0  0  0  0  0  0  0  0  0  0  0  # atno 17342 bound_to 10162
  140.7788  143.4906  150.9898 LP  0  0  0  0  0  0  0  0  0  0  0  0  # atno 17343 bound_to 10162
  157.6940  130.9262  150.0592 LP  0  0  0  0  0  0  0  0  0  0  0  0  # atno 17370 bound_to 10713
  156.1668  130.3645  149.9221 LP  0  0  0  0  0  0  0  0  0  0  0  0  # atno 17371 bound_to 10713
  140.4191  134.7203  157.4880 LP  0  0  0  0  0  0  0  0  0  0  0  0  # atno 17394 bound_to 11000
  140.0372  134.6320  155.9028 LP  0  0  0  0  0  0  0  0  0  0  0  0  # atno 17395 bound_to 11000

$$$$
