#       Name:                AV-unprocessed.smi:670
#       Creating user name   scv26
#       Creation time:       Fri Mar 27 00:22:18 2020


#       File generated by GOLD software.
#

@<TRIPOS>MOLECULE
AV-unprocessed.smi:670
    53    54     1
SMALL
NO_CHARGES


@<TRIPOS>ATOM
      1 ****        -1.2692   0.0868  -3.7916 C.3            1 S1                 0.0000
      2 ****        -1.5001   0.5081  -2.3315 C.3            1 S1                 0.0000
      3 ****        -2.9714   0.9127  -2.1058 C.3            1 S1                 0.0000
      4 ****        -3.2307   1.3349  -0.6514 C.3            1 S1                 0.0000
      5 ****        -2.8232   0.2228   0.3244 C.3            1 S1                 0.0000
      6 ****        -1.3570  -0.1772   0.1135 C.3            1 S1                 0.0000
      7 ****        -1.0826  -0.6040  -1.3432 C.3            1 S1                 0.0000
      8 ****         0.3129  -0.8270  -1.4887 O.3            1 S1                 0.0000
      9 ****         0.7390  -2.1343  -1.1321 C.3            1 S1                 0.0000
     10 ****         2.2478  -2.1013  -0.8719 C.3            1 S1                 0.0000
     11 ****         2.5208  -1.2718   0.2946 N.am           1 S1                 0.0000
     12 ****         3.3366  -1.5746   1.3169 C.2            1 S1                 0.0000
     13 ****         4.0048  -2.6075   1.3601 O.2            1 S1                 0.0000
     14 ****         3.4122  -0.5791   2.4879 C.3            1 S1                 0.0000
     15 ****         2.3178   0.4059   2.5302 N.am           1 S1                 0.0000
     16 ****         2.6475   1.6872   1.9121 N.pl3          1 S1                -1.0000
     17 ****         1.7065   2.6678   1.8771 C.2            1 S1                 0.0000
     18 ****         1.9041   3.7627   1.3562 O.2            1 S1                 0.0000
     19 ****         0.4147   2.3988   2.4864 C.2            1 S1                 0.0000
     20 ****         0.1394   1.2084   3.0547 C.2            1 S1                 0.0000
     21 ****         1.1077   0.1193   3.0903 C.2            1 S1                 0.0000
     22 ****         0.8526  -0.9793   3.5833 O.2            1 S1                 0.0000
     23 ****        -1.8531  -0.7984  -4.0457 H              1 S1                 0.0000
     24 ****        -0.2195  -0.1428  -3.9767 H              1 S1                 0.0000
     25 ****        -1.5551   0.8832  -4.4790 H              1 S1                 0.0000
     26 ****        -0.8797   1.3846  -2.1370 H              1 S1                 0.0000
     27 ****        -3.2400   1.7313  -2.7745 H              1 S1                 0.0000
     28 ****        -3.6262   0.0786  -2.3618 H              1 S1                 0.0000
     29 ****        -2.6688   2.2425  -0.4271 H              1 S1                 0.0000
     30 ****        -4.2842   1.5810  -0.5161 H              1 S1                 0.0000
     31 ****        -2.9729   0.5548   1.3521 H              1 S1                 0.0000
     32 ****        -3.4651  -0.6473   0.1812 H              1 S1                 0.0000
     33 ****        -0.7146   0.6678   0.3619 H              1 S1                 0.0000
     34 ****        -1.0956  -0.9746   0.8088 H              1 S1                 0.0000
     35 ****        -1.6411  -1.5122  -1.5797 H              1 S1                 0.0000
     36 ****         0.2252  -2.5020  -0.2428 H              1 S1                 0.0000
     37 ****         0.5036  -2.8205  -1.9461 H              1 S1                 0.0000
     38 ****         2.6127  -3.1192  -0.7274 H              1 S1                 0.0000
     39 ****         2.7756  -1.6926  -1.7340 H              1 S1                 0.0000
     40 ****         2.0282  -0.3907   0.3461 H              1 S1                 0.0000
     41 ****         3.4457  -1.1394   3.4237 H              1 S1                 0.0000
     42 ****         4.3726  -0.0647   2.4270 H              1 S1                 0.0000
     43 ****        -0.3415   3.1698   2.4819 H              1 S1                 0.0000
     44 ****        -0.8351   1.0514   3.4922 H              1 S1                 0.0000
     45 ****         0.7964  -0.1714  -0.9087 LP             1 S1                 0.0000
     46 ****         0.5567  -0.6688  -2.4455 LP             1 S1                 0.0000
     47 ****         3.9544  -3.2673   0.6104 LP             1 S1                 0.0000
     48 ****         4.5980  -2.7868   2.1449 LP             1 S1                 0.0000
     49 ****         3.5541   1.8414   1.5195 LP             1 S1                 0.0000
     50 ****         2.7880   3.9632   0.9337 LP             1 S1                 0.0000
     51 ****         1.1810   4.4535   1.3548 LP             1 S1                 0.0000
     52 ****         1.5451  -1.7007   3.5825 LP             1 S1                 0.0000
     53 ****        -0.0472  -1.1505   3.9847 LP             1 S1                 0.0000
@<TRIPOS>BOND
    1    1    2 1     
    2    1   23 1     
    3    1   24 1     
    4    1   25 1     
    5    2    7 1     
    6    2    3 1     
    7    2   26 1     
    8    3    4 1     
    9    3   27 1     
   10    3   28 1     
   11    4    5 1     
   12    4   29 1     
   13    4   30 1     
   14    5    6 1     
   15    5   31 1     
   16    5   32 1     
   17    6    7 1     
   18    6   33 1     
   19    6   34 1     
   20    7    8 1     
   21    7   35 1     
   22    8    9 1     
   23    9   10 1     
   24    9   36 1     
   25    9   37 1     
   26   10   11 1     
   27   10   38 1     
   28   10   39 1     
   29   11   12 am    
   30   11   40 1     
   31   12   13 2     
   32   12   14 1     
   33   14   41 1     
   34   14   42 1     
   35   14   15 1     
   36   15   16 1     
   37   15   21 am    
   38   16   17 1     
   39   17   18 2     
   40   17   19 1     
   41   19   43 1     
   42   19   20 2     
   43   20   44 1     
   44   20   21 1     
   45   21   22 2     
   46    8   45 1     
   47    8   46 1     
   48   13   47 1     
   49   13   48 1     
   50   16   49 1     
   51   18   50 1     
   52   18   51 1     
   53   22   52 1     
   54   22   53 1     
@<TRIPOS>SUBSTRUCTURE
      1 S1             1
@<TRIPOS>SET
LONE_PAIRS      STATIC     ATOMS    <user>   **** ""
9 45 46 47 48 49 50 51 52 53
DONOR_HYDROGENS      STATIC     ATOMS    <user>   **** ""
1 40
ATOM$BLUE        STATIC     ATOMS    COLORGROUP SYSTEM
9 45 46 47 48 49 50 51 52 53
ATOM$RED        STATIC     ATOMS    COLORGROUP SYSTEM
1 40
