AV-unprocessed.smi:247|AV-procd|sdf|1890|dock10
  -GOLD-   2262020553D 1   1.00000     0.00000
 Structure written by MMmdl.
 61 65  0  0  0  0  0  0  0  0  1 V2000
  149.6939  140.9829  153.7889 O   0  0  0  0  0  0  0  0  0  0  0  0
  149.9458  139.8741  154.6302 C   0  0  0  0  0  0  0  0  0  0  0  0
  149.5616  140.1238  156.1153 C   0  0  0  0  0  0  0  0  0  0  0  0
  148.0255  140.3936  156.1909 C   0  0  0  0  0  0  0  0  0  0  0  0
  147.1870  139.3765  155.5718 N   0  0  0  0  0  0  0  0  0  0  0  0
  146.3469  138.4961  156.2175 C   0  0  0  0  0  0  0  0  0  0  0  0
  145.6850  137.6828  155.4407 N   0  0  0  0  0  0  0  0  0  0  0  0
  146.0861  138.0419  154.1609 C   0  0  0  0  0  0  0  0  0  0  0  0
  145.7499  137.5835  152.8598 C   0  0  0  0  0  0  0  0  0  0  0  0
  144.8708  136.5693  152.6742 N   0  0  0  0  0  0  0  0  0  0  0  0
  143.5587  136.9569  153.1633 C   0  0  0  0  0  0  0  0  0  0  0  0
  142.7371  135.6779  153.1660 C   0  0  0  0  0  0  0  0  0  0  0  0
  143.7738  134.5681  153.3421 C   0  0  0  0  0  0  0  0  0  0  0  0
  145.1632  135.2345  153.2138 C   0  0  1  0  0  0  0  0  0  0  0  0
  146.1705  134.3855  152.3584 C   0  0  1  0  0  0  0  0  0  0  0  0
  146.4398  132.9583  152.8966 C   0  0  0  0  0  0  0  0  0  0  0  0
  145.2639  132.1583  152.8079 O   0  0  0  0  0  0  0  0  0  0  0  0
  144.8427  131.9265  151.4680 C   0  0  0  0  0  0  0  0  0  0  0  0
  144.5483  133.2575  150.7574 C   0  0  0  0  0  0  0  0  0  0  0  0
  145.7597  134.1940  150.8724 C   0  0  1  0  0  0  0  0  0  0  0  0
  145.5154  135.3992  150.1776 O   0  0  0  0  0  0  0  0  0  0  0  0
  146.3622  138.1791  151.8023 N   0  0  0  0  0  0  0  0  0  0  0  0
  147.2245  139.1798  152.0044 C   0  0  0  0  0  0  0  0  0  0  0  0
  147.6208  139.7204  153.1589 N   0  0  0  0  0  0  0  0  0  0  0  0
  147.0240  139.1095  154.2226 C   0  0  0  0  0  0  0  0  0  0  0  0
  149.9815  138.9056  156.9782 C   0  0  0  0  0  0  0  0  0  0  0  0
  149.8425  139.1805  158.4861 C   0  0  0  0  0  0  0  0  0  0  0  0
  150.6139  140.3212  158.8424 O   0  0  0  0  0  0  0  0  0  0  0  0
  150.1845  141.5115  158.1922 C   0  0  0  0  0  0  0  0  0  0  0  0
  150.3178  141.3615  156.6643 C   0  0  0  0  0  0  0  0  0  0  0  0
  150.0157  140.7816  152.9234 H   0  0  0  0  0  0  0  0  0  0  0  0
  149.3952  139.0200  154.2344 H   0  0  0  0  0  0  0  0  0  0  0  0
  151.0056  139.6367  154.5389 H   0  0  0  0  0  0  0  0  0  0  0  0
  147.6903  140.4983  157.2214 H   0  0  0  0  0  0  0  0  0  0  0  0
  147.7956  141.3489  155.7169 H   0  0  0  0  0  0  0  0  0  0  0  0
  146.2416  138.4723  157.2924 H   0  0  0  0  0  0  0  0  0  0  0  0
  143.6367  137.3548  154.1768 H   0  0  0  0  0  0  0  0  0  0  0  0
  143.1048  137.7219  152.5321 H   0  0  0  0  0  0  0  0  0  0  0  0
  141.9757  135.6760  153.9465 H   0  0  0  0  0  0  0  0  0  0  0  0
  142.2329  135.5611  152.2058 H   0  0  0  0  0  0  0  0  0  0  0  0
  143.6698  134.0808  154.3122 H   0  0  0  0  0  0  0  0  0  0  0  0
  143.6098  133.8103  152.5753 H   0  0  0  0  0  0  0  0  0  0  0  0
  145.5605  135.3546  154.2213 H   0  0  0  0  0  0  0  0  0  0  0  0
  147.1264  134.9108  152.3782 H   0  0  0  0  0  0  0  0  0  0  0  0
  147.2389  132.4824  152.3258 H   0  0  0  0  0  0  0  0  0  0  0  0
  146.8009  132.9732  153.9226 H   0  0  0  0  0  0  0  0  0  0  0  0
  145.6120  131.3669  150.9336 H   0  0  0  0  0  0  0  0  0  0  0  0
  143.9494  131.3020  151.4813 H   0  0  0  0  0  0  0  0  0  0  0  0
  144.3110  133.0698  149.7095 H   0  0  0  0  0  0  0  0  0  0  0  0
  143.6644  133.7222  151.1944 H   0  0  0  0  0  0  0  0  0  0  0  0
  146.5944  133.7239  150.3501 H   0  0  0  0  0  0  0  0  0  0  0  0
  145.9834  135.3729  149.3570 H   0  0  0  0  0  0  0  0  0  0  0  0
  147.6578  139.6095  151.1133 H   0  0  0  0  0  0  0  0  0  0  0  0
  149.4209  138.0133  156.7014 H   0  0  0  0  0  0  0  0  0  0  0  0
  151.0268  138.6609  156.7873 H   0  0  0  0  0  0  0  0  0  0  0  0
  148.8014  139.3230  158.7763 H   0  0  0  0  0  0  0  0  0  0  0  0
  150.2087  138.3242  159.0525 H   0  0  0  0  0  0  0  0  0  0  0  0
  149.1643  141.7553  158.4887 H   0  0  0  0  0  0  0  0  0  0  0  0
  150.8085  142.3363  158.5364 H   0  0  0  0  0  0  0  0  0  0  0  0
  151.3819  141.2831  156.4400 H   0  0  0  0  0  0  0  0  0  0  0  0
  149.9740  142.2698  156.1684 H   0  0  0  0  0  0  0  0  0  0  0  0
  1  2  1  0  0  0  0
  1 31  1  0  0  0  0
  2  3  1  0  0  0  0
  2 32  1  0  0  0  0
  2 33  1  0  0  0  0
  3 30  1  0  0  0  0
  3  4  1  0  0  0  0
  3 26  1  0  0  0  0
  4  5  1  0  0  0  0
  4 34  1  0  0  0  0
  4 35  1  0  0  0  0
  5 25  1  0  0  0  0
  5  6  1  0  0  0  0
  6  7  2  0  0  0  0
  6 36  1  0  0  0  0
  7  8  1  0  0  0  0
  8 25  2  0  0  0  0
  8  9  1  0  0  0  0
  9 10  1  0  0  0  0
  9 22  2  0  0  0  0
 10 14  1  0  0  0  0
 10 11  1  0  0  0  0
 11 12  1  0  0  0  0
 11 37  1  0  0  0  0
 11 38  1  0  0  0  0
 12 13  1  0  0  0  0
 12 39  1  0  0  0  0
 12 40  1  0  0  0  0
 13 14  1  0  0  0  0
 13 41  1  0  0  0  0
 13 42  1  0  0  0  0
 14 15  1  0  0  0  0
 14 43  1  0  0  0  0
 15 20  1  0  0  0  0
 15 16  1  0  0  0  0
 15 44  1  0  0  0  0
 16 17  1  0  0  0  0
 16 45  1  0  0  0  0
 16 46  1  0  0  0  0
 17 18  1  0  0  0  0
 18 19  1  0  0  0  0
 18 47  1  0  0  0  0
 18 48  1  0  0  0  0
 19 20  1  0  0  0  0
 19 49  1  0  0  0  0
 19 50  1  0  0  0  0
 20 21  1  0  0  0  0
 20 51  1  0  0  0  0
 21 52  1  0  0  0  0
 22 23  1  0  0  0  0
 23 24  2  0  0  0  0
 23 53  1  0  0  0  0
 24 25  1  0  0  0  0
 26 27  1  0  0  0  0
 26 54  1  0  0  0  0
 26 55  1  0  0  0  0
 27 28  1  0  0  0  0
 27 56  1  0  0  0  0
 27 57  1  0  0  0  0
 28 29  1  0  0  0  0
 29 30  1  0  0  0  0
 29 58  1  0  0  0  0
 29 59  1  0  0  0  0
 30 60  1  0  0  0  0
 30 61  1  0  0  0  0
M  END
> <s_m_source_file>
AV-unprocessed.smi

> <i_m_source_file_index>
247

> <i_lp_mmshare_version>
43012

> <i_f3d_flags>
0

> <s_epik_input>
W0NIMl0xW0NIMl1PW0NIMl1bQ0gyXUMxKFtDSDJdW09IXSlbQ0gyXW4oW2NIXW4yKWMoYzIzKW5bY0hdbmMzTjRbQ0gyXVtDSDJdW0NIMl1bQ0BIXTRbQ0BASF01W0NIMl1PW0NIMl1bQ0gyXVtDQEhdNVtPSF0=

> <s_epik_cmdline>
J2VwaWtfcHl0aG9uJywgJy1waCcsICc3LjAnLCAnLXRuJywgJzgnLCAnLW1hJywgJzIwMCcsICctbWV0YWxfYmluZGluZycsICctaW1hZScsICc8aW5maWxlLm1hZT4nLCAnLW9tYWUnLCAnPG91dGZpbGUubWFlPic=

> <r_lp_tautomer_probability>
1

> <r_epik_Ionization_Penalty>
0.00362597

> <r_epik_Ionization_Penalty_Charging>
0

> <r_epik_Ionization_Penalty_Neutral>
0.00362597

> <r_epik_State_Penalty>
0.00241433

> <r_epik_Charging_Adjusted_Penalty>
0.00241433

> <i_epik_Tot_Q>
0

> <i_epik_Tot_abs_Q>
0

> <r_epik_Metal_State_Penalty>
-0

> <b_epik_Metal_Only>
0

> <s_lp_Force_Field>
OPLS_2005

> <r_lp_Energy>
64.2344

> <b_lp_Chiralities_Consistent>
1

> <s_lp_Variant>
AV-unprocessed.smi:247-3

> <Gold.Version>
5.8.1

> <Gold.Id.Protein>
6NUR|6NUR_protein|mol2

> <Gold.PLP.Fitness>
41.7515

> <Gold.PLP.PLP>
-34.1507

> <Gold.PLP.part.hbond>
-4.4934

> <Gold.PLP.part.metal>
0.0000

> <Gold.PLP.part.buried>
-5.2612

> <Gold.PLP.part.nonpolar>
-27.7523

> <Gold.PLP.part.repulsive>
3.6094

> <Gold.PLP.ligand.clash>
0.0076

> <Gold.PLP.ligand.torsion>
0.1692

> <Gold.PLP.Chemscore.Hbond>
1.9920

> <Gold.PLP.Chemscore.CHOScore>
0.6311

> <Gold.PLP.Chemscore.Metal>
0.0000

> <Gold.Chemscore.Hbonds>
donor molecule, donor type, donor heavy atom, donor atom, acceptor molecule, acceptor atom, score
      L1  H     1    31       P1  7957  0.96
      L1  H    21    52       P1  7921  1.00
      L1  C    23    53       P1  7957  0.61

> <Gold.PLP.Chemscore.Internal.Correction>
0.0774

> <Gold.Rescore>
     Score         DG    S(hbond)    S(metal)    S(lipo)     H(rot)  DE(clash)    DE(int)     intcor
      5.75     -12.42       1.87        0.00      76.45       3.23       1.36       5.31       ----

> <Gold.Chemscore.Fitness>
5.7468

> <Gold.Chemscore.DG>
-12.4208

> <Gold.Chemscore.ZeroCoef>
-5.4800

> <Gold.Chemscore.Hbond>
1.8743

> <Gold.Chemscore.Metal>
0.0000

> <Gold.Chemscore.Lipo>
76.4454

> <Gold.Chemscore.Internal_Hbond>
0.0000

> <Gold.Chemscore.DEClash>
1.3592

> <Gold.Chemscore.DEInternal>
5.3149

> <Gold.Chemscore.Rot>
3.2278

> <Gold.Chemscore.Internal.Correction>
   9.000000E+99

> <Gold.Chemscore.Hbonds>
donor molecule, donor type, donor heavy atom, donor atom, acceptor molecule, acceptor atom, score
      L1  H     1    31       P1  7957  0.91
      L1  H    21    52       P1  7921  0.91

> <Gold.Chemscore.Hbond.Weighted>
-6.2600

> <Gold.Chemscore.Metal.Weighted>
-0.0000

> <Gold.Chemscore.Lipo.Weighted>
-8.9441

> <Gold.Chemscore.Internal_Hbond.Weighted>
0.0000

> <Gold.Chemscore.DEClash.Weighted>
1.3592

> <Gold.Chemscore.DEInternal.Weighted>
5.3149

> <Gold.Chemscore.Rot.Weighted>
8.2633

> <Gold.Chemscore.Internal.Correction.Weighted>
   9.000000E+99

> <Gold.Protein.RotatedTorsions>
[ 6907 6896 6895 6894 ] final  -60.71 input  -60.11 | X-H torsion
[ 7974 7965 7964 7962 ] final   41.41 input  175.53 | X-H torsion
[ 8008 7997 7996 7995 ] final  -96.69 input   59.86 | X-H torsion
[ 10167 10162 10161 10158 ] final -145.59 input  -65.29 | X-H torsion
[ 10718 10713 10712 10709 ] final -124.76 input   66.30 | X-H torsion
[ 10763 10752 10751 10750 ] final  -71.65 input  -60.55 | X-H torsion
[ 11005 11000 10999 10996 ] final -165.83 input  -57.11 | X-H torsion

> <Gold.Protein.ActiveResidues>
 VAL166  LYS551  ARG553  GLY616  TRP617  ASP618  TYR619  PRO620  LYS621  CYS622 
 ASP623  PHE694  ASN695  SER759  ASP760  ASP761  ALA762  ILE779  LEU786  VAL792 
 PHE793  MET794  SER795  GLU796  ALA797  LYS798  CYS799  TRP800  GLU811  SER814 

> <Gold.Protein.RotatedAtoms>
  150.7837  134.6802  159.6439 H   0  0  0  0  0  0  0  0  0  0  0  0  # atno 6907 bound_to 6896
  152.3927  134.6411  160.0110 H   0  0  0  0  0  0  0  0  0  0  0  0  # atno 6908 bound_to 6896
  151.6706  133.3277  159.3232 H   0  0  0  0  0  0  0  0  0  0  0  0  # atno 6909 bound_to 6896
  146.0825  139.5418  142.9528 H   0  0  0  0  0  0  0  0  0  0  0  0  # atno 7974 bound_to 7965
  154.7778  140.0469  157.1103 H   0  0  0  0  0  0  0  0  0  0  0  0  # atno 8008 bound_to 7997
  154.9742  140.3093  155.4955 H   0  0  0  0  0  0  0  0  0  0  0  0  # atno 8009 bound_to 7997
  156.2931  140.2248  156.4836 H   0  0  0  0  0  0  0  0  0  0  0  0  # atno 8010 bound_to 7997
  139.7792  143.8126  152.2636 H   0  0  0  0  0  0  0  0  0  0  0  0  # atno 10167 bound_to 10162
  156.1616  130.6606  151.0058 H   0  0  0  0  0  0  0  0  0  0  0  0  # atno 10718 bound_to 10713
  154.4348  135.5955  153.6091 H   0  0  0  0  0  0  0  0  0  0  0  0  # atno 10763 bound_to 10752
  152.9801  135.5984  154.3795 H   0  0  0  0  0  0  0  0  0  0  0  0  # atno 10764 bound_to 10752
  154.3638  135.2841  155.2284 H   0  0  0  0  0  0  0  0  0  0  0  0  # atno 10765 bound_to 10752
  140.5713  134.5235  157.5162 H   0  0  0  0  0  0  0  0  0  0  0  0  # atno 11005 bound_to 11000
  145.6191  141.0326  143.1925 LP  0  0  0  0  0  0  0  0  0  0  0  0  # atno 17320 bound_to 7965
  144.7303  139.7746  143.7349 LP  0  0  0  0  0  0  0  0  0  0  0  0  # atno 17321 bound_to 7965
  139.8183  144.7306  150.9606 LP  0  0  0  0  0  0  0  0  0  0  0  0  # atno 17342 bound_to 10162
  140.7817  143.4183  151.0881 LP  0  0  0  0  0  0  0  0  0  0  0  0  # atno 17343 bound_to 10162
  157.6737  131.0855  150.7549 LP  0  0  0  0  0  0  0  0  0  0  0  0  # atno 17370 bound_to 10713
  156.7611  130.4799  149.5436 LP  0  0  0  0  0  0  0  0  0  0  0  0  # atno 17371 bound_to 10713
  139.9361  134.7873  156.0800 LP  0  0  0  0  0  0  0  0  0  0  0  0  # atno 17394 bound_to 11000
  141.1054  133.6662  156.2852 LP  0  0  0  0  0  0  0  0  0  0  0  0  # atno 17395 bound_to 11000

$$$$
