#       Name:                AV-unprocessed.smi:1386
#       Creating user name   scv26
#       Creation time:       Fri Mar 27 05:25:40 2020


#       File generated by GOLD software.
#

@<TRIPOS>MOLECULE
AV-unprocessed.smi:1386
    38    39     1
SMALL
NO_CHARGES


@<TRIPOS>ATOM
      1 ****        -0.5746  -1.6382   2.5426 C.3            1 S1                 0.0000
      2 ****        -0.0061  -1.6579   1.1159 C.3            1 S1                 0.0000
      3 ****         1.4659  -2.1119   1.0980 C.3            1 S1                 0.0000
      4 ****         1.9857  -2.2333  -0.2518 N.pl3          1 S1                 0.0000
      5 ****         1.8117  -3.2992  -1.1243 C.2            1 S1                 0.0000
      6 ****         2.4701  -2.9668  -2.2867 C.2            1 S1                 0.0000
      7 ****         3.0540  -1.7094  -2.1521 N.2            1 S1                 0.0000
      8 ****         2.7262  -1.3389  -0.9212 C.2            1 S1                 0.0000
      9 ****        -0.1239  -0.3303   0.5166 N.am           1 S1                 0.0000
     10 ****        -1.1590   0.1163  -0.2149 C.2            1 S1                 0.0000
     11 ****        -2.1646  -0.5665  -0.4142 O.2            1 S1                 0.0000
     12 ****        -0.9962   1.3652  -0.7212 N.am           1 S1                 0.0000
     13 ****         0.1094   2.2879  -0.4136 C.3            1 S1                 0.0000
     14 ****        -0.3511   3.2798   0.6671 C.3            1 S1                 0.0000
     15 ****        -1.7351   4.2983   0.0670 S.3            1 S1                 0.0000
     16 ****        -2.8246   2.9890  -0.5754 C.3            1 S1                 0.0000
     17 ****        -2.0529   2.0274  -1.4951 C.3            1 S1                 0.0000
     18 ****        -0.5160  -2.6255   3.0012 H              1 S1                 0.0000
     19 ****        -1.6228  -1.3374   2.5459 H              1 S1                 0.0000
     20 ****        -0.0264  -0.9429   3.1794 H              1 S1                 0.0000
     21 ****        -0.5851  -2.3750   0.5306 H              1 S1                 0.0000
     22 ****         2.0928  -1.4145   1.6557 H              1 S1                 0.0000
     23 ****         1.5667  -3.0820   1.5861 H              1 S1                 0.0000
     24 ****         1.2469  -4.1794  -0.8547 H              1 S1                 0.0000
     25 ****         2.5672  -3.5311  -3.2023 H              1 S1                 0.0000
     26 ****         3.0253  -0.3909  -0.4987 H              1 S1                 0.0000
     27 ****         0.6629   0.2903   0.6379 H              1 S1                 0.0000
     28 ****         1.0173   1.7780  -0.0909 H              1 S1                 0.0000
     29 ****         0.4011   2.8299  -1.3143 H              1 S1                 0.0000
     30 ****        -0.6628   2.7467   1.5660 H              1 S1                 0.0000
     31 ****         0.4686   3.9387   0.9538 H              1 S1                 0.0000
     32 ****        -3.2607   2.4452   0.2634 H              1 S1                 0.0000
     33 ****        -3.6482   3.4540  -1.1173 H              1 S1                 0.0000
     34 ****        -1.6195   2.5743  -2.3335 H              1 S1                 0.0000
     35 ****        -2.7417   1.3103  -1.9443 H              1 S1                 0.0000
     36 ****         3.5938  -1.2043  -2.8255 LP             1 S1                 0.0000
     37 ****        -2.2297  -1.4859  -0.0263 LP             1 S1                 0.0000
     38 ****        -2.9160  -0.2014  -0.9639 LP             1 S1                 0.0000
@<TRIPOS>BOND
    1    1    2 1     
    2    1   18 1     
    3    1   19 1     
    4    1   20 1     
    5    2    3 1     
    6    2    9 1     
    7    2   21 1     
    8    3    4 1     
    9    3   22 1     
   10    3   23 1     
   11    4    8 1     
   12    4    5 1     
   13    5    6 2     
   14    5   24 1     
   15    6    7 1     
   16    6   25 1     
   17    7    8 2     
   18    8   26 1     
   19    9   10 am    
   20    9   27 1     
   21   10   11 2     
   22   10   12 am    
   23   12   17 1     
   24   12   13 1     
   25   13   14 1     
   26   13   28 1     
   27   13   29 1     
   28   14   15 1     
   29   14   30 1     
   30   14   31 1     
   31   15   16 1     
   32   16   17 1     
   33   16   32 1     
   34   16   33 1     
   35   17   34 1     
   36   17   35 1     
   37    7   36 1     
   38   11   37 1     
   39   11   38 1     
@<TRIPOS>SUBSTRUCTURE
      1 S1             1
@<TRIPOS>SET
LONE_PAIRS      STATIC     ATOMS    <user>   **** ""
3 36 37 38
DONOR_HYDROGENS      STATIC     ATOMS    <user>   **** ""
1 27
ATOM$BLUE        STATIC     ATOMS    COLORGROUP SYSTEM
3 36 37 38
ATOM$RED        STATIC     ATOMS    COLORGROUP SYSTEM
1 27
