AV-unprocessed.smi:1115|AV-procd|sdf|4802|dock5
  -GOLD-   22720 3343D 1   1.00000     0.00000
 Structure written by MMmdl.
 51 52  0  0  0  0  0  0  0  0  2 V2000
  144.1767  131.5335  150.8177 C   0  0  0  0  0  0  0  0  0  0  0  0
  144.0588  132.7581  150.0344 N   0  0  0  0  0  0  0  0  0  0  0  0
  143.8008  132.6912  148.6020 C   0  0  0  0  0  0  0  0  0  0  0  0
  144.3243  134.0055  150.6398 C   0  0  0  0  0  0  0  0  0  0  0  0
  143.8773  134.3463  151.9397 C   0  0  0  0  0  0  0  0  0  0  0  0
  144.1812  135.6140  152.4758 C   0  0  0  0  0  0  0  0  0  0  0  0
  144.9232  136.5408  151.7148 C   0  0  0  0  0  0  0  0  0  0  0  0
  145.2041  137.8011  152.3098 N   0  0  0  0  0  0  0  0  0  0  0  0
  146.3216  138.5444  152.2351 C   0  0  0  0  0  0  0  0  0  0  0  0
  147.3369  138.2461  151.6074 O   0  0  0  0  0  0  0  0  0  0  0  0
  146.1919  139.6758  152.9414 N   0  0  0  0  0  0  0  0  0  0  0  0
  147.2182  140.7045  153.1096 C   0  0  0  0  0  0  0  0  0  0  0  0
  147.6590  140.8790  154.5931 C   0  0  0  0  0  0  0  0  0  0  0  0
  147.9177  139.4547  155.1469 C   0  0  0  0  0  0  0  0  0  0  0  0
  149.0204  141.6152  154.5813 C   0  0  0  0  0  0  0  0  0  0  0  0
  146.6202  141.5852  155.3952 N   0  0  0  0  0  0  0  0  0  0  0  0
  146.9562  141.7774  156.8106 C   0  0  0  0  0  0  0  0  0  0  0  0
  145.7939  142.4012  157.6020 C   0  0  0  0  0  0  0  0  0  0  0  0
  145.4152  143.6359  157.0060 O   0  0  0  0  0  0  0  0  0  0  0  0
  145.0236  143.4845  155.6472 C   0  0  0  0  0  0  0  0  0  0  0  0
  146.1805  142.8711  154.8405 C   0  0  0  0  0  0  0  0  0  0  0  0
  145.3560  136.1503  150.4248 C   0  0  0  0  0  0  0  0  0  0  0  0
  145.0437  134.9248  149.9508 N   0  3  0  0  0  0  0  0  0  0  0  0
  143.5112  131.5644  151.6810 H   0  0  0  0  0  0  0  0  0  0  0  0
  145.1998  131.4032  151.1719 H   0  0  0  0  0  0  0  0  0  0  0  0
  143.9120  130.6568  150.2262 H   0  0  0  0  0  0  0  0  0  0  0  0
  144.6373  133.1098  148.0413 H   0  0  0  0  0  0  0  0  0  0  0  0
  142.8979  133.2475  148.3489 H   0  0  0  0  0  0  0  0  0  0  0  0
  143.6608  131.6618  148.2721 H   0  0  0  0  0  0  0  0  0  0  0  0
  143.3047  133.6545  152.5390 H   0  0  0  0  0  0  0  0  0  0  0  0
  143.8396  135.8711  153.4678 H   0  0  0  0  0  0  0  0  0  0  0  0
  144.4445  138.2066  152.8369 H   0  0  0  0  0  0  0  0  0  0  0  0
  145.3219  139.8314  153.4291 H   0  0  0  0  0  0  0  0  0  0  0  0
  148.0840  140.4892  152.4806 H   0  0  0  0  0  0  0  0  0  0  0  0
  146.8207  141.6368  152.7091 H   0  0  0  0  0  0  0  0  0  0  0  0
  148.5325  138.8655  154.4653 H   0  0  0  0  0  0  0  0  0  0  0  0
  146.9875  138.9069  155.3015 H   0  0  0  0  0  0  0  0  0  0  0  0
  148.4506  139.4721  156.0976 H   0  0  0  0  0  0  0  0  0  0  0  0
  149.7560  141.0656  153.9932 H   0  0  0  0  0  0  0  0  0  0  0  0
  149.4385  141.7259  155.5816 H   0  0  0  0  0  0  0  0  0  0  0  0
  148.9478  142.6094  154.1408 H   0  0  0  0  0  0  0  0  0  0  0  0
  147.2049  140.8289  157.2835 H   0  0  0  0  0  0  0  0  0  0  0  0
  147.8316  142.4198  156.9068 H   0  0  0  0  0  0  0  0  0  0  0  0
  144.9386  141.7243  157.6298 H   0  0  0  0  0  0  0  0  0  0  0  0
  146.0926  142.5812  158.6346 H   0  0  0  0  0  0  0  0  0  0  0  0
  144.1331  142.8571  155.5843 H   0  0  0  0  0  0  0  0  0  0  0  0
  144.7565  144.4609  155.2429 H   0  0  0  0  0  0  0  0  0  0  0  0
  147.0098  143.5785  154.8258 H   0  0  0  0  0  0  0  0  0  0  0  0
  145.8435  142.7577  153.8119 H   0  0  0  0  0  0  0  0  0  0  0  0
  145.9430  136.7544  149.7503 H   0  0  0  0  0  0  0  0  0  0  0  0
  145.3706  134.6775  149.0167 H   0  0  0  0  0  0  0  0  0  0  0  0
  1  2  1  0  0  0  0
  1 24  1  0  0  0  0
  1 25  1  0  0  0  0
  1 26  1  0  0  0  0
  2  3  1  0  0  0  0
  2  4  1  0  0  0  0
  3 27  1  0  0  0  0
  3 28  1  0  0  0  0
  3 29  1  0  0  0  0
  4 23  1  0  0  0  0
  4  5  2  0  0  0  0
  5  6  1  0  0  0  0
  5 30  1  0  0  0  0
  6  7  2  0  0  0  0
  6 31  1  0  0  0  0
  7  8  1  0  0  0  0
  7 22  1  0  0  0  0
  8  9  1  0  0  0  0
  8 32  1  0  0  0  0
  9 10  2  0  0  0  0
  9 11  1  0  0  0  0
 11 12  1  0  0  0  0
 11 33  1  0  0  0  0
 12 13  1  0  0  0  0
 12 34  1  0  0  0  0
 12 35  1  0  0  0  0
 13 14  1  0  0  0  0
 13 15  1  0  0  0  0
 13 16  1  0  0  0  0
 14 36  1  0  0  0  0
 14 37  1  0  0  0  0
 14 38  1  0  0  0  0
 15 39  1  0  0  0  0
 15 40  1  0  0  0  0
 15 41  1  0  0  0  0
 16 21  1  0  0  0  0
 16 17  1  0  0  0  0
 17 18  1  0  0  0  0
 17 42  1  0  0  0  0
 17 43  1  0  0  0  0
 18 19  1  0  0  0  0
 18 44  1  0  0  0  0
 18 45  1  0  0  0  0
 19 20  1  0  0  0  0
 20 21  1  0  0  0  0
 20 46  1  0  0  0  0
 20 47  1  0  0  0  0
 21 48  1  0  0  0  0
 21 49  1  0  0  0  0
 22 23  2  0  0  0  0
 22 50  1  0  0  0  0
 23 51  1  0  0  0  0
M  CHG  1  23   1
M  END
> <s_m_source_file>
AV-unprocessed.smi

> <i_m_source_file_index>
1115

> <i_lp_mmshare_version>
43012

> <i_f3d_flags>
0

> <s_epik_input>
W0NIM11OKFtDSDNdKWMxW2NIXVtjSF1jKFtjSF1uMSlbTkhdQyg9TylbTkhdW0NIMl1DKFtDSDNdKShbQ0gzXSlOMltDSDJdW0NIMl1PW0NIMl1bQ0gyXTI=

> <s_epik_cmdline>
J2VwaWtfcHl0aG9uJywgJy1waCcsICc3LjAnLCAnLXRuJywgJzgnLCAnLW1hJywgJzIwMCcsICctbWV0YWxfYmluZGluZycsICctaW1hZScsICc8aW5maWxlLm1hZT4nLCAnLW9tYWUnLCAnPG91dGZpbGUubWFlPic=

> <r_lp_tautomer_probability>
0.999994

> <r_epik_Ionization_Penalty>
0.525804

> <r_epik_Ionization_Penalty_Charging>
0.259793

> <r_epik_Ionization_Penalty_Neutral>
0.266011

> <r_epik_State_Penalty>
0.517093

> <r_epik_Charging_Adjusted_Penalty>
0.776886

> <i_epik_Tot_Q>
1

> <i_epik_Tot_abs_Q>
1

> <r_epik_Metal_State_Penalty>
0.804287

> <b_epik_Metal_Only>
0

> <s_lp_Force_Field>
OPLS_2005

> <r_lp_Energy>
49.9386

> <b_lp_Chiralities_Consistent>
1

> <s_lp_Variant>
AV-unprocessed.smi:1115-1

> <Gold.Version>
5.8.1

> <Gold.Id.Protein>
6NUR|6NUR_protein|mol2

> <Gold.PLP.Fitness>
43.6010

> <Gold.PLP.PLP>
-38.1427

> <Gold.PLP.part.hbond>
-4.9197

> <Gold.PLP.part.metal>
0.0000

> <Gold.PLP.part.buried>
-2.2650

> <Gold.PLP.part.nonpolar>
-36.3757

> <Gold.PLP.part.repulsive>
5.8455

> <Gold.PLP.ligand.clash>
0.0000

> <Gold.PLP.ligand.torsion>
1.0960

> <Gold.PLP.Chemscore.Hbond>
2.5264

> <Gold.PLP.Chemscore.CHOScore>
0.0000

> <Gold.PLP.Chemscore.Metal>
0.0000

> <Gold.Chemscore.Hbonds>
donor molecule, donor type, donor heavy atom, donor atom, acceptor molecule, acceptor atom, score
      L1  H     8    32       P1 10175  0.04
      L1  H    11    33       P1 10175  0.43
      L1  H    23    51       P1  7921  1.00
      P1  H  7954  7966       L1    10  1.00

> <Gold.PLP.Chemscore.Internal.Correction>
0.0711

> <Gold.Rescore>
     Score         DG    S(hbond)    S(metal)    S(lipo)     H(rot)  DE(clash)    DE(int)     intcor
     15.67     -19.45       2.45        0.00      81.15       1.44       2.88       0.89       ----

> <Gold.Chemscore.Fitness>
15.6703

> <Gold.Chemscore.DG>
-19.4492

> <Gold.Chemscore.ZeroCoef>
-5.4800

> <Gold.Chemscore.Hbond>
2.4469

> <Gold.Chemscore.Metal>
0.0000

> <Gold.Chemscore.Lipo>
81.1539

> <Gold.Chemscore.Internal_Hbond>
0.0000

> <Gold.Chemscore.DEClash>
2.8842

> <Gold.Chemscore.DEInternal>
0.8948

> <Gold.Chemscore.Rot>
1.4447

> <Gold.Chemscore.Internal.Correction>
   9.000000E+99

> <Gold.Chemscore.Hbonds>
donor molecule, donor type, donor heavy atom, donor atom, acceptor molecule, acceptor atom, score
      L1  H     8    32       P1 10175  0.05
      L1  H    11    33       P1 10175  0.42
      L1  H    23    51       P1  7921  0.97
      P1  H  7954  7966       L1    10  0.99

> <Gold.Chemscore.Hbond.Weighted>
-8.1727

> <Gold.Chemscore.Metal.Weighted>
-0.0000

> <Gold.Chemscore.Lipo.Weighted>
-9.4950

> <Gold.Chemscore.Internal_Hbond.Weighted>
0.0000

> <Gold.Chemscore.DEClash.Weighted>
2.8842

> <Gold.Chemscore.DEInternal.Weighted>
0.8948

> <Gold.Chemscore.Rot.Weighted>
3.6985

> <Gold.Chemscore.Internal.Correction.Weighted>
   9.000000E+99

> <Gold.Protein.RotatedTorsions>
[ 6907 6896 6895 6894 ] final  -40.88 input  -60.11 | X-H torsion
[ 7974 7965 7964 7962 ] final -166.70 input  175.53 | X-H torsion
[ 8008 7997 7996 7995 ] final   94.08 input   59.86 | X-H torsion
[ 10167 10162 10161 10158 ] final -174.25 input  -65.29 | X-H torsion
[ 10718 10713 10712 10709 ] final   52.71 input   66.30 | X-H torsion
[ 10763 10752 10751 10750 ] final  -20.23 input  -60.55 | X-H torsion
[ 11005 11000 10999 10996 ] final   20.80 input  -57.11 | X-H torsion

> <Gold.Protein.ActiveResidues>
 VAL166  LYS551  ARG553  GLY616  TRP617  ASP618  TYR619  PRO620  LYS621  CYS622 
 ASP623  PHE694  ASN695  SER759  ASP760  ASP761  ALA762  ILE779  LEU786  VAL792 
 PHE793  MET794  SER795  GLU796  ALA797  LYS798  CYS799  TRP800  GLU811  SER814 

> <Gold.Protein.RotatedAtoms>
  150.9732  134.9101  159.7800 H   0  0  0  0  0  0  0  0  0  0  0  0  # atno 6907 bound_to 6896
  152.5197  134.3512  159.9261 H   0  0  0  0  0  0  0  0  0  0  0  0  # atno 6908 bound_to 6896
  151.3521  133.3881  159.2716 H   0  0  0  0  0  0  0  0  0  0  0  0  # atno 6909 bound_to 6896
  144.7239  140.2627  143.6262 H   0  0  0  0  0  0  0  0  0  0  0  0  # atno 7974 bound_to 7965
  156.0539  140.3304  155.7383 H   0  0  0  0  0  0  0  0  0  0  0  0  # atno 8008 bound_to 7997
  155.5558  140.0614  157.2857 H   0  0  0  0  0  0  0  0  0  0  0  0  # atno 8009 bound_to 7997
  154.4449  140.1886  156.0721 H   0  0  0  0  0  0  0  0  0  0  0  0  # atno 8010 bound_to 7997
  139.5644  144.1792  152.1289 H   0  0  0  0  0  0  0  0  0  0  0  0  # atno 10167 bound_to 10162
  157.5100  130.8494  149.8423 H   0  0  0  0  0  0  0  0  0  0  0  0  # atno 10718 bound_to 10713
  153.6172  135.6994  153.5324 H   0  0  0  0  0  0  0  0  0  0  0  0  # atno 10763 bound_to 10752
  153.2967  135.4141  155.1215 H   0  0  0  0  0  0  0  0  0  0  0  0  # atno 10764 bound_to 10752
  154.8551  135.3639  154.5712 H   0  0  0  0  0  0  0  0  0  0  0  0  # atno 10765 bound_to 10752
  140.3986  134.1742  155.7663 H   0  0  0  0  0  0  0  0  0  0  0  0  # atno 11005 bound_to 11000
  145.8119  139.2007  143.1988 LP  0  0  0  0  0  0  0  0  0  0  0  0  # atno 17320 bound_to 7965
  146.0588  140.7992  142.9745 LP  0  0  0  0  0  0  0  0  0  0  0  0  # atno 17321 bound_to 7965
  140.1312  144.5287  150.6801 LP  0  0  0  0  0  0  0  0  0  0  0  0  # atno 17342 bound_to 10162
  140.6926  143.2385  151.5089 LP  0  0  0  0  0  0  0  0  0  0  0  0  # atno 17343 bound_to 10162
  156.0283  130.3772  150.1760 LP  0  0  0  0  0  0  0  0  0  0  0  0  # atno 17370 bound_to 10713
  156.9949  130.9905  151.3405 LP  0  0  0  0  0  0  0  0  0  0  0  0  # atno 17371 bound_to 10713
  141.1865  133.8301  157.1067 LP  0  0  0  0  0  0  0  0  0  0  0  0  # atno 17394 bound_to 11000
  140.0353  134.9881  157.0859 LP  0  0  0  0  0  0  0  0  0  0  0  0  # atno 17395 bound_to 11000

$$$$
