AV-unprocessed.smi:910|AV-procd|sdf|4131|dock4
  -GOLD-   22720 2 33D 1   1.00000     0.00000
 Structure written by MMmdl.
 47 48  0  0  0  0  0  0  0  0  2 V2000
  144.6075  135.2810  151.3535 C   0  0  0  0  0  0  0  0  0  0  0  0
  145.1735  136.3837  152.1922 C   0  0  0  0  0  0  0  0  0  0  0  0
  146.4539  136.8855  152.2026 N   0  3  0  0  0  0  0  0  0  0  0  0
  146.5414  137.8630  153.1015 C   0  0  0  0  0  0  0  0  0  0  0  0
  147.7215  138.5956  153.3651 N   0  0  0  0  0  0  0  0  0  0  0  0
  148.2788  138.7716  154.5726 C   0  0  0  0  0  0  0  0  0  0  0  0
  147.8472  138.2859  155.6185 O   0  0  0  0  0  0  0  0  0  0  0  0
  149.3713  139.5472  154.5047 N   0  0  0  0  0  0  0  0  0  0  0  0
  150.1815  139.9582  155.6469 C   0  0  0  0  0  0  0  0  0  0  0  0
  149.3560  140.7592  156.6639 C   0  0  0  0  0  0  0  0  0  0  0  0
  149.9007  140.5667  157.9605 O   0  0  0  0  0  0  0  0  0  0  0  0
  151.0933  141.2960  158.2151 C   0  0  1  0  0  0  0  0  0  0  0  0
  150.7591  142.8013  158.2782 C   0  0  0  0  0  0  0  0  0  0  0  0
  151.9806  143.6347  158.6923 C   0  0  0  0  0  0  0  0  0  0  0  0
  152.5530  143.1454  160.0301 C   0  0  0  0  0  0  0  0  0  0  0  0
  152.8949  141.6489  159.9691 C   0  0  0  0  0  0  0  0  0  0  0  0
  151.6756  140.7990  159.5574 C   0  0  2  0  0  0  0  0  0  0  0  0
  152.0475  139.3084  159.4994 C   0  0  0  0  0  0  0  0  0  0  0  0
  145.3440  138.0546  153.7176 O   0  0  0  0  0  0  0  0  0  0  0  0
  144.5018  137.1276  153.1382 C   0  0  0  0  0  0  0  0  0  0  0  0
  143.0906  137.0989  153.6199 C   0  0  0  0  0  0  0  0  0  0  0  0
  144.0716  134.5551  151.9654 H   0  0  0  0  0  0  0  0  0  0  0  0
  145.3922  134.7455  150.8188 H   0  0  0  0  0  0  0  0  0  0  0  0
  143.9085  135.6698  150.6128 H   0  0  0  0  0  0  0  0  0  0  0  0
  147.1889  136.5349  151.6014 H   0  0  0  0  0  0  0  0  0  0  0  0
  149.6554  139.8984  153.6018 H   0  0  0  0  0  0  0  0  0  0  0  0
  150.6556  139.0986  156.1239 H   0  0  0  0  0  0  0  0  0  0  0  0
  150.9892  140.5837  155.2666 H   0  0  0  0  0  0  0  0  0  0  0  0
  149.3965  141.8203  156.4148 H   0  0  0  0  0  0  0  0  0  0  0  0
  148.3096  140.4556  156.6205 H   0  0  0  0  0  0  0  0  0  0  0  0
  151.8277  141.1121  157.4281 H   0  0  0  0  0  0  0  0  0  0  0  0
  150.3931  143.1545  157.3146 H   0  0  0  0  0  0  0  0  0  0  0  0
  149.9508  142.9646  158.9923 H   0  0  0  0  0  0  0  0  0  0  0  0
  152.7471  143.5694  157.9192 H   0  0  0  0  0  0  0  0  0  0  0  0
  151.7053  144.6870  158.7679 H   0  0  0  0  0  0  0  0  0  0  0  0
  153.4436  143.7201  160.2858 H   0  0  0  0  0  0  0  0  0  0  0  0
  151.8295  143.3245  160.8264 H   0  0  0  0  0  0  0  0  0  0  0  0
  153.7087  141.4931  159.2594 H   0  0  0  0  0  0  0  0  0  0  0  0
  153.2670  141.3212  160.9403 H   0  0  0  0  0  0  0  0  0  0  0  0
  150.9094  140.9194  160.3251 H   0  0  0  0  0  0  0  0  0  0  0  0
  152.8042  139.1175  158.7378 H   0  0  0  0  0  0  0  0  0  0  0  0
  151.1794  138.6911  159.2668 H   0  0  0  0  0  0  0  0  0  0  0  0
  152.4437  138.9653  160.4554 H   0  0  0  0  0  0  0  0  0  0  0  0
  142.4166  136.7614  152.8321 H   0  0  0  0  0  0  0  0  0  0  0  0
  142.7664  138.0902  153.9368 H   0  0  0  0  0  0  0  0  0  0  0  0
  142.9865  136.4212  154.4672 H   0  0  0  0  0  0  0  0  0  0  0  0
  148.1710  139.0303  152.5730 H   0  0  0  0  0  0  0  0  0  0  0  0
  1 22  1  0  0  0  0
  1 23  1  0  0  0  0
  1 24  1  0  0  0  0
  1  2  1  0  0  0  0
  2  3  1  0  0  0  0
  2 20  2  0  0  0  0
  3 25  1  0  0  0  0
  3  4  2  0  0  0  0
  4 19  1  0  0  0  0
  4  5  1  0  0  0  0
  5  6  1  0  0  0  0
  5 47  1  0  0  0  0
  6  8  1  0  0  0  0
  6  7  2  0  0  0  0
  8  9  1  0  0  0  0
  8 26  1  0  0  0  0
  9 10  1  0  0  0  0
  9 27  1  0  0  0  0
  9 28  1  0  0  0  0
 10 11  1  0  0  0  0
 10 29  1  0  0  0  0
 10 30  1  0  0  0  0
 11 12  1  0  0  0  0
 12 17  1  0  0  0  0
 12 13  1  0  0  0  0
 12 31  1  0  0  0  0
 13 14  1  0  0  0  0
 13 32  1  0  0  0  0
 13 33  1  0  0  0  0
 14 15  1  0  0  0  0
 14 34  1  0  0  0  0
 14 35  1  0  0  0  0
 15 16  1  0  0  0  0
 15 36  1  0  0  0  0
 15 37  1  0  0  0  0
 16 17  1  0  0  0  0
 16 38  1  0  0  0  0
 16 39  1  0  0  0  0
 17 18  1  0  0  0  0
 17 40  1  0  0  0  0
 18 41  1  0  0  0  0
 18 42  1  0  0  0  0
 18 43  1  0  0  0  0
 19 20  1  0  0  0  0
 20 21  1  0  0  0  0
 21 44  1  0  0  0  0
 21 45  1  0  0  0  0
 21 46  1  0  0  0  0
M  CHG  1   3   1
M  END
> <s_m_source_file>
AV-unprocessed.smi

> <i_m_source_file_index>
910

> <i_lp_mmshare_version>
43012

> <i_f3d_flags>
0

> <s_epik_input>
W0NIM11jMW5jKG9jMVtDSDNdKVtOSF1DKD1PKVtOSF1bQ0gyXVtDSDJdT1tDQEBIXTJbQ0gyXVtDSDJdW0NIMl1bQ0gyXVtDQEhdMltDSDNd

> <s_epik_cmdline>
J2VwaWtfcHl0aG9uJywgJy1waCcsICc3LjAnLCAnLXRuJywgJzgnLCAnLW1hJywgJzIwMCcsICctbWV0YWxfYmluZGluZycsICctaW1hZScsICc8aW5maWxlLm1hZT4nLCAnLW9tYWUnLCAnPG91dGZpbGUubWFlPic=

> <r_epik_Ionization_Penalty>
7.32931

> <r_epik_Ionization_Penalty_Charging>
7.12214

> <r_epik_Ionization_Penalty_Neutral>
0.207166

> <r_epik_State_Penalty>
2.61278

> <r_epik_Charging_Adjusted_Penalty>
9.73492

> <i_epik_Tot_Q>
1

> <i_epik_Tot_abs_Q>
1

> <r_epik_Metal_State_Penalty>
2.64585

> <b_epik_Metal_Only>
0

> <s_lp_Force_Field>
OPLS_2005

> <r_lp_Energy>
16.7683

> <b_lp_Chiralities_Consistent>
1

> <s_lp_Variant>
AV-unprocessed.smi:910-16

> <Gold.Version>
5.8.1

> <Gold.Id.Protein>
6NUR|6NUR_protein|mol2

> <Gold.PLP.Fitness>
46.4743

> <Gold.PLP.PLP>
-38.5729

> <Gold.PLP.part.hbond>
-3.5715

> <Gold.PLP.part.metal>
0.0000

> <Gold.PLP.part.buried>
-3.8598

> <Gold.PLP.part.nonpolar>
-33.7657

> <Gold.PLP.part.repulsive>
0.9425

> <Gold.PLP.ligand.clash>
0.0000

> <Gold.PLP.ligand.torsion>
0.7631

> <Gold.PLP.Chemscore.Hbond>
3.1200

> <Gold.PLP.Chemscore.CHOScore>
0.0000

> <Gold.PLP.Chemscore.Metal>
0.0000

> <Gold.Chemscore.Hbonds>
donor molecule, donor type, donor heavy atom, donor atom, acceptor molecule, acceptor atom, score
      L1  H     3    25       P1  7948  1.38
      L1  H     5    47       P1  7957  0.49

> <Gold.PLP.Chemscore.Internal.Correction>
0.0676

> <Gold.Rescore>
     Score         DG    S(hbond)    S(metal)    S(lipo)     H(rot)  DE(clash)    DE(int)     intcor
     19.03     -21.24       2.70        0.00      94.81       1.69       0.41       1.80       ----

> <Gold.Chemscore.Fitness>
19.0271

> <Gold.Chemscore.DG>
-21.2394

> <Gold.Chemscore.ZeroCoef>
-5.4800

> <Gold.Chemscore.Hbond>
2.6962

> <Gold.Chemscore.Metal>
0.0000

> <Gold.Chemscore.Lipo>
94.8127

> <Gold.Chemscore.Internal_Hbond>
0.0000

> <Gold.Chemscore.DEClash>
0.4114

> <Gold.Chemscore.DEInternal>
1.8009

> <Gold.Chemscore.Rot>
1.6949

> <Gold.Chemscore.Internal.Correction>
   9.000000E+99

> <Gold.Chemscore.Hbonds>
donor molecule, donor type, donor heavy atom, donor atom, acceptor molecule, acceptor atom, score
      L1  H     3    25       P1  7948  0.70
      L1  H     5    47       P1  7957  0.48
      L1  H     8    26       P1  7957  0.05

> <Gold.Chemscore.Hbond.Weighted>
-9.0053

> <Gold.Chemscore.Metal.Weighted>
-0.0000

> <Gold.Chemscore.Lipo.Weighted>
-11.0931

> <Gold.Chemscore.Internal_Hbond.Weighted>
0.0000

> <Gold.Chemscore.DEClash.Weighted>
0.4114

> <Gold.Chemscore.DEInternal.Weighted>
1.8009

> <Gold.Chemscore.Rot.Weighted>
4.3390

> <Gold.Chemscore.Internal.Correction.Weighted>
   9.000000E+99

> <Gold.Protein.RotatedTorsions>
[ 6907 6896 6895 6894 ] final  118.36 input  -60.11 | X-H torsion
[ 7974 7965 7964 7962 ] final   54.56 input  175.53 | X-H torsion
[ 8008 7997 7996 7995 ] final  -83.38 input   59.86 | X-H torsion
[ 10167 10162 10161 10158 ] final   96.66 input  -65.29 | X-H torsion
[ 10718 10713 10712 10709 ] final  -76.18 input   66.30 | X-H torsion
[ 10763 10752 10751 10750 ] final -144.52 input  -60.55 | X-H torsion
[ 11005 11000 10999 10996 ] final   75.77 input  -57.11 | X-H torsion

> <Gold.Protein.ActiveResidues>
 VAL166  LYS551  ARG553  GLY616  TRP617  ASP618  TYR619  PRO620  LYS621  CYS622 
 ASP623  PHE694  ASN695  SER759  ASP760  ASP761  ALA762  ILE779  LEU786  VAL792 
 PHE793  MET794  SER795  GLU796  ALA797  LYS798  CYS799  TRP800  GLU811  SER814 

> <Gold.Protein.RotatedAtoms>
  152.4549  133.7702  159.6794 H   0  0  0  0  0  0  0  0  0  0  0  0  # atno 6907 bound_to 6896
  150.8471  133.7834  159.3045 H   0  0  0  0  0  0  0  0  0  0  0  0  # atno 6908 bound_to 6896
  151.5440  135.1071  159.9985 H   0  0  0  0  0  0  0  0  0  0  0  0  # atno 6909 bound_to 6896
  145.9596  139.4046  143.0256 H   0  0  0  0  0  0  0  0  0  0  0  0  # atno 7974 bound_to 7965
  154.6184  140.0620  156.9584 H   0  0  0  0  0  0  0  0  0  0  0  0  # atno 8008 bound_to 7997
  155.1857  140.3303  155.4349 H   0  0  0  0  0  0  0  0  0  0  0  0  # atno 8009 bound_to 7997
  156.2418  140.1890  156.6951 H   0  0  0  0  0  0  0  0  0  0  0  0  # atno 8010 bound_to 7997
  139.7873  144.6865  150.9940 H   0  0  0  0  0  0  0  0  0  0  0  0  # atno 10167 bound_to 10162
  156.0183  130.4459  150.3155 H   0  0  0  0  0  0  0  0  0  0  0  0  # atno 10718 bound_to 10713
  154.8424  135.3438  154.6359 H   0  0  0  0  0  0  0  0  0  0  0  0  # atno 10763 bound_to 10752
  153.6969  135.6972  153.5078 H   0  0  0  0  0  0  0  0  0  0  0  0  # atno 10764 bound_to 10752
  153.2552  135.4340  155.0793 H   0  0  0  0  0  0  0  0  0  0  0  0  # atno 10765 bound_to 10752
  139.9328  134.7545  156.1312 H   0  0  0  0  0  0  0  0  0  0  0  0  # atno 11005 bound_to 11000
  145.8059  140.9749  143.0974 LP  0  0  0  0  0  0  0  0  0  0  0  0  # atno 17320 bound_to 7965
  144.6812  139.9860  143.7484 LP  0  0  0  0  0  0  0  0  0  0  0  0  # atno 17321 bound_to 7965
  140.7820  143.4418  151.0540 LP  0  0  0  0  0  0  0  0  0  0  0  0  # atno 17342 bound_to 10162
  139.8096  143.7969  152.3170 LP  0  0  0  0  0  0  0  0  0  0  0  0  # atno 17343 bound_to 10162
  157.1256  131.0258  151.2991 LP  0  0  0  0  0  0  0  0  0  0  0  0  # atno 17370 bound_to 10713
  157.4592  130.7643  149.7220 LP  0  0  0  0  0  0  0  0  0  0  0  0  # atno 17371 bound_to 10713
  141.0927  133.6708  156.2575 LP  0  0  0  0  0  0  0  0  0  0  0  0  # atno 17394 bound_to 11000
  140.6155  134.5415  157.5540 LP  0  0  0  0  0  0  0  0  0  0  0  0  # atno 17395 bound_to 11000

$$$$
