#       Name:                AV-unprocessed.smi:164
#       Creating user name   scv26
#       Creation time:       Thu Mar 26 19:11:35 2020


#       File generated by GOLD software.
#

@<TRIPOS>MOLECULE
AV-unprocessed.smi:164
    63    65     1
SMALL
NO_CHARGES


@<TRIPOS>ATOM
      1 ****        -2.3293   5.8202   2.6794 C.3            1 S1                 0.0000
      2 ****        -2.0105   5.0366   1.4177 C.ar           1 S1                 0.0000
      3 ****        -2.3828   5.5739   0.1686 C.ar           1 S1                 0.0000
      4 ****        -2.1081   4.8730  -1.0185 C.ar           1 S1                 0.0000
      5 ****        -1.4473   3.6304  -0.9698 C.ar           1 S1                 0.0000
      6 ****        -1.1648   2.8801  -2.2580 C.3            1 S1                 0.0000
      7 ****        -1.0529   3.0917   0.2765 C.ar           1 S1                 0.0000
      8 ****        -0.3967   1.8882   0.3089 O.3            1 S1                 0.0000
      9 ****         1.0186   2.0145   0.3004 C.3            1 S1                 0.0000
     10 ****         1.6461   0.6233   0.1331 C.3            1 S1                 0.0000
     11 ****         3.0407   0.7720   0.3067 O.3            1 S1                 0.0000
     12 ****         1.3719   0.0319  -1.2678 C.3            1 S1                 0.0000
     13 ****         1.5115  -1.4139  -1.3214 N.am           1 S1                 0.0000
     14 ****         2.7383  -1.9480  -1.7842 C.2            1 S1                 0.0000
     15 ****         3.6670  -1.2323  -2.1632 O.2            1 S1                 0.0000
     16 ****         2.8105  -3.4039  -1.7551 C.2            1 S1                 0.0000
     17 ****         3.9410  -4.0205  -2.1393 F              1 S1                 0.0000
     18 ****         1.7657  -4.1472  -1.3312 C.2            1 S1                 0.0000
     19 ****         0.5602  -3.6001  -0.9151 N.am           1 S1                 0.0000
     20 ****        -0.5768  -4.4441  -0.3582 C.3            1 S1                 0.0000
     21 ****        -0.5365  -5.9185  -0.7812 C.3            1 S1                 0.0000
     22 ****         0.1550  -6.6027   0.3951 C.3            1 S1                 0.0000
     23 ****         0.4207  -5.4777   1.4013 C.3            1 S1                 0.0000
     24 ****        -0.4848  -4.4472   1.0305 O.3            1 S1                 0.0000
     25 ****         0.4260  -2.1945  -0.8575 C.2            1 S1                 0.0000
     26 ****        -0.6002  -1.6736  -0.4131 O.2            1 S1                 0.0000
     27 ****        -1.3518   3.7829   1.4777 C.ar           1 S1                 0.0000
     28 ****        -0.9674   3.1826   2.8235 C.3            1 S1                 0.0000
     29 ****        -2.6855   6.8237   2.4441 H              1 S1                 0.0000
     30 ****        -1.4428   5.9217   3.3060 H              1 S1                 0.0000
     31 ****        -3.1056   5.3146   3.2539 H              1 S1                 0.0000
     32 ****        -2.8876   6.5273   0.1150 H              1 S1                 0.0000
     33 ****        -2.4069   5.2950  -1.9669 H              1 S1                 0.0000
     34 ****        -1.4921   1.8435  -2.1756 H              1 S1                 0.0000
     35 ****        -0.0972   2.8881  -2.4772 H              1 S1                 0.0000
     36 ****        -1.6881   3.3299  -3.1020 H              1 S1                 0.0000
     37 ****         1.3473   2.6783  -0.5012 H              1 S1                 0.0000
     38 ****         1.3437   2.4612   1.2413 H              1 S1                 0.0000
     39 ****         1.2667  -0.0315   0.9185 H              1 S1                 0.0000
     40 ****         3.3711   1.3318  -0.3792 H              1 S1                 0.0000
     41 ****         0.3527   0.2444  -1.5942 H              1 S1                 0.0000
     42 ****         1.9961   0.4829  -2.0408 H              1 S1                 0.0000
     43 ****         1.9072  -5.2160  -1.3122 H              1 S1                 0.0000
     44 ****        -1.4922  -3.9580  -0.6997 H              1 S1                 0.0000
     45 ****        -1.5636  -6.2768  -0.8589 H              1 S1                 0.0000
     46 ****        -0.0621  -6.0678  -1.7510 H              1 S1                 0.0000
     47 ****        -0.5030  -7.3573   0.8277 H              1 S1                 0.0000
     48 ****         1.0802  -7.0985   0.1002 H              1 S1                 0.0000
     49 ****         0.2605  -5.7931   2.4322 H              1 S1                 0.0000
     50 ****         1.4456  -5.1140   1.3181 H              1 S1                 0.0000
     51 ****        -0.7280   2.1222   2.7483 H              1 S1                 0.0000
     52 ****        -1.7850   3.2727   3.5386 H              1 S1                 0.0000
     53 ****        -0.0971   3.6985   3.2293 H              1 S1                 0.0000
     54 ****        -0.6718   1.3559  -0.4917 LP             1 S1                 0.0000
     55 ****        -0.6662   1.4029   1.1406 LP             1 S1                 0.0000
     56 ****         3.4842  -0.1228   0.2545 LP             1 S1                 0.0000
     57 ****         3.2273   1.1850   1.1981 LP             1 S1                 0.0000
     58 ****         3.5688  -0.2372  -2.1505 LP             1 S1                 0.0000
     59 ****         4.5190  -1.6466  -2.4835 LP             1 S1                 0.0000
     60 ****        -1.3839  -4.6236   1.4310 LP             1 S1                 0.0000
     61 ****        -0.1446  -3.5632   1.3513 LP             1 S1                 0.0000
     62 ****        -0.6789  -0.6774  -0.3746 LP             1 S1                 0.0000
     63 ****        -1.3532  -2.2475  -0.0914 LP             1 S1                 0.0000
@<TRIPOS>BOND
    1    1    2 1     
    2    1   29 1     
    3    1   30 1     
    4    1   31 1     
    5    2   27 ar    
    6    2    3 ar    
    7    3    4 ar    
    8    3   32 1     
    9    4    5 ar    
   10    4   33 1     
   11    5    6 1     
   12    5    7 ar    
   13    6   34 1     
   14    6   35 1     
   15    6   36 1     
   16    7    8 1     
   17    7   27 ar    
   18    8    9 1     
   19    9   10 1     
   20    9   37 1     
   21    9   38 1     
   22   10   11 1     
   23   10   12 1     
   24   10   39 1     
   25   11   40 1     
   26   12   13 1     
   27   12   41 1     
   28   12   42 1     
   29   13   25 am    
   30   13   14 am    
   31   14   15 2     
   32   14   16 1     
   33   16   17 1     
   34   16   18 2     
   35   18   19 1     
   36   18   43 1     
   37   19   20 1     
   38   19   25 am    
   39   20   24 1     
   40   20   21 1     
   41   20   44 1     
   42   21   22 1     
   43   21   45 1     
   44   21   46 1     
   45   22   23 1     
   46   22   47 1     
   47   22   48 1     
   48   23   24 1     
   49   23   49 1     
   50   23   50 1     
   51   25   26 2     
   52   27   28 1     
   53   28   51 1     
   54   28   52 1     
   55   28   53 1     
   56    8   54 1     
   57    8   55 1     
   58   11   56 1     
   59   11   57 1     
   60   15   58 1     
   61   15   59 1     
   62   24   60 1     
   63   24   61 1     
   64   26   62 1     
   65   26   63 1     
@<TRIPOS>SUBSTRUCTURE
      1 S1             1
@<TRIPOS>SET
LONE_PAIRS      STATIC     ATOMS    <user>   **** ""
10 54 55 56 57 58 59 60 61 62 63
DONOR_HYDROGENS      STATIC     ATOMS    <user>   **** ""
1 40
ATOM$BLUE        STATIC     ATOMS    COLORGROUP SYSTEM
10 54 55 56 57 58 59 60 61 62 63
ATOM$RED        STATIC     ATOMS    COLORGROUP SYSTEM
1 40
