AV-unprocessed.smi:781|AV-procd|sdf|3710|dock5
  -GOLD-   22720 1133D 1   1.00000     0.00000
 Structure written by MMmdl.
 38 40  0  0  0  0  0  0  0  0  1 V2000
  152.3764  136.3391  157.3997 C   0  0  0  0  0  0  0  0  0  0  0  0
  151.2272  135.7062  156.6926 C   0  0  0  0  0  0  0  0  0  0  0  0
  150.7047  135.8635  155.4397 C   0  0  0  0  0  0  0  0  0  0  0  0
  149.6176  134.9495  155.4292 C   0  0  0  0  0  0  0  0  0  0  0  0
  148.7993  134.8049  154.2798 N   0  0  0  0  0  0  0  0  0  0  0  0
  147.6332  134.1435  154.1830 C   0  0  0  0  0  0  0  0  0  0  0  0
  147.0774  133.5462  155.1050 O   0  0  0  0  0  0  0  0  0  0  0  0
  147.1412  134.2049  152.9370 N   0  0  0  0  0  0  0  0  0  0  0  0
  145.8832  133.6023  152.4926 C   0  0  1  0  0  0  0  0  0  0  0  0
  145.5744  134.0249  151.0399 C   0  0  2  0  0  0  0  0  0  0  0  0
  144.0982  133.7177  150.7291 C   0  0  0  0  0  0  0  0  0  0  0  0
  144.0891  132.1796  150.6400 C   0  0  0  0  0  0  0  0  0  0  0  0
  145.5619  131.8109  150.9095 C   0  0  1  0  0  0  0  0  0  0  0  0
  146.2913  132.9579  150.2217 C   0  0  0  0  0  0  0  0  0  0  0  0
  145.8852  132.0451  152.4061 C   0  0  1  0  0  0  0  0  0  0  0  0
  147.1780  131.3359  152.8705 C   0  0  0  0  0  0  0  0  0  0  0  0
  147.2310  130.0207  152.3589 O   0  0  0  0  0  0  0  0  0  0  0  0
  149.4883  134.2935  156.5721 N   0  0  0  0  0  0  0  0  0  0  0  0
  150.5191  134.7753  157.3879 O   0  0  0  0  0  0  0  0  0  0  0  0
  152.8296  137.1183  156.7867 H   0  0  0  0  0  0  0  0  0  0  0  0
  153.1441  135.5996  157.6285 H   0  0  0  0  0  0  0  0  0  0  0  0
  152.0526  136.7919  158.3369 H   0  0  0  0  0  0  0  0  0  0  0  0
  151.0480  136.5258  154.6589 H   0  0  0  0  0  0  0  0  0  0  0  0
  149.1398  135.2503  153.4407 H   0  0  0  0  0  0  0  0  0  0  0  0
  147.6670  134.7152  152.2427 H   0  0  0  0  0  0  0  0  0  0  0  0
  145.0797  133.9438  153.1481 H   0  0  0  0  0  0  0  0  0  0  0  0
  145.8563  135.0524  150.8057 H   0  0  0  0  0  0  0  0  0  0  0  0
  143.4215  134.0962  151.4961 H   0  0  0  0  0  0  0  0  0  0  0  0
  143.8022  134.1580  149.7760 H   0  0  0  0  0  0  0  0  0  0  0  0
  143.4077  131.7238  151.3592 H   0  0  0  0  0  0  0  0  0  0  0  0
  143.7850  131.8568  149.6435 H   0  0  0  0  0  0  0  0  0  0  0  0
  145.8256  130.8179  150.5443 H   0  0  0  0  0  0  0  0  0  0  0  0
  146.0850  133.0222  149.1519 H   0  0  0  0  0  0  0  0  0  0  0  0
  147.3712  132.9443  150.3744 H   0  0  0  0  0  0  0  0  0  0  0  0
  145.0690  131.6595  153.0193 H   0  0  0  0  0  0  0  0  0  0  0  0
  148.0698  131.8775  152.5543 H   0  0  0  0  0  0  0  0  0  0  0  0
  147.2067  131.2663  153.9579 H   0  0  0  0  0  0  0  0  0  0  0  0
  147.7073  130.0342  151.5427 H   0  0  0  0  0  0  0  0  0  0  0  0
  1  2  1  0  0  0  0
  1 20  1  0  0  0  0
  1 21  1  0  0  0  0
  1 22  1  0  0  0  0
  2 19  1  0  0  0  0
  2  3  2  0  0  0  0
  3  4  1  0  0  0  0
  3 23  1  0  0  0  0
  4  5  1  0  0  0  0
  4 18  2  0  0  0  0
  5  6  1  0  0  0  0
  5 24  1  0  0  0  0
  6  7  2  0  0  0  0
  6  8  1  0  0  0  0
  8  9  1  0  0  0  0
  8 25  1  0  0  0  0
  9 15  1  0  0  0  0
  9 10  1  0  0  0  0
  9 26  1  0  0  0  0
 10 14  1  0  0  0  0
 10 11  1  0  0  0  0
 10 27  1  0  0  0  0
 11 12  1  0  0  0  0
 11 28  1  0  0  0  0
 11 29  1  0  0  0  0
 12 13  1  0  0  0  0
 12 30  1  0  0  0  0
 12 31  1  0  0  0  0
 13 14  1  0  0  0  0
 13 15  1  0  0  0  0
 13 32  1  0  0  0  0
 14 33  1  0  0  0  0
 14 34  1  0  0  0  0
 15 16  1  0  0  0  0
 15 35  1  0  0  0  0
 16 17  1  0  0  0  0
 16 36  1  0  0  0  0
 16 37  1  0  0  0  0
 17 38  1  0  0  0  0
 18 19  1  0  0  0  0
M  END
> <s_m_source_file>
AV-unprocessed.smi

> <i_m_source_file_index>
781

> <i_lp_mmshare_version>
43012

> <i_f3d_flags>
0

> <s_epik_input>
W0NIM11jMVtjSF1jKG5vMSlbTkhdQyg9TylbTkhdW0NASF0oW0NAQEhdMjMpW0NASF0oW0NIMl1bT0hdKVtDQEBIXShbQ0gyXTMpW0NIMl1bQ0gyXTI=

> <s_epik_cmdline>
J2VwaWtfcHl0aG9uJywgJy1waCcsICc3LjAnLCAnLXRuJywgJzgnLCAnLW1hJywgJzIwMCcsICctbWV0YWxfYmluZGluZycsICctaW1hZScsICc8aW5maWxlLm1hZT4nLCAnLW9tYWUnLCAnPG91dGZpbGUubWFlPic=

> <r_lp_tautomer_probability>
1

> <r_epik_Ionization_Penalty>
2.32222e-05

> <r_epik_Ionization_Penalty_Charging>
0

> <r_epik_Ionization_Penalty_Neutral>
2.32222e-05

> <r_epik_State_Penalty>
-0

> <r_epik_Charging_Adjusted_Penalty>
0

> <i_epik_Tot_Q>
0

> <i_epik_Tot_abs_Q>
0

> <r_epik_Metal_State_Penalty>
-0

> <b_epik_Metal_Only>
0

> <s_lp_Force_Field>
OPLS_2005

> <r_lp_Energy>
48.1353

> <b_lp_Chiralities_Consistent>
1

> <s_lp_Variant>
AV-unprocessed.smi:781-4

> <Gold.Version>
5.8.1

> <Gold.Id.Protein>
6NUR|6NUR_protein|mol2

> <Gold.PLP.Fitness>
38.1779

> <Gold.PLP.PLP>
-28.2232

> <Gold.PLP.part.hbond>
-4.0000

> <Gold.PLP.part.metal>
0.0000

> <Gold.PLP.part.buried>
-4.1731

> <Gold.PLP.part.nonpolar>
-20.0347

> <Gold.PLP.part.repulsive>
0.0292

> <Gold.PLP.ligand.clash>
0.0000

> <Gold.PLP.ligand.torsion>
0.2489

> <Gold.PLP.Chemscore.Hbond>
3.4799

> <Gold.PLP.Chemscore.CHOScore>
0.0000

> <Gold.PLP.Chemscore.Metal>
0.0000

> <Gold.Chemscore.Hbonds>
donor molecule, donor type, donor heavy atom, donor atom, acceptor molecule, acceptor atom, score
      L1  H     5    24       P1  7948  1.00
      L1  H     8    25       P1  7948  0.98
      L1  H    17    38       P1 10747  1.00
      P1  H  6896  6909       L1    19  0.50

> <Gold.PLP.Chemscore.Internal.Correction>
0.0129

> <Gold.Rescore>
     Score         DG    S(hbond)    S(metal)    S(lipo)     H(rot)  DE(clash)    DE(int)     intcor
     18.79     -20.36       3.52        0.00      67.42       1.86       0.08       1.48       ----

> <Gold.Chemscore.Fitness>
18.7946

> <Gold.Chemscore.DG>
-20.3575

> <Gold.Chemscore.ZeroCoef>
-5.4800

> <Gold.Chemscore.Hbond>
3.5173

> <Gold.Chemscore.Metal>
0.0000

> <Gold.Chemscore.Lipo>
67.4179

> <Gold.Chemscore.Internal_Hbond>
0.0000

> <Gold.Chemscore.DEClash>
0.0840

> <Gold.Chemscore.DEInternal>
1.4789

> <Gold.Chemscore.Rot>
1.8587

> <Gold.Chemscore.Internal.Correction>
   9.000000E+99

> <Gold.Chemscore.Hbonds>
donor molecule, donor type, donor heavy atom, donor atom, acceptor molecule, acceptor atom, score
      L1  H     5    24       P1  7948  0.34
      L1  H     8    25       P1  7948  0.68
      L1  H    17    38       P1 10747  0.96
      P1  H  6896  6909       L1    19  0.47

> <Gold.Chemscore.Hbond.Weighted>
-11.7479

> <Gold.Chemscore.Metal.Weighted>
-0.0000

> <Gold.Chemscore.Lipo.Weighted>
-7.8879

> <Gold.Chemscore.Internal_Hbond.Weighted>
0.0000

> <Gold.Chemscore.DEClash.Weighted>
0.0840

> <Gold.Chemscore.DEInternal.Weighted>
1.4789

> <Gold.Chemscore.Rot.Weighted>
4.7583

> <Gold.Chemscore.Internal.Correction.Weighted>
   9.000000E+99

> <Gold.Protein.RotatedTorsions>
[ 6907 6896 6895 6894 ] final   20.38 input  -60.11 | X-H torsion
[ 7974 7965 7964 7962 ] final -178.23 input  175.53 | X-H torsion
[ 8008 7997 7996 7995 ] final   -1.06 input   59.86 | X-H torsion
[ 10167 10162 10161 10158 ] final -112.26 input  -65.29 | X-H torsion
[ 10718 10713 10712 10709 ] final  128.32 input   66.30 | X-H torsion
[ 10763 10752 10751 10750 ] final  171.48 input  -60.55 | X-H torsion
[ 11005 11000 10999 10996 ] final -135.16 input  -57.11 | X-H torsion

> <Gold.Protein.ActiveResidues>
 VAL166  LYS551  ARG553  GLY616  TRP617  ASP618  TYR619  PRO620  LYS621  CYS622 
 ASP623  PHE694  ASN695  SER759  ASP760  ASP761  ALA762  ILE779  LEU786  VAL792 
 PHE793  MET794  SER795  GLU796  ALA797  LYS798  CYS799  TRP800  GLU811  SER814 

> <Gold.Protein.RotatedAtoms>
  151.8955  135.0399  160.0501 H   0  0  0  0  0  0  0  0  0  0  0  0  # atno 6907 bound_to 6896
  152.2401  133.5124  159.5273 H   0  0  0  0  0  0  0  0  0  0  0  0  # atno 6908 bound_to 6896
  150.7051  134.1017  159.4010 H   0  0  0  0  0  0  0  0  0  0  0  0  # atno 6909 bound_to 6896
  144.7130  140.0899  143.6422 H   0  0  0  0  0  0  0  0  0  0  0  0  # atno 7974 bound_to 7965
  154.6510  140.2569  155.7213 H   0  0  0  0  0  0  0  0  0  0  0  0  # atno 8008 bound_to 7997
  156.2575  140.2868  156.0865 H   0  0  0  0  0  0  0  0  0  0  0  0  # atno 8009 bound_to 7997
  155.1451  140.0381  157.2798 H   0  0  0  0  0  0  0  0  0  0  0  0  # atno 8010 bound_to 7997
  140.1247  143.4413  152.1667 H   0  0  0  0  0  0  0  0  0  0  0  0  # atno 10167 bound_to 10162
  157.5255  131.1098  150.9089 H   0  0  0  0  0  0  0  0  0  0  0  0  # atno 10718 bound_to 10713
  154.4125  135.2756  155.2027 H   0  0  0  0  0  0  0  0  0  0  0  0  # atno 10763 bound_to 10752
  154.4007  135.6045  153.5899 H   0  0  0  0  0  0  0  0  0  0  0  0  # atno 10764 bound_to 10752
  152.9831  135.5925  154.4409 H   0  0  0  0  0  0  0  0  0  0  0  0  # atno 10765 bound_to 10752
  140.8924  134.1795  157.4518 H   0  0  0  0  0  0  0  0  0  0  0  0  # atno 11005 bound_to 11000
  145.9629  139.2813  143.1145 LP  0  0  0  0  0  0  0  0  0  0  0  0  # atno 17320 bound_to 7965
  145.9201  140.9121  143.0409 LP  0  0  0  0  0  0  0  0  0  0  0  0  # atno 17321 bound_to 7965
  139.5550  144.7366  151.4320 LP  0  0  0  0  0  0  0  0  0  0  0  0  # atno 17342 bound_to 10162
  140.6852  143.7991  150.7176 LP  0  0  0  0  0  0  0  0  0  0  0  0  # atno 17343 bound_to 10162
  156.9686  130.5482  149.5289 LP  0  0  0  0  0  0  0  0  0  0  0  0  # atno 17370 bound_to 10713
  156.0384  130.5469  150.8710 LP  0  0  0  0  0  0  0  0  0  0  0  0  # atno 17371 bound_to 10713
  139.8731  134.9864  156.5323 LP  0  0  0  0  0  0  0  0  0  0  0  0  # atno 17394 bound_to 11000
  140.8331  133.8264  155.9002 LP  0  0  0  0  0  0  0  0  0  0  0  0  # atno 17395 bound_to 11000

$$$$
