AV-unprocessed.smi:3116|AV-procd|sdf|11870|dock10
  -GOLD-   2272017253D 1   1.00000     0.00000
 Structure written by MMmdl.
 33 33  0  0  0  0  0  0  0  0  1 V2000
  146.8351  138.6431  151.7020 C   0  0  0  0  0  0  0  0  0  0  0  0
  147.1235  139.4168  153.0054 C   0  0  2  0  0  0  0  0  0  0  0  0
  148.5570  139.4064  153.3387 N   0  0  0  0  0  0  0  0  0  0  0  0
  148.9015  140.1727  154.5344 C   0  0  2  0  0  0  0  0  0  0  0  0
  148.5390  141.6460  154.2628 C   0  0  0  0  0  0  0  0  0  0  0  0
  150.4057  139.9517  154.8474 C   0  0  2  0  0  0  0  0  0  0  0  0
  150.7660  138.4593  154.9853 C   0  0  0  0  0  0  0  0  0  0  0  0
  150.8330  140.6843  156.0335 N   0  0  0  0  0  0  0  0  0  0  0  0
  150.7538  142.0411  156.2711 C   0  0  0  0  0  0  0  0  0  0  0  0
  151.2641  142.2692  157.5169 C   0  0  0  0  0  0  0  0  0  0  0  0
  151.6366  140.9736  157.9714 C   0  0  0  0  0  0  0  0  0  0  0  0
  151.3768  140.0277  157.0838 N   0  0  0  0  0  0  0  0  0  0  0  0
  146.3159  138.8638  154.1881 C   0  0  0  0  0  0  0  0  0  0  0  0
  144.9858  138.8885  154.0698 N   0  0  0  0  0  0  0  0  0  0  0  0
  146.8705  138.4336  155.1982 O   0  0  0  0  0  0  0  0  0  0  0  0
  145.7642  138.5914  151.5012 H   0  0  0  0  0  0  0  0  0  0  0  0
  147.2146  137.6213  151.7486 H   0  0  0  0  0  0  0  0  0  0  0  0
  147.2944  139.1269  150.8400 H   0  0  0  0  0  0  0  0  0  0  0  0
  146.7998  140.4507  152.8710 H   0  0  0  0  0  0  0  0  0  0  0  0
  149.1260  139.7068  152.5602 H   0  0  0  0  0  0  0  0  0  0  0  0
  148.3213  139.8344  155.3946 H   0  0  0  0  0  0  0  0  0  0  0  0
  148.6910  142.2658  155.1464 H   0  0  0  0  0  0  0  0  0  0  0  0
  147.4919  141.7542  153.9791 H   0  0  0  0  0  0  0  0  0  0  0  0
  149.1448  142.0626  153.4574 H   0  0  0  0  0  0  0  0  0  0  0  0
  150.9872  140.3529  154.0152 H   0  0  0  0  0  0  0  0  0  0  0  0
  150.5743  137.9167  154.0596 H   0  0  0  0  0  0  0  0  0  0  0  0
  150.1871  137.9785  155.7744 H   0  0  0  0  0  0  0  0  0  0  0  0
  151.8226  138.3317  155.2223 H   0  0  0  0  0  0  0  0  0  0  0  0
  150.3430  142.7241  155.5424 H   0  0  0  0  0  0  0  0  0  0  0  0
  151.3566  143.2170  158.0260 H   0  0  0  0  0  0  0  0  0  0  0  0
  152.0838  140.6939  158.9139 H   0  0  0  0  0  0  0  0  0  0  0  0
  144.4086  138.5335  154.8182 H   0  0  0  0  0  0  0  0  0  0  0  0
  144.5636  139.2591  153.2310 H   0  0  0  0  0  0  0  0  0  0  0  0
  1  2  1  0  0  0  0
  1 16  1  0  0  0  0
  1 17  1  0  0  0  0
  1 18  1  0  0  0  0
  2  3  1  0  0  0  0
  2 13  1  0  0  0  0
  2 19  1  0  0  0  0
  3  4  1  0  0  0  0
  3 20  1  0  0  0  0
  4  5  1  0  0  0  0
  4  6  1  0  0  0  0
  4 21  1  0  0  0  0
  5 22  1  0  0  0  0
  5 23  1  0  0  0  0
  5 24  1  0  0  0  0
  6  7  1  0  0  0  0
  6  8  1  0  0  0  0
  6 25  1  0  0  0  0
  7 26  1  0  0  0  0
  7 27  1  0  0  0  0
  7 28  1  0  0  0  0
  8 12  1  0  0  0  0
  8  9  1  0  0  0  0
  9 10  2  0  0  0  0
  9 29  1  0  0  0  0
 10 11  1  0  0  0  0
 10 30  1  0  0  0  0
 11 12  2  0  0  0  0
 11 31  1  0  0  0  0
 13 14  1  0  0  0  0
 13 15  2  0  0  0  0
 14 32  1  0  0  0  0
 14 33  1  0  0  0  0
M  END
> <s_m_source_file>
AV-unprocessed.smi

> <i_m_source_file_index>
3116

> <i_lp_mmshare_version>
43012

> <i_f3d_flags>
0

> <s_epik_input>
W05IMl1DKD1PKVtDQEhdKFtDSDNdKVtOSF1bQ0BIXShbQ0gzXSlbQ0BIXShbQ0gzXSluMVtjSF1bY0hdW2NIXW4x

> <s_epik_cmdline>
J2VwaWtfcHl0aG9uJywgJy1waCcsICc3LjAnLCAnLXRuJywgJzgnLCAnLW1hJywgJzIwMCcsICctbWV0YWxfYmluZGluZycsICctaW1hZScsICc8aW5maWxlLm1hZT4nLCAnLW9tYWUnLCAnPG91dGZpbGUubWFlPic=

> <r_lp_tautomer_probability>
1

> <r_epik_Ionization_Penalty>
0.865977

> <r_epik_Ionization_Penalty_Charging>
0

> <r_epik_Ionization_Penalty_Neutral>
0.865977

> <r_epik_State_Penalty>
0.901888

> <r_epik_Charging_Adjusted_Penalty>
0.901888

> <i_epik_Tot_Q>
0

> <i_epik_Tot_abs_Q>
0

> <r_epik_Metal_State_Penalty>
0.901181

> <b_epik_Metal_Only>
0

> <s_lp_Force_Field>
OPLS_2005

> <r_lp_Energy>
9.43225

> <b_lp_Chiralities_Consistent>
1

> <s_lp_Variant>
AV-unprocessed.smi:3116-9

> <Gold.Version>
5.8.1

> <Gold.Id.Protein>
6NUR|6NUR_protein|mol2

> <Gold.PLP.Fitness>
38.6702

> <Gold.PLP.PLP>
-29.6989

> <Gold.PLP.part.hbond>
-1.9450

> <Gold.PLP.part.metal>
0.0000

> <Gold.PLP.part.buried>
-0.1975

> <Gold.PLP.part.nonpolar>
-26.7573

> <Gold.PLP.part.repulsive>
0.0380

> <Gold.PLP.ligand.clash>
0.0000

> <Gold.PLP.ligand.torsion>
0.0612

> <Gold.PLP.Chemscore.Hbond>
2.0000

> <Gold.PLP.Chemscore.CHOScore>
1.0000

> <Gold.PLP.Chemscore.Metal>
0.0000

> <Gold.Chemscore.Hbonds>
donor molecule, donor type, donor heavy atom, donor atom, acceptor molecule, acceptor atom, score
      L1  H     3    20       P1  7957  0.96
      L1  H    14    33       P1 10175  0.99
      L1  C     9    29       P1  8028  1.00

> <Gold.PLP.Chemscore.Internal.Correction>
0.0937

> <Gold.Rescore>
     Score         DG    S(hbond)    S(metal)    S(lipo)     H(rot)  DE(clash)    DE(int)     intcor
     13.54     -13.93       2.00        0.00      67.30       2.38       0.03       0.36       ----

> <Gold.Chemscore.Fitness>
13.5436

> <Gold.Chemscore.DG>
-13.9322

> <Gold.Chemscore.ZeroCoef>
-5.4800

> <Gold.Chemscore.Hbond>
2.0000

> <Gold.Chemscore.Metal>
0.0000

> <Gold.Chemscore.Lipo>
67.3007

> <Gold.Chemscore.Internal_Hbond>
0.0000

> <Gold.Chemscore.DEClash>
0.0273

> <Gold.Chemscore.DEInternal>
0.3613

> <Gold.Chemscore.Rot>
2.3836

> <Gold.Chemscore.Internal.Correction>
   9.000000E+99

> <Gold.Chemscore.Hbonds>
donor molecule, donor type, donor heavy atom, donor atom, acceptor molecule, acceptor atom, score
      L1  H     3    20       P1  7957  0.91
      L1  H    14    33       P1 10175  0.94

> <Gold.Chemscore.Hbond.Weighted>
-6.6800

> <Gold.Chemscore.Metal.Weighted>
-0.0000

> <Gold.Chemscore.Lipo.Weighted>
-7.8742

> <Gold.Chemscore.Internal_Hbond.Weighted>
0.0000

> <Gold.Chemscore.DEClash.Weighted>
0.0273

> <Gold.Chemscore.DEInternal.Weighted>
0.3613

> <Gold.Chemscore.Rot.Weighted>
6.1020

> <Gold.Chemscore.Internal.Correction.Weighted>
   9.000000E+99

> <Gold.Protein.RotatedTorsions>
[ 6907 6896 6895 6894 ] final  128.48 input  -60.11 | X-H torsion
[ 7974 7965 7964 7962 ] final   -3.62 input  175.53 | X-H torsion
[ 8008 7997 7996 7995 ] final   90.88 input   59.86 | X-H torsion
[ 10167 10162 10161 10158 ] final -168.01 input  -65.29 | X-H torsion
[ 10718 10713 10712 10709 ] final  -34.31 input   66.30 | X-H torsion
[ 10763 10752 10751 10750 ] final -162.52 input  -60.55 | X-H torsion
[ 11005 11000 10999 10996 ] final  103.54 input  -57.11 | X-H torsion

> <Gold.Protein.ActiveResidues>
 VAL166  LYS551  ARG553  GLY616  TRP617  ASP618  TYR619  PRO620  LYS621  CYS622 
 ASP623  PHE694  ASN695  SER759  ASP760  ASP761  ALA762  ILE779  LEU786  VAL792 
 PHE793  MET794  SER795  GLU796  ALA797  LYS798  CYS799  TRP800  GLU811  SER814 

> <Gold.Protein.RotatedAtoms>
  152.3715  133.6425  159.6090 H   0  0  0  0  0  0  0  0  0  0  0  0  # atno 6907 bound_to 6896
  150.7672  133.9262  159.3422 H   0  0  0  0  0  0  0  0  0  0  0  0  # atno 6908 bound_to 6896
  151.7084  135.0918  160.0314 H   0  0  0  0  0  0  0  0  0  0  0  0  # atno 6909 bound_to 6896
  146.2386  140.1748  142.8332 H   0  0  0  0  0  0  0  0  0  0  0  0  # atno 7974 bound_to 7965
  156.0172  140.3344  155.7001 H   0  0  0  0  0  0  0  0  0  0  0  0  # atno 8008 bound_to 7997
  155.6073  140.0662  157.2734 H   0  0  0  0  0  0  0  0  0  0  0  0  # atno 8009 bound_to 7997
  154.4303  140.1799  156.1224 H   0  0  0  0  0  0  0  0  0  0  0  0  # atno 8010 bound_to 7997
  139.6013  144.1006  152.1745 H   0  0  0  0  0  0  0  0  0  0  0  0  # atno 10167 bound_to 10162
  156.3521  130.4310  149.7696 H   0  0  0  0  0  0  0  0  0  0  0  0  # atno 10718 bound_to 10713
  154.7207  135.3025  154.9052 H   0  0  0  0  0  0  0  0  0  0  0  0  # atno 10763 bound_to 10752
  153.9925  135.6717  153.4759 H   0  0  0  0  0  0  0  0  0  0  0  0  # atno 10764 bound_to 10752
  153.0831  135.4998  154.8461 H   0  0  0  0  0  0  0  0  0  0  0  0  # atno 10765 bound_to 10752
  139.8784  134.9267  156.5225 H   0  0  0  0  0  0  0  0  0  0  0  0  # atno 11005 bound_to 11000
  144.9982  140.8608  143.5298 LP  0  0  0  0  0  0  0  0  0  0  0  0  # atno 17320 bound_to 7965
  145.1764  139.2376  143.5315 LP  0  0  0  0  0  0  0  0  0  0  0  0  # atno 17321 bound_to 7965
  140.0602  144.5862  150.7268 LP  0  0  0  0  0  0  0  0  0  0  0  0  # atno 17342 bound_to 10162
  140.7251  143.2628  151.4147 LP  0  0  0  0  0  0  0  0  0  0  0  0  # atno 17343 bound_to 10162
  156.4892  130.8077  151.3088 LP  0  0  0  0  0  0  0  0  0  0  0  0  # atno 17370 bound_to 10713
  157.7462  130.9981  150.2839 LP  0  0  0  0  0  0  0  0  0  0  0  0  # atno 17371 bound_to 10713
  140.8440  133.8183  155.9103 LP  0  0  0  0  0  0  0  0  0  0  0  0  # atno 17394 bound_to 11000
  140.9209  134.2142  157.4927 LP  0  0  0  0  0  0  0  0  0  0  0  0  # atno 17395 bound_to 11000

$$$$
