AV-unprocessed.smi:386|AV-procd|sdf|2473|dock2
  -GOLD-   2262022413D 1   1.00000     0.00000
 Structure written by MMmdl.
 27 28  0  0  0  0  0  0  0  0  1 V2000
  152.3895  136.9409  160.0540 N   0  0  0  0  0  0  0  0  0  0  0  0
  152.1778  137.9865  159.6051 C   0  0  0  0  0  0  0  0  0  0  0  0
  151.9445  139.2839  159.0628 C   0  0  0  0  0  0  0  0  0  0  0  0
  152.5958  140.3732  159.5195 C   0  0  0  0  0  0  0  0  0  0  0  0
  152.3883  141.6329  159.0013 N   0  0  0  0  0  0  0  0  0  0  0  0
  152.9711  142.7970  159.6074 C   0  0  0  0  0  0  0  0  0  0  0  0
  152.7931  143.0597  161.0902 C   0  0  0  0  0  0  0  0  0  0  0  0
  152.0626  143.9107  160.0803 C   0  0  0  0  0  0  0  0  0  0  0  0
  151.4072  141.8379  158.0066 C   0  0  0  0  0  0  0  0  0  0  0  0
  151.1368  142.9710  157.6007 O   0  0  0  0  0  0  0  0  0  0  0  0
  150.7321  140.7021  157.4973 N   0  0  0  0  0  0  0  0  0  0  0  0
  149.7137  140.8967  156.4416 C   0  0  0  0  0  0  0  0  0  0  0  0
  150.1946  140.4880  155.0402 C   0  0  0  0  0  0  0  0  0  0  0  0
  149.3193  140.6403  154.0441 N   0  0  0  0  0  0  0  0  0  0  0  0
  151.3262  140.0435  154.8513 O   0  0  0  0  0  0  0  0  0  0  0  0
  150.9599  139.3910  157.9886 C   0  0  0  0  0  0  0  0  0  0  0  0
  150.3456  138.4256  157.5311 O   0  0  0  0  0  0  0  0  0  0  0  0
  153.3124  140.2558  160.3198 H   0  0  0  0  0  0  0  0  0  0  0  0
  153.9235  143.1111  159.1840 H   0  0  0  0  0  0  0  0  0  0  0  0
  152.1974  142.3578  161.6709 H   0  0  0  0  0  0  0  0  0  0  0  0
  153.6276  143.5125  161.6217 H   0  0  0  0  0  0  0  0  0  0  0  0
  152.4079  144.9331  159.9415 H   0  0  0  0  0  0  0  0  0  0  0  0
  150.9873  143.7671  159.9940 H   0  0  0  0  0  0  0  0  0  0  0  0
  148.8040  140.3392  156.6705 H   0  0  0  0  0  0  0  0  0  0  0  0
  149.3832  141.9360  156.4062 H   0  0  0  0  0  0  0  0  0  0  0  0
  149.5775  140.3876  153.1013 H   0  0  0  0  0  0  0  0  0  0  0  0
  148.3989  141.0075  154.2385 H   0  0  0  0  0  0  0  0  0  0  0  0
  1  2  3  0  0  0  0
  2  3  1  0  0  0  0
  3 16  1  0  0  0  0
  3  4  2  0  0  0  0
  4  5  1  0  0  0  0
  4 18  1  0  0  0  0
  5  6  1  0  0  0  0
  5  9  1  0  0  0  0
  6  8  1  0  0  0  0
  6  7  1  0  0  0  0
  6 19  1  0  0  0  0
  7  8  1  0  0  0  0
  7 20  1  0  0  0  0
  7 21  1  0  0  0  0
  8 22  1  0  0  0  0
  8 23  1  0  0  0  0
  9 10  2  0  0  0  0
  9 11  1  0  0  0  0
 11 12  1  0  0  0  0
 11 16  1  0  0  0  0
 12 13  1  0  0  0  0
 12 24  1  0  0  0  0
 12 25  1  0  0  0  0
 13 14  1  0  0  0  0
 13 15  2  0  0  0  0
 14 26  1  0  0  0  0
 14 27  1  0  0  0  0
 16 17  2  0  0  0  0
M  END
> <s_m_source_file>
AV-unprocessed.smi

> <i_m_source_file_index>
386

> <i_lp_mmshare_version>
43012

> <i_f3d_flags>
0

> <s_epik_input>
TiNDYzFbY0hdbihbQ0hdMltDSDJdW0NIMl0yKWMoPU8pbihjMT1PKVtDSDJdQyg9TylbTkgyXQ==

> <s_epik_cmdline>
J2VwaWtfcHl0aG9uJywgJy1waCcsICc3LjAnLCAnLXRuJywgJzgnLCAnLW1hJywgJzIwMCcsICctbWV0YWxfYmluZGluZycsICctaW1hZScsICc8aW5maWxlLm1hZT4nLCAnLW9tYWUnLCAnPG91dGZpbGUubWFlPic=

> <r_lp_tautomer_probability>
1

> <r_epik_Ionization_Penalty>
3.46323e-08

> <r_epik_Ionization_Penalty_Charging>
7.2855e-11

> <r_epik_Ionization_Penalty_Neutral>
3.45594e-08

> <r_epik_State_Penalty>
-0

> <r_epik_Charging_Adjusted_Penalty>
7.2855e-11

> <i_epik_Tot_Q>
0

> <i_epik_Tot_abs_Q>
0

> <r_epik_Metal_State_Penalty>
-0

> <b_epik_Metal_Only>
0

> <s_lp_Force_Field>
OPLS_2005

> <r_lp_Energy>
26.3068

> <b_lp_Chiralities_Consistent>
1

> <s_lp_Variant>
AV-unprocessed.smi:386-1

> <Gold.Version>
5.8.1

> <Gold.Id.Protein>
6NUR|6NUR_protein|mol2

> <Gold.PLP.Fitness>
40.6091

> <Gold.PLP.PLP>
-32.0629

> <Gold.PLP.part.hbond>
-3.0000

> <Gold.PLP.part.metal>
0.0000

> <Gold.PLP.part.buried>
-5.3789

> <Gold.PLP.part.nonpolar>
-24.3282

> <Gold.PLP.part.repulsive>
0.3370

> <Gold.PLP.ligand.clash>
0.0000

> <Gold.PLP.ligand.torsion>
0.3316

> <Gold.PLP.Chemscore.Hbond>
3.0000

> <Gold.PLP.Chemscore.CHOScore>
0.0000

> <Gold.PLP.Chemscore.Metal>
0.0000

> <Gold.Chemscore.Hbonds>
donor molecule, donor type, donor heavy atom, donor atom, acceptor molecule, acceptor atom, score
      L1  H    14    26       P1  7957  1.00
      P1  H  6896  6907       L1     1  1.00
      P1  H  7989  7998       L1    15  0.85

> <Gold.PLP.Chemscore.Internal.Correction>
0.2094

> <Gold.Rescore>
     Score         DG    S(hbond)    S(metal)    S(lipo)     H(rot)  DE(clash)    DE(int)     intcor
     14.14     -15.62       2.89        0.00      48.71       2.03       0.00       1.48       ----

> <Gold.Chemscore.Fitness>
14.1428

> <Gold.Chemscore.DG>
-15.6214

> <Gold.Chemscore.ZeroCoef>
-5.4800

> <Gold.Chemscore.Hbond>
2.8871

> <Gold.Chemscore.Metal>
0.0000

> <Gold.Chemscore.Lipo>
48.7066

> <Gold.Chemscore.Internal_Hbond>
0.0000

> <Gold.Chemscore.DEClash>
0.0000

> <Gold.Chemscore.DEInternal>
1.4786

> <Gold.Chemscore.Rot>
2.0313

> <Gold.Chemscore.Internal.Correction>
   9.000000E+99

> <Gold.Chemscore.Hbonds>
donor molecule, donor type, donor heavy atom, donor atom, acceptor molecule, acceptor atom, score
      L1  H    14    26       P1  7957  0.98
      P1  H  6896  6907       L1     1  0.99
      P1  H  7989  7998       L1    15  0.14

> <Gold.Chemscore.Hbond.Weighted>
-9.6428

> <Gold.Chemscore.Metal.Weighted>
-0.0000

> <Gold.Chemscore.Lipo.Weighted>
-5.6987

> <Gold.Chemscore.Internal_Hbond.Weighted>
0.0000

> <Gold.Chemscore.DEClash.Weighted>
0.0000

> <Gold.Chemscore.DEInternal.Weighted>
1.4786

> <Gold.Chemscore.Rot.Weighted>
5.2001

> <Gold.Chemscore.Internal.Correction.Weighted>
   9.000000E+99

> <Gold.Protein.RotatedTorsions>
[ 6907 6896 6895 6894 ] final   28.68 input  -60.11 | X-H torsion
[ 7974 7965 7964 7962 ] final  128.53 input  175.53 | X-H torsion
[ 8008 7997 7996 7995 ] final  158.61 input   59.86 | X-H torsion
[ 10167 10162 10161 10158 ] final   18.91 input  -65.29 | X-H torsion
[ 10718 10713 10712 10709 ] final   -9.56 input   66.30 | X-H torsion
[ 10763 10752 10751 10750 ] final -121.28 input  -60.55 | X-H torsion
[ 11005 11000 10999 10996 ] final    4.56 input  -57.11 | X-H torsion

> <Gold.Protein.ActiveResidues>
 VAL166  LYS551  ARG553  GLY616  TRP617  ASP618  TYR619  PRO620  LYS621  CYS622 
 ASP623  PHE694  ASN695  SER759  ASP760  ASP761  ALA762  ILE779  LEU786  VAL792 
 PHE793  MET794  SER795  GLU796  ALA797  LYS798  CYS799  TRP800  GLU811  SER814 

> <Gold.Protein.RotatedAtoms>
  152.0205  134.9825  160.0570 H   0  0  0  0  0  0  0  0  0  0  0  0  # atno 6907 bound_to 6896
  152.1341  133.4420  159.4743 H   0  0  0  0  0  0  0  0  0  0  0  0  # atno 6908 bound_to 6896
  150.6859  134.2303  159.4475 H   0  0  0  0  0  0  0  0  0  0  0  0  # atno 6909 bound_to 6896
  145.0386  139.3983  143.5113 H   0  0  0  0  0  0  0  0  0  0  0  0  # atno 7974 bound_to 7965
  156.2292  140.1853  156.7286 H   0  0  0  0  0  0  0  0  0  0  0  0  # atno 8008 bound_to 7997
  154.5992  140.0638  156.9374 H   0  0  0  0  0  0  0  0  0  0  0  0  # atno 8009 bound_to 7997
  155.2202  140.3307  155.4319 H   0  0  0  0  0  0  0  0  0  0  0  0  # atno 8010 bound_to 7997
  140.5618  143.9323  150.6648 H   0  0  0  0  0  0  0  0  0  0  0  0  # atno 10167 bound_to 10162
  156.6863  130.5051  149.5956 H   0  0  0  0  0  0  0  0  0  0  0  0  # atno 10718 bound_to 10713
  154.8664  135.4173  154.2594 H   0  0  0  0  0  0  0  0  0  0  0  0  # atno 10763 bound_to 10752
  153.3525  135.6999  153.6782 H   0  0  0  0  0  0  0  0  0  0  0  0  # atno 10764 bound_to 10752
  153.5716  135.3590  155.2812 H   0  0  0  0  0  0  0  0  0  0  0  0  # atno 10765 bound_to 10752
  140.5806  134.0017  155.8046 H   0  0  0  0  0  0  0  0  0  0  0  0  # atno 11005 bound_to 11000
  146.3507  139.9974  142.8679 LP  0  0  0  0  0  0  0  0  0  0  0  0  # atno 17320 bound_to 7965
  145.1678  140.9705  143.4340 LP  0  0  0  0  0  0  0  0  0  0  0  0  # atno 17321 bound_to 7965
  140.2776  143.3412  152.1181 LP  0  0  0  0  0  0  0  0  0  0  0  0  # atno 17342 bound_to 10162
  139.5074  144.6831  151.5958 LP  0  0  0  0  0  0  0  0  0  0  0  0  # atno 17343 bound_to 10162
  156.1831  130.6511  151.0974 LP  0  0  0  0  0  0  0  0  0  0  0  0  # atno 17370 bound_to 10713
  157.7025  131.0770  150.6773 LP  0  0  0  0  0  0  0  0  0  0  0  0  # atno 17371 bound_to 10713
  141.0999  133.9785  157.3097 LP  0  0  0  0  0  0  0  0  0  0  0  0  # atno 17394 bound_to 11000
  139.9319  135.0199  156.8429 LP  0  0  0  0  0  0  0  0  0  0  0  0  # atno 17395 bound_to 11000

$$$$
