#       Name:                AV-unprocessed.smi:2481
#       Creating user name   scv26
#       Creation time:       Fri Mar 27 13:41:38 2020


#       File generated by GOLD software.
#

@<TRIPOS>MOLECULE
AV-unprocessed.smi:2481
    43    44     1
SMALL
NO_CHARGES


@<TRIPOS>ATOM
      1 ****        -4.5844   0.2170  -0.1910 C.3            1 S1                 0.0000
      2 ****        -4.0637   1.5568   0.0008 N.pl3          1 S1                 0.0000
      3 ****        -4.8947   2.6230   0.0739 N.2            1 S1                 0.0000
      4 ****        -4.0513   3.6412   0.2447 C.2            1 S1                 0.0000
      5 ****        -2.7246   3.3193   0.2880 N.2            1 S1                 0.0000
      6 ****        -2.8105   2.0023   0.1286 C.2            1 S1                 0.0000
      7 ****        -1.7217   1.0907   0.0884 N.am           1 S1                 0.0000
      8 ****        -0.4116   1.3674   0.2012 C.2            1 S1                 0.0000
      9 ****         0.0666   2.4922   0.3498 O.2            1 S1                 0.0000
     10 ****         0.3263   0.2506   0.1269 N.am           1 S1                 0.0000
     11 ****         1.7862   0.1877   0.2124 C.3            1 S1                 0.0000
     12 ****         2.4283   0.4825  -1.1606 C.3            1 S1                 0.0000
     13 ****         2.1758  -0.6474  -2.1728 C.3            1 S1                 0.0000
     14 ****         2.6459  -2.0013  -1.6216 C.3            1 S1                 0.0000
     15 ****         2.0008  -2.3083  -0.2605 C.3            1 S1                 0.0000
     16 ****         2.2602  -1.1834   0.7649 C.3            1 S1                 0.0000
     17 ****         1.6570  -1.5396   2.1405 C.3            1 S1                 0.0000
     18 ****         2.0561  -0.6071   3.1230 O.3            1 S1                 0.0000
     19 ****        -4.1615  -0.4535   0.5578 H              1 S1                 0.0000
     20 ****        -4.3141  -0.1406  -1.1849 H              1 S1                 0.0000
     21 ****        -5.6712   0.2108  -0.0950 H              1 S1                 0.0000
     22 ****        -4.4062   4.6567   0.3416 H              1 S1                 0.0000
     23 ****        -1.9699   0.1205  -0.0362 H              1 S1                 0.0000
     24 ****        -0.1547  -0.6276  -0.0002 H              1 S1                 0.0000
     25 ****         2.1190   0.9611   0.9073 H              1 S1                 0.0000
     26 ****         2.0610   1.4289  -1.5590 H              1 S1                 0.0000
     27 ****         3.5038   0.6096  -1.0309 H              1 S1                 0.0000
     28 ****         1.1134  -0.6978  -2.4136 H              1 S1                 0.0000
     29 ****         2.6922  -0.4287  -3.1080 H              1 S1                 0.0000
     30 ****         2.4086  -2.7935  -2.3321 H              1 S1                 0.0000
     31 ****         3.7316  -1.9952  -1.5173 H              1 S1                 0.0000
     32 ****         0.9277  -2.4545  -0.3904 H              1 S1                 0.0000
     33 ****         2.3934  -3.2529   0.1174 H              1 S1                 0.0000
     34 ****         3.3419  -1.1220   0.8978 H              1 S1                 0.0000
     35 ****         0.5684  -1.5811   2.1016 H              1 S1                 0.0000
     36 ****         1.9986  -2.5256   2.4569 H              1 S1                 0.0000
     37 ****         1.6757  -0.8596   3.9505 H              1 S1                 0.0000
     38 ****        -5.8927   2.6421   0.0146 LP             1 S1                 0.0000
     39 ****        -1.9220   3.9043   0.4055 LP             1 S1                 0.0000
     40 ****        -0.5353   3.2895   0.3950 LP             1 S1                 0.0000
     41 ****         1.0570   2.6085   0.4253 LP             1 S1                 0.0000
     42 ****         1.7368   0.3062   2.8701 LP             1 S1                 0.0000
     43 ****         3.0533  -0.6026   3.1980 LP             1 S1                 0.0000
@<TRIPOS>BOND
    1    1    2 1     
    2    1   19 1     
    3    1   20 1     
    4    1   21 1     
    5    2    6 1     
    6    2    3 1     
    7    3    4 2     
    8    4    5 1     
    9    4   22 1     
   10    5    6 2     
   11    6    7 1     
   12    7    8 am    
   13    7   23 1     
   14    8    9 2     
   15    8   10 am    
   16   10   11 1     
   17   10   24 1     
   18   11   16 1     
   19   11   12 1     
   20   11   25 1     
   21   12   13 1     
   22   12   26 1     
   23   12   27 1     
   24   13   14 1     
   25   13   28 1     
   26   13   29 1     
   27   14   15 1     
   28   14   30 1     
   29   14   31 1     
   30   15   16 1     
   31   15   32 1     
   32   15   33 1     
   33   16   17 1     
   34   16   34 1     
   35   17   18 1     
   36   17   35 1     
   37   17   36 1     
   38   18   37 1     
   39    3   38 1     
   40    5   39 1     
   41    9   40 1     
   42    9   41 1     
   43   18   42 1     
   44   18   43 1     
@<TRIPOS>SUBSTRUCTURE
      1 S1             1
@<TRIPOS>SET
LONE_PAIRS      STATIC     ATOMS    <user>   **** ""
6 38 39 40 41 42 43
DONOR_HYDROGENS      STATIC     ATOMS    <user>   **** ""
3 23 24 37
ATOM$BLUE        STATIC     ATOMS    COLORGROUP SYSTEM
6 38 39 40 41 42 43
ATOM$RED        STATIC     ATOMS    COLORGROUP SYSTEM
3 23 24 37
