AV-unprocessed.smi:249|AV-procd|sdf|1909|dock1
  -GOLD-   2262020593D 1   1.00000     0.00000
 Structure written by MMmdl.
 64 67  0  0  0  0  0  0  0  0  2 V2000
  145.3993  134.5017  151.5715 C   0  0  0  0  0  0  0  0  0  0  0  0
  146.1755  133.4407  152.3658 C   0  0  0  0  0  0  0  0  0  0  0  0
  147.3962  133.9758  153.0266 N   0  3  1  0  0  0  0  0  0  0  0  0
  147.0681  134.8923  154.1517 C   0  0  0  0  0  0  0  0  0  0  0  0
  148.3183  135.6257  154.6615 C   0  0  0  0  0  0  0  0  0  0  0  0
  149.4182  134.6234  155.0627 C   0  0  2  0  0  0  0  0  0  0  0  0
  150.6151  135.2549  155.6377 N   0  0  0  0  0  0  0  0  0  0  0  0
  151.2621  134.5874  156.7626 C   0  0  0  0  0  0  0  0  0  0  0  0
  150.8267  136.5980  155.5990 C   0  0  0  0  0  0  0  0  0  0  0  0
  150.7474  137.2724  154.4221 N   0  0  0  0  0  0  0  0  0  0  0  0
  150.9384  138.5941  154.3822 C   0  0  0  0  0  0  0  0  0  0  0  0
  151.2084  139.4277  155.3873 N   0  0  0  0  0  0  0  0  0  0  0  0
  151.2814  138.7617  156.5744 C   0  0  0  0  0  0  0  0  0  0  0  0
  151.1079  137.3617  156.7677 C   0  0  0  0  0  0  0  0  0  0  0  0
  151.2725  137.0482  158.1119 N   0  0  0  0  0  0  0  0  0  0  0  0
  151.5212  138.1960  158.6807 C   0  0  0  0  0  0  0  0  0  0  0  0
  151.5233  139.2815  157.8340 N   0  0  0  0  0  0  0  0  0  0  0  0
  151.7757  140.6649  158.1973 C   0  0  0  0  0  0  0  0  0  0  0  0
  150.5383  141.6022  158.1088 C   0  0  2  0  0  0  0  0  0  0  0  0
  149.9313  141.5056  156.6879 C   0  0  0  0  0  0  0  0  0  0  0  0
  148.7228  142.2316  156.5935 O   0  0  0  0  0  0  0  0  0  0  0  0
  150.8580  143.0785  158.4926 C   0  0  1  0  0  0  0  0  0  0  0  0
  151.6585  143.2520  159.7756 C   0  0  0  0  0  0  0  0  0  0  0  0
  152.2017  144.6656  159.6332 C   0  0  0  0  0  0  0  0  0  0  0  0
  152.5252  144.7793  158.2573 O   0  0  0  0  0  0  0  0  0  0  0  0
  151.7516  143.8495  157.5045 C   0  0  0  0  0  0  0  0  0  0  0  0
  149.7133  133.6569  153.8943 C   0  0  0  0  0  0  0  0  0  0  0  0
  148.4351  132.9593  153.3843 C   0  0  1  0  0  0  0  0  0  0  0  0
  147.9318  131.8708  154.3569 C   0  0  0  0  0  0  0  0  0  0  0  0
  144.4462  134.0990  151.2284 H   0  0  0  0  0  0  0  0  0  0  0  0
  145.9441  134.8292  150.6864 H   0  0  0  0  0  0  0  0  0  0  0  0
  145.1853  135.3776  152.1843 H   0  0  0  0  0  0  0  0  0  0  0  0
  145.5083  133.0567  153.1385 H   0  0  0  0  0  0  0  0  0  0  0  0
  146.4204  132.5882  151.7320 H   0  0  0  0  0  0  0  0  0  0  0  0
  146.3413  135.6344  153.8193 H   0  0  0  0  0  0  0  0  0  0  0  0
  146.5933  134.3385  154.9621 H   0  0  0  0  0  0  0  0  0  0  0  0
  148.6699  136.3008  153.8823 H   0  0  0  0  0  0  0  0  0  0  0  0
  148.0483  136.2531  155.5114 H   0  0  0  0  0  0  0  0  0  0  0  0
  149.0113  134.0153  155.8712 H   0  0  0  0  0  0  0  0  0  0  0  0
  152.2940  134.3385  156.5146 H   0  0  0  0  0  0  0  0  0  0  0  0
  150.7526  133.6581  157.0188 H   0  0  0  0  0  0  0  0  0  0  0  0
  151.2641  135.2205  157.6513 H   0  0  0  0  0  0  0  0  0  0  0  0
  150.8613  139.0494  153.4059 H   0  0  0  0  0  0  0  0  0  0  0  0
  151.6984  138.2835  159.7429 H   0  0  0  0  0  0  0  0  0  0  0  0
  152.1859  140.6886  159.2077 H   0  0  0  0  0  0  0  0  0  0  0  0
  152.5710  141.0181  157.5406 H   0  0  0  0  0  0  0  0  0  0  0  0
  149.7775  141.2410  158.8021 H   0  0  0  0  0  0  0  0  0  0  0  0
  150.5992  141.9251  155.9369 H   0  0  0  0  0  0  0  0  0  0  0  0
  149.7513  140.4659  156.4125 H   0  0  0  0  0  0  0  0  0  0  0  0
  148.9220  143.1146  156.3218 H   0  0  0  0  0  0  0  0  0  0  0  0
  149.9212  143.6259  158.6113 H   0  0  0  0  0  0  0  0  0  0  0  0
  151.0588  143.1355  160.6787 H   0  0  0  0  0  0  0  0  0  0  0  0
  152.4825  142.5377  159.8132 H   0  0  0  0  0  0  0  0  0  0  0  0
  151.4320  145.3980  159.8792 H   0  0  0  0  0  0  0  0  0  0  0  0
  153.0688  144.8518  160.2672 H   0  0  0  0  0  0  0  0  0  0  0  0
  152.4423  143.1822  156.9883 H   0  0  0  0  0  0  0  0  0  0  0  0
  151.1677  144.3798  156.7533 H   0  0  0  0  0  0  0  0  0  0  0  0
  150.1592  134.1883  153.0546 H   0  0  0  0  0  0  0  0  0  0  0  0
  150.4485  132.9123  154.2020 H   0  0  0  0  0  0  0  0  0  0  0  0
  148.7274  132.4485  152.4675 H   0  0  0  0  0  0  0  0  0  0  0  0
  148.7327  131.1704  154.5950 H   0  0  0  0  0  0  0  0  0  0  0  0
  147.1227  131.2835  153.9235 H   0  0  0  0  0  0  0  0  0  0  0  0
  147.5749  132.2846  155.2992 H   0  0  0  0  0  0  0  0  0  0  0  0
  147.8323  134.5652  152.3318 H   0  0  0  0  0  0  0  0  0  0  0  0
  1  2  1  0  0  0  0
  1 30  1  0  0  0  0
  1 31  1  0  0  0  0
  1 32  1  0  0  0  0
  2  3  1  0  0  0  0
  2 33  1  0  0  0  0
  2 34  1  0  0  0  0
  3 28  1  0  0  0  0
  3  4  1  0  0  0  0
  3 64  1  0  0  0  0
  4  5  1  0  0  0  0
  4 35  1  0  0  0  0
  4 36  1  0  0  0  0
  5  6  1  0  0  0  0
  5 37  1  0  0  0  0
  5 38  1  0  0  0  0
  6  7  1  0  0  0  0
  6 27  1  0  0  0  0
  6 39  1  0  0  0  0
  7  8  1  0  0  0  0
  7  9  1  0  0  0  0
  8 40  1  0  0  0  0
  8 41  1  0  0  0  0
  8 42  1  0  0  0  0
  9 14  1  0  0  0  0
  9 10  2  0  0  0  0
 10 11  1  0  0  0  0
 11 12  2  0  0  0  0
 11 43  1  0  0  0  0
 12 13  1  0  0  0  0
 13 17  1  0  0  0  0
 13 14  2  0  0  0  0
 14 15  1  0  0  0  0
 15 16  2  0  0  0  0
 16 17  1  0  0  0  0
 16 44  1  0  0  0  0
 17 18  1  0  0  0  0
 18 19  1  0  0  0  0
 18 45  1  0  0  0  0
 18 46  1  0  0  0  0
 19 20  1  0  0  0  0
 19 22  1  0  0  0  0
 19 47  1  0  0  0  0
 20 21  1  0  0  0  0
 20 48  1  0  0  0  0
 20 49  1  0  0  0  0
 21 50  1  0  0  0  0
 22 26  1  0  0  0  0
 22 23  1  0  0  0  0
 22 51  1  0  0  0  0
 23 24  1  0  0  0  0
 23 52  1  0  0  0  0
 23 53  1  0  0  0  0
 24 25  1  0  0  0  0
 24 54  1  0  0  0  0
 24 55  1  0  0  0  0
 25 26  1  0  0  0  0
 26 56  1  0  0  0  0
 26 57  1  0  0  0  0
 27 28  1  0  0  0  0
 27 58  1  0  0  0  0
 27 59  1  0  0  0  0
 28 29  1  0  0  0  0
 28 60  1  0  0  0  0
 29 61  1  0  0  0  0
 29 62  1  0  0  0  0
 29 63  1  0  0  0  0
M  CHG  1   3   1
M  END
> <s_m_source_file>
AV-unprocessed.smi

> <i_m_source_file_index>
249

> <i_lp_mmshare_version>
43012

> <i_f3d_flags>
0

> <s_epik_input>
W0NIM11bQ0gyXU4xW0NIMl1bQ0gyXVtDQEhdKFtDSDJdW0NASF0xW0NIM10pTihbQ0gzXSljKG5bY0hdbjIpYyhjMjMpbltjSF1uM1tDSDJdW0NASF0oW0NIMl1bT0hdKVtDQEBIXTRbQ0gyXVtDSDJdT1tDSDJdNA==

> <s_epik_cmdline>
J2VwaWtfcHl0aG9uJywgJy1waCcsICc3LjAnLCAnLXRuJywgJzgnLCAnLW1hJywgJzIwMCcsICctbWV0YWxfYmluZGluZycsICctaW1hZScsICc8aW5maWxlLm1hZT4nLCAnLW9tYWUnLCAnPG91dGZpbGUubWFlPic=

> <r_lp_tautomer_probability>
1

> <r_epik_Ionization_Penalty>
0.00294688

> <r_epik_Ionization_Penalty_Charging>
0.00169971

> <r_epik_Ionization_Penalty_Neutral>
0.00124717

> <r_epik_State_Penalty>
-0

> <r_epik_Charging_Adjusted_Penalty>
0.00169971

> <i_epik_Tot_Q>
1

> <i_epik_Tot_abs_Q>
1

> <r_epik_Metal_State_Penalty>
-0

> <b_epik_Metal_Only>
0

> <s_lp_Force_Field>
OPLS_2005

> <r_lp_Energy>
54.5732

> <b_lp_Chiralities_Consistent>
1

> <s_lp_Variant>
AV-unprocessed.smi:249-12

> <Gold.Version>
5.8.1

> <Gold.Id.Protein>
6NUR|6NUR_protein|mol2

> <Gold.PLP.Fitness>
53.8920

> <Gold.PLP.PLP>
-43.5244

> <Gold.PLP.part.hbond>
-2.0051

> <Gold.PLP.part.metal>
0.0000

> <Gold.PLP.part.buried>
-6.0183

> <Gold.PLP.part.nonpolar>
-36.3624

> <Gold.PLP.part.repulsive>
0.2897

> <Gold.PLP.ligand.clash>
0.0000

> <Gold.PLP.ligand.torsion>
1.3437

> <Gold.PLP.Chemscore.Hbond>
3.0000

> <Gold.PLP.Chemscore.CHOScore>
0.8530

> <Gold.PLP.Chemscore.Metal>
0.0000

> <Gold.Chemscore.Hbonds>
donor molecule, donor type, donor heavy atom, donor atom, acceptor molecule, acceptor atom, score
      L1  H     3    64       P1  7948  2.00
      L1  H    21    50       P1  8028  1.00
      L1  C    11    43       P1  7957  0.49

> <Gold.PLP.Chemscore.Internal.Correction>
1.4962

> <Gold.Rescore>
     Score         DG    S(hbond)    S(metal)    S(lipo)     H(rot)  DE(clash)    DE(int)     intcor
     11.57     -17.43       1.87        0.00     106.84       2.65       0.57       5.30       ----

> <Gold.Chemscore.Fitness>
11.5691

> <Gold.Chemscore.DG>
-17.4321

> <Gold.Chemscore.ZeroCoef>
-5.4800

> <Gold.Chemscore.Hbond>
1.8682

> <Gold.Chemscore.Metal>
0.0000

> <Gold.Chemscore.Lipo>
106.8394

> <Gold.Chemscore.Internal_Hbond>
0.0000

> <Gold.Chemscore.DEClash>
0.5670

> <Gold.Chemscore.DEInternal>
5.2960

> <Gold.Chemscore.Rot>
2.6515

> <Gold.Chemscore.Internal.Correction>
   9.000000E+99

> <Gold.Chemscore.Hbonds>
donor molecule, donor type, donor heavy atom, donor atom, acceptor molecule, acceptor atom, score
      L1  H     3    64       P1  7948  0.50
      L1  H    21    50       P1  8028  0.99

> <Gold.Chemscore.Hbond.Weighted>
-6.2399

> <Gold.Chemscore.Metal.Weighted>
-0.0000

> <Gold.Chemscore.Lipo.Weighted>
-12.5002

> <Gold.Chemscore.Internal_Hbond.Weighted>
0.0000

> <Gold.Chemscore.DEClash.Weighted>
0.5670

> <Gold.Chemscore.DEInternal.Weighted>
5.2960

> <Gold.Chemscore.Rot.Weighted>
6.7880

> <Gold.Chemscore.Internal.Correction.Weighted>
   9.000000E+99

> <Gold.Protein.RotatedTorsions>
[ 6907 6896 6895 6894 ] final   88.19 input  -60.11 | X-H torsion
[ 7974 7965 7964 7962 ] final  -61.11 input  175.53 | X-H torsion
[ 8008 7997 7996 7995 ] final   51.84 input   59.86 | X-H torsion
[ 10167 10162 10161 10158 ] final   86.12 input  -65.29 | X-H torsion
[ 10718 10713 10712 10709 ] final  114.64 input   66.30 | X-H torsion
[ 10763 10752 10751 10750 ] final  -70.55 input  -60.55 | X-H torsion
[ 11005 11000 10999 10996 ] final   17.25 input  -57.11 | X-H torsion

> <Gold.Protein.ActiveResidues>
 VAL166  LYS551  ARG553  GLY616  TRP617  ASP618  TYR619  PRO620  LYS621  CYS622 
 ASP623  PHE694  ASN695  SER759  ASP760  ASP761  ALA762  ILE779  LEU786  VAL792 
 PHE793  MET794  SER795  GLU796  ALA797  LYS798  CYS799  TRP800  GLU811  SER814 

> <Gold.Protein.RotatedAtoms>
  152.5422  134.2159  159.8768 H   0  0  0  0  0  0  0  0  0  0  0  0  # atno 6907 bound_to 6896
  151.2139  133.4533  159.2606 H   0  0  0  0  0  0  0  0  0  0  0  0  # atno 6908 bound_to 6896
  151.0870  134.9906  159.8440 H   0  0  0  0  0  0  0  0  0  0  0  0  # atno 6909 bound_to 6896
  145.8075  140.8619  143.0199 H   0  0  0  0  0  0  0  0  0  0  0  0  # atno 7974 bound_to 7965
  155.4420  140.3455  155.4291 H   0  0  0  0  0  0  0  0  0  0  0  0  # atno 8008 bound_to 7997
  156.1273  140.1504  156.9148 H   0  0  0  0  0  0  0  0  0  0  0  0  # atno 8009 bound_to 7997
  154.4868  140.0853  156.7484 H   0  0  0  0  0  0  0  0  0  0  0  0  # atno 8010 bound_to 7997
  139.8907  144.6387  150.8742 H   0  0  0  0  0  0  0  0  0  0  0  0  # atno 10167 bound_to 10162
  157.6269  131.1001  150.7215 H   0  0  0  0  0  0  0  0  0  0  0  0  # atno 10718 bound_to 10713
  154.4192  135.5990  153.5999 H   0  0  0  0  0  0  0  0  0  0  0  0  # atno 10763 bound_to 10752
  152.9793  135.5948  154.3976 H   0  0  0  0  0  0  0  0  0  0  0  0  # atno 10764 bound_to 10752
  154.3799  135.2841  155.2196 H   0  0  0  0  0  0  0  0  0  0  0  0  # atno 10765 bound_to 10752
  140.4381  134.1350  155.7687 H   0  0  0  0  0  0  0  0  0  0  0  0  # atno 11005 bound_to 11000
  144.6761  140.0347  143.7482 LP  0  0  0  0  0  0  0  0  0  0  0  0  # atno 17320 bound_to 7965
  145.9813  139.2943  143.1040 LP  0  0  0  0  0  0  0  0  0  0  0  0  # atno 17321 bound_to 7965
  140.7727  143.3512  151.2010 LP  0  0  0  0  0  0  0  0  0  0  0  0  # atno 17342 bound_to 10162
  139.7112  143.9374  152.2948 LP  0  0  0  0  0  0  0  0  0  0  0  0  # atno 17343 bound_to 10162
  156.7561  130.4784  149.5446 LP  0  0  0  0  0  0  0  0  0  0  0  0  # atno 17370 bound_to 10713
  156.1447  130.6269  151.0515 LP  0  0  0  0  0  0  0  0  0  0  0  0  # atno 17371 bound_to 10713
  141.1717  133.8595  157.1549 LP  0  0  0  0  0  0  0  0  0  0  0  0  # atno 17394 bound_to 11000
  140.0088  134.9997  157.0351 LP  0  0  0  0  0  0  0  0  0  0  0  0  # atno 17395 bound_to 11000

$$$$
