AV-unprocessed.smi:1797|AV-procd|sdf|7257|dock7
  -GOLD-   22720 8513D 1   1.00000     0.00000
 Structure written by MMmdl.
 29 30  0  0  0  0  0  0  0  0  2 V2000
  152.7528  143.4219  162.0948 C   0  0  0  0  0  0  0  0  0  0  0  0
  152.2621  143.0822  160.7292 C   0  0  0  0  0  0  0  0  0  0  0  0
  151.8613  141.8546  160.3898 N   0  0  0  0  0  0  0  0  0  0  0  0
  151.4491  141.7864  159.0669 N   0  0  0  0  0  0  0  0  0  0  0  0
  151.5569  142.9568  158.4217 C   0  0  0  0  0  0  0  0  0  0  0  0
  151.2154  143.1058  157.1284 N   0  5  0  0  0  0  0  0  0  0  0  0
  150.7725  142.0734  156.3635 C   0  0  0  0  0  0  0  0  0  0  0  0
  151.2919  140.9581  156.3711 O   0  0  0  0  0  0  0  0  0  0  0  0
  149.7133  142.2942  155.5604 N   0  0  0  0  0  0  0  0  0  0  0  0
  149.0791  141.3219  154.6754 C   0  0  2  0  0  0  0  0  0  0  0  0
  147.7416  141.8551  154.1399 C   0  0  0  0  0  0  0  0  0  0  0  0
  147.0736  140.8327  153.2065 C   0  0  0  0  0  0  0  0  0  0  0  0
  147.0868  139.3987  153.7572 C   0  0  0  0  0  0  0  0  0  0  0  0
  146.3270  138.5602  153.2771 O   0  0  0  0  0  0  0  0  0  0  0  0
  147.9578  139.0811  154.7312 N   0  0  0  0  0  0  0  0  0  0  0  0
  148.8431  140.0061  155.4381 C   0  0  0  0  0  0  0  0  0  0  0  0
  152.1699  144.2637  159.4342 S   0  0  0  0  0  0  0  0  0  0  0  0
  153.7918  143.1113  162.2048 H   0  0  0  0  0  0  0  0  0  0  0  0
  152.1517  142.9147  162.8500 H   0  0  0  0  0  0  0  0  0  0  0  0
  152.6882  144.4969  162.2633 H   0  0  0  0  0  0  0  0  0  0  0  0
  149.3153  143.2219  155.5691 H   0  0  0  0  0  0  0  0  0  0  0  0
  149.7429  141.1164  153.8330 H   0  0  0  0  0  0  0  0  0  0  0  0
  147.0735  142.0851  154.9714 H   0  0  0  0  0  0  0  0  0  0  0  0
  147.8940  142.7907  153.6006 H   0  0  0  0  0  0  0  0  0  0  0  0
  146.0467  141.1336  152.9972 H   0  0  0  0  0  0  0  0  0  0  0  0
  147.5962  140.8214  152.2494 H   0  0  0  0  0  0  0  0  0  0  0  0
  147.9666  138.1227  155.0488 H   0  0  0  0  0  0  0  0  0  0  0  0
  149.7929  139.5091  155.6376 H   0  0  0  0  0  0  0  0  0  0  0  0
  148.3885  140.2125  156.4082 H   0  0  0  0  0  0  0  0  0  0  0  0
  1  2  1  0  0  0  0
  1 18  1  0  0  0  0
  1 19  1  0  0  0  0
  1 20  1  0  0  0  0
  2 17  1  0  0  0  0
  2  3  2  0  0  0  0
  3  4  1  0  0  0  0
  4  5  2  0  0  0  0
  5  6  1  0  0  0  0
  5 17  1  0  0  0  0
  6  7  1  0  0  0  0
  7  8  2  0  0  0  0
  7  9  1  0  0  0  0
  9 10  1  0  0  0  0
  9 21  1  0  0  0  0
 10 16  1  0  0  0  0
 10 11  1  0  0  0  0
 10 22  1  0  0  0  0
 11 12  1  0  0  0  0
 11 23  1  0  0  0  0
 11 24  1  0  0  0  0
 12 13  1  0  0  0  0
 12 25  1  0  0  0  0
 12 26  1  0  0  0  0
 13 14  2  0  0  0  0
 13 15  1  0  0  0  0
 15 16  1  0  0  0  0
 15 27  1  0  0  0  0
 16 28  1  0  0  0  0
 16 29  1  0  0  0  0
M  CHG  1   6  -1
M  END
> <s_m_source_file>
AV-unprocessed.smi

> <i_m_source_file_index>
1797

> <i_lp_mmshare_version>
43012

> <i_f3d_flags>
0

> <s_epik_input>
W0NIM11jMW5uYyhzMSlbTkhdQyg9TylbTkhdW0NAQEhdMltDSDJdW0NIMl1DKD1PKVtOSF1bQ0gyXTI=

> <s_epik_cmdline>
J2VwaWtfcHl0aG9uJywgJy1waCcsICc3LjAnLCAnLXRuJywgJzgnLCAnLW1hJywgJzIwMCcsICctbWV0YWxfYmluZGluZycsICctaW1hZScsICc8aW5maWxlLm1hZT4nLCAnLW9tYWUnLCAnPG91dGZpbGUubWFlPic=

> <r_lp_tautomer_probability>
1

> <r_epik_Ionization_Penalty>
3.31792

> <r_epik_Ionization_Penalty_Charging>
3.17379

> <r_epik_Ionization_Penalty_Neutral>
0.144127

> <r_epik_State_Penalty>
3.17099

> <r_epik_Charging_Adjusted_Penalty>
6.34478

> <i_epik_Tot_Q>
-1

> <i_epik_Tot_abs_Q>
1

> <r_epik_Metal_State_Penalty>
0.468583

> <b_epik_Metal_Only>
1

> <s_lp_Force_Field>
OPLS_2005

> <r_lp_Energy>
8.3623

> <b_lp_Chiralities_Consistent>
1

> <s_lp_Variant>
AV-unprocessed.smi:1797-3

> <Gold.Version>
5.8.1

> <Gold.Id.Protein>
6NUR|6NUR_protein|mol2

> <Gold.PLP.Fitness>
34.3020

> <Gold.PLP.PLP>
-32.2793

> <Gold.PLP.part.hbond>
-1.8043

> <Gold.PLP.part.metal>
0.0000

> <Gold.PLP.part.buried>
-6.1742

> <Gold.PLP.part.nonpolar>
-25.0558

> <Gold.PLP.part.repulsive>
0.5861

> <Gold.PLP.ligand.clash>
0.0000

> <Gold.PLP.ligand.torsion>
0.4901

> <Gold.PLP.Chemscore.Hbond>
1.0000

> <Gold.PLP.Chemscore.CHOScore>
0.0000

> <Gold.PLP.Chemscore.Metal>
0.0000

> <Gold.Chemscore.Hbonds>
donor molecule, donor type, donor heavy atom, donor atom, acceptor molecule, acceptor atom, score
      L1  H     9    21       P1  8028  1.00

> <Gold.PLP.Chemscore.Internal.Correction>
0.0030

> <Gold.Rescore>
     Score         DG    S(hbond)    S(metal)    S(lipo)     H(rot)  DE(clash)    DE(int)     intcor
     10.96     -13.97       1.07        0.00      63.89       1.00       0.02       2.99       ----

> <Gold.Chemscore.Fitness>
10.9633

> <Gold.Chemscore.DG>
-13.9733

> <Gold.Chemscore.ZeroCoef>
-5.4800

> <Gold.Chemscore.Hbond>
1.0714

> <Gold.Chemscore.Metal>
0.0000

> <Gold.Chemscore.Lipo>
63.8869

> <Gold.Chemscore.Internal_Hbond>
0.0000

> <Gold.Chemscore.DEClash>
0.0177

> <Gold.Chemscore.DEInternal>
2.9922

> <Gold.Chemscore.Rot>
1.0000

> <Gold.Chemscore.Internal.Correction>
   9.000000E+99

> <Gold.Chemscore.Hbonds>
donor molecule, donor type, donor heavy atom, donor atom, acceptor molecule, acceptor atom, score
      L1  H     9    21       P1  8028  0.96

> <Gold.Chemscore.Hbond.Weighted>
-3.5785

> <Gold.Chemscore.Metal.Weighted>
-0.0000

> <Gold.Chemscore.Lipo.Weighted>
-7.4748

> <Gold.Chemscore.Internal_Hbond.Weighted>
0.0000

> <Gold.Chemscore.DEClash.Weighted>
0.0177

> <Gold.Chemscore.DEInternal.Weighted>
2.9922

> <Gold.Chemscore.Rot.Weighted>
2.5600

> <Gold.Chemscore.Internal.Correction.Weighted>
   9.000000E+99

> <Gold.Protein.RotatedTorsions>
[ 6907 6896 6895 6894 ] final  -48.01 input  -60.11 | X-H torsion
[ 7974 7965 7964 7962 ] final   98.93 input  175.53 | X-H torsion
[ 8008 7997 7996 7995 ] final   32.43 input   59.86 | X-H torsion
[ 10167 10162 10161 10158 ] final   59.73 input  -65.29 | X-H torsion
[ 10718 10713 10712 10709 ] final  162.57 input   66.30 | X-H torsion
[ 10763 10752 10751 10750 ] final   -7.85 input  -60.55 | X-H torsion
[ 11005 11000 10999 10996 ] final -137.98 input  -57.11 | X-H torsion

> <Gold.Protein.ActiveResidues>
 VAL166  LYS551  ARG553  GLY616  TRP617  ASP618  TYR619  PRO620  LYS621  CYS622 
 ASP623  PHE694  ASN695  SER759  ASP760  ASP761  ALA762  ILE779  LEU786  VAL792 
 PHE793  MET794  SER795  GLU796  ALA797  LYS798  CYS799  TRP800  GLU811  SER814 

> <Gold.Protein.RotatedAtoms>
  150.8949  134.8356  159.7318 H   0  0  0  0  0  0  0  0  0  0  0  0  # atno 6907 bound_to 6896
  152.4859  134.4592  159.9609 H   0  0  0  0  0  0  0  0  0  0  0  0  # atno 6908 bound_to 6896
  151.4650  133.3544  159.2850 H   0  0  0  0  0  0  0  0  0  0  0  0  # atno 6909 bound_to 6896
  145.4056  139.2341  143.3276 H   0  0  0  0  0  0  0  0  0  0  0  0  # atno 7974 bound_to 7965
  155.1224  140.3249  155.4494 H   0  0  0  0  0  0  0  0  0  0  0  0  # atno 8008 bound_to 7997
  156.2659  140.2025  156.6294 H   0  0  0  0  0  0  0  0  0  0  0  0  # atno 8009 bound_to 7997
  154.6674  140.0540  157.0115 H   0  0  0  0  0  0  0  0  0  0  0  0  # atno 8010 bound_to 7997
  140.1733  144.4255  150.6650 H   0  0  0  0  0  0  0  0  0  0  0  0  # atno 10167 bound_to 10162
  157.1206  131.0491  151.2416 H   0  0  0  0  0  0  0  0  0  0  0  0  # atno 10718 bound_to 10713
  153.4321  135.7012  153.6224 H   0  0  0  0  0  0  0  0  0  0  0  0  # atno 10763 bound_to 10752
  153.4634  135.3731  155.2351 H   0  0  0  0  0  0  0  0  0  0  0  0  # atno 10764 bound_to 10752
  154.8726  135.4025  154.3707 H   0  0  0  0  0  0  0  0  0  0  0  0  # atno 10765 bound_to 10752
  140.8659  134.2111  157.4680 H   0  0  0  0  0  0  0  0  0  0  0  0  # atno 11005 bound_to 11000
  146.2730  140.4760  142.8806 LP  0  0  0  0  0  0  0  0  0  0  0  0  # atno 17320 bound_to 7965
  144.8344  140.6758  143.6270 LP  0  0  0  0  0  0  0  0  0  0  0  0  # atno 17321 bound_to 7965
  140.6568  143.2240  151.5950 LP  0  0  0  0  0  0  0  0  0  0  0  0  # atno 17342 bound_to 10162
  139.5328  144.2866  152.1186 LP  0  0  0  0  0  0  0  0  0  0  0  0  # atno 17343 bound_to 10162
  157.4479  130.7581  149.7126 LP  0  0  0  0  0  0  0  0  0  0  0  0  # atno 17370 bound_to 10713
  155.9829  130.4005  150.3390 LP  0  0  0  0  0  0  0  0  0  0  0  0  # atno 17371 bound_to 10713
  139.8709  134.9751  156.4873 LP  0  0  0  0  0  0  0  0  0  0  0  0  # atno 17394 bound_to 11000
  140.8629  133.8046  155.9284 LP  0  0  0  0  0  0  0  0  0  0  0  0  # atno 17395 bound_to 11000

$$$$
