AV-unprocessed.smi:993|AV-procd|sdf|4338|dock1
  -GOLD-   22720 2233D 1   1.00000     0.00000
 Structure written by MMmdl.
 30 31  0  0  0  0  0  0  0  0  3 V2000
  149.8120  141.6309  154.6121 C   0  0  0  0  0  0  0  0  0  0  0  0
  150.6490  141.3630  155.8507 C   0  0  0  0  0  0  0  0  0  0  0  0
  150.8048  142.4448  156.7303 N   0  0  0  0  0  0  0  0  0  0  0  0
  151.5142  142.3101  157.8092 C   0  0  0  0  0  0  0  0  0  0  0  0
  151.6875  143.3685  158.7020 N   0  0  0  0  0  0  0  0  0  0  0  0
  151.4427  144.7686  158.3776 C   0  0  0  0  0  0  0  0  0  0  0  0
  152.0297  145.5860  159.5283 C   0  0  0  0  0  0  0  0  0  0  0  0
  151.9057  144.6430  160.7174 C   0  0  0  0  0  0  0  0  0  0  0  0
  152.1225  143.2645  160.0920 C   0  0  0  0  0  0  0  0  0  0  0  0
  152.1432  141.1217  158.1452 N   0  5  0  0  0  0  0  0  0  0  0  0
  152.0237  140.0249  157.3433 C   0  0  0  0  0  0  0  0  0  0  0  0
  152.5579  138.9531  157.6269 O   0  0  0  0  0  0  0  0  0  0  0  0
  151.2285  140.1564  156.1091 C   0  0  0  0  0  0  0  0  0  0  0  0
  151.1031  138.9514  155.1717 C   0  0  0  0  0  0  0  0  0  0  0  0
  152.4281  138.2838  154.7817 C   0  0  0  0  0  0  0  0  0  0  0  0
  152.3413  137.2026  154.1593 O   0  0  0  0  0  0  0  0  0  0  0  0
  153.5001  138.8433  155.1031 O   0  5  0  0  0  0  0  0  0  0  0  0
  150.4247  141.5535  153.7140 H   0  0  0  0  0  0  0  0  0  0  0  0
  149.3777  142.6309  154.6375 H   0  0  0  0  0  0  0  0  0  0  0  0
  148.9941  140.9140  154.5389 H   0  0  0  0  0  0  0  0  0  0  0  0
  151.8919  145.0472  157.4235 H   0  0  0  0  0  0  0  0  0  0  0  0
  150.3661  144.9268  158.3047 H   0  0  0  0  0  0  0  0  0  0  0  0
  153.0827  145.7940  159.3331 H   0  0  0  0  0  0  0  0  0  0  0  0
  151.5181  146.5369  159.6788 H   0  0  0  0  0  0  0  0  0  0  0  0
  152.6147  144.8632  161.5157 H   0  0  0  0  0  0  0  0  0  0  0  0
  150.8984  144.7054  161.1312 H   0  0  0  0  0  0  0  0  0  0  0  0
  151.5703  142.4949  160.6326 H   0  0  0  0  0  0  0  0  0  0  0  0
  153.1799  142.9976  160.1087 H   0  0  0  0  0  0  0  0  0  0  0  0
  150.4778  138.1982  155.6509 H   0  0  0  0  0  0  0  0  0  0  0  0
  150.5677  139.2216  154.2612 H   0  0  0  0  0  0  0  0  0  0  0  0
  1  2  1  0  0  0  0
  1 18  1  0  0  0  0
  1 19  1  0  0  0  0
  1 20  1  0  0  0  0
  2 13  2  0  0  0  0
  2  3  1  0  0  0  0
  3  4  2  0  0  0  0
  4  5  1  0  0  0  0
  4 10  1  0  0  0  0
  5  9  1  0  0  0  0
  5  6  1  0  0  0  0
  6  7  1  0  0  0  0
  6 21  1  0  0  0  0
  6 22  1  0  0  0  0
  7  8  1  0  0  0  0
  7 23  1  0  0  0  0
  7 24  1  0  0  0  0
  8  9  1  0  0  0  0
  8 25  1  0  0  0  0
  8 26  1  0  0  0  0
  9 27  1  0  0  0  0
  9 28  1  0  0  0  0
 10 11  1  0  0  0  0
 11 12  2  0  0  0  0
 11 13  1  0  0  0  0
 13 14  1  0  0  0  0
 14 15  1  0  0  0  0
 14 29  1  0  0  0  0
 14 30  1  0  0  0  0
 15 16  2  0  0  0  0
 15 17  1  0  0  0  0
M  CHG  1  10  -1
M  CHG  1  17  -1
M  END
> <s_m_source_file>
AV-unprocessed.smi

> <i_m_source_file_index>
993

> <i_lp_mmshare_version>
43012

> <i_f3d_flags>
0

> <s_epik_input>
W0NIMl0xW0NIMl1bQ0gyXVtDSDJdTjFjKG5jMltDSDNdKVtuSF1jKD1PKWMyW0NIMl1DKD1PKVtPSF0=

> <s_epik_cmdline>
J2VwaWtfcHl0aG9uJywgJy1waCcsICc3LjAnLCAnLXRuJywgJzgnLCAnLW1hJywgJzIwMCcsICctbWV0YWxfYmluZGluZycsICctaW1hZScsICc8aW5maWxlLm1hZT4nLCAnLW9tYWUnLCAnPG91dGZpbGUubWFlPic=

> <r_lp_tautomer_probability>
0.878553

> <r_epik_Ionization_Penalty>
9.99622

> <r_epik_Ionization_Penalty_Charging>
0.001774

> <r_epik_Ionization_Penalty_Neutral>
9.99445

> <r_epik_State_Penalty>
6.17728

> <r_epik_Charging_Adjusted_Penalty>
6.17906

> <i_epik_Tot_Q>
-2

> <i_epik_Tot_abs_Q>
2

> <r_epik_Metal_State_Penalty>
2.31379

> <b_epik_Metal_Only>
1

> <s_lp_Force_Field>
OPLS_2005

> <r_lp_Energy>
32.9743

> <b_lp_Chiralities_Consistent>
1

> <s_lp_Variant>
AV-unprocessed.smi:993-4

> <Gold.Version>
5.8.1

> <Gold.Id.Protein>
6NUR|6NUR_protein|mol2

> <Gold.PLP.Fitness>
50.9621

> <Gold.PLP.PLP>
-40.5513

> <Gold.PLP.part.hbond>
-3.0000

> <Gold.PLP.part.metal>
0.0000

> <Gold.PLP.part.buried>
-4.9580

> <Gold.PLP.part.nonpolar>
-34.3413

> <Gold.PLP.part.repulsive>
0.6487

> <Gold.PLP.ligand.clash>
0.0000

> <Gold.PLP.ligand.torsion>
0.2940

> <Gold.PLP.Chemscore.Hbond>
3.6640

> <Gold.PLP.Chemscore.CHOScore>
0.0000

> <Gold.PLP.Chemscore.Metal>
0.0000

> <Gold.Chemscore.Hbonds>
donor molecule, donor type, donor heavy atom, donor atom, acceptor molecule, acceptor atom, score
      P1  H  7997  8010       L1    17  1.98
      P1  H 10752 10765       L1    16  1.63

> <Gold.PLP.Chemscore.Internal.Correction>
0.0068

> <Gold.Rescore>
     Score         DG    S(hbond)    S(metal)    S(lipo)     H(rot)  DE(clash)    DE(int)     intcor
     16.47     -16.78       1.86        0.00      76.22       1.49       0.13       0.18       ----

> <Gold.Chemscore.Fitness>
16.4664

> <Gold.Chemscore.DG>
-16.7769

> <Gold.Chemscore.ZeroCoef>
-5.4800

> <Gold.Chemscore.Hbond>
1.8566

> <Gold.Chemscore.Metal>
0.0000

> <Gold.Chemscore.Lipo>
76.2233

> <Gold.Chemscore.Internal_Hbond>
0.0000

> <Gold.Chemscore.DEClash>
0.1286

> <Gold.Chemscore.DEInternal>
0.1819

> <Gold.Chemscore.Rot>
1.4931

> <Gold.Chemscore.Internal.Correction>
   9.000000E+99

> <Gold.Chemscore.Hbonds>
donor molecule, donor type, donor heavy atom, donor atom, acceptor molecule, acceptor atom, score
      P1  H  7997  8010       L1    17  0.94
      P1  H 10752 10765       L1    16  0.81

> <Gold.Chemscore.Hbond.Weighted>
-6.2010

> <Gold.Chemscore.Metal.Weighted>
-0.0000

> <Gold.Chemscore.Lipo.Weighted>
-8.9181

> <Gold.Chemscore.Internal_Hbond.Weighted>
0.0000

> <Gold.Chemscore.DEClash.Weighted>
0.1286

> <Gold.Chemscore.DEInternal.Weighted>
0.1819

> <Gold.Chemscore.Rot.Weighted>
3.8222

> <Gold.Chemscore.Internal.Correction.Weighted>
   9.000000E+99

> <Gold.Protein.RotatedTorsions>
[ 6907 6896 6895 6894 ] final   69.29 input  -60.11 | X-H torsion
[ 7974 7965 7964 7962 ] final  -57.92 input  175.53 | X-H torsion
[ 8008 7997 7996 7995 ] final  109.82 input   59.86 | X-H torsion
[ 10167 10162 10161 10158 ] final  134.61 input  -65.29 | X-H torsion
[ 10718 10713 10712 10709 ] final  -86.75 input   66.30 | X-H torsion
[ 10763 10752 10751 10750 ] final  147.64 input  -60.55 | X-H torsion
[ 11005 11000 10999 10996 ] final   43.18 input  -57.11 | X-H torsion

> <Gold.Protein.ActiveResidues>
 VAL166  LYS551  ARG553  GLY616  TRP617  ASP618  TYR619  PRO620  LYS621  CYS622 
 ASP623  PHE694  ASN695  SER759  ASP760  ASP761  ALA762  ILE779  LEU786  VAL792 
 PHE793  MET794  SER795  GLU796  ALA797  LYS798  CYS799  TRP800  GLU811  SER814 

> <Gold.Protein.RotatedAtoms>
  152.4676  134.5038  159.9732 H   0  0  0  0  0  0  0  0  0  0  0  0  # atno 6907 bound_to 6896
  151.5072  133.3486  159.2886 H   0  0  0  0  0  0  0  0  0  0  0  0  # atno 6908 bound_to 6896
  150.8669  134.8062  159.7187 H   0  0  0  0  0  0  0  0  0  0  0  0  # atno 6909 bound_to 6896
  145.8453  140.8389  143.0013 H   0  0  0  0  0  0  0  0  0  0  0  0  # atno 7974 bound_to 7965
  156.2007  140.3050  155.9522 H   0  0  0  0  0  0  0  0  0  0  0  0  # atno 8008 bound_to 7997
  155.2959  140.0444  157.3043 H   0  0  0  0  0  0  0  0  0  0  0  0  # atno 8009 bound_to 7997
  154.5568  140.2308  155.8407 H   0  0  0  0  0  0  0  0  0  0  0  0  # atno 8010 bound_to 7997
  139.5249  144.6559  151.5164 H   0  0  0  0  0  0  0  0  0  0  0  0  # atno 10167 bound_to 10162
  155.9988  130.4776  150.4762 H   0  0  0  0  0  0  0  0  0  0  0  0  # atno 10718 bound_to 10713
  154.0417  135.2889  155.3354 H   0  0  0  0  0  0  0  0  0  0  0  0  # atno 10763 bound_to 10752
  154.6925  135.5221  153.8415 H   0  0  0  0  0  0  0  0  0  0  0  0  # atno 10764 bound_to 10752
  153.0597  135.6609  154.0620 H   0  0  0  0  0  0  0  0  0  0  0  0  # atno 10765 bound_to 10752
  140.1669  134.4270  155.8281 H   0  0  0  0  0  0  0  0  0  0  0  0  # atno 11005 bound_to 11000
  144.6731  140.0873  143.7466 LP  0  0  0  0  0  0  0  0  0  0  0  0  # atno 17320 bound_to 7965
  145.9419  139.2674  143.1264 LP  0  0  0  0  0  0  0  0  0  0  0  0  # atno 17321 bound_to 7965
  140.6384  143.8938  150.6668 LP  0  0  0  0  0  0  0  0  0  0  0  0  # atno 17342 bound_to 10162
  140.2265  143.3768  152.1600 LP  0  0  0  0  0  0  0  0  0  0  0  0  # atno 17343 bound_to 10162
  157.2772  131.0599  151.2221 LP  0  0  0  0  0  0  0  0  0  0  0  0  # atno 17370 bound_to 10713
  157.3281  130.6971  149.6308 LP  0  0  0  0  0  0  0  0  0  0  0  0  # atno 17371 bound_to 10713
  141.2214  133.6938  156.7695 LP  0  0  0  0  0  0  0  0  0  0  0  0  # atno 17394 bound_to 11000
  140.2423  134.8604  157.3585 LP  0  0  0  0  0  0  0  0  0  0  0  0  # atno 17395 bound_to 11000

$$$$
