AV-unprocessed.smi:447|AV-procd|sdf|2600|dock1
  -GOLD-   2262022593D 1   1.00000     0.00000
 Structure written by MMmdl.
 45 47  0  0  0  0  0  0  0  0  1 V2000
  154.2872  137.2085  162.4327 C   0  0  0  0  0  0  0  0  0  0  0  0
  153.6360  137.1515  161.0553 C   0  0  0  0  0  0  0  0  0  0  0  0
  153.5392  136.0769  160.4634 O   0  0  0  0  0  0  0  0  0  0  0  0
  153.1958  138.3183  160.5608 N   0  0  0  0  0  0  0  0  0  0  0  0
  152.5667  138.5081  159.2550 C   0  0  1  0  0  0  0  0  0  0  0  0
  151.2268  137.7618  159.1841 C   0  0  0  0  0  0  0  0  0  0  0  0
  152.4065  139.9904  159.0283 C   0  0  0  0  0  0  0  0  0  0  0  0
  152.9673  140.8955  159.8367 N   0  0  0  0  0  0  0  0  0  0  0  0
  152.5756  142.0954  159.2780 C   0  0  0  0  0  0  0  0  0  0  0  0
  152.8534  143.4251  159.6684 C   0  0  0  0  0  0  0  0  0  0  0  0
  152.3348  144.5090  158.9297 C   0  0  0  0  0  0  0  0  0  0  0  0
  151.5334  144.2790  157.7925 C   0  0  0  0  0  0  0  0  0  0  0  0
  151.2449  142.9617  157.3873 C   0  0  0  0  0  0  0  0  0  0  0  0
  151.7645  141.8836  158.1288 C   0  0  0  0  0  0  0  0  0  0  0  0
  151.6717  140.5012  158.0044 N   0  0  0  0  0  0  0  0  0  0  0  0
  150.9290  139.7969  156.9665 C   0  0  0  0  0  0  0  0  0  0  0  0
  151.1844  140.3727  155.5583 C   0  0  1  0  0  0  0  0  0  0  0  0
  152.3164  139.7614  154.9694 O   0  0  0  0  0  0  0  0  0  0  0  0
  149.9482  140.2515  154.6815 C   0  0  0  0  0  0  0  0  0  0  0  0
  149.4821  138.9781  154.2891 C   0  0  0  0  0  0  0  0  0  0  0  0
  148.3411  138.8606  153.4715 C   0  0  0  0  0  0  0  0  0  0  0  0
  147.6616  140.0158  153.0394 C   0  0  0  0  0  0  0  0  0  0  0  0
  148.1242  141.2890  153.4241 C   0  0  0  0  0  0  0  0  0  0  0  0
  149.2647  141.4071  154.2420 C   0  0  0  0  0  0  0  0  0  0  0  0
  155.2075  137.7916  162.3931 H   0  0  0  0  0  0  0  0  0  0  0  0
  154.5325  136.2068  162.7871 H   0  0  0  0  0  0  0  0  0  0  0  0
  153.6145  137.6706  163.1555 H   0  0  0  0  0  0  0  0  0  0  0  0
  153.3249  139.1493  161.1200 H   0  0  0  0  0  0  0  0  0  0  0  0
  153.2263  138.0947  158.4941 H   0  0  0  0  0  0  0  0  0  0  0  0
  150.7584  137.8957  158.2085 H   0  0  0  0  0  0  0  0  0  0  0  0
  150.5291  138.1217  159.9411 H   0  0  0  0  0  0  0  0  0  0  0  0
  151.3652  136.6914  159.3393 H   0  0  0  0  0  0  0  0  0  0  0  0
  153.4667  143.6112  160.5377 H   0  0  0  0  0  0  0  0  0  0  0  0
  152.5530  145.5214  159.2364 H   0  0  0  0  0  0  0  0  0  0  0  0
  151.1404  145.1145  157.2318 H   0  0  0  0  0  0  0  0  0  0  0  0
  150.6316  142.7821  156.5167 H   0  0  0  0  0  0  0  0  0  0  0  0
  151.1568  138.7324  157.0087 H   0  0  0  0  0  0  0  0  0  0  0  0
  149.8670  139.8736  157.2033 H   0  0  0  0  0  0  0  0  0  0  0  0
  151.4281  141.4313  155.6579 H   0  0  0  0  0  0  0  0  0  0  0  0
  152.0991  138.8654  154.7620 H   0  0  0  0  0  0  0  0  0  0  0  0
  149.9983  138.0861  154.6128 H   0  0  0  0  0  0  0  0  0  0  0  0
  147.9874  137.8840  153.1747 H   0  0  0  0  0  0  0  0  0  0  0  0
  146.7873  139.9257  152.4117 H   0  0  0  0  0  0  0  0  0  0  0  0
  147.6048  142.1755  153.0910 H   0  0  0  0  0  0  0  0  0  0  0  0
  149.6149  142.3882  154.5294 H   0  0  0  0  0  0  0  0  0  0  0  0
  1  2  1  0  0  0  0
  1 25  1  0  0  0  0
  1 26  1  0  0  0  0
  1 27  1  0  0  0  0
  2  3  2  0  0  0  0
  2  4  1  0  0  0  0
  4  5  1  0  0  0  0
  4 28  1  0  0  0  0
  5  6  1  0  0  0  0
  5  7  1  0  0  0  0
  5 29  1  0  0  0  0
  6 30  1  0  0  0  0
  6 31  1  0  0  0  0
  6 32  1  0  0  0  0
  7 15  1  0  0  0  0
  7  8  2  0  0  0  0
  8  9  1  0  0  0  0
  9 14  2  0  0  0  0
  9 10  1  0  0  0  0
 10 11  2  0  0  0  0
 10 33  1  0  0  0  0
 11 12  1  0  0  0  0
 11 34  1  0  0  0  0
 12 13  2  0  0  0  0
 12 35  1  0  0  0  0
 13 14  1  0  0  0  0
 13 36  1  0  0  0  0
 14 15  1  0  0  0  0
 15 16  1  0  0  0  0
 16 17  1  0  0  0  0
 16 37  1  0  0  0  0
 16 38  1  0  0  0  0
 17 18  1  0  0  0  0
 17 19  1  0  0  0  0
 17 39  1  0  0  0  0
 18 40  1  0  0  0  0
 19 24  1  0  0  0  0
 19 20  2  0  0  0  0
 20 21  1  0  0  0  0
 20 41  1  0  0  0  0
 21 22  2  0  0  0  0
 21 42  1  0  0  0  0
 22 23  1  0  0  0  0
 22 43  1  0  0  0  0
 23 24  2  0  0  0  0
 23 44  1  0  0  0  0
 24 45  1  0  0  0  0
M  END
> <s_m_source_file>
AV-unprocessed.smi

> <i_m_source_file_index>
447

> <i_lp_mmshare_version>
43012

> <i_f3d_flags>
0

> <s_epik_input>
W0NIM11DKD1PKVtOSF1bQ0BIXShbQ0gzXSljKG4xKW4oYyhjMTIpW2NIXVtjSF1bY0hdW2NIXTIpW0NIMl1bQ0BIXShbT0hdKWMzW2NIXVtjSF1bY0hdW2NIXVtjSF0z

> <s_epik_cmdline>
J2VwaWtfcHl0aG9uJywgJy1waCcsICc3LjAnLCAnLXRuJywgJzgnLCAnLW1hJywgJzIwMCcsICctbWV0YWxfYmluZGluZycsICctaW1hZScsICc8aW5maWxlLm1hZT4nLCAnLW9tYWUnLCAnPG91dGZpbGUubWFlPic=

> <r_epik_Ionization_Penalty>
0.13301

> <r_epik_Ionization_Penalty_Charging>
0

> <r_epik_Ionization_Penalty_Neutral>
0.13301

> <r_epik_State_Penalty>
0.122384

> <r_epik_Charging_Adjusted_Penalty>
0.122384

> <i_epik_Tot_Q>
0

> <i_epik_Tot_abs_Q>
0

> <r_epik_Metal_State_Penalty>
0.0997374

> <b_epik_Metal_Only>
0

> <s_lp_Force_Field>
OPLS_2005

> <r_lp_Energy>
8.36794

> <b_lp_Chiralities_Consistent>
1

> <s_lp_Variant>
AV-unprocessed.smi:447-4

> <Gold.Version>
5.8.1

> <Gold.Id.Protein>
6NUR|6NUR_protein|mol2

> <Gold.PLP.Fitness>
57.0864

> <Gold.PLP.PLP>
-54.3105

> <Gold.PLP.part.hbond>
-2.0000

> <Gold.PLP.part.metal>
0.0000

> <Gold.PLP.part.buried>
-5.1680

> <Gold.PLP.part.nonpolar>
-46.6195

> <Gold.PLP.part.repulsive>
0.0578

> <Gold.PLP.ligand.clash>
0.0000

> <Gold.PLP.ligand.torsion>
0.8580

> <Gold.PLP.Chemscore.Hbond>
1.4664

> <Gold.PLP.Chemscore.CHOScore>
0.0000

> <Gold.PLP.Chemscore.Metal>
0.0000

> <Gold.Chemscore.Hbonds>
donor molecule, donor type, donor heavy atom, donor atom, acceptor molecule, acceptor atom, score
      P1  H  6896  6909       L1     3  1.00

> <Gold.PLP.Chemscore.Internal.Correction>
0.0928

> <Gold.Rescore>
     Score         DG    S(hbond)    S(metal)    S(lipo)     H(rot)  DE(clash)    DE(int)     intcor
     19.00     -19.43       1.43        0.00     130.05       2.35       0.02       0.41       ----

> <Gold.Chemscore.Fitness>
19.0047

> <Gold.Chemscore.DG>
-19.4341

> <Gold.Chemscore.ZeroCoef>
-5.4800

> <Gold.Chemscore.Hbond>
1.4254

> <Gold.Chemscore.Metal>
0.0000

> <Gold.Chemscore.Lipo>
130.0543

> <Gold.Chemscore.Internal_Hbond>
0.0000

> <Gold.Chemscore.DEClash>
0.0186

> <Gold.Chemscore.DEInternal>
0.4108

> <Gold.Chemscore.Rot>
2.3528

> <Gold.Chemscore.Internal.Correction>
   9.000000E+99

> <Gold.Chemscore.Hbonds>
donor molecule, donor type, donor heavy atom, donor atom, acceptor molecule, acceptor atom, score
      P1  H  6896  6909       L1     3  1.00

> <Gold.Chemscore.Hbond.Weighted>
-4.7609

> <Gold.Chemscore.Metal.Weighted>
-0.0000

> <Gold.Chemscore.Lipo.Weighted>
-15.2163

> <Gold.Chemscore.Internal_Hbond.Weighted>
0.0000

> <Gold.Chemscore.DEClash.Weighted>
0.0186

> <Gold.Chemscore.DEInternal.Weighted>
0.4108

> <Gold.Chemscore.Rot.Weighted>
6.0231

> <Gold.Chemscore.Internal.Correction.Weighted>
   9.000000E+99

> <Gold.Protein.RotatedTorsions>
[ 6907 6896 6895 6894 ] final  177.84 input  -60.11 | X-H torsion
[ 7974 7965 7964 7962 ] final  -86.36 input  175.53 | X-H torsion
[ 8008 7997 7996 7995 ] final  -74.12 input   59.86 | X-H torsion
[ 10167 10162 10161 10158 ] final  -39.47 input  -65.29 | X-H torsion
[ 10718 10713 10712 10709 ] final  -14.90 input   66.30 | X-H torsion
[ 10763 10752 10751 10750 ] final   69.68 input  -60.55 | X-H torsion
[ 11005 11000 10999 10996 ] final -135.74 input  -57.11 | X-H torsion

> <Gold.Protein.ActiveResidues>
 VAL166  LYS551  ARG553  GLY616  TRP617  ASP618  TYR619  PRO620  LYS621  CYS622 
 ASP623  PHE694  ASN695  SER759  ASP760  ASP761  ALA762  ILE779  LEU786  VAL792 
 PHE793  MET794  SER795  GLU796  ALA797  LYS798  CYS799  TRP800  GLU811  SER814 

> <Gold.Protein.RotatedAtoms>
  151.6975  133.3311  159.3257 H   0  0  0  0  0  0  0  0  0  0  0  0  # atno 6907 bound_to 6896
  150.7751  134.6645  159.6367 H   0  0  0  0  0  0  0  0  0  0  0  0  # atno 6908 bound_to 6896
  152.3790  134.6622  160.0201 H   0  0  0  0  0  0  0  0  0  0  0  0  # atno 6909 bound_to 6896
  145.4809  140.9557  143.1865 H   0  0  0  0  0  0  0  0  0  0  0  0  # atno 7974 bound_to 7965
  154.5304  140.0767  156.8334 H   0  0  0  0  0  0  0  0  0  0  0  0  # atno 8008 bound_to 7997
  155.3387  140.3406  155.4221 H   0  0  0  0  0  0  0  0  0  0  0  0  # atno 8009 bound_to 7997
  156.1775  140.1641  156.8322 H   0  0  0  0  0  0  0  0  0  0  0  0  # atno 8010 bound_to 7997
  140.7063  143.3212  151.2787 H   0  0  0  0  0  0  0  0  0  0  0  0  # atno 10167 bound_to 10162
  156.6093  130.4845  149.6208 H   0  0  0  0  0  0  0  0  0  0  0  0  # atno 10718 bound_to 10713
  153.0300  135.5202  154.7325 H   0  0  0  0  0  0  0  0  0  0  0  0  # atno 10763 bound_to 10752
  154.6348  135.2905  155.0176 H   0  0  0  0  0  0  0  0  0  0  0  0  # atno 10764 bound_to 10752
  154.1115  135.6621  153.4938 H   0  0  0  0  0  0  0  0  0  0  0  0  # atno 10765 bound_to 10752
  140.8870  134.1860  157.4553 H   0  0  0  0  0  0  0  0  0  0  0  0  # atno 11005 bound_to 11000
  144.7889  139.6369  143.7122 LP  0  0  0  0  0  0  0  0  0  0  0  0  # atno 17320 bound_to 7965
  146.2341  139.5871  142.9535 LP  0  0  0  0  0  0  0  0  0  0  0  0  # atno 17321 bound_to 7965
  139.6667  144.0093  152.2727 LP  0  0  0  0  0  0  0  0  0  0  0  0  # atno 17342 bound_to 10162
  139.9678  144.6514  150.8018 LP  0  0  0  0  0  0  0  0  0  0  0  0  # atno 17343 bound_to 10162
  156.2403  130.6847  151.1549 LP  0  0  0  0  0  0  0  0  0  0  0  0  # atno 17370 bound_to 10713
  157.7258  131.0650  150.5935 LP  0  0  0  0  0  0  0  0  0  0  0  0  # atno 17371 bound_to 10713
  139.8725  134.9842  156.5229 LP  0  0  0  0  0  0  0  0  0  0  0  0  # atno 17394 bound_to 11000
  140.8393  133.8218  155.9059 LP  0  0  0  0  0  0  0  0  0  0  0  0  # atno 17395 bound_to 11000

$$$$
