AV-unprocessed.smi:193|AV-procd|sdf|1515|dock1
  -GOLD-   2262019353D 1   1.00000     0.00000
 Structure written by MMmdl.
 61 65  0  0  0  0  0  0  0  0  1 V2000
  154.8866  140.6444  161.2288 C   0  0  0  0  0  0  0  0  0  0  0  0
  153.8917  140.8126  160.0700 C   0  0  1  0  0  0  0  0  0  0  0  0
  153.1869  139.4654  159.8021 C   0  0  0  0  0  0  0  0  0  0  0  0
  152.5346  139.3666  158.4953 N   0  0  0  0  0  0  0  0  0  0  0  0
  152.4516  138.1427  157.9058 C   0  0  0  0  0  0  0  0  0  0  0  0
  153.3624  137.1895  158.2405 N   0  0  0  0  0  0  0  0  0  0  0  0
  153.3137  135.9754  157.6860 C   0  0  0  0  0  0  0  0  0  0  0  0
  152.4518  135.5047  156.7839 N   0  0  0  0  0  0  0  0  0  0  0  0
  151.5342  136.4518  156.4383 C   0  0  0  0  0  0  0  0  0  0  0  0
  151.4583  137.7812  156.9462 C   0  0  0  0  0  0  0  0  0  0  0  0
  150.3944  138.4476  156.3464 N   0  0  0  0  0  0  0  0  0  0  0  0
  149.8711  137.5654  155.5408 C   0  0  0  0  0  0  0  0  0  0  0  0
  150.5000  136.3421  155.5249 N   0  0  0  0  0  0  0  0  0  0  0  0
  150.1401  135.1891  154.7134 C   0  0  0  0  0  0  0  0  0  0  0  0
  149.7856  133.9290  155.5417 C   0  0  0  0  0  0  0  0  0  0  0  0
  149.0689  133.0466  154.6946 O   0  0  0  0  0  0  0  0  0  0  0  0
  151.0362  133.1922  156.0695 C   0  0  0  0  0  0  0  0  0  0  0  0
  150.6722  132.0636  157.0503 C   0  0  0  0  0  0  0  0  0  0  0  0
  149.8795  132.5753  158.1150 O   0  0  0  0  0  0  0  0  0  0  0  0
  148.6365  133.1053  157.6705 C   0  0  0  0  0  0  0  0  0  0  0  0
  148.8791  134.3010  156.7319 C   0  0  0  0  0  0  0  0  0  0  0  0
  152.1268  140.5586  157.7503 C   0  0  0  0  0  0  0  0  0  0  0  0
  151.3362  141.5512  158.6132 C   0  0  0  0  0  0  0  0  0  0  0  0
  152.2329  142.5150  159.2444 N   0  0  0  0  0  0  0  0  0  0  0  0
  151.4405  143.6547  159.6866 C   0  0  1  0  0  0  0  0  0  0  0  0
  152.1724  144.8228  160.3097 C   0  0  0  0  0  0  0  0  0  0  0  0
  151.5678  144.9667  158.9333 C   0  0  1  0  0  0  0  0  0  0  0  0
  152.4636  145.1328  157.7208 C   0  0  0  0  0  0  0  0  0  0  0  0
  152.8877  141.9348  160.4158 C   0  0  0  0  0  0  0  0  0  0  0  0
  154.3782  140.3519  162.1482 H   0  0  0  0  0  0  0  0  0  0  0  0
  155.4247  141.5721  161.4257 H   0  0  0  0  0  0  0  0  0  0  0  0
  155.6309  139.8803  161.0023 H   0  0  0  0  0  0  0  0  0  0  0  0
  154.4792  141.1009  159.1967 H   0  0  0  0  0  0  0  0  0  0  0  0
  153.9352  138.6743  159.8657 H   0  0  0  0  0  0  0  0  0  0  0  0
  152.4547  139.2644  160.5847 H   0  0  0  0  0  0  0  0  0  0  0  0
  154.0767  135.2828  158.0101 H   0  0  0  0  0  0  0  0  0  0  0  0
  149.0130  137.7869  154.9230 H   0  0  0  0  0  0  0  0  0  0  0  0
  149.2963  135.4701  154.0819 H   0  0  0  0  0  0  0  0  0  0  0  0
  150.9679  134.9774  154.0350 H   0  0  0  0  0  0  0  0  0  0  0  0
  149.6907  132.5281  154.2068 H   0  0  0  0  0  0  0  0  0  0  0  0
  151.6270  132.7856  155.2479 H   0  0  0  0  0  0  0  0  0  0  0  0
  151.6808  133.9045  156.5862 H   0  0  0  0  0  0  0  0  0  0  0  0
  150.1415  131.2573  156.5416 H   0  0  0  0  0  0  0  0  0  0  0  0
  151.5797  131.6275  157.4679 H   0  0  0  0  0  0  0  0  0  0  0  0
  148.0527  132.3273  157.1761 H   0  0  0  0  0  0  0  0  0  0  0  0
  148.0613  133.4248  158.5396 H   0  0  0  0  0  0  0  0  0  0  0  0
  149.3486  135.1004  157.3070 H   0  0  0  0  0  0  0  0  0  0  0  0
  147.9269  134.6992  156.3788 H   0  0  0  0  0  0  0  0  0  0  0  0
  152.9940  141.0326  157.2883 H   0  0  0  0  0  0  0  0  0  0  0  0
  151.4694  140.2674  156.9304 H   0  0  0  0  0  0  0  0  0  0  0  0
  150.6739  142.1000  157.9421 H   0  0  0  0  0  0  0  0  0  0  0  0
  150.6917  141.0499  159.3373 H   0  0  0  0  0  0  0  0  0  0  0  0
  150.4540  143.4595  160.1045 H   0  0  0  0  0  0  0  0  0  0  0  0
  151.6815  145.3416  161.1303 H   0  0  0  0  0  0  0  0  0  0  0  0
  153.2570  144.7638  160.3818 H   0  0  0  0  0  0  0  0  0  0  0  0
  150.6562  145.5581  158.8745 H   0  0  0  0  0  0  0  0  0  0  0  0
  153.3909  144.5709  157.8364 H   0  0  0  0  0  0  0  0  0  0  0  0
  152.7151  146.1847  157.5856 H   0  0  0  0  0  0  0  0  0  0  0  0
  151.9517  144.7800  156.8255 H   0  0  0  0  0  0  0  0  0  0  0  0
  152.1475  141.5818  161.1359 H   0  0  0  0  0  0  0  0  0  0  0  0
  153.4341  142.7387  160.9111 H   0  0  0  0  0  0  0  0  0  0  0  0
  1  2  1  0  0  0  0
  1 30  1  0  0  0  0
  1 31  1  0  0  0  0
  1 32  1  0  0  0  0
  2 29  1  0  0  0  0
  2  3  1  0  0  0  0
  2 33  1  0  0  0  0
  3  4  1  0  0  0  0
  3 34  1  0  0  0  0
  3 35  1  0  0  0  0
  4  5  1  0  0  0  0
  4 22  1  0  0  0  0
  5 10  1  0  0  0  0
  5  6  2  0  0  0  0
  6  7  1  0  0  0  0
  7  8  2  0  0  0  0
  7 36  1  0  0  0  0
  8  9  1  0  0  0  0
  9 13  1  0  0  0  0
  9 10  2  0  0  0  0
 10 11  1  0  0  0  0
 11 12  2  0  0  0  0
 12 13  1  0  0  0  0
 12 37  1  0  0  0  0
 13 14  1  0  0  0  0
 14 15  1  0  0  0  0
 14 38  1  0  0  0  0
 14 39  1  0  0  0  0
 15 21  1  0  0  0  0
 15 16  1  0  0  0  0
 15 17  1  0  0  0  0
 16 40  1  0  0  0  0
 17 18  1  0  0  0  0
 17 41  1  0  0  0  0
 17 42  1  0  0  0  0
 18 19  1  0  0  0  0
 18 43  1  0  0  0  0
 18 44  1  0  0  0  0
 19 20  1  0  0  0  0
 20 21  1  0  0  0  0
 20 45  1  0  0  0  0
 20 46  1  0  0  0  0
 21 47  1  0  0  0  0
 21 48  1  0  0  0  0
 22 23  1  0  0  0  0
 22 49  1  0  0  0  0
 22 50  1  0  0  0  0
 23 24  1  0  0  0  0
 23 51  1  0  0  0  0
 23 52  1  0  0  0  0
 24 25  1  0  0  0  0
 24 29  1  0  0  0  0
 25 27  1  0  0  0  0
 25 26  1  0  0  0  0
 25 53  1  0  0  0  0
 26 27  1  0  0  0  0
 26 54  1  0  0  0  0
 26 55  1  0  0  0  0
 27 28  1  0  0  0  0
 27 56  1  0  0  0  0
 28 57  1  0  0  0  0
 28 58  1  0  0  0  0
 28 59  1  0  0  0  0
 29 60  1  0  0  0  0
 29 61  1  0  0  0  0
M  END
> <s_m_source_file>
AV-unprocessed.smi

> <i_m_source_file_index>
193

> <i_lp_mmshare_version>
43012

> <i_f3d_flags>
0

> <s_epik_input>
W0NIM11bQ0BASF0xW0NIMl1bQ0BIXTFOKFtDSDJdMilbQ0gyXVtDSDJdTihbQ0gyXVtDQEhdMltDSDNdKWMobltjSF1uMyljKGMzNCluW2NIXW40W0NIMl1DNShbT0hdKVtDSDJdW0NIMl1PW0NIMl1bQ0gyXTU=

> <s_epik_cmdline>
J2VwaWtfcHl0aG9uJywgJy1waCcsICc3LjAnLCAnLXRuJywgJzgnLCAnLW1hJywgJzIwMCcsICctbWV0YWxfYmluZGluZycsICctaW1hZScsICc8aW5maWxlLm1hZT4nLCAnLW9tYWUnLCAnPG91dGZpbGUubWFlPic=

> <r_lp_tautomer_probability>
1

> <r_epik_Ionization_Penalty>
1.45227

> <r_epik_Ionization_Penalty_Charging>
0

> <r_epik_Ionization_Penalty_Neutral>
1.45227

> <r_epik_State_Penalty>
2.02377

> <r_epik_Charging_Adjusted_Penalty>
2.02377

> <i_epik_Tot_Q>
0

> <i_epik_Tot_abs_Q>
0

> <r_epik_Metal_State_Penalty>
2.01937

> <b_epik_Metal_Only>
0

> <s_lp_Force_Field>
OPLS_2005

> <r_lp_Energy>
52.058

> <b_lp_Chiralities_Consistent>
1

> <s_lp_Variant>
AV-unprocessed.smi:193-20

> <Gold.Version>
5.8.1

> <Gold.Id.Protein>
6NUR|6NUR_protein|mol2

> <Gold.PLP.Fitness>
48.9316

> <Gold.PLP.PLP>
-44.2129

> <Gold.PLP.part.hbond>
-2.0000

> <Gold.PLP.part.metal>
0.0000

> <Gold.PLP.part.buried>
-6.5538

> <Gold.PLP.part.nonpolar>
-36.1404

> <Gold.PLP.part.repulsive>
0.0000

> <Gold.PLP.ligand.clash>
0.0000

> <Gold.PLP.ligand.torsion>
1.2544

> <Gold.PLP.Chemscore.Hbond>
2.0000

> <Gold.PLP.Chemscore.CHOScore>
0.0000

> <Gold.PLP.Chemscore.Metal>
0.0000

> <Gold.Chemscore.Hbonds>
donor molecule, donor type, donor heavy atom, donor atom, acceptor molecule, acceptor atom, score
      P1  H  6896  6907       L1    19  1.00
      P1  H 10752 10763       L1     8  0.95

> <Gold.PLP.Chemscore.Internal.Correction>
1.2275

> <Gold.Rescore>
     Score         DG    S(hbond)    S(metal)    S(lipo)     H(rot)  DE(clash)    DE(int)     intcor
     16.46     -19.56       1.19        0.00     128.07       1.91       0.38       2.72       ----

> <Gold.Chemscore.Fitness>
16.4641

> <Gold.Chemscore.DG>
-19.5575

> <Gold.Chemscore.ZeroCoef>
-5.4800

> <Gold.Chemscore.Hbond>
1.1900

> <Gold.Chemscore.Metal>
0.0000

> <Gold.Chemscore.Lipo>
128.0703

> <Gold.Chemscore.Internal_Hbond>
0.0000

> <Gold.Chemscore.DEClash>
0.3766

> <Gold.Chemscore.DEInternal>
2.7167

> <Gold.Chemscore.Rot>
1.9068

> <Gold.Chemscore.Internal.Correction>
   9.000000E+99

> <Gold.Chemscore.Hbonds>
donor molecule, donor type, donor heavy atom, donor atom, acceptor molecule, acceptor atom, score
      P1  H  6896  6907       L1    19  0.45
      P1  H 10752 10763       L1     8  0.12

> <Gold.Chemscore.Hbond.Weighted>
-3.9746

> <Gold.Chemscore.Metal.Weighted>
-0.0000

> <Gold.Chemscore.Lipo.Weighted>
-14.9842

> <Gold.Chemscore.Internal_Hbond.Weighted>
0.0000

> <Gold.Chemscore.DEClash.Weighted>
0.3766

> <Gold.Chemscore.DEInternal.Weighted>
2.7167

> <Gold.Chemscore.Rot.Weighted>
4.8814

> <Gold.Chemscore.Internal.Correction.Weighted>
   9.000000E+99

> <Gold.Protein.RotatedTorsions>
[ 6907 6896 6895 6894 ] final -146.93 input  -60.11 | X-H torsion
[ 7974 7965 7964 7962 ] final -123.95 input  175.53 | X-H torsion
[ 8008 7997 7996 7995 ] final  -24.54 input   59.86 | X-H torsion
[ 10167 10162 10161 10158 ] final  -66.86 input  -65.29 | X-H torsion
[ 10718 10713 10712 10709 ] final  -31.65 input   66.30 | X-H torsion
[ 10763 10752 10751 10750 ] final  105.58 input  -60.55 | X-H torsion
[ 11005 11000 10999 10996 ] final -158.24 input  -57.11 | X-H torsion

> <Gold.Protein.ActiveResidues>
 VAL166  LYS551  ARG553  GLY616  TRP617  ASP618  TYR619  PRO620  LYS621  CYS622 
 ASP623  PHE694  ASN695  SER759  ASP760  ASP761  ALA762  ILE779  LEU786  VAL792 
 PHE793  MET794  SER795  GLU796  ALA797  LYS798  CYS799  TRP800  GLU811  SER814 

> <Gold.Protein.RotatedAtoms>
  151.1485  133.4923  159.2595 H   0  0  0  0  0  0  0  0  0  0  0  0  # atno 6907 bound_to 6896
  151.1579  135.0259  159.8707 H   0  0  0  0  0  0  0  0  0  0  0  0  # atno 6908 bound_to 6896
  152.5463  134.1362  159.8513 H   0  0  0  0  0  0  0  0  0  0  0  0  # atno 6909 bound_to 6896
  145.0132  140.7924  143.4426 H   0  0  0  0  0  0  0  0  0  0  0  0  # atno 7974 bound_to 7965
  154.4524  140.1951  156.0480 H   0  0  0  0  0  0  0  0  0  0  0  0  # atno 8008 bound_to 7997
  156.0675  140.3289  155.7508 H   0  0  0  0  0  0  0  0  0  0  0  0  # atno 8009 bound_to 7997
  155.5315  140.0578  157.2878 H   0  0  0  0  0  0  0  0  0  0  0  0  # atno 8010 bound_to 7997
  140.5626  143.2313  151.6698 H   0  0  0  0  0  0  0  0  0  0  0  0  # atno 10167 bound_to 10162
  156.3847  130.4362  149.7441 H   0  0  0  0  0  0  0  0  0  0  0  0  # atno 10718 bound_to 10713
  153.3813  135.3905  155.1859 H   0  0  0  0  0  0  0  0  0  0  0  0  # atno 10763 bound_to 10752
  154.8708  135.3726  154.4853 H   0  0  0  0  0  0  0  0  0  0  0  0  # atno 10764 bound_to 10752
  153.5330  135.7085  153.5735 H   0  0  0  0  0  0  0  0  0  0  0  0  # atno 10765 bound_to 10752
  140.6558  134.4402  157.5235 H   0  0  0  0  0  0  0  0  0  0  0  0  # atno 11005 bound_to 11000
  145.1995  139.2259  143.5200 LP  0  0  0  0  0  0  0  0  0  0  0  0  # atno 17320 bound_to 7965
  146.3473  140.1809  142.8589 LP  0  0  0  0  0  0  0  0  0  0  0  0  # atno 17321 bound_to 7965
  139.5077  144.3636  152.0539 LP  0  0  0  0  0  0  0  0  0  0  0  0  # atno 17342 bound_to 10162
  140.2764  144.3908  150.6133 LP  0  0  0  0  0  0  0  0  0  0  0  0  # atno 17343 bound_to 10162
  156.4518  130.7910  151.2932 LP  0  0  0  0  0  0  0  0  0  0  0  0  # atno 17370 bound_to 10713
  157.7495  131.0093  150.3261 LP  0  0  0  0  0  0  0  0  0  0  0  0  # atno 17371 bound_to 10713
  139.9030  134.8513  156.1818 LP  0  0  0  0  0  0  0  0  0  0  0  0  # atno 17394 bound_to 11000
  141.0503  133.6892  156.1759 LP  0  0  0  0  0  0  0  0  0  0  0  0  # atno 17395 bound_to 11000

$$$$
