AV-unprocessed.smi:149|AV-procd|sdf|1241|dock9
  -GOLD-   2262018463D 1   1.00000     0.00000
 Structure written by MMmdl.
 59 63  0  0  0  0  0  0  0  0  1 V2000
  151.4509  132.5133  156.5772 C   0  0  0  0  0  0  0  0  0  0  0  0
  150.4083  133.6021  156.2687 C   0  0  1  0  0  0  0  0  0  0  0  0
  150.9459  134.9973  156.6312 C   0  0  0  0  0  0  0  0  0  0  0  0
  150.9185  135.7893  155.4120 N   0  0  0  0  0  0  0  0  0  0  0  0
  151.0414  137.1431  155.4897 C   0  0  0  0  0  0  0  0  0  0  0  0
  150.7555  137.8771  154.3804 N   0  0  0  0  0  0  0  0  0  0  0  0
  150.8550  139.2086  154.3970 C   0  0  0  0  0  0  0  0  0  0  0  0
  151.2186  140.0039  155.4028 N   0  0  0  0  0  0  0  0  0  0  0  0
  151.5021  139.2827  156.5244 C   0  0  0  0  0  0  0  0  0  0  0  0
  151.4320  137.8649  156.6593 C   0  0  0  0  0  0  0  0  0  0  0  0
  151.7704  137.5099  157.9617 N   0  0  0  0  0  0  0  0  0  0  0  0
  152.0233  138.6428  158.5557 C   0  0  0  0  0  0  0  0  0  0  0  0
  151.9187  139.7567  157.7564 N   0  0  0  0  0  0  0  0  0  0  0  0
  152.1083  141.1198  158.1565 C   0  0  0  0  0  0  0  0  0  0  0  0
  153.2643  141.5186  159.0766 C   0  0  0  0  0  0  0  0  0  0  0  0
  152.3834  142.6266  159.6944 C   0  0  0  0  0  0  0  0  0  0  0  0
  152.4972  142.7741  161.2210 C   0  0  0  0  0  0  0  0  0  0  0  0
  151.3043  143.2872  161.7785 O   0  0  0  0  0  0  0  0  0  0  0  0
  152.5168  144.0138  159.0340 C   0  0  0  0  0  0  0  0  0  0  0  0
  151.6688  144.9626  159.6480 O   0  0  0  0  0  0  0  0  0  0  0  0
  151.1948  141.7737  159.1962 C   0  0  0  0  0  0  0  0  0  0  0  0
  149.9720  135.1829  154.4987 C   0  0  0  0  0  0  0  0  0  0  0  0
  150.0123  133.6723  154.7730 C   0  0  2  0  0  0  0  0  0  0  0  0
  148.7586  132.9947  154.4029 N   0  0  0  0  0  0  0  0  0  0  0  0
  148.4075  133.2294  153.0008 C   0  0  0  0  0  0  0  0  0  0  0  0
  147.1001  132.5250  152.5994 C   0  0  0  0  0  0  0  0  0  0  0  0
  147.2127  131.1302  152.8546 O   0  0  0  0  0  0  0  0  0  0  0  0
  147.5006  130.8504  154.2194 C   0  0  0  0  0  0  0  0  0  0  0  0
  148.8081  131.5507  154.6290 C   0  0  0  0  0  0  0  0  0  0  0  0
  152.3707  132.6789  156.0153 H   0  0  0  0  0  0  0  0  0  0  0  0
  151.0887  131.5175  156.3264 H   0  0  0  0  0  0  0  0  0  0  0  0
  151.7071  132.5089  157.6369 H   0  0  0  0  0  0  0  0  0  0  0  0
  149.5186  133.4246  156.8745 H   0  0  0  0  0  0  0  0  0  0  0  0
  150.3194  135.4574  157.3970 H   0  0  0  0  0  0  0  0  0  0  0  0
  151.9647  134.9497  157.0182 H   0  0  0  0  0  0  0  0  0  0  0  0
  150.6105  139.7078  153.4709 H   0  0  0  0  0  0  0  0  0  0  0  0
  152.3021  138.6935  159.5983 H   0  0  0  0  0  0  0  0  0  0  0  0
  152.1276  141.7050  157.2356 H   0  0  0  0  0  0  0  0  0  0  0  0
  153.5197  140.7308  159.7882 H   0  0  0  0  0  0  0  0  0  0  0  0
  154.1536  141.8762  158.5564 H   0  0  0  0  0  0  0  0  0  0  0  0
  152.7348  141.8247  161.7010 H   0  0  0  0  0  0  0  0  0  0  0  0
  153.3053  143.4578  161.4828 H   0  0  0  0  0  0  0  0  0  0  0  0
  151.2675  144.2159  161.6070 H   0  0  0  0  0  0  0  0  0  0  0  0
  153.5427  144.3803  159.0753 H   0  0  0  0  0  0  0  0  0  0  0  0
  152.2557  143.9724  157.9765 H   0  0  0  0  0  0  0  0  0  0  0  0
  151.8549  144.9755  160.5743 H   0  0  0  0  0  0  0  0  0  0  0  0
  150.3643  142.3385  158.7713 H   0  0  0  0  0  0  0  0  0  0  0  0
  150.8387  141.0635  159.9447 H   0  0  0  0  0  0  0  0  0  0  0  0
  148.9785  135.5921  154.6902 H   0  0  0  0  0  0  0  0  0  0  0  0
  150.2399  135.3852  153.4617 H   0  0  0  0  0  0  0  0  0  0  0  0
  150.8333  133.2548  154.1873 H   0  0  0  0  0  0  0  0  0  0  0  0
  148.2927  134.2962  152.8098 H   0  0  0  0  0  0  0  0  0  0  0  0
  149.2156  132.8828  152.3549 H   0  0  0  0  0  0  0  0  0  0  0  0
  146.2535  132.9372  153.1507 H   0  0  0  0  0  0  0  0  0  0  0  0
  146.8975  132.6777  151.5395 H   0  0  0  0  0  0  0  0  0  0  0  0
  146.6728  131.1814  154.8485 H   0  0  0  0  0  0  0  0  0  0  0  0
  147.5911  129.7721  154.3503 H   0  0  0  0  0  0  0  0  0  0  0  0
  149.6412  131.1167  154.0741 H   0  0  0  0  0  0  0  0  0  0  0  0
  148.9854  131.3404  155.6827 H   0  0  0  0  0  0  0  0  0  0  0  0
  1  2  1  0  0  0  0
  1 30  1  0  0  0  0
  1 31  1  0  0  0  0
  1 32  1  0  0  0  0
  2 23  1  0  0  0  0
  2  3  1  0  0  0  0
  2 33  1  0  0  0  0
  3  4  1  0  0  0  0
  3 34  1  0  0  0  0
  3 35  1  0  0  0  0
  4  5  1  0  0  0  0
  4 22  1  0  0  0  0
  5 10  1  0  0  0  0
  5  6  2  0  0  0  0
  6  7  1  0  0  0  0
  7  8  2  0  0  0  0
  7 36  1  0  0  0  0
  8  9  1  0  0  0  0
  9 13  1  0  0  0  0
  9 10  2  0  0  0  0
 10 11  1  0  0  0  0
 11 12  2  0  0  0  0
 12 13  1  0  0  0  0
 12 37  1  0  0  0  0
 13 14  1  0  0  0  0
 14 21  1  0  0  0  0
 14 15  1  0  0  0  0
 14 38  1  0  0  0  0
 15 16  1  0  0  0  0
 15 39  1  0  0  0  0
 15 40  1  0  0  0  0
 16 17  1  0  0  0  0
 16 19  1  0  0  0  0
 16 21  1  0  0  0  0
 17 18  1  0  0  0  0
 17 41  1  0  0  0  0
 17 42  1  0  0  0  0
 18 43  1  0  0  0  0
 19 20  1  0  0  0  0
 19 44  1  0  0  0  0
 19 45  1  0  0  0  0
 20 46  1  0  0  0  0
 21 47  1  0  0  0  0
 21 48  1  0  0  0  0
 22 23  1  0  0  0  0
 22 49  1  0  0  0  0
 22 50  1  0  0  0  0
 23 24  1  0  0  0  0
 23 51  1  0  0  0  0
 24 29  1  0  0  0  0
 24 25  1  0  0  0  0
 25 26  1  0  0  0  0
 25 52  1  0  0  0  0
 25 53  1  0  0  0  0
 26 27  1  0  0  0  0
 26 54  1  0  0  0  0
 26 55  1  0  0  0  0
 27 28  1  0  0  0  0
 28 29  1  0  0  0  0
 28 56  1  0  0  0  0
 28 57  1  0  0  0  0
 29 58  1  0  0  0  0
 29 59  1  0  0  0  0
M  END
> <s_m_source_file>
AV-unprocessed.smi

> <i_m_source_file_index>
149

> <i_lp_mmshare_version>
43012

> <i_f3d_flags>
0

> <s_epik_input>
W0NIMl0xW0NIMl1PW0NIMl1bQ0gyXU4xW0NAQEhdMltDSDJdTihbQ0gyXVtDQEhdMltDSDNdKWMobltjSF1uMyljKGMzNCluW2NIXW40W0NIXShbQ0gyXTUpW0NIMl1DNShbQ0gyXVtPSF0pW0NIMl1bT0hd

> <s_epik_cmdline>
J2VwaWtfcHl0aG9uJywgJy1waCcsICc3LjAnLCAnLXRuJywgJzgnLCAnLW1hJywgJzIwMCcsICctbWV0YWxfYmluZGluZycsICctaW1hZScsICc8aW5maWxlLm1hZT4nLCAnLW9tYWUnLCAnPG91dGZpbGUubWFlPic=

> <r_lp_tautomer_probability>
1

> <r_epik_Ionization_Penalty>
0.41918

> <r_epik_Ionization_Penalty_Charging>
0

> <r_epik_Ionization_Penalty_Neutral>
0.41918

> <r_epik_State_Penalty>
0.654916

> <r_epik_Charging_Adjusted_Penalty>
0.654916

> <i_epik_Tot_Q>
0

> <i_epik_Tot_abs_Q>
0

> <r_epik_Metal_State_Penalty>
0.653217

> <b_epik_Metal_Only>
0

> <s_lp_Force_Field>
OPLS_2005

> <r_lp_Energy>
73.5543

> <b_lp_Chiralities_Consistent>
1

> <s_lp_Variant>
AV-unprocessed.smi:149-8

> <Gold.Version>
5.8.1

> <Gold.Id.Protein>
6NUR|6NUR_protein|mol2

> <Gold.PLP.Fitness>
51.0370

> <Gold.PLP.PLP>
-45.6901

> <Gold.PLP.part.hbond>
-3.7981

> <Gold.PLP.part.metal>
0.0000

> <Gold.PLP.part.buried>
-5.4830

> <Gold.PLP.part.nonpolar>
-36.2580

> <Gold.PLP.part.repulsive>
0.9706

> <Gold.PLP.ligand.clash>
0.0000

> <Gold.PLP.ligand.torsion>
1.2133

> <Gold.PLP.Chemscore.Hbond>
1.3043

> <Gold.PLP.Chemscore.CHOScore>
1.0000

> <Gold.PLP.Chemscore.Metal>
0.0000

> <Gold.Chemscore.Hbonds>
donor molecule, donor type, donor heavy atom, donor atom, acceptor molecule, acceptor atom, score
      P1  H  6933  6945       L1    18  0.53
      P1  H 10752 10763       L1     4  0.35
      L1  C     7    36       P1  7957  1.00

> <Gold.PLP.Chemscore.Internal.Correction>
0.8606

> <Gold.Rescore>
     Score         DG    S(hbond)    S(metal)    S(lipo)     H(rot)  DE(clash)    DE(int)     intcor
      7.00     -10.76       0.45        0.00     105.55       3.34       1.30       2.46       ----

> <Gold.Chemscore.Fitness>
7.0031

> <Gold.Chemscore.DG>
-10.7619

> <Gold.Chemscore.ZeroCoef>
-5.4800

> <Gold.Chemscore.Hbond>
0.4452

> <Gold.Chemscore.Metal>
0.0000

> <Gold.Chemscore.Lipo>
105.5502

> <Gold.Chemscore.Internal_Hbond>
0.0000

> <Gold.Chemscore.DEClash>
1.3010

> <Gold.Chemscore.DEInternal>
2.4578

> <Gold.Chemscore.Rot>
3.3416

> <Gold.Chemscore.Internal.Correction>
   9.000000E+99

> <Gold.Chemscore.Hbonds>
donor molecule, donor type, donor heavy atom, donor atom, acceptor molecule, acceptor atom, score
      P1  H  6933  6945       L1    18  0.39
      P1  H 10752 10763       L1     4  0.01

> <Gold.Chemscore.Hbond.Weighted>
-1.4870

> <Gold.Chemscore.Metal.Weighted>
-0.0000

> <Gold.Chemscore.Lipo.Weighted>
-12.3494

> <Gold.Chemscore.Internal_Hbond.Weighted>
0.0000

> <Gold.Chemscore.DEClash.Weighted>
1.3010

> <Gold.Chemscore.DEInternal.Weighted>
2.4578

> <Gold.Chemscore.Rot.Weighted>
8.5545

> <Gold.Chemscore.Internal.Correction.Weighted>
   9.000000E+99

> <Gold.Protein.RotatedTorsions>
[ 6907 6896 6895 6894 ] final -112.85 input  -60.11 | X-H torsion
[ 7974 7965 7964 7962 ] final  101.24 input  175.53 | X-H torsion
[ 8008 7997 7996 7995 ] final  126.43 input   59.86 | X-H torsion
[ 10167 10162 10161 10158 ] final -107.46 input  -65.29 | X-H torsion
[ 10718 10713 10712 10709 ] final   79.68 input   66.30 | X-H torsion
[ 10763 10752 10751 10750 ] final   54.48 input  -60.55 | X-H torsion
[ 11005 11000 10999 10996 ] final -122.64 input  -57.11 | X-H torsion

> <Gold.Protein.ActiveResidues>
 VAL166  LYS551  ARG553  GLY616  TRP617  ASP618  TYR619  PRO620  LYS621  CYS622 
 ASP623  PHE694  ASN695  SER759  ASP760  ASP761  ALA762  ILE779  LEU786  VAL792 
 PHE793  MET794  SER795  GLU796  ALA797  LYS798  CYS799  TRP800  GLU811  SER814 

> <Gold.Protein.RotatedAtoms>
  150.7788  133.9029  159.3346 H   0  0  0  0  0  0  0  0  0  0  0  0  # atno 6907 bound_to 6896
  151.6897  135.0946  160.0241 H   0  0  0  0  0  0  0  0  0  0  0  0  # atno 6908 bound_to 6896
  152.3832  133.6537  159.6213 H   0  0  0  0  0  0  0  0  0  0  0  0  # atno 6909 bound_to 6896
  145.3750  139.2390  143.3434 H   0  0  0  0  0  0  0  0  0  0  0  0  # atno 7974 bound_to 7965
  156.2863  140.2693  156.2110 H   0  0  0  0  0  0  0  0  0  0  0  0  # atno 8008 bound_to 7997
  155.0264  140.0386  157.2475 H   0  0  0  0  0  0  0  0  0  0  0  0  # atno 8009 bound_to 7997
  154.7391  140.2721  155.6393 H   0  0  0  0  0  0  0  0  0  0  0  0  # atno 8010 bound_to 7997
  140.1767  143.3999  152.1313 H   0  0  0  0  0  0  0  0  0  0  0  0  # atno 10167 bound_to 10162
  157.6784  130.9925  150.1968 H   0  0  0  0  0  0  0  0  0  0  0  0  # atno 10718 bound_to 10713
  152.9805  135.5743  154.4912 H   0  0  0  0  0  0  0  0  0  0  0  0  # atno 10763 bound_to 10752
  154.4446  135.2777  155.1826 H   0  0  0  0  0  0  0  0  0  0  0  0  # atno 10764 bound_to 10752
  154.3479  135.6215  153.5682 H   0  0  0  0  0  0  0  0  0  0  0  0  # atno 10765 bound_to 10752
  140.9979  134.0444  157.3574 H   0  0  0  0  0  0  0  0  0  0  0  0  # atno 11005 bound_to 11000
  146.2868  140.4408  142.8755 LP  0  0  0  0  0  0  0  0  0  0  0  0  # atno 17320 bound_to 7965
  144.8549  140.7055  143.6144 LP  0  0  0  0  0  0  0  0  0  0  0  0  # atno 17321 bound_to 7965
  139.5314  144.7163  151.5044 LP  0  0  0  0  0  0  0  0  0  0  0  0  # atno 17342 bound_to 10162
  140.6546  143.8625  150.6822 LP  0  0  0  0  0  0  0  0  0  0  0  0  # atno 17343 bound_to 10162
  156.2668  130.3717  149.8073 LP  0  0  0  0  0  0  0  0  0  0  0  0  # atno 17370 bound_to 10713
  156.5802  130.8462  151.3381 LP  0  0  0  0  0  0  0  0  0  0  0  0  # atno 17371 bound_to 10713
  139.9024  135.0169  156.7331 LP  0  0  0  0  0  0  0  0  0  0  0  0  # atno 17394 bound_to 11000
  140.6935  133.9369  155.7981 LP  0  0  0  0  0  0  0  0  0  0  0  0  # atno 17395 bound_to 11000

$$$$
