AV-unprocessed.smi:1857|AV-procd|sdf|7541|dock1
  -GOLD-   22720 9253D 1   1.00000     0.00000
 Structure written by MMmdl.
 45 46  0  0  0  0  0  0  0  0  1 V2000
  149.5690  141.3906  157.3492 C   0  0  0  0  0  0  0  0  0  0  0  0
  149.5639  140.2284  156.3272 C   0  0  0  0  0  0  0  0  0  0  0  0
  148.7710  139.0653  156.9555 C   0  0  0  0  0  0  0  0  0  0  0  0
  148.8374  140.7709  155.0773 C   0  0  0  0  0  0  0  0  0  0  0  0
  150.9871  139.7888  156.0192 C   0  0  0  0  0  0  0  0  0  0  0  0
  151.5543  139.9062  154.8197 N   0  0  0  0  0  0  0  0  0  0  0  0
  152.8447  139.4608  154.9944 N   0  0  0  0  0  0  0  0  0  0  0  0
  153.0583  139.1237  156.2283 N   0  0  0  0  0  0  0  0  0  0  0  0
  151.8994  139.3308  156.9050 N   0  0  0  0  0  0  0  0  0  0  0  0
  151.8771  139.0638  158.3376 C   0  0  0  0  0  0  0  0  0  0  0  0
  151.9906  140.3528  159.1593 C   0  0  0  0  0  0  0  0  0  0  0  0
  151.0175  140.7853  159.7776 O   0  0  0  0  0  0  0  0  0  0  0  0
  153.1902  140.9553  159.1583 N   0  0  0  0  0  0  0  0  0  0  0  0
  153.5282  142.1801  159.8812 C   0  0  0  0  0  0  0  0  0  0  0  0
  152.8699  142.1569  161.2788 C   0  0  0  0  0  0  0  0  0  0  0  0
  152.8253  143.5092  162.0090 C   0  0  0  0  0  0  0  0  0  0  0  0
  151.5710  144.3298  161.6596 C   0  0  0  0  0  0  0  0  0  0  0  0
  151.5707  144.9436  160.2509 C   0  0  0  0  0  0  0  0  0  0  0  0
  151.7572  143.9339  159.1043 C   0  0  0  0  0  0  0  0  0  0  0  0
  153.1995  143.4082  159.0053 C   0  0  0  0  0  0  0  0  0  0  0  0
  148.5570  141.7279  157.5768 H   0  0  0  0  0  0  0  0  0  0  0  0
  150.1205  142.2529  156.9717 H   0  0  0  0  0  0  0  0  0  0  0  0
  150.0246  141.0958  158.2955 H   0  0  0  0  0  0  0  0  0  0  0  0
  149.2476  138.7146  157.8718 H   0  0  0  0  0  0  0  0  0  0  0  0
  148.6893  138.2106  156.2863 H   0  0  0  0  0  0  0  0  0  0  0  0
  147.7560  139.3708  157.2114 H   0  0  0  0  0  0  0  0  0  0  0  0
  147.8627  141.1852  155.3381 H   0  0  0  0  0  0  0  0  0  0  0  0
  148.6469  140.0091  154.3267 H   0  0  0  0  0  0  0  0  0  0  0  0
  149.4117  141.5673  154.6027 H   0  0  0  0  0  0  0  0  0  0  0  0
  150.9429  138.5511  158.5736 H   0  0  0  0  0  0  0  0  0  0  0  0
  152.6707  138.3750  158.6132 H   0  0  0  0  0  0  0  0  0  0  0  0
  153.9316  140.5279  158.6225 H   0  0  0  0  0  0  0  0  0  0  0  0
  154.6106  142.1973  160.0220 H   0  0  0  0  0  0  0  0  0  0  0  0
  151.8592  141.7510  161.2142 H   0  0  0  0  0  0  0  0  0  0  0  0
  153.4219  141.4478  161.8973 H   0  0  0  0  0  0  0  0  0  0  0  0
  152.8014  143.3115  163.0813 H   0  0  0  0  0  0  0  0  0  0  0  0
  153.7359  144.0828  161.8322 H   0  0  0  0  0  0  0  0  0  0  0  0
  150.6812  143.7127  161.7889 H   0  0  0  0  0  0  0  0  0  0  0  0
  151.4721  145.1399  162.3829 H   0  0  0  0  0  0  0  0  0  0  0  0
  150.6218  145.4614  160.1068 H   0  0  0  0  0  0  0  0  0  0  0  0
  152.3375  145.7166  160.1884 H   0  0  0  0  0  0  0  0  0  0  0  0
  151.0415  143.1142  159.1783 H   0  0  0  0  0  0  0  0  0  0  0  0
  151.5238  144.4489  158.1719 H   0  0  0  0  0  0  0  0  0  0  0  0
  153.8883  144.2174  159.2505 H   0  0  0  0  0  0  0  0  0  0  0  0
  153.4192  143.1672  157.9641 H   0  0  0  0  0  0  0  0  0  0  0  0
  1  2  1  0  0  0  0
  1 21  1  0  0  0  0
  1 22  1  0  0  0  0
  1 23  1  0  0  0  0
  2  3  1  0  0  0  0
  2  4  1  0  0  0  0
  2  5  1  0  0  0  0
  3 24  1  0  0  0  0
  3 25  1  0  0  0  0
  3 26  1  0  0  0  0
  4 27  1  0  0  0  0
  4 28  1  0  0  0  0
  4 29  1  0  0  0  0
  5  9  1  0  0  0  0
  5  6  2  0  0  0  0
  6  7  1  0  0  0  0
  7  8  2  0  0  0  0
  8  9  1  0  0  0  0
  9 10  1  0  0  0  0
 10 11  1  0  0  0  0
 10 30  1  0  0  0  0
 10 31  1  0  0  0  0
 11 12  2  0  0  0  0
 11 13  1  0  0  0  0
 13 14  1  0  0  0  0
 13 32  1  0  0  0  0
 14 20  1  0  0  0  0
 14 15  1  0  0  0  0
 14 33  1  0  0  0  0
 15 16  1  0  0  0  0
 15 34  1  0  0  0  0
 15 35  1  0  0  0  0
 16 17  1  0  0  0  0
 16 36  1  0  0  0  0
 16 37  1  0  0  0  0
 17 18  1  0  0  0  0
 17 38  1  0  0  0  0
 17 39  1  0  0  0  0
 18 19  1  0  0  0  0
 18 40  1  0  0  0  0
 18 41  1  0  0  0  0
 19 20  1  0  0  0  0
 19 42  1  0  0  0  0
 19 43  1  0  0  0  0
 20 44  1  0  0  0  0
 20 45  1  0  0  0  0
M  END
> <s_m_source_file>
AV-unprocessed.smi

> <i_m_source_file_index>
1857

> <i_lp_mmshare_version>
43012

> <i_f3d_flags>
0

> <s_epik_input>
W0NIM11DKFtDSDNdKShbQ0gzXSljMW5ubm4xW0NIMl1DKD1PKVtOSF1bQ0hdMltDSDJdW0NIMl1bQ0gyXVtDSDJdW0NIMl1bQ0gyXTI=

> <s_epik_cmdline>
J2VwaWtfcHl0aG9uJywgJy1waCcsICc3LjAnLCAnLXRuJywgJzgnLCAnLW1hJywgJzIwMCcsICctbWV0YWxfYmluZGluZycsICctaW1hZScsICc8aW5maWxlLm1hZT4nLCAnLW9tYWUnLCAnPG91dGZpbGUubWFlPic=

> <r_lp_tautomer_probability>
1

> <r_epik_Ionization_Penalty>
4.53904e-07

> <r_epik_Ionization_Penalty_Charging>
0

> <r_epik_Ionization_Penalty_Neutral>
4.53904e-07

> <r_epik_State_Penalty>
-0

> <r_epik_Charging_Adjusted_Penalty>
0

> <i_epik_Tot_Q>
0

> <i_epik_Tot_abs_Q>
0

> <r_epik_Metal_State_Penalty>
-0

> <b_epik_Metal_Only>
0

> <s_lp_Force_Field>
OPLS_2005

> <r_lp_Energy>
25.0233

> <b_lp_Chiralities_Consistent>
1

> <s_lp_Variant>
AV-unprocessed.smi:1857-1

> <Gold.Version>
5.8.1

> <Gold.Id.Protein>
6NUR|6NUR_protein|mol2

> <Gold.PLP.Fitness>
45.5151

> <Gold.PLP.PLP>
-41.7548

> <Gold.PLP.part.hbond>
-3.9614

> <Gold.PLP.part.metal>
0.0000

> <Gold.PLP.part.buried>
-2.2054

> <Gold.PLP.part.nonpolar>
-36.0787

> <Gold.PLP.part.repulsive>
0.1681

> <Gold.PLP.ligand.clash>
0.0000

> <Gold.PLP.ligand.torsion>
0.7339

> <Gold.PLP.Chemscore.Hbond>
1.7056

> <Gold.PLP.Chemscore.CHOScore>
0.0000

> <Gold.PLP.Chemscore.Metal>
0.0000

> <Gold.Chemscore.Hbonds>
donor molecule, donor type, donor heavy atom, donor atom, acceptor molecule, acceptor atom, score
      P1  H  7989  7998       L1     6  1.00
      P1  H  7997  8009       L1     8  0.86

> <Gold.PLP.Chemscore.Internal.Correction>
0.1113

> <Gold.Rescore>
     Score         DG    S(hbond)    S(metal)    S(lipo)     H(rot)  DE(clash)    DE(int)     intcor
     15.14     -17.80       1.18        0.00     105.60       1.55       0.67       1.99       ----

> <Gold.Chemscore.Fitness>
15.1380

> <Gold.Chemscore.DG>
-17.7987

> <Gold.Chemscore.ZeroCoef>
-5.4800

> <Gold.Chemscore.Hbond>
1.1786

> <Gold.Chemscore.Metal>
0.0000

> <Gold.Chemscore.Lipo>
105.6006

> <Gold.Chemscore.Internal_Hbond>
0.0000

> <Gold.Chemscore.DEClash>
0.6689

> <Gold.Chemscore.DEInternal>
1.9917

> <Gold.Chemscore.Rot>
1.5520

> <Gold.Chemscore.Internal.Correction>
   9.000000E+99

> <Gold.Chemscore.Hbonds>
donor molecule, donor type, donor heavy atom, donor atom, acceptor molecule, acceptor atom, score
      P1  H  7989  7998       L1     6  0.39
      P1  H  7997  8009       L1     8  0.40

> <Gold.Chemscore.Hbond.Weighted>
-3.9365

> <Gold.Chemscore.Metal.Weighted>
-0.0000

> <Gold.Chemscore.Lipo.Weighted>
-12.3553

> <Gold.Chemscore.Internal_Hbond.Weighted>
0.0000

> <Gold.Chemscore.DEClash.Weighted>
0.6689

> <Gold.Chemscore.DEInternal.Weighted>
1.9917

> <Gold.Chemscore.Rot.Weighted>
3.9731

> <Gold.Chemscore.Internal.Correction.Weighted>
   9.000000E+99

> <Gold.Protein.RotatedTorsions>
[ 6907 6896 6895 6894 ] final  129.55 input  -60.11 | X-H torsion
[ 7974 7965 7964 7962 ] final   50.37 input  175.53 | X-H torsion
[ 8008 7997 7996 7995 ] final  172.03 input   59.86 | X-H torsion
[ 10167 10162 10161 10158 ] final  125.48 input  -65.29 | X-H torsion
[ 10718 10713 10712 10709 ] final -159.45 input   66.30 | X-H torsion
[ 10763 10752 10751 10750 ] final -114.25 input  -60.55 | X-H torsion
[ 11005 11000 10999 10996 ] final   43.61 input  -57.11 | X-H torsion

> <Gold.Protein.ActiveResidues>
 VAL166  LYS551  ARG553  GLY616  TRP617  ASP618  TYR619  PRO620  LYS621  CYS622 
 ASP623  PHE694  ASN695  SER759  ASP760  ASP761  ALA762  ILE779  LEU786  VAL792 
 PHE793  MET794  SER795  GLU796  ALA797  LYS798  CYS799  TRP800  GLU811  SER814 

> <Gold.Protein.RotatedAtoms>
  152.3613  133.6301  159.6017 H   0  0  0  0  0  0  0  0  0  0  0  0  # atno 6907 bound_to 6896
  150.7603  133.9418  159.3467 H   0  0  0  0  0  0  0  0  0  0  0  0  # atno 6908 bound_to 6896
  151.7256  135.0886  160.0342 H   0  0  0  0  0  0  0  0  0  0  0  0  # atno 6909 bound_to 6896
  146.0018  139.4448  143.0010 H   0  0  0  0  0  0  0  0  0  0  0  0  # atno 7974 bound_to 7965
  156.1214  140.1496  156.9199 H   0  0  0  0  0  0  0  0  0  0  0  0  # atno 8008 bound_to 7997
  154.4838  140.0871  156.7481 H   0  0  0  0  0  0  0  0  0  0  0  0  # atno 8009 bound_to 7997
  155.4422  140.3431  155.4293 H   0  0  0  0  0  0  0  0  0  0  0  0  # atno 8010 bound_to 7997
  139.5683  144.6924  151.3849 H   0  0  0  0  0  0  0  0  0  0  0  0  # atno 10167 bound_to 10162
  156.5683  130.8677  151.2830 H   0  0  0  0  0  0  0  0  0  0  0  0  # atno 10718 bound_to 10713
  154.8432  135.4424  154.1477 H   0  0  0  0  0  0  0  0  0  0  0  0  # atno 10763 bound_to 10752
  153.2645  135.6939  153.7550 H   0  0  0  0  0  0  0  0  0  0  0  0  # atno 10764 bound_to 10752
  153.6813  135.3402  155.3154 H   0  0  0  0  0  0  0  0  0  0  0  0  # atno 10765 bound_to 10752
  140.1629  134.4319  155.8306 H   0  0  0  0  0  0  0  0  0  0  0  0  # atno 11005 bound_to 11000
  145.7475  140.9985  143.1268 LP  0  0  0  0  0  0  0  0  0  0  0  0  # atno 17320 bound_to 7965
  144.6922  139.9174  143.7466 LP  0  0  0  0  0  0  0  0  0  0  0  0  # atno 17321 bound_to 7965
  140.6967  143.7731  150.7338 LP  0  0  0  0  0  0  0  0  0  0  0  0  # atno 17342 bound_to 10162
  140.1230  143.4595  152.2301 LP  0  0  0  0  0  0  0  0  0  0  0  0  # atno 17343 bound_to 10162
  157.7354  130.9761  150.2078 LP  0  0  0  0  0  0  0  0  0  0  0  0  # atno 17370 bound_to 10713
  156.2738  130.3725  149.8005 LP  0  0  0  0  0  0  0  0  0  0  0  0  # atno 17371 bound_to 10713
  141.2211  133.6921  156.7626 LP  0  0  0  0  0  0  0  0  0  0  0  0  # atno 17394 bound_to 11000
  140.2468  134.8571  157.3628 LP  0  0  0  0  0  0  0  0  0  0  0  0  # atno 17395 bound_to 11000

$$$$
