AV-unprocessed.smi:44|AV-procd|sdf|403|dock8
  -GOLD-   2262016253D 1   1.00000     0.00000
 Structure written by MMmdl.
 28 30  0  0  0  0  0  0  0  0  2 V2000
  153.5676  138.7275  154.9451 O   0  0  0  0  0  0  0  0  0  0  0  0
  152.3567  138.5149  154.9298 C   0  0  0  0  0  0  0  0  0  0  0  0
  151.7695  137.2967  154.7038 N   0  5  0  0  0  0  0  0  0  0  0  0
  150.3802  137.1890  154.7108 C   0  0  0  0  0  0  0  0  0  0  0  0
  149.5183  138.1267  154.9135 N   0  0  0  0  0  0  0  0  0  0  0  0
  150.0840  139.3631  155.1465 C   0  0  0  0  0  0  0  0  0  0  0  0
  151.4221  139.6498  155.1736 C   0  0  0  0  0  0  0  0  0  0  0  0
  151.6423  140.9968  155.4325 N   0  0  0  0  0  0  0  0  0  0  0  0
  150.3997  141.4647  155.5522 C   0  0  0  0  0  0  0  0  0  0  0  0
  149.4150  140.5528  155.4038 N   0  0  0  0  0  0  0  0  0  0  0  0
  147.9323  140.7536  155.4793 C   0  0  1  0  0  0  0  0  0  0  0  0
  147.5227  141.9052  154.5605 C   0  0  0  0  0  0  0  0  0  0  0  0
  147.3140  141.1775  153.2516 C   0  0  0  0  0  0  0  0  0  0  0  0
  146.6721  139.8756  153.7309 C   0  0  1  0  0  0  0  0  0  0  0  0
  146.8602  138.7060  152.7530 C   0  0  0  0  0  0  0  0  0  0  0  0
  146.0927  138.9204  151.5885 O   0  0  0  0  0  0  0  0  0  0  0  0
  147.3074  139.6040  154.9826 O   0  0  0  0  0  0  0  0  0  0  0  0
  147.7280  140.9198  156.5375 H   0  0  0  0  0  0  0  0  0  0  0  0
  145.6116  140.0602  153.9133 H   0  0  0  0  0  0  0  0  0  0  0  0
  150.0517  136.1651  154.5158 H   0  0  0  0  0  0  0  0  0  0  0  0
  150.2059  142.5065  155.7547 H   0  0  0  0  0  0  0  0  0  0  0  0
  146.5845  142.3276  154.9226 H   0  0  0  0  0  0  0  0  0  0  0  0
  148.2754  142.6935  154.5187 H   0  0  0  0  0  0  0  0  0  0  0  0
  146.6857  141.7288  152.5518 H   0  0  0  0  0  0  0  0  0  0  0  0
  148.2741  140.9849  152.7700 H   0  0  0  0  0  0  0  0  0  0  0  0
  147.9047  138.6408  152.4465 H   0  0  0  0  0  0  0  0  0  0  0  0
  146.5985  137.7523  153.2105 H   0  0  0  0  0  0  0  0  0  0  0  0
  145.2912  139.3574  151.8326 H   0  0  0  0  0  0  0  0  0  0  0  0
  1  2  2  0  0  0  0
  2  7  1  0  0  0  0
  2  3  1  0  0  0  0
  3  4  1  0  0  0  0
  4  5  2  0  0  0  0
  4 20  1  0  0  0  0
  5  6  1  0  0  0  0
  6 10  1  0  0  0  0
  6  7  2  0  0  0  0
  7  8  1  0  0  0  0
  8  9  2  0  0  0  0
  9 10  1  0  0  0  0
  9 21  1  0  0  0  0
 10 11  1  0  0  0  0
 11 18  1  0  0  0  0
 11 17  1  0  0  0  0
 11 12  1  0  0  0  0
 12 13  1  0  0  0  0
 12 22  1  0  0  0  0
 12 23  1  0  0  0  0
 13 14  1  0  0  0  0
 13 24  1  0  0  0  0
 13 25  1  0  0  0  0
 14 19  1  0  0  0  0
 14 15  1  0  0  0  0
 14 17  1  0  0  0  0
 15 16  1  0  0  0  0
 15 26  1  0  0  0  0
 15 27  1  0  0  0  0
 16 28  1  0  0  0  0
M  CHG  1   3  -1
M  END
> <s_m_source_file>
AV-unprocessed.smi

> <i_m_source_file_index>
44

> <i_lp_mmshare_version>
43012

> <i_f3d_flags>
0

> <s_epik_input>
bjFbY0hdW25IXWMoPU8pYyhjMTIpbltjSF1uMltDQEhdM1tDSDJdW0NIMl1bQ0BIXShPMylbQ0gyXVtPSF0=

> <s_epik_cmdline>
J2VwaWtfcHl0aG9uJywgJy1waCcsICc3LjAnLCAnLXRuJywgJzgnLCAnLW1hJywgJzIwMCcsICctbWV0YWxfYmluZGluZycsICctaW1hZScsICc8aW5maWxlLm1hZT4nLCAnLW9tYWUnLCAnPG91dGZpbGUubWFlPic=

> <r_lp_tautomer_probability>
0.85571

> <r_epik_Ionization_Penalty>
2.55863

> <r_epik_Ionization_Penalty_Charging>
1.36424e-10

> <r_epik_Ionization_Penalty_Neutral>
2.55863

> <r_epik_State_Penalty>
2.63326

> <r_epik_Charging_Adjusted_Penalty>
2.63326

> <i_epik_Tot_Q>
-1

> <i_epik_Tot_abs_Q>
1

> <r_epik_Metal_State_Penalty>
0.475154

> <b_epik_Metal_Only>
1

> <s_epik_Chemistry_Notes>
This compound contains an acetal/aminal-like group ( X-CH(R)-Y where X, Y are N, S, or O) that may be acid/base labile, releasing an aldehyde.

> <s_lp_Force_Field>
OPLS_2005

> <r_lp_Energy>
44.8595

> <b_lp_Chiralities_Consistent>
1

> <s_lp_Variant>
AV-unprocessed.smi:44-9

> <Gold.Version>
5.8.1

> <Gold.Id.Protein>
6NUR|6NUR_protein|mol2

> <Gold.PLP.Fitness>
43.4904

> <Gold.PLP.PLP>
-28.3699

> <Gold.PLP.part.hbond>
-5.0000

> <Gold.PLP.part.metal>
0.0000

> <Gold.PLP.part.buried>
-1.1458

> <Gold.PLP.part.nonpolar>
-23.0031

> <Gold.PLP.part.repulsive>
0.3978

> <Gold.PLP.ligand.clash>
0.0000

> <Gold.PLP.ligand.torsion>
0.2340

> <Gold.PLP.Chemscore.Hbond>
3.9585

> <Gold.PLP.Chemscore.CHOScore>
1.2311

> <Gold.PLP.Chemscore.Metal>
0.0000

> <Gold.Chemscore.Hbonds>
donor molecule, donor type, donor heavy atom, donor atom, acceptor molecule, acceptor atom, score
      L1  H    16    28       P1 10175  0.98
      P1  H  7997  8010       L1     1  0.96
      P1  H 10752 10764       L1     3  1.95
      L1  C     4    20       P1  7948  0.12
      L1  C     9    21       P1  8028  0.88

> <Gold.PLP.Chemscore.Internal.Correction>
0.0196

> <Gold.Rescore>
     Score         DG    S(hbond)    S(metal)    S(lipo)     H(rot)  DE(clash)    DE(int)     intcor
     10.57     -12.55       2.68        0.00      33.46       2.26       0.00       1.98       ----

> <Gold.Chemscore.Fitness>
10.5703

> <Gold.Chemscore.DG>
-12.5500

> <Gold.Chemscore.ZeroCoef>
-5.4800

> <Gold.Chemscore.Hbond>
2.6761

> <Gold.Chemscore.Metal>
0.0000

> <Gold.Chemscore.Lipo>
33.4562

> <Gold.Chemscore.Internal_Hbond>
0.0000

> <Gold.Chemscore.DEClash>
0.0038

> <Gold.Chemscore.DEInternal>
1.9759

> <Gold.Chemscore.Rot>
2.2588

> <Gold.Chemscore.Internal.Correction>
   9.000000E+99

> <Gold.Chemscore.Hbonds>
donor molecule, donor type, donor heavy atom, donor atom, acceptor molecule, acceptor atom, score
      L1  H    16    28       P1 10175  0.85
      P1  H  7997  8010       L1     1  0.91
      P1  H 10752 10764       L1     3  0.83

> <Gold.Chemscore.Hbond.Weighted>
-8.9381

> <Gold.Chemscore.Metal.Weighted>
-0.0000

> <Gold.Chemscore.Lipo.Weighted>
-3.9144

> <Gold.Chemscore.Internal_Hbond.Weighted>
0.0000

> <Gold.Chemscore.DEClash.Weighted>
0.0038

> <Gold.Chemscore.DEInternal.Weighted>
1.9759

> <Gold.Chemscore.Rot.Weighted>
5.7825

> <Gold.Chemscore.Internal.Correction.Weighted>
   9.000000E+99

> <Gold.Protein.RotatedTorsions>
[ 6907 6896 6895 6894 ] final   70.66 input  -60.11 | X-H torsion
[ 7974 7965 7964 7962 ] final  128.81 input  175.53 | X-H torsion
[ 8008 7997 7996 7995 ] final  103.58 input   59.86 | X-H torsion
[ 10167 10162 10161 10158 ] final  168.11 input  -65.29 | X-H torsion
[ 10718 10713 10712 10709 ] final -122.62 input   66.30 | X-H torsion
[ 10763 10752 10751 10750 ] final  -70.54 input  -60.55 | X-H torsion
[ 11005 11000 10999 10996 ] final -160.39 input  -57.11 | X-H torsion

> <Gold.Protein.ActiveResidues>
 VAL166  LYS551  ARG553  GLY616  TRP617  ASP618  TYR619  PRO620  LYS621  CYS622 
 ASP623  PHE694  ASN695  SER759  ASP760  ASP761  ALA762  ILE779  LEU786  VAL792 
 PHE793  MET794  SER795  GLU796  ALA797  LYS798  CYS799  TRP800  GLU811  SER814 

> <Gold.Protein.RotatedAtoms>
  152.4763  134.4835  159.9672 H   0  0  0  0  0  0  0  0  0  0  0  0  # atno 6907 bound_to 6896
  151.4850  133.3532  159.2852 H   0  0  0  0  0  0  0  0  0  0  0  0  # atno 6908 bound_to 6896
  150.8804  134.8221  159.7282 H   0  0  0  0  0  0  0  0  0  0  0  0  # atno 6909 bound_to 6896
  145.0355  139.4008  143.5128 H   0  0  0  0  0  0  0  0  0  0  0  0  # atno 7974 bound_to 7965
  156.1496  140.3162  155.8627 H   0  0  0  0  0  0  0  0  0  0  0  0  # atno 8008 bound_to 7997
  155.3996  140.0499  157.3054 H   0  0  0  0  0  0  0  0  0  0  0  0  # atno 8009 bound_to 7997
  154.5047  140.2142  155.9287 H   0  0  0  0  0  0  0  0  0  0  0  0  # atno 8010 bound_to 7997
  139.4960  144.3850  151.9580 H   0  0  0  0  0  0  0  0  0  0  0  0  # atno 10167 bound_to 10162
  156.1434  130.6482  150.9805 H   0  0  0  0  0  0  0  0  0  0  0  0  # atno 10718 bound_to 10713
  154.4191  135.5991  153.5999 H   0  0  0  0  0  0  0  0  0  0  0  0  # atno 10763 bound_to 10752
  152.9793  135.5948  154.3977 H   0  0  0  0  0  0  0  0  0  0  0  0  # atno 10764 bound_to 10752
  154.3800  135.2841  155.2195 H   0  0  0  0  0  0  0  0  0  0  0  0  # atno 10765 bound_to 10752
  140.6320  134.4641  157.5230 H   0  0  0  0  0  0  0  0  0  0  0  0  # atno 11005 bound_to 11000
  146.3503  139.9928  142.8684 LP  0  0  0  0  0  0  0  0  0  0  0  0  # atno 17320 bound_to 7965
  145.1715  140.9723  143.4319 LP  0  0  0  0  0  0  0  0  0  0  0  0  # atno 17321 bound_to 7965
  140.3287  144.3342  150.5992 LP  0  0  0  0  0  0  0  0  0  0  0  0  # atno 17342 bound_to 10162
  140.5663  143.2186  151.7678 LP  0  0  0  0  0  0  0  0  0  0  0  0  # atno 17343 bound_to 10162
  157.6595  131.0883  150.7870 LP  0  0  0  0  0  0  0  0  0  0  0  0  # atno 17370 bound_to 10713
  156.7944  130.4900  149.5379 LP  0  0  0  0  0  0  0  0  0  0  0  0  # atno 17371 bound_to 10713
  139.9112  134.8340  156.1521 LP  0  0  0  0  0  0  0  0  0  0  0  0  # atno 17394 bound_to 11000
  141.0668  133.6815  156.2061 LP  0  0  0  0  0  0  0  0  0  0  0  0  # atno 17395 bound_to 11000

$$$$
