AV-unprocessed.smi:1540|AV-procd|sdf|6201|dock7
  -GOLD-   22720 6373D 1   1.00000     0.00000
 Structure written by MMmdl.
 32 32  0  0  0  0  0  0  0  0  2 V2000
  155.6443  142.4189  166.9123 C   0  0  0  0  0  0  0  0  0  0  0  0
  155.9096  141.1041  166.9350 C   0  0  0  0  0  0  0  0  0  0  0  0
  156.6100  140.3503  165.8262 C   0  0  0  0  0  0  0  0  0  0  0  0
  155.8446  140.4147  164.6292 O   0  0  0  0  0  0  0  0  0  0  0  0
  156.1793  139.4484  163.6356 C   0  0  1  0  0  0  0  0  0  0  0  0
  156.2261  138.0756  164.3234 C   0  0  0  0  0  0  0  0  0  0  0  0
  155.1458  139.4692  162.4974 C   0  0  0  0  0  0  0  0  0  0  0  0
  154.4832  138.4580  162.2666 O   0  0  0  0  0  0  0  0  0  0  0  0
  155.0525  140.6347  161.8272 N   0  0  0  0  0  0  0  0  0  0  0  0
  154.2105  141.0000  160.7622 C   0  0  0  0  0  0  0  0  0  0  0  0
  153.5712  142.1968  160.6432 C   0  0  0  0  0  0  0  0  0  0  0  0
  152.7134  142.5143  159.5084 C   0  0  0  0  0  0  0  0  0  0  0  0
  152.0483  143.8647  159.3088 C   0  0  0  0  0  0  0  0  0  0  0  0
  152.2785  144.6723  160.3443 F   0  0  0  0  0  0  0  0  0  0  0  0
  152.5278  144.4485  158.2116 F   0  0  0  0  0  0  0  0  0  0  0  0
  150.7297  143.7304  159.1651 F   0  0  0  0  0  0  0  0  0  0  0  0
  152.6626  141.4876  158.5858 C   0  0  0  0  0  0  0  0  0  0  0  0
  153.2560  140.2750  158.6299 N   0  5  0  0  0  0  0  0  0  0  0  0
  154.0487  139.9854  159.6999 C   0  0  0  0  0  0  0  0  0  0  0  0
  154.6278  138.9029  159.7976 O   0  0  0  0  0  0  0  0  0  0  0  0
  155.9267  143.0346  166.0709 H   0  0  0  0  0  0  0  0  0  0  0  0
  155.1400  142.8971  167.7391 H   0  0  0  0  0  0  0  0  0  0  0  0
  155.6126  140.5198  167.7937 H   0  0  0  0  0  0  0  0  0  0  0  0
  157.5965  140.7928  165.6864 H   0  0  0  0  0  0  0  0  0  0  0  0
  156.7540  139.3102  166.1235 H   0  0  0  0  0  0  0  0  0  0  0  0
  157.1738  139.6656  163.2404 H   0  0  0  0  0  0  0  0  0  0  0  0
  156.4660  137.2842  163.6122 H   0  0  0  0  0  0  0  0  0  0  0  0
  155.2731  137.8283  164.7927 H   0  0  0  0  0  0  0  0  0  0  0  0
  156.9891  138.0599  165.1020 H   0  0  0  0  0  0  0  0  0  0  0  0
  155.6995  141.3582  162.1057 H   0  0  0  0  0  0  0  0  0  0  0  0
  153.6854  142.9657  161.3882 H   0  0  0  0  0  0  0  0  0  0  0  0
  152.0572  141.6695  157.6722 H   0  0  0  0  0  0  0  0  0  0  0  0
  1  2  2  0  0  0  0
  1 21  1  0  0  0  0
  1 22  1  0  0  0  0
  2  3  1  0  0  0  0
  2 23  1  0  0  0  0
  3  4  1  0  0  0  0
  3 24  1  0  0  0  0
  3 25  1  0  0  0  0
  4  5  1  0  0  0  0
  5  6  1  0  0  0  0
  5  7  1  0  0  0  0
  5 26  1  0  0  0  0
  6 27  1  0  0  0  0
  6 28  1  0  0  0  0
  6 29  1  0  0  0  0
  7  8  2  0  0  0  0
  7  9  1  0  0  0  0
  9 10  1  0  0  0  0
  9 30  1  0  0  0  0
 10 19  1  0  0  0  0
 10 11  2  0  0  0  0
 11 12  1  0  0  0  0
 11 31  1  0  0  0  0
 12 13  1  0  0  0  0
 12 17  2  0  0  0  0
 13 14  1  0  0  0  0
 13 15  1  0  0  0  0
 13 16  1  0  0  0  0
 17 18  1  0  0  0  0
 17 32  1  0  0  0  0
 18 19  1  0  0  0  0
 19 20  2  0  0  0  0
M  CHG  1  18  -1
M  END
> <s_m_source_file>
AV-unprocessed.smi

> <i_m_source_file_index>
1540

> <i_lp_mmshare_version>
43012

> <i_f3d_flags>
0

> <s_epik_input>
W0NIMl09W0NIXVtDSDJdT1tDQEhdKFtDSDNdKUMoPU8pW05IXWMxW2NIXWMoQyhGKShGKUYpW2NIXVtuSF1jMT1P

> <s_epik_cmdline>
J2VwaWtfcHl0aG9uJywgJy1waCcsICc3LjAnLCAnLXRuJywgJzgnLCAnLW1hJywgJzIwMCcsICctbWV0YWxfYmluZGluZycsICctaW1hZScsICc8aW5maWxlLm1hZT4nLCAnLW9tYWUnLCAnPG91dGZpbGUubWFlPic=

> <r_epik_Ionization_Penalty>
2.56803

> <r_epik_Ionization_Penalty_Charging>
0.0609694

> <r_epik_Ionization_Penalty_Neutral>
2.50706

> <r_epik_State_Penalty>
2.67253

> <r_epik_Charging_Adjusted_Penalty>
2.7335

> <i_epik_Tot_Q>
-1

> <i_epik_Tot_abs_Q>
1

> <r_epik_Metal_State_Penalty>
0.517713

> <b_epik_Metal_Only>
0

> <s_lp_Force_Field>
OPLS_2005

> <r_lp_Energy>
20.9633

> <b_lp_Chiralities_Consistent>
1

> <s_lp_Variant>
AV-unprocessed.smi:1540-4

> <Gold.Version>
5.8.1

> <Gold.Id.Protein>
6NUR|6NUR_protein|mol2

> <Gold.PLP.Fitness>
45.9807

> <Gold.PLP.PLP>
-41.9681

> <Gold.PLP.part.hbond>
-2.0000

> <Gold.PLP.part.metal>
0.0000

> <Gold.PLP.part.buried>
-5.0775

> <Gold.PLP.part.nonpolar>
-33.7458

> <Gold.PLP.part.repulsive>
0.0000

> <Gold.PLP.ligand.clash>
0.0000

> <Gold.PLP.ligand.torsion>
0.5031

> <Gold.PLP.Chemscore.Hbond>
1.6320

> <Gold.PLP.Chemscore.CHOScore>
0.0000

> <Gold.PLP.Chemscore.Metal>
0.0000

> <Gold.Chemscore.Hbonds>
donor molecule, donor type, donor heavy atom, donor atom, acceptor molecule, acceptor atom, score
      P1  H  7997  8010       L1    18  0.66

> <Gold.PLP.Chemscore.Internal.Correction>
0.1227

> <Gold.Rescore>
     Score         DG    S(hbond)    S(metal)    S(lipo)     H(rot)  DE(clash)    DE(int)     intcor
      7.61     -10.83       0.38        0.00      73.78       1.77       0.01       3.21       ----

> <Gold.Chemscore.Fitness>
7.6112

> <Gold.Chemscore.DG>
-10.8282

> <Gold.Chemscore.ZeroCoef>
-5.4800

> <Gold.Chemscore.Hbond>
0.3771

> <Gold.Chemscore.Metal>
0.0000

> <Gold.Chemscore.Lipo>
73.7812

> <Gold.Chemscore.Internal_Hbond>
0.0000

> <Gold.Chemscore.DEClash>
0.0060

> <Gold.Chemscore.DEInternal>
3.2110

> <Gold.Chemscore.Rot>
1.7750

> <Gold.Chemscore.Internal.Correction>
   9.000000E+99

> <Gold.Chemscore.Hbonds>
donor molecule, donor type, donor heavy atom, donor atom, acceptor molecule, acceptor atom, score
      P1  H  7997  8010       L1    18  0.02

> <Gold.Chemscore.Hbond.Weighted>
-1.2597

> <Gold.Chemscore.Metal.Weighted>
-0.0000

> <Gold.Chemscore.Lipo.Weighted>
-8.6324

> <Gold.Chemscore.Internal_Hbond.Weighted>
0.0000

> <Gold.Chemscore.DEClash.Weighted>
0.0060

> <Gold.Chemscore.DEInternal.Weighted>
3.2110

> <Gold.Chemscore.Rot.Weighted>
4.5439

> <Gold.Chemscore.Internal.Correction.Weighted>
   9.000000E+99

> <Gold.Protein.RotatedTorsions>
[ 6907 6896 6895 6894 ] final -100.70 input  -60.11 | X-H torsion
[ 7974 7965 7964 7962 ] final  135.25 input  175.53 | X-H torsion
[ 8008 7997 7996 7995 ] final   12.11 input   59.86 | X-H torsion
[ 10167 10162 10161 10158 ] final -142.25 input  -65.29 | X-H torsion
[ 10718 10713 10712 10709 ] final -171.88 input   66.30 | X-H torsion
[ 10763 10752 10751 10750 ] final   94.88 input  -60.55 | X-H torsion
[ 11005 11000 10999 10996 ] final  177.40 input  -57.11 | X-H torsion

> <Gold.Protein.ActiveResidues>
 VAL166  LYS551  ARG553  GLY616  TRP617  ASP618  TYR619  PRO620  LYS621  CYS622 
 ASP623  PHE694  ASN695  SER759  ASP760  ASP761  ALA762  ILE779  LEU786  VAL792 
 PHE793  MET794  SER795  GLU796  ALA797  LYS798  CYS799  TRP800  GLU811  SER814 

> <Gold.Protein.RotatedAtoms>
  150.7126  134.0846  159.3909 H   0  0  0  0  0  0  0  0  0  0  0  0  # atno 6907 bound_to 6896
  151.8831  135.0443  160.0500 H   0  0  0  0  0  0  0  0  0  0  0  0  # atno 6908 bound_to 6896
  152.2552  133.5213  159.5385 H   0  0  0  0  0  0  0  0  0  0  0  0  # atno 6909 bound_to 6896
  144.9682  139.4635  143.5446 H   0  0  0  0  0  0  0  0  0  0  0  0  # atno 7974 bound_to 7965
  154.8161  140.2876  155.5819 H   0  0  0  0  0  0  0  0  0  0  0  0  # atno 8008 bound_to 7997
  156.2993  140.2559  156.2989 H   0  0  0  0  0  0  0  0  0  0  0  0  # atno 8009 bound_to 7997
  154.9392  140.0381  157.2077 H   0  0  0  0  0  0  0  0  0  0  0  0  # atno 8010 bound_to 7997
  139.8106  143.7708  152.2663 H   0  0  0  0  0  0  0  0  0  0  0  0  # atno 10167 bound_to 10162
  156.7473  130.9365  151.3113 H   0  0  0  0  0  0  0  0  0  0  0  0  # atno 10718 bound_to 10713
  153.2468  135.4274  155.0755 H   0  0  0  0  0  0  0  0  0  0  0  0  # atno 10763 bound_to 10752
  154.8364  135.3416  154.6570 H   0  0  0  0  0  0  0  0  0  0  0  0  # atno 10764 bound_to 10752
  153.6993  135.7029  153.5124 H   0  0  0  0  0  0  0  0  0  0  0  0  # atno 10765 bound_to 10752
  140.3837  134.6924  157.4466 H   0  0  0  0  0  0  0  0  0  0  0  0  # atno 11005 bound_to 11000
  146.3374  139.8877  142.8814 LP  0  0  0  0  0  0  0  0  0  0  0  0  # atno 17320 bound_to 7965
  145.2598  141.0073  143.3833 LP  0  0  0  0  0  0  0  0  0  0  0  0  # atno 17321 bound_to 7965
  139.7856  144.7429  151.0027 LP  0  0  0  0  0  0  0  0  0  0  0  0  # atno 17342 bound_to 10162
  140.7818  143.4496  151.0432 LP  0  0  0  0  0  0  0  0  0  0  0  0  # atno 17343 bound_to 10162
  157.6792  130.9124  150.0225 LP  0  0  0  0  0  0  0  0  0  0  0  0  # atno 17370 bound_to 10713
  156.1424  130.3642  149.9561 LP  0  0  0  0  0  0  0  0  0  0  0  0  # atno 17371 bound_to 10713
  140.0459  134.6200  155.8921 LP  0  0  0  0  0  0  0  0  0  0  0  0  # atno 17394 bound_to 11000
  141.1915  133.6572  156.5458 LP  0  0  0  0  0  0  0  0  0  0  0  0  # atno 17395 bound_to 11000

$$$$
