#       Name:                AV-unprocessed.smi:2678
#       Creating user name   scv26
#       Creation time:       Fri Mar 27 14:39:41 2020


#       File generated by GOLD software.
#

@<TRIPOS>MOLECULE
AV-unprocessed.smi:2678
    51    52     1
SMALL
NO_CHARGES


@<TRIPOS>ATOM
      1 ****         9.7801   4.5925  -3.2798 C.3            1 S1                 0.0000
      2 ****         9.2323   3.6096  -2.2367 C.3            1 S1                 0.0000
      3 ****         9.7186   2.1752  -2.4993 C.3            1 S1                 0.0000
      4 ****         7.7733   3.6632  -2.2389 N.am           1 S1                 0.0000
      5 ****         6.9806   3.3652  -1.1970 C.2            1 S1                 0.0000
      6 ****         7.4118   3.0085  -0.0999 O.2            1 S1                 0.0000
      7 ****         5.4690   3.4828  -1.4329 C.3            1 S1                 0.0000
      8 ****         4.8295   4.4982  -0.4627 C.3            1 S1                 0.0000
      9 ****         3.3128   4.6049  -0.6879 C.3            1 S1                 0.0000
     10 ****         2.6324   3.2315  -0.5714 C.3            1 S1                 0.0000
     11 ****         3.2624   2.2101  -1.5361 C.3            1 S1                 0.0000
     12 ****         2.6162   0.9072  -1.3622 N.am           1 S1                 0.0000
     13 ****         2.5630  -0.1211  -2.2290 C.2            1 S1                 0.0000
     14 ****         3.0841  -0.0432  -3.3394 O.2            1 S1                 0.0000
     15 ****         1.8878  -1.1933  -1.7705 N.am           1 S1                 0.0000
     16 ****         1.5971  -2.4158  -2.4325 C.ar           1 S1                 0.0000
     17 ****         2.3309  -2.9248  -3.5310 C.ar           1 S1                 0.0000
     18 ****         1.9478  -4.1599  -4.0889 C.ar           1 S1                 0.0000
     19 ****         0.8529  -4.8433  -3.5249 C.ar           1 S1                 0.0000
     20 ****         0.1539  -4.3764  -2.4689 N.ar           1 S1                 0.0000
     21 ****         0.5269  -3.1919  -1.9394 C.ar           1 S1                 0.0000
     22 ****         4.7836   2.1078  -1.2934 C.3            1 S1                 0.0000
     23 ****        10.8703   4.6056  -3.2702 H              1 S1                 0.0000
     24 ****         9.4377   5.6086  -3.0805 H              1 S1                 0.0000
     25 ****         9.4603   4.3236  -4.2873 H              1 S1                 0.0000
     26 ****         9.5975   3.9271  -1.2584 H              1 S1                 0.0000
     27 ****        10.8077   2.1245  -2.4921 H              1 S1                 0.0000
     28 ****         9.3758   1.8104  -3.4682 H              1 S1                 0.0000
     29 ****         9.3547   1.4867  -1.7361 H              1 S1                 0.0000
     30 ****         7.3313   3.9480  -3.1010 H              1 S1                 0.0000
     31 ****         5.3087   3.8401  -2.4520 H              1 S1                 0.0000
     32 ****         5.0178   4.2032   0.5710 H              1 S1                 0.0000
     33 ****         5.2869   5.4801  -0.5915 H              1 S1                 0.0000
     34 ****         2.8778   5.2967   0.0340 H              1 S1                 0.0000
     35 ****         3.1185   5.0260  -1.6750 H              1 S1                 0.0000
     36 ****         2.7165   2.8728   0.4557 H              1 S1                 0.0000
     37 ****         1.5661   3.3329  -0.7771 H              1 S1                 0.0000
     38 ****         3.0855   2.5660  -2.5527 H              1 S1                 0.0000
     39 ****         2.1490   0.7684  -0.4776 H              1 S1                 0.0000
     40 ****         1.4625  -1.0846  -0.8614 H              1 S1                 0.0000
     41 ****         3.1808  -2.4060  -3.9457 H              1 S1                 0.0000
     42 ****         2.4844  -4.5760  -4.9286 H              1 S1                 0.0000
     43 ****         0.5335  -5.7927  -3.9286 H              1 S1                 0.0000
     44 ****        -0.0533  -2.8500  -1.0945 H              1 S1                 0.0000
     45 ****         5.2306   1.4043  -1.9973 H              1 S1                 0.0000
     46 ****         4.9653   1.6991  -0.2977 H              1 S1                 0.0000
     47 ****         8.3976   2.9289   0.0481 LP             1 S1                 0.0000
     48 ****         6.7762   2.7985   0.6430 LP             1 S1                 0.0000
     49 ****         3.5577   0.7943  -3.6119 LP             1 S1                 0.0000
     50 ****         3.0346  -0.8174  -3.9704 LP             1 S1                 0.0000
     51 ****        -0.6155  -4.8913  -2.0909 LP             1 S1                 0.0000
@<TRIPOS>BOND
    1    1    2 1     
    2    1   23 1     
    3    1   24 1     
    4    1   25 1     
    5    2    3 1     
    6    2    4 1     
    7    2   26 1     
    8    3   27 1     
    9    3   28 1     
   10    3   29 1     
   11    4    5 am    
   12    4   30 1     
   13    5    6 2     
   14    5    7 1     
   15    7   22 1     
   16    7    8 1     
   17    7   31 1     
   18    8    9 1     
   19    8   32 1     
   20    8   33 1     
   21    9   10 1     
   22    9   34 1     
   23    9   35 1     
   24   10   11 1     
   25   10   36 1     
   26   10   37 1     
   27   11   12 1     
   28   11   22 1     
   29   11   38 1     
   30   12   13 am    
   31   12   39 1     
   32   13   14 2     
   33   13   15 am    
   34   15   16 1     
   35   15   40 1     
   36   16   21 ar    
   37   16   17 ar    
   38   17   18 ar    
   39   17   41 1     
   40   18   19 ar    
   41   18   42 1     
   42   19   20 ar    
   43   19   43 1     
   44   20   21 ar    
   45   21   44 1     
   46   22   45 1     
   47   22   46 1     
   48    6   47 1     
   49    6   48 1     
   50   14   49 1     
   51   14   50 1     
   52   20   51 1     
@<TRIPOS>SUBSTRUCTURE
      1 S1             1
@<TRIPOS>SET
LONE_PAIRS      STATIC     ATOMS    <user>   **** ""
5 47 48 49 50 51
DONOR_HYDROGENS      STATIC     ATOMS    <user>   **** ""
3 30 39 40
ATOM$BLUE        STATIC     ATOMS    COLORGROUP SYSTEM
5 47 48 49 50 51
ATOM$RED        STATIC     ATOMS    COLORGROUP SYSTEM
3 30 39 40
