AV-unprocessed.smi:2952|AV-procd|sdf|11292|dock8
  -GOLD-   2272016183D 1   1.00000     0.00000
 Structure written by MMmdl.
 39 41  0  0  0  0  0  0  0  0  2 V2000
  153.0731  139.6004  154.9412 O   0  0  0  0  0  0  0  0  0  0  0  0
  151.7960  139.0666  155.2225 C   0  0  0  0  0  0  0  0  0  0  0  0
  151.3282  139.4590  156.6332 C   0  0  0  0  0  0  0  0  0  0  0  0
  151.1664  140.9134  156.7968 N   0  0  0  0  0  0  0  0  0  0  0  0
  150.4789  141.8122  156.0338 C   0  0  0  0  0  0  0  0  0  0  0  0
  149.6847  141.5243  154.7983 C   0  0  0  0  0  0  0  0  0  0  0  0
  148.4842  140.7294  155.0446 N   0  0  0  0  0  0  0  0  0  0  0  0
  147.7681  140.3940  153.8160 C   0  0  0  0  0  0  0  0  0  0  0  0
  146.5032  139.5659  154.1014 C   0  0  0  0  0  0  0  0  0  0  0  0
  145.6625  140.2745  155.0064 O   0  0  0  0  0  0  0  0  0  0  0  0
  146.3119  140.5809  156.2363 C   0  0  0  0  0  0  0  0  0  0  0  0
  147.5754  141.4130  155.9576 C   0  0  0  0  0  0  0  0  0  0  0  0
  150.6440  143.0379  156.6060 N   0  3  0  0  0  0  0  0  0  0  0  0
  151.4387  142.9235  157.7470 C   0  0  0  0  0  0  0  0  0  0  0  0
  151.8748  143.8860  158.6521 C   0  0  0  0  0  0  0  0  0  0  0  0
  152.6749  143.4325  159.7211 C   0  0  0  0  0  0  0  0  0  0  0  0
  153.0129  142.0704  159.8612 C   0  0  0  0  0  0  0  0  0  0  0  0
  153.9917  141.5735  161.1919 Cl  0  0  0  0  0  0  0  0  0  0  0  0
  152.5653  141.1053  158.9349 C   0  0  0  0  0  0  0  0  0  0  0  0
  151.7762  141.5609  157.8787 C   0  0  0  0  0  0  0  0  0  0  0  0
  153.0204  140.0970  154.1385 H   0  0  0  0  0  0  0  0  0  0  0  0
  151.0893  139.4341  154.4783 H   0  0  0  0  0  0  0  0  0  0  0  0
  151.8342  137.9819  155.1193 H   0  0  0  0  0  0  0  0  0  0  0  0
  150.3959  138.9573  156.8916 H   0  0  0  0  0  0  0  0  0  0  0  0
  152.0593  139.1241  157.3687 H   0  0  0  0  0  0  0  0  0  0  0  0
  149.4051  142.4811  154.3562 H   0  0  0  0  0  0  0  0  0  0  0  0
  150.3239  141.0242  154.0691 H   0  0  0  0  0  0  0  0  0  0  0  0
  147.4893  141.3078  153.2890 H   0  0  0  0  0  0  0  0  0  0  0  0
  148.4147  139.8298  153.1438 H   0  0  0  0  0  0  0  0  0  0  0  0
  145.9557  139.3788  153.1777 H   0  0  0  0  0  0  0  0  0  0  0  0
  146.7645  138.5936  154.5221 H   0  0  0  0  0  0  0  0  0  0  0  0
  145.6248  141.1362  156.8749 H   0  0  0  0  0  0  0  0  0  0  0  0
  146.5648  139.6588  156.7621 H   0  0  0  0  0  0  0  0  0  0  0  0
  148.0840  141.6216  156.8995 H   0  0  0  0  0  0  0  0  0  0  0  0
  147.2863  142.3783  155.5388 H   0  0  0  0  0  0  0  0  0  0  0  0
  151.6162  144.9297  158.5500 H   0  0  0  0  0  0  0  0  0  0  0  0
  153.0345  144.1445  160.4498 H   0  0  0  0  0  0  0  0  0  0  0  0
  152.8242  140.0640  159.0554 H   0  0  0  0  0  0  0  0  0  0  0  0
  150.2388  143.8898  156.2403 H   0  0  0  0  0  0  0  0  0  0  0  0
  1  2  1  0  0  0  0
  1 21  1  0  0  0  0
  2  3  1  0  0  0  0
  2 22  1  0  0  0  0
  2 23  1  0  0  0  0
  3  4  1  0  0  0  0
  3 24  1  0  0  0  0
  3 25  1  0  0  0  0
  4 20  1  0  0  0  0
  4  5  1  0  0  0  0
  5  6  1  0  0  0  0
  5 13  2  0  0  0  0
  6  7  1  0  0  0  0
  6 26  1  0  0  0  0
  6 27  1  0  0  0  0
  7 12  1  0  0  0  0
  7  8  1  0  0  0  0
  8  9  1  0  0  0  0
  8 28  1  0  0  0  0
  8 29  1  0  0  0  0
  9 10  1  0  0  0  0
  9 30  1  0  0  0  0
  9 31  1  0  0  0  0
 10 11  1  0  0  0  0
 11 12  1  0  0  0  0
 11 32  1  0  0  0  0
 11 33  1  0  0  0  0
 12 34  1  0  0  0  0
 12 35  1  0  0  0  0
 13 14  1  0  0  0  0
 13 39  1  0  0  0  0
 14 20  2  0  0  0  0
 14 15  1  0  0  0  0
 15 16  2  0  0  0  0
 15 36  1  0  0  0  0
 16 17  1  0  0  0  0
 16 37  1  0  0  0  0
 17 18  1  0  0  0  0
 17 19  2  0  0  0  0
 19 20  1  0  0  0  0
 19 38  1  0  0  0  0
M  CHG  1  13   1
M  END
> <s_m_source_file>
AV-unprocessed.smi

> <i_m_source_file_index>
2952

> <i_lp_mmshare_version>
43012

> <i_f3d_flags>
0

> <s_epik_input>
W2NIXTFbY0hdYyhDbClbY0hdYyhjMTIpbihbQ0gyXVtDSDJdW09IXSljKG4yKVtDSDJdTjNbQ0gyXVtDSDJdT1tDSDJdW0NIMl0z

> <s_epik_cmdline>
J2VwaWtfcHl0aG9uJywgJy1waCcsICc3LjAnLCAnLXRuJywgJzgnLCAnLW1hJywgJzIwMCcsICctbWV0YWxfYmluZGluZycsICctaW1hZScsICc8aW5maWxlLm1hZT4nLCAnLW9tYWUnLCAnPG91dGZpbGUubWFlPic=

> <r_epik_Ionization_Penalty>
1.17151

> <r_epik_Ionization_Penalty_Charging>
1.1712

> <r_epik_Ionization_Penalty_Neutral>
0.000312352

> <r_epik_State_Penalty>
1.2343

> <r_epik_Charging_Adjusted_Penalty>
2.4055

> <i_epik_Tot_Q>
1

> <i_epik_Tot_abs_Q>
1

> <r_epik_Metal_State_Penalty>
5.24833

> <b_epik_Metal_Only>
0

> <s_lp_Force_Field>
OPLS_2005

> <r_lp_Energy>
24.7886

> <b_lp_Chiralities_Consistent>
1

> <s_lp_Variant>
AV-unprocessed.smi:2952-2

> <Gold.Version>
5.8.1

> <Gold.Id.Protein>
6NUR|6NUR_protein|mol2

> <Gold.PLP.Fitness>
49.1728

> <Gold.PLP.PLP>
-40.4207

> <Gold.PLP.part.hbond>
-3.0000

> <Gold.PLP.part.metal>
0.0000

> <Gold.PLP.part.buried>
-3.8005

> <Gold.PLP.part.nonpolar>
-34.1667

> <Gold.PLP.part.repulsive>
0.2657

> <Gold.PLP.ligand.clash>
0.0000

> <Gold.PLP.ligand.torsion>
0.1328

> <Gold.PLP.Chemscore.Hbond>
3.0000

> <Gold.PLP.Chemscore.CHOScore>
0.0000

> <Gold.PLP.Chemscore.Metal>
0.0000

> <Gold.Chemscore.Hbonds>
donor molecule, donor type, donor heavy atom, donor atom, acceptor molecule, acceptor atom, score
      L1  H    13    39       P1  8028  2.00
      P1  H  7997  8009       L1     1  1.00

> <Gold.PLP.Chemscore.Internal.Correction>
0.0177

> <Gold.Rescore>
     Score         DG    S(hbond)    S(metal)    S(lipo)     H(rot)  DE(clash)    DE(int)     intcor
     18.90     -19.22       1.96        0.00     109.07       2.18       0.21       0.10       ----

> <Gold.Chemscore.Fitness>
18.9026

> <Gold.Chemscore.DG>
-19.2164

> <Gold.Chemscore.ZeroCoef>
-5.4800

> <Gold.Chemscore.Hbond>
1.9647

> <Gold.Chemscore.Metal>
0.0000

> <Gold.Chemscore.Lipo>
109.0652

> <Gold.Chemscore.Internal_Hbond>
0.0000

> <Gold.Chemscore.DEClash>
0.2113

> <Gold.Chemscore.DEInternal>
0.1025

> <Gold.Chemscore.Rot>
2.1822

> <Gold.Chemscore.Internal.Correction>
   9.000000E+99

> <Gold.Chemscore.Hbonds>
donor molecule, donor type, donor heavy atom, donor atom, acceptor molecule, acceptor atom, score
      L1  H    13    39       P1  8028  0.95
      P1  H  7997  8009       L1     1  0.45

> <Gold.Chemscore.Hbond.Weighted>
-6.5621

> <Gold.Chemscore.Metal.Weighted>
-0.0000

> <Gold.Chemscore.Lipo.Weighted>
-12.7606

> <Gold.Chemscore.Internal_Hbond.Weighted>
0.0000

> <Gold.Chemscore.DEClash.Weighted>
0.2113

> <Gold.Chemscore.DEInternal.Weighted>
0.1025

> <Gold.Chemscore.Rot.Weighted>
5.5863

> <Gold.Chemscore.Internal.Correction.Weighted>
   9.000000E+99

> <Gold.Protein.RotatedTorsions>
[ 6907 6896 6895 6894 ] final  -50.27 input  -60.11 | X-H torsion
[ 7974 7965 7964 7962 ] final  -93.07 input  175.53 | X-H torsion
[ 8008 7997 7996 7995 ] final -125.77 input   59.86 | X-H torsion
[ 10167 10162 10161 10158 ] final   54.24 input  -65.29 | X-H torsion
[ 10718 10713 10712 10709 ] final  129.58 input   66.30 | X-H torsion
[ 10763 10752 10751 10750 ] final  161.63 input  -60.55 | X-H torsion
[ 11005 11000 10999 10996 ] final  -95.08 input  -57.11 | X-H torsion

> <Gold.Protein.ActiveResidues>
 VAL166  LYS551  ARG553  GLY616  TRP617  ASP618  TYR619  PRO620  LYS621  CYS622 
 ASP623  PHE694  ASN695  SER759  ASP760  ASP761  ALA762  ILE779  LEU786  VAL792 
 PHE793  MET794  SER795  GLU796  ALA797  LYS798  CYS799  TRP800  GLU811  SER814 

> <Gold.Protein.RotatedAtoms>
  150.8724  134.8100  159.7164 H   0  0  0  0  0  0  0  0  0  0  0  0  # atno 6907 bound_to 6896
  152.4723  134.4926  159.9710 H   0  0  0  0  0  0  0  0  0  0  0  0  # atno 6908 bound_to 6896
  151.5013  133.3465  159.2905 H   0  0  0  0  0  0  0  0  0  0  0  0  # atno 6909 bound_to 6896
  145.3915  140.9528  143.2338 H   0  0  0  0  0  0  0  0  0  0  0  0  # atno 7974 bound_to 7965
  155.2187  140.0421  157.2945 H   0  0  0  0  0  0  0  0  0  0  0  0  # atno 8008 bound_to 7997
  154.5964  140.2440  155.7822 H   0  0  0  0  0  0  0  0  0  0  0  0  # atno 8009 bound_to 7997
  156.2293  140.2944  156.0155 H   0  0  0  0  0  0  0  0  0  0  0  0  # atno 8010 bound_to 7997
  140.2322  144.3674  150.6410 H   0  0  0  0  0  0  0  0  0  0  0  0  # atno 10167 bound_to 10162
  157.5141  131.1097  150.9250 H   0  0  0  0  0  0  0  0  0  0  0  0  # atno 10718 bound_to 10713
  154.2660  135.2767  155.2758 H   0  0  0  0  0  0  0  0  0  0  0  0  # atno 10763 bound_to 10752
  154.5343  135.5721  153.6789 H   0  0  0  0  0  0  0  0  0  0  0  0  # atno 10764 bound_to 10752
  152.9953  135.6235  154.2812 H   0  0  0  0  0  0  0  0  0  0  0  0  # atno 10765 bound_to 10752
  141.1452  133.8001  157.0386 H   0  0  0  0  0  0  0  0  0  0  0  0  # atno 11005 bound_to 11000
  144.8437  139.5431  143.6888 LP  0  0  0  0  0  0  0  0  0  0  0  0  # atno 17320 bound_to 7965
  146.2795  139.6841  142.9239 LP  0  0  0  0  0  0  0  0  0  0  0  0  # atno 17321 bound_to 7965
  140.6176  143.2173  151.6759 LP  0  0  0  0  0  0  0  0  0  0  0  0  # atno 17342 bound_to 10162
  139.5106  144.3538  152.0627 LP  0  0  0  0  0  0  0  0  0  0  0  0  # atno 17343 bound_to 10162
  156.9881  130.5552  149.5301 LP  0  0  0  0  0  0  0  0  0  0  0  0  # atno 17370 bound_to 10713
  156.0309  130.5400  150.8530 LP  0  0  0  0  0  0  0  0  0  0  0  0  # atno 17371 bound_to 10713
  140.0707  134.9703  157.1463 LP  0  0  0  0  0  0  0  0  0  0  0  0  # atno 17394 bound_to 11000
  140.3714  134.2386  155.7177 LP  0  0  0  0  0  0  0  0  0  0  0  0  # atno 17395 bound_to 11000

$$$$
