#       Name:                AV-unprocessed.smi:26
#       Creating user name   scv26
#       Creation time:       Thu Mar 26 15:44:49 2020


#       File generated by GOLD software.
#

@<TRIPOS>MOLECULE
AV-unprocessed.smi:26
    66    69     1
SMALL
NO_CHARGES


@<TRIPOS>ATOM
      1 ****        -3.2246   1.8761  -2.9128 C.3            1 S1                 0.0000
      2 ****        -2.0311   1.1229  -2.4173 C.2            1 S1                 0.0000
      3 ****        -0.7428   1.5501  -2.2965 C.2            1 S1                 0.0000
      4 ****         0.0342   0.4916  -1.7564 C.2            1 S1                 0.0000
      5 ****         1.4869   0.4636  -1.4607 C.2            1 S1                 0.0000
      6 ****         2.1701  -0.5539  -1.5727 O.2            1 S1                 0.0000
      7 ****         2.1330   1.7683  -0.9667 C.3            1 S1                 0.0000
      8 ****         1.9757   1.9227   0.4752 N.am           1 S1                 0.0000
      9 ****         0.8895   2.6995   0.9544 C.2            1 S1                 0.0000
     10 ****         0.1032   3.2706   0.1978 O.2            1 S1                 0.0000
     11 ****         0.7827   2.7644   2.4077 C.2            1 S1                 0.0000
     12 ****        -0.2049   3.4814   2.9698 F              1 S1                 0.0000
     13 ****         1.6605   2.1159   3.2020 C.2            1 S1                 0.0000
     14 ****         2.7059   1.3549   2.7083 N.am           1 S1                 0.0000
     15 ****         3.6660   0.6484   3.6386 C.3            1 S1                 0.0000
     16 ****         4.8484   1.5637   3.9752 C.3            1 S1                 0.0000
     17 ****         4.4128   2.1667   5.2933 C.3            1 S1                 0.0000
     18 ****         3.6489   1.0080   5.9226 C.3            1 S1                 0.0000
     19 ****         3.0049   0.3511   4.8349 O.3            1 S1                 0.0000
     20 ****         2.8992   1.2500   1.3137 C.2            1 S1                 0.0000
     21 ****         3.8382   0.5958   0.8542 O.2            1 S1                 0.0000
     22 ****        -0.8036  -0.5823  -1.5675 C.2            1 S1                 0.0000
     23 ****        -0.5063  -1.9449  -1.0057 C.3            1 S1                 0.0000
     24 ****        -2.0852  -0.2020  -1.9890 N.pl3          1 S1                 0.0000
     25 ****        -3.3128  -1.0119  -1.9594 C.3            1 S1                 0.0000
     26 ****        -3.9397  -1.0125  -0.5512 C.3            1 S1                 0.0000
     27 ****        -3.1312  -2.3835  -2.6152 C.ar           1 S1                 0.0000
     28 ****        -2.7120  -2.4447  -3.9631 C.ar           1 S1                 0.0000
     29 ****        -2.5361  -3.6859  -4.6043 C.ar           1 S1                 0.0000
     30 ****        -2.7826  -4.8812  -3.9039 C.ar           1 S1                 0.0000
     31 ****        -3.2066  -4.8325  -2.5630 C.ar           1 S1                 0.0000
     32 ****        -3.3831  -3.5912  -1.9214 C.ar           1 S1                 0.0000
     33 ****        -2.9716   2.9186  -3.1080 H              1 S1                 0.0000
     34 ****        -4.0293   1.8643  -2.1774 H              1 S1                 0.0000
     35 ****        -3.5992   1.4467  -3.8421 H              1 S1                 0.0000
     36 ****        -0.3947   2.5360  -2.5673 H              1 S1                 0.0000
     37 ****         3.2018   1.7870  -1.1864 H              1 S1                 0.0000
     38 ****         1.7234   2.6474  -1.4643 H              1 S1                 0.0000
     39 ****         1.5312   2.2060   4.2702 H              1 S1                 0.0000
     40 ****         3.9525  -0.2800   3.1428 H              1 S1                 0.0000
     41 ****         5.7370   0.9466   4.1126 H              1 S1                 0.0000
     42 ****         5.0443   2.2972   3.1919 H              1 S1                 0.0000
     43 ****         5.2474   2.5091   5.9054 H              1 S1                 0.0000
     44 ****         3.7455   3.0118   5.1208 H              1 S1                 0.0000
     45 ****         4.3412   0.3092   6.3940 H              1 S1                 0.0000
     46 ****         2.9308   1.3353   6.6746 H              1 S1                 0.0000
     47 ****        -0.2826  -2.6517  -1.8047 H              1 S1                 0.0000
     48 ****        -1.3353  -2.3397  -0.4239 H              1 S1                 0.0000
     49 ****         0.3489  -1.9219  -0.3316 H              1 S1                 0.0000
     50 ****        -4.0460  -0.5293  -2.6038 H              1 S1                 0.0000
     51 ****        -4.9140  -1.5018  -0.5546 H              1 S1                 0.0000
     52 ****        -4.0941   0.0077  -0.1987 H              1 S1                 0.0000
     53 ****        -3.3148  -1.5154   0.1854 H              1 S1                 0.0000
     54 ****        -2.5199  -1.5329  -4.5098 H              1 S1                 0.0000
     55 ****        -2.2117  -3.7206  -5.6337 H              1 S1                 0.0000
     56 ****        -2.6473  -5.8337  -4.3946 H              1 S1                 0.0000
     57 ****        -3.3966  -5.7492  -2.0245 H              1 S1                 0.0000
     58 ****        -3.7063  -3.5867  -0.8918 H              1 S1                 0.0000
     59 ****         1.7481  -1.4088  -1.8744 LP             1 S1                 0.0000
     60 ****         3.1473  -0.5257  -1.3621 LP             1 S1                 0.0000
     61 ****         0.2186   3.1956  -0.7927 LP             1 S1                 0.0000
     62 ****        -0.6506   3.8094   0.5739 LP             1 S1                 0.0000
     63 ****         3.0233  -0.6371   4.9869 LP             1 S1                 0.0000
     64 ****         2.0562   0.6616   4.7752 LP             1 S1                 0.0000
     65 ****         3.9641   0.5292  -0.1356 LP             1 S1                 0.0000
     66 ****         4.4738   0.1320   1.4714 LP             1 S1                 0.0000
@<TRIPOS>BOND
    1    1    2 1     
    2    1   33 1     
    3    1   34 1     
    4    1   35 1     
    5    2   24 1     
    6    2    3 2     
    7    3    4 1     
    8    3   36 1     
    9    4    5 1     
   10    4   22 2     
   11    5    6 2     
   12    5    7 1     
   13    7    8 1     
   14    7   37 1     
   15    7   38 1     
   16    8   20 am    
   17    8    9 am    
   18    9   10 2     
   19    9   11 1     
   20   11   12 1     
   21   11   13 2     
   22   13   14 1     
   23   13   39 1     
   24   14   15 1     
   25   14   20 am    
   26   15   19 1     
   27   15   16 1     
   28   15   40 1     
   29   16   17 1     
   30   16   41 1     
   31   16   42 1     
   32   17   18 1     
   33   17   43 1     
   34   17   44 1     
   35   18   19 1     
   36   18   45 1     
   37   18   46 1     
   38   20   21 2     
   39   22   23 1     
   40   22   24 1     
   41   23   47 1     
   42   23   48 1     
   43   23   49 1     
   44   24   25 1     
   45   25   26 1     
   46   25   27 1     
   47   25   50 1     
   48   26   51 1     
   49   26   52 1     
   50   26   53 1     
   51   27   32 ar    
   52   27   28 ar    
   53   28   29 ar    
   54   28   54 1     
   55   29   30 ar    
   56   29   55 1     
   57   30   31 ar    
   58   30   56 1     
   59   31   32 ar    
   60   31   57 1     
   61   32   58 1     
   62    6   59 1     
   63    6   60 1     
   64   10   61 1     
   65   10   62 1     
   66   19   63 1     
   67   19   64 1     
   68   21   65 1     
   69   21   66 1     
@<TRIPOS>SUBSTRUCTURE
      1 S1             1
@<TRIPOS>SET
LONE_PAIRS      STATIC     ATOMS    <user>   **** ""
8 59 60 61 62 63 64 65 66
ATOM$BLUE        STATIC     ATOMS    COLORGROUP SYSTEM
8 59 60 61 62 63 64 65 66
