AV-unprocessed.smi:1221|AV-procd|sdf|5119|dock8
  -GOLD-   22720 4173D 1   1.00000     0.00000
 Structure written by MMmdl.
 39 40  0  0  0  0  0  0  0  0  2 V2000
  144.2748  144.3454  154.8366 C   0  0  0  0  0  0  0  0  0  0  0  0
  145.5037  143.5037  154.7832 C   0  0  0  0  0  0  0  0  0  0  0  0
  146.4519  143.3058  153.8200 C   0  0  0  0  0  0  0  0  0  0  0  0
  147.3444  142.3804  154.4275 C   0  0  0  0  0  0  0  0  0  0  0  0
  148.4431  141.8547  153.8646 N   0  5  0  0  0  0  0  0  0  0  0  0
  149.4732  141.4351  154.6357 C   0  0  0  0  0  0  0  0  0  0  0  0
  150.0502  140.3481  154.5585 O   0  0  0  0  0  0  0  0  0  0  0  0
  149.8556  142.3319  155.5558 N   0  0  0  0  0  0  0  0  0  0  0  0
  150.9286  142.1575  156.5278 C   0  0  0  0  0  0  0  0  0  0  0  0
  150.5114  142.6552  157.9237 C   0  0  0  0  0  0  0  0  0  0  0  0
  151.6620  142.7251  158.8317 N   0  0  0  0  0  0  0  0  0  0  0  0
  152.2704  144.0544  159.0009 C   0  0  0  0  0  0  0  0  0  0  0  0
  152.0473  144.6725  160.4007 C   0  0  0  0  0  0  0  0  0  0  0  0
  151.9026  143.6788  161.5705 C   0  0  0  0  0  0  0  0  0  0  0  0
  153.0326  142.6343  161.6858 C   0  0  0  0  0  0  0  0  0  0  0  0
  153.3323  141.7984  160.4185 C   0  0  0  0  0  0  0  0  0  0  0  0
  152.1321  141.6271  159.4729 C   0  0  0  0  0  0  0  0  0  0  0  0
  151.6437  140.5055  159.3330 O   0  0  0  0  0  0  0  0  0  0  0  0
  146.9623  142.0355  155.6456 N   0  0  0  0  0  0  0  0  0  0  0  0
  145.7856  142.7557  155.8836 O   0  0  0  0  0  0  0  0  0  0  0  0
  143.4826  143.9077  154.2294 H   0  0  0  0  0  0  0  0  0  0  0  0
  144.4763  145.3479  154.4592 H   0  0  0  0  0  0  0  0  0  0  0  0
  143.9059  144.4378  155.8584 H   0  0  0  0  0  0  0  0  0  0  0  0
  146.5021  143.7521  152.8383 H   0  0  0  0  0  0  0  0  0  0  0  0
  149.3560  143.2086  155.5810 H   0  0  0  0  0  0  0  0  0  0  0  0
  151.2439  141.1133  156.5623 H   0  0  0  0  0  0  0  0  0  0  0  0
  151.7869  142.7281  156.1726 H   0  0  0  0  0  0  0  0  0  0  0  0
  150.0405  143.6360  157.8435 H   0  0  0  0  0  0  0  0  0  0  0  0
  149.7411  142.0039  158.3409 H   0  0  0  0  0  0  0  0  0  0  0  0
  153.3387  143.9854  158.7955 H   0  0  0  0  0  0  0  0  0  0  0  0
  151.9057  144.7485  158.2427 H   0  0  0  0  0  0  0  0  0  0  0  0
  152.8600  145.3688  160.6105 H   0  0  0  0  0  0  0  0  0  0  0  0
  151.1422  145.2799  160.3693 H   0  0  0  0  0  0  0  0  0  0  0  0
  151.8464  144.2405  162.5033 H   0  0  0  0  0  0  0  0  0  0  0  0
  150.9420  143.1675  161.4920 H   0  0  0  0  0  0  0  0  0  0  0  0
  153.9497  143.1381  161.9930 H   0  0  0  0  0  0  0  0  0  0  0  0
  152.7864  141.9548  162.5025 H   0  0  0  0  0  0  0  0  0  0  0  0
  154.1581  142.2425  159.8634 H   0  0  0  0  0  0  0  0  0  0  0  0
  153.6965  140.8145  160.7168 H   0  0  0  0  0  0  0  0  0  0  0  0
  1  2  1  0  0  0  0
  1 21  1  0  0  0  0
  1 22  1  0  0  0  0
  1 23  1  0  0  0  0
  2 20  1  0  0  0  0
  2  3  2  0  0  0  0
  3  4  1  0  0  0  0
  3 24  1  0  0  0  0
  4  5  1  0  0  0  0
  4 19  2  0  0  0  0
  5  6  1  0  0  0  0
  6  7  2  0  0  0  0
  6  8  1  0  0  0  0
  8  9  1  0  0  0  0
  8 25  1  0  0  0  0
  9 10  1  0  0  0  0
  9 26  1  0  0  0  0
  9 27  1  0  0  0  0
 10 11  1  0  0  0  0
 10 28  1  0  0  0  0
 10 29  1  0  0  0  0
 11 17  1  0  0  0  0
 11 12  1  0  0  0  0
 12 13  1  0  0  0  0
 12 30  1  0  0  0  0
 12 31  1  0  0  0  0
 13 14  1  0  0  0  0
 13 32  1  0  0  0  0
 13 33  1  0  0  0  0
 14 15  1  0  0  0  0
 14 34  1  0  0  0  0
 14 35  1  0  0  0  0
 15 16  1  0  0  0  0
 15 36  1  0  0  0  0
 15 37  1  0  0  0  0
 16 17  1  0  0  0  0
 16 38  1  0  0  0  0
 16 39  1  0  0  0  0
 17 18  2  0  0  0  0
 19 20  1  0  0  0  0
M  CHG  1   5  -1
M  END
> <s_m_source_file>
AV-unprocessed.smi

> <i_m_source_file_index>
1221

> <i_lp_mmshare_version>
43012

> <i_f3d_flags>
0

> <s_epik_input>
W0NIM11jMVtjSF1jKG5vMSlbTkhdQyg9TylbTkhdW0NIMl1bQ0gyXU4yW0NIMl1bQ0gyXVtDSDJdW0NIMl1bQ0gyXUMyPU8=

> <s_epik_cmdline>
J2VwaWtfcHl0aG9uJywgJy1waCcsICc3LjAnLCAnLXRuJywgJzgnLCAnLW1hJywgJzIwMCcsICctbWV0YWxfYmluZGluZycsICctaW1hZScsICc8aW5maWxlLm1hZT4nLCAnLW9tYWUnLCAnPG91dGZpbGUubWFlPic=

> <r_lp_tautomer_probability>
1

> <r_epik_Ionization_Penalty>
6.46803

> <r_epik_Ionization_Penalty_Charging>
6.46791

> <r_epik_Ionization_Penalty_Neutral>
0.00012322

> <r_epik_State_Penalty>
6.4679

> <r_epik_Charging_Adjusted_Penalty>
12.9358

> <i_epik_Tot_Q>
-1

> <i_epik_Tot_abs_Q>
1

> <r_epik_Metal_State_Penalty>
2.39627

> <b_epik_Metal_Only>
1

> <s_lp_Force_Field>
OPLS_2005

> <r_lp_Energy>
15.4009

> <b_lp_Chiralities_Consistent>
1

> <s_lp_Variant>
AV-unprocessed.smi:1221-2

> <Gold.Version>
5.8.1

> <Gold.Id.Protein>
6NUR|6NUR_protein|mol2

> <Gold.PLP.Fitness>
51.9719

> <Gold.PLP.PLP>
-47.5439

> <Gold.PLP.part.hbond>
-3.0000

> <Gold.PLP.part.metal>
0.0000

> <Gold.PLP.part.buried>
-6.6495

> <Gold.PLP.part.nonpolar>
-39.0619

> <Gold.PLP.part.repulsive>
0.6695

> <Gold.PLP.ligand.clash>
0.0000

> <Gold.PLP.ligand.torsion>
1.0271

> <Gold.PLP.Chemscore.Hbond>
2.1544

> <Gold.PLP.Chemscore.CHOScore>
0.0000

> <Gold.PLP.Chemscore.Metal>
0.0000

> <Gold.Chemscore.Hbonds>
donor molecule, donor type, donor heavy atom, donor atom, acceptor molecule, acceptor atom, score
      L1  H     8    25       P1  8028  1.00
      P1  H  7989  7998       L1     7  0.91
      P1  H  8011  8017       L1     5  0.22

> <Gold.PLP.Chemscore.Internal.Correction>
0.0189

> <Gold.Rescore>
     Score         DG    S(hbond)    S(metal)    S(lipo)     H(rot)  DE(clash)    DE(int)     intcor
     15.84     -17.19       1.64        0.00      88.21       1.60       0.07       1.28       ----

> <Gold.Chemscore.Fitness>
15.8409

> <Gold.Chemscore.DG>
-17.1854

> <Gold.Chemscore.ZeroCoef>
-5.4800

> <Gold.Chemscore.Hbond>
1.6393

> <Gold.Chemscore.Metal>
0.0000

> <Gold.Chemscore.Lipo>
88.2084

> <Gold.Chemscore.Internal_Hbond>
0.0000

> <Gold.Chemscore.DEClash>
0.0663

> <Gold.Chemscore.DEInternal>
1.2782

> <Gold.Chemscore.Rot>
1.5978

> <Gold.Chemscore.Internal.Correction>
   9.000000E+99

> <Gold.Chemscore.Hbonds>
donor molecule, donor type, donor heavy atom, donor atom, acceptor molecule, acceptor atom, score
      L1  H     8    25       P1  8028  0.98
      P1  H  7989  7998       L1     7  0.20
      P1  H  8011  8017       L1     5  0.01

> <Gold.Chemscore.Hbond.Weighted>
-5.4753

> <Gold.Chemscore.Metal.Weighted>
-0.0000

> <Gold.Chemscore.Lipo.Weighted>
-10.3204

> <Gold.Chemscore.Internal_Hbond.Weighted>
0.0000

> <Gold.Chemscore.DEClash.Weighted>
0.0663

> <Gold.Chemscore.DEInternal.Weighted>
1.2782

> <Gold.Chemscore.Rot.Weighted>
4.0902

> <Gold.Chemscore.Internal.Correction.Weighted>
   9.000000E+99

> <Gold.Protein.RotatedTorsions>
[ 6907 6896 6895 6894 ] final  -32.08 input  -60.11 | X-H torsion
[ 7974 7965 7964 7962 ] final    0.93 input  175.53 | X-H torsion
[ 8008 7997 7996 7995 ] final   21.39 input   59.86 | X-H torsion
[ 10167 10162 10161 10158 ] final   55.73 input  -65.29 | X-H torsion
[ 10718 10713 10712 10709 ] final  174.06 input   66.30 | X-H torsion
[ 10763 10752 10751 10750 ] final  -18.91 input  -60.55 | X-H torsion
[ 11005 11000 10999 10996 ] final -127.28 input  -57.11 | X-H torsion

> <Gold.Protein.ActiveResidues>
 VAL166  LYS551  ARG553  GLY616  TRP617  ASP618  TYR619  PRO620  LYS621  CYS622 
 ASP623  PHE694  ASN695  SER759  ASP760  ASP761  ALA762  ILE779  LEU786  VAL792 
 PHE793  MET794  SER795  GLU796  ALA797  LYS798  CYS799  TRP800  GLU811  SER814 

> <Gold.Protein.RotatedAtoms>
  151.0835  134.9873  159.8367 H   0  0  0  0  0  0  0  0  0  0  0  0  # atno 6907 bound_to 6896
  152.5422  134.2152  159.8776 H   0  0  0  0  0  0  0  0  0  0  0  0  # atno 6908 bound_to 6896
  151.2184  133.4472  159.2633 H   0  0  0  0  0  0  0  0  0  0  0  0  # atno 6909 bound_to 6896
  146.2437  140.1063  142.8345 H   0  0  0  0  0  0  0  0  0  0  0  0  # atno 7974 bound_to 7965
  154.9499  140.3064  155.5080 H   0  0  0  0  0  0  0  0  0  0  0  0  # atno 8008 bound_to 7997
  156.2988  140.2321  156.4513 H   0  0  0  0  0  0  0  0  0  0  0  0  # atno 8009 bound_to 7997
  154.8065  140.0431  157.1300 H   0  0  0  0  0  0  0  0  0  0  0  0  # atno 8010 bound_to 7997
  140.2163  144.3836  150.6468 H   0  0  0  0  0  0  0  0  0  0  0  0  # atno 10167 bound_to 10162
  156.9551  131.0043  151.2940 H   0  0  0  0  0  0  0  0  0  0  0  0  # atno 10718 bound_to 10713
  153.5966  135.7001  153.5401 H   0  0  0  0  0  0  0  0  0  0  0  0  # atno 10763 bound_to 10752
  153.3133  135.4095  155.1354 H   0  0  0  0  0  0  0  0  0  0  0  0  # atno 10764 bound_to 10752
  154.8590  135.3677  154.5500 H   0  0  0  0  0  0  0  0  0  0  0  0  # atno 10765 bound_to 10752
  140.9612  134.0934  157.3966 H   0  0  0  0  0  0  0  0  0  0  0  0  # atno 11005 bound_to 11000
  145.0525  140.9028  143.4987 LP  0  0  0  0  0  0  0  0  0  0  0  0  # atno 17320 bound_to 7965
  145.1163  139.2723  143.5611 LP  0  0  0  0  0  0  0  0  0  0  0  0  # atno 17321 bound_to 7965
  140.6287  143.2184  151.6541 LP  0  0  0  0  0  0  0  0  0  0  0  0  # atno 17342 bound_to 10162
  139.5161  144.3358  152.0785 LP  0  0  0  0  0  0  0  0  0  0  0  0  # atno 17343 bound_to 10162
  157.5695  130.8301  149.8373 LP  0  0  0  0  0  0  0  0  0  0  0  0  # atno 17370 bound_to 10713
  156.0346  130.3755  150.1595 LP  0  0  0  0  0  0  0  0  0  0  0  0  # atno 17371 bound_to 10713
  139.8879  135.0093  156.6586 LP  0  0  0  0  0  0  0  0  0  0  0  0  # atno 17394 bound_to 11000
  140.7465  133.8934  155.8315 LP  0  0  0  0  0  0  0  0  0  0  0  0  # atno 17395 bound_to 11000

$$$$
