AV-unprocessed.smi:743|AV-procd|sdf|3567|dock7
  -GOLD-   22720 0563D 1   1.00000     0.00000
 Structure written by MMmdl.
 28 29  0  0  0  0  0  0  0  0  1 V2000
  141.9093  135.0837  153.5802 C   0  0  0  0  0  0  0  0  0  0  0  0
  143.0900  135.1451  152.7457 N   0  0  0  0  0  0  0  0  0  0  0  0
  144.0053  134.1516  152.4757 C   0  0  0  0  0  0  0  0  0  0  0  0
  144.9476  134.6726  151.6307 C   0  0  0  0  0  0  0  0  0  0  0  0
  146.1697  134.0137  151.0198 C   0  0  1  0  0  0  0  0  0  0  0  0
  147.2053  133.8027  152.0351 N   0  0  0  0  0  0  0  0  0  0  0  0
  147.4599  132.6579  152.6969 C   0  0  0  0  0  0  0  0  0  0  0  0
  148.2753  132.6180  153.6151 O   0  0  0  0  0  0  0  0  0  0  0  0
  146.7531  131.3626  152.2610 C   0  0  0  0  0  0  0  0  0  0  0  0
  145.5473  131.5807  151.3296 C   0  0  0  0  0  0  0  0  0  0  0  0
  145.8453  132.6801  150.3024 C   0  0  1  0  0  0  0  0  0  0  0  0
  144.7563  132.8094  149.3508 N   0  0  0  0  0  0  0  0  0  0  0  0
  144.5082  136.0164  151.4499 C   0  0  0  0  0  0  0  0  0  0  0  0
  143.3999  136.2957  152.1159 N   0  0  0  0  0  0  0  0  0  0  0  0
  146.7234  132.3754  149.7313 H   0  0  0  0  0  0  0  0  0  0  0  0
  141.7932  134.0803  153.9906 H   0  0  0  0  0  0  0  0  0  0  0  0
  141.0263  135.3286  152.9892 H   0  0  0  0  0  0  0  0  0  0  0  0
  142.0004  135.7946  154.4019 H   0  0  0  0  0  0  0  0  0  0  0  0
  143.9097  133.1624  152.8989 H   0  0  0  0  0  0  0  0  0  0  0  0
  146.6055  134.6879  150.2816 H   0  0  0  0  0  0  0  0  0  0  0  0
  147.7220  134.6225  152.3195 H   0  0  0  0  0  0  0  0  0  0  0  0
  147.4952  130.7513  151.7466 H   0  0  0  0  0  0  0  0  0  0  0  0
  146.4467  130.7994  153.1428 H   0  0  0  0  0  0  0  0  0  0  0  0
  145.3102  130.6448  150.8224 H   0  0  0  0  0  0  0  0  0  0  0  0
  144.6667  131.8391  151.9194 H   0  0  0  0  0  0  0  0  0  0  0  0
  145.0578  133.3600  148.5597 H   0  0  0  0  0  0  0  0  0  0  0  0
  144.5069  131.8987  148.9919 H   0  0  0  0  0  0  0  0  0  0  0  0
  144.9619  136.7937  150.8529 H   0  0  0  0  0  0  0  0  0  0  0  0
  1  2  1  0  0  0  0
  1 16  1  0  0  0  0
  1 17  1  0  0  0  0
  1 18  1  0  0  0  0
  2 14  1  0  0  0  0
  2  3  1  0  0  0  0
  3  4  2  0  0  0  0
  3 19  1  0  0  0  0
  4  5  1  0  0  0  0
  4 13  1  0  0  0  0
  5 11  1  0  0  0  0
  5  6  1  0  0  0  0
  5 20  1  0  0  0  0
  6  7  1  0  0  0  0
  6 21  1  0  0  0  0
  7  8  2  0  0  0  0
  7  9  1  0  0  0  0
  9 10  1  0  0  0  0
  9 22  1  0  0  0  0
  9 23  1  0  0  0  0
 10 11  1  0  0  0  0
 10 24  1  0  0  0  0
 10 25  1  0  0  0  0
 11 15  1  0  0  0  0
 11 12  1  0  0  0  0
 12 26  1  0  0  0  0
 12 27  1  0  0  0  0
 13 14  2  0  0  0  0
 13 28  1  0  0  0  0
M  END
> <s_m_source_file>
AV-unprocessed.smi

> <i_m_source_file_index>
743

> <i_lp_mmshare_version>
43012

> <i_f3d_flags>
0

> <s_epik_input>
W0NIM11uMVtjSF1jKFtjSF1uMSlbQ0BASF0yW05IXUMoPU8pW0NIMl1bQ0gyXVtDQEBIXTJbTkgyXQ==

> <s_epik_cmdline>
J2VwaWtfcHl0aG9uJywgJy1waCcsICc3LjAnLCAnLXRuJywgJzgnLCAnLW1hJywgJzIwMCcsICctbWV0YWxfYmluZGluZycsICctaW1hZScsICc8aW5maWxlLm1hZT4nLCAnLW9tYWUnLCAnPG91dGZpbGUubWFlPic=

> <r_lp_tautomer_probability>
1

> <r_epik_Ionization_Penalty>
2.50279

> <r_epik_Ionization_Penalty_Charging>
0

> <r_epik_Ionization_Penalty_Neutral>
2.50279

> <r_epik_State_Penalty>
2.66754

> <r_epik_Charging_Adjusted_Penalty>
2.66754

> <i_epik_Tot_Q>
0

> <i_epik_Tot_abs_Q>
0

> <r_epik_Metal_State_Penalty>
2.66721

> <b_epik_Metal_Only>
0

> <s_lp_Force_Field>
OPLS_2005

> <r_lp_Energy>
9.07018

> <b_lp_Chiralities_Consistent>
1

> <s_lp_Variant>
AV-unprocessed.smi:743-8

> <Gold.Version>
5.8.1

> <Gold.Id.Protein>
6NUR|6NUR_protein|mol2

> <Gold.PLP.Fitness>
33.8183

> <Gold.PLP.PLP>
-23.2500

> <Gold.PLP.part.hbond>
-2.0000

> <Gold.PLP.part.metal>
0.0000

> <Gold.PLP.part.buried>
-2.6829

> <Gold.PLP.part.nonpolar>
-19.2417

> <Gold.PLP.part.repulsive>
0.3644

> <Gold.PLP.ligand.clash>
0.0000

> <Gold.PLP.ligand.torsion>
0.1925

> <Gold.PLP.Chemscore.Hbond>
1.9920

> <Gold.PLP.Chemscore.CHOScore>
1.6531

> <Gold.PLP.Chemscore.Metal>
0.0000

> <Gold.Chemscore.Hbonds>
donor molecule, donor type, donor heavy atom, donor atom, acceptor molecule, acceptor atom, score
      L1  H     6    21       P1  7948  0.97
      L1  H    12    26       P1  7921  1.00
      L1  C     3    19       P1 10957  0.71
      L1  C    13    28       P1 10171  0.94

> <Gold.PLP.Chemscore.Internal.Correction>
0.0179

> <Gold.Rescore>
     Score         DG    S(hbond)    S(metal)    S(lipo)     H(rot)  DE(clash)    DE(int)     intcor
     14.04     -14.39       1.72        0.00      48.86       1.00       0.11       0.24       ----

> <Gold.Chemscore.Fitness>
14.0434

> <Gold.Chemscore.DG>
-14.3868

> <Gold.Chemscore.ZeroCoef>
-5.4800

> <Gold.Chemscore.Hbond>
1.7216

> <Gold.Chemscore.Metal>
0.0000

> <Gold.Chemscore.Lipo>
48.8606

> <Gold.Chemscore.Internal_Hbond>
0.0000

> <Gold.Chemscore.DEClash>
0.1061

> <Gold.Chemscore.DEInternal>
0.2373

> <Gold.Chemscore.Rot>
1.0000

> <Gold.Chemscore.Internal.Correction>
   9.000000E+99

> <Gold.Chemscore.Hbonds>
donor molecule, donor type, donor heavy atom, donor atom, acceptor molecule, acceptor atom, score
      L1  H     6    21       P1  7948  0.60
      L1  H    12    26       P1  7921  0.56

> <Gold.Chemscore.Hbond.Weighted>
-5.7501

> <Gold.Chemscore.Metal.Weighted>
-0.0000

> <Gold.Chemscore.Lipo.Weighted>
-5.7167

> <Gold.Chemscore.Internal_Hbond.Weighted>
0.0000

> <Gold.Chemscore.DEClash.Weighted>
0.1061

> <Gold.Chemscore.DEInternal.Weighted>
0.2373

> <Gold.Chemscore.Rot.Weighted>
2.5600

> <Gold.Chemscore.Internal.Correction.Weighted>
   9.000000E+99

> <Gold.Protein.RotatedTorsions>
[ 6907 6896 6895 6894 ] final  -97.63 input  -60.11 | X-H torsion
[ 7974 7965 7964 7962 ] final   42.19 input  175.53 | X-H torsion
[ 8008 7997 7996 7995 ] final -160.88 input   59.86 | X-H torsion
[ 10167 10162 10161 10158 ] final -109.01 input  -65.29 | X-H torsion
[ 10718 10713 10712 10709 ] final -139.28 input   66.30 | X-H torsion
[ 10763 10752 10751 10750 ] final   26.05 input  -60.55 | X-H torsion
[ 11005 11000 10999 10996 ] final   -6.56 input  -57.11 | X-H torsion

> <Gold.Protein.ActiveResidues>
 VAL166  LYS551  ARG553  GLY616  TRP617  ASP618  TYR619  PRO620  LYS621  CYS622 
 ASP623  PHE694  ASN695  SER759  ASP760  ASP761  ALA762  ILE779  LEU786  VAL792 
 PHE793  MET794  SER795  GLU796  ALA797  LYS798  CYS799  TRP800  GLU811  SER814 

> <Gold.Protein.RotatedAtoms>
  150.7022  134.1318  159.4072 H   0  0  0  0  0  0  0  0  0  0  0  0  # atno 6907 bound_to 6896
  151.9304  135.0256  160.0538 H   0  0  0  0  0  0  0  0  0  0  0  0  # atno 6908 bound_to 6896
  152.2180  133.4926  159.5183 H   0  0  0  0  0  0  0  0  0  0  0  0  # atno 6909 bound_to 6896
  146.0761  139.5329  142.9567 H   0  0  0  0  0  0  0  0  0  0  0  0  # atno 7974 bound_to 7965
  155.7840  140.0869  157.2044 H   0  0  0  0  0  0  0  0  0  0  0  0  # atno 8008 bound_to 7997
  154.3988  140.1502  156.3143 H   0  0  0  0  0  0  0  0  0  0  0  0  # atno 8009 bound_to 7997
  155.8625  140.3429  155.5768 H   0  0  0  0  0  0  0  0  0  0  0  0  # atno 8010 bound_to 7997
  140.1599  143.4128  152.1433 H   0  0  0  0  0  0  0  0  0  0  0  0  # atno 10167 bound_to 10162
  156.3090  130.7471  151.1542 H   0  0  0  0  0  0  0  0  0  0  0  0  # atno 10718 bound_to 10713
  153.0649  135.6569  154.0377 H   0  0  0  0  0  0  0  0  0  0  0  0  # atno 10763 bound_to 10752
  154.0036  135.2935  155.3401 H   0  0  0  0  0  0  0  0  0  0  0  0  # atno 10764 bound_to 10752
  154.7003  135.5247  153.8586 H   0  0  0  0  0  0  0  0  0  0  0  0  # atno 10765 bound_to 10752
  140.7033  133.8971  155.8698 H   0  0  0  0  0  0  0  0  0  0  0  0  # atno 11005 bound_to 11000
  145.6303  141.0305  143.1867 LP  0  0  0  0  0  0  0  0  0  0  0  0  # atno 17320 bound_to 7965
  144.7262  139.7867  143.7364 LP  0  0  0  0  0  0  0  0  0  0  0  0  # atno 17321 bound_to 7965
  139.5386  144.7234  151.4810 LP  0  0  0  0  0  0  0  0  0  0  0  0  # atno 17342 bound_to 10162
  140.6649  143.8419  150.6930 LP  0  0  0  0  0  0  0  0  0  0  0  0  # atno 17343 bound_to 10162
  157.7386  131.0538  150.5282 LP  0  0  0  0  0  0  0  0  0  0  0  0  # atno 17370 bound_to 10713
  156.5419  130.4210  149.6150 LP  0  0  0  0  0  0  0  0  0  0  0  0  # atno 17371 bound_to 10713
  141.0146  134.0974  157.4186 LP  0  0  0  0  0  0  0  0  0  0  0  0  # atno 17394 bound_to 11000
  139.8891  135.0102  156.6659 LP  0  0  0  0  0  0  0  0  0  0  0  0  # atno 17395 bound_to 11000

$$$$
