AV-unprocessed.smi:221|AV-procd|sdf|1701|dock5
  -GOLD-   2262020153D 1   1.00000     0.00000
 Structure written by MMmdl.
 50 53  0  0  0  0  0  0  0  0  1 V2000
  151.9831  133.1942  156.1412 N   0  0  0  0  0  0  0  0  0  0  0  0
  151.1718  134.2201  156.4214 C   0  0  0  0  0  0  0  0  0  0  0  0
  150.9867  134.5911  157.5784 O   0  0  0  0  0  0  0  0  0  0  0  0
  150.4455  134.9342  155.2637 C   0  0  1  0  0  0  0  0  0  0  0  0
  149.5339  133.9809  154.4656 C   0  0  0  0  0  0  0  0  0  0  0  0
  148.1505  134.2142  155.0613 C   0  0  2  0  0  0  0  0  0  0  0  0
  147.1686  133.8585  154.2333 F   0  0  0  0  0  0  0  0  0  0  0  0
  148.1711  135.7122  155.3417 C   0  0  0  0  0  0  0  0  0  0  0  0
  149.5461  135.9985  155.7312 N   0  0  0  0  0  0  0  0  0  0  0  0
  149.9431  137.2771  155.5533 C   0  0  0  0  0  0  0  0  0  0  0  0
  149.6598  137.9249  154.3930 N   0  0  0  0  0  0  0  0  0  0  0  0
  150.0500  139.1926  154.2269 C   0  0  0  0  0  0  0  0  0  0  0  0
  150.7176  139.9794  155.0747 N   0  0  0  0  0  0  0  0  0  0  0  0
  150.9976  139.3278  156.2403 C   0  0  0  0  0  0  0  0  0  0  0  0
  150.6477  137.9866  156.5590 C   0  0  0  0  0  0  0  0  0  0  0  0
  151.0987  137.6622  157.8319 N   0  0  0  0  0  0  0  0  0  0  0  0
  151.6879  138.7523  158.2433 C   0  0  0  0  0  0  0  0  0  0  0  0
  151.6786  139.7994  157.3489 N   0  0  0  0  0  0  0  0  0  0  0  0
  152.2598  141.1154  157.5519 C   0  0  0  0  0  0  0  0  0  0  0  0
  152.4647  141.4728  159.0461 C   0  0  1  0  0  0  0  0  0  0  0  0
  153.9731  141.5264  159.4026 C   0  0  0  0  0  0  0  0  0  0  0  0
  154.6898  140.4500  158.8367 O   0  0  0  0  0  0  0  0  0  0  0  0
  151.7308  142.7987  159.3931 C   0  0  1  0  0  0  0  0  0  0  0  0
  152.0175  143.3456  160.7825 C   0  0  0  0  0  0  0  0  0  0  0  0
  151.5697  144.7985  160.6675 C   0  0  0  0  0  0  0  0  0  0  0  0
  151.7995  145.1672  159.3135 O   0  0  0  0  0  0  0  0  0  0  0  0
  152.1250  144.0139  158.5450 C   0  0  0  0  0  0  0  0  0  0  0  0
  151.2222  135.3206  154.6017 H   0  0  0  0  0  0  0  0  0  0  0  0
  148.0320  133.6487  155.9868 H   0  0  0  0  0  0  0  0  0  0  0  0
  152.4618  132.7142  156.8894 H   0  0  0  0  0  0  0  0  0  0  0  0
  152.1105  132.9006  155.1831 H   0  0  0  0  0  0  0  0  0  0  0  0
  149.5363  134.2753  153.4151 H   0  0  0  0  0  0  0  0  0  0  0  0
  149.8344  132.9331  154.5088 H   0  0  0  0  0  0  0  0  0  0  0  0
  147.8987  136.2710  154.4440 H   0  0  0  0  0  0  0  0  0  0  0  0
  147.4717  135.9834  156.1331 H   0  0  0  0  0  0  0  0  0  0  0  0
  149.7906  139.6405  153.2790 H   0  0  0  0  0  0  0  0  0  0  0  0
  152.1530  138.8232  159.2159 H   0  0  0  0  0  0  0  0  0  0  0  0
  153.2099  141.1671  157.0190 H   0  0  0  0  0  0  0  0  0  0  0  0
  151.5960  141.8315  157.0681 H   0  0  0  0  0  0  0  0  0  0  0  0
  152.0112  140.6703  159.6305 H   0  0  0  0  0  0  0  0  0  0  0  0
  154.4440  142.4308  159.0205 H   0  0  0  0  0  0  0  0  0  0  0  0
  154.1148  141.5337  160.4838 H   0  0  0  0  0  0  0  0  0  0  0  0
  154.7998  139.7824  159.4967 H   0  0  0  0  0  0  0  0  0  0  0  0
  150.6540  142.6485  159.3013 H   0  0  0  0  0  0  0  0  0  0  0  0
  151.4874  142.8163  161.5749 H   0  0  0  0  0  0  0  0  0  0  0  0
  153.0865  143.3005  160.9962 H   0  0  0  0  0  0  0  0  0  0  0  0
  150.5024  144.8865  160.8746 H   0  0  0  0  0  0  0  0  0  0  0  0
  152.1038  145.4541  161.3557 H   0  0  0  0  0  0  0  0  0  0  0  0
  153.1996  144.0227  158.3583 H   0  0  0  0  0  0  0  0  0  0  0  0
  151.6130  144.0374  157.5828 H   0  0  0  0  0  0  0  0  0  0  0  0
  1  2  1  0  0  0  0
  1 30  1  0  0  0  0
  1 31  1  0  0  0  0
  2  3  2  0  0  0  0
  2  4  1  0  0  0  0
  4 28  1  0  0  0  0
  4  9  1  0  0  0  0
  4  5  1  0  0  0  0
  5  6  1  0  0  0  0
  5 32  1  0  0  0  0
  5 33  1  0  0  0  0
  6 29  1  0  0  0  0
  6  7  1  0  0  0  0
  6  8  1  0  0  0  0
  8  9  1  0  0  0  0
  8 34  1  0  0  0  0
  8 35  1  0  0  0  0
  9 10  1  0  0  0  0
 10 15  1  0  0  0  0
 10 11  2  0  0  0  0
 11 12  1  0  0  0  0
 12 13  2  0  0  0  0
 12 36  1  0  0  0  0
 13 14  1  0  0  0  0
 14 18  1  0  0  0  0
 14 15  2  0  0  0  0
 15 16  1  0  0  0  0
 16 17  2  0  0  0  0
 17 18  1  0  0  0  0
 17 37  1  0  0  0  0
 18 19  1  0  0  0  0
 19 20  1  0  0  0  0
 19 38  1  0  0  0  0
 19 39  1  0  0  0  0
 20 21  1  0  0  0  0
 20 23  1  0  0  0  0
 20 40  1  0  0  0  0
 21 22  1  0  0  0  0
 21 41  1  0  0  0  0
 21 42  1  0  0  0  0
 22 43  1  0  0  0  0
 23 27  1  0  0  0  0
 23 24  1  0  0  0  0
 23 44  1  0  0  0  0
 24 25  1  0  0  0  0
 24 45  1  0  0  0  0
 24 46  1  0  0  0  0
 25 26  1  0  0  0  0
 25 47  1  0  0  0  0
 25 48  1  0  0  0  0
 26 27  1  0  0  0  0
 27 49  1  0  0  0  0
 27 50  1  0  0  0  0
M  END
> <s_m_source_file>
AV-unprocessed.smi

> <i_m_source_file_index>
221

> <i_lp_mmshare_version>
43012

> <i_f3d_flags>
0

> <s_epik_input>
W05IMl1DKD1PKVtDQEBIXTFbQ0gyXVtDQEBIXShGKVtDSDJdTjFjKG5bY0hdbjIpYyhjMjMpbltjSF1uM1tDSDJdW0NASF0oW0NIMl1bT0hdKVtDQEBIXTRbQ0gyXVtDSDJdT1tDSDJdNA==

> <s_epik_cmdline>
J2VwaWtfcHl0aG9uJywgJy1waCcsICc3LjAnLCAnLXRuJywgJzgnLCAnLW1hJywgJzIwMCcsICctbWV0YWxfYmluZGluZycsICctaW1hZScsICc8aW5maWxlLm1hZT4nLCAnLW9tYWUnLCAnPG91dGZpbGUubWFlPic=

> <r_lp_tautomer_probability>
1

> <r_epik_Ionization_Penalty>
0.000818822

> <r_epik_Ionization_Penalty_Charging>
0

> <r_epik_Ionization_Penalty_Neutral>
0.000818822

> <r_epik_State_Penalty>
0.000440551

> <r_epik_Charging_Adjusted_Penalty>
0.000440551

> <i_epik_Tot_Q>
0

> <i_epik_Tot_abs_Q>
0

> <r_epik_Metal_State_Penalty>
-0

> <b_epik_Metal_Only>
0

> <s_lp_Force_Field>
OPLS_2005

> <r_lp_Energy>
50.9528

> <b_lp_Chiralities_Consistent>
1

> <s_lp_Variant>
AV-unprocessed.smi:221-16

> <Gold.Version>
5.8.1

> <Gold.Id.Protein>
6NUR|6NUR_protein|mol2

> <Gold.PLP.Fitness>
43.9594

> <Gold.PLP.PLP>
-37.2227

> <Gold.PLP.part.hbond>
-3.0000

> <Gold.PLP.part.metal>
0.0000

> <Gold.PLP.part.buried>
-6.1241

> <Gold.PLP.part.nonpolar>
-28.4738

> <Gold.PLP.part.repulsive>
0.5139

> <Gold.PLP.ligand.clash>
0.0000

> <Gold.PLP.ligand.torsion>
1.7530

> <Gold.PLP.Chemscore.Hbond>
2.2663

> <Gold.PLP.Chemscore.CHOScore>
1.0000

> <Gold.PLP.Chemscore.Metal>
0.0000

> <Gold.Chemscore.Hbonds>
donor molecule, donor type, donor heavy atom, donor atom, acceptor molecule, acceptor atom, score
      P1  H  6896  6909       L1     3  0.26
      P1  H  7989  7998       L1    13  0.50
      P1  H  7997  8008       L1    22  0.70
      L1  C    12    36       P1  7957  1.00

> <Gold.PLP.Chemscore.Internal.Correction>
0.4438

> <Gold.Rescore>
     Score         DG    S(hbond)    S(metal)    S(lipo)     H(rot)  DE(clash)    DE(int)     intcor
     10.48     -12.45       1.87        0.00      87.70       3.72       0.30       1.68       ----

> <Gold.Chemscore.Fitness>
10.4785

> <Gold.Chemscore.DG>
-12.4506

> <Gold.Chemscore.ZeroCoef>
-5.4800

> <Gold.Chemscore.Hbond>
1.8662

> <Gold.Chemscore.Metal>
0.0000

> <Gold.Chemscore.Lipo>
87.7021

> <Gold.Chemscore.Internal_Hbond>
0.0000

> <Gold.Chemscore.DEClash>
0.2955

> <Gold.Chemscore.DEInternal>
1.6766

> <Gold.Chemscore.Rot>
3.7202

> <Gold.Chemscore.Internal.Correction>
   9.000000E+99

> <Gold.Chemscore.Hbonds>
donor molecule, donor type, donor heavy atom, donor atom, acceptor molecule, acceptor atom, score
      P1  H  6896  6909       L1     3  0.24
      P1  H  7989  7998       L1    13  0.02
      P1  H  7997  8008       L1    22  0.63

> <Gold.Chemscore.Hbond.Weighted>
-6.2332

> <Gold.Chemscore.Metal.Weighted>
-0.0000

> <Gold.Chemscore.Lipo.Weighted>
-10.2611

> <Gold.Chemscore.Internal_Hbond.Weighted>
0.0000

> <Gold.Chemscore.DEClash.Weighted>
0.2955

> <Gold.Chemscore.DEInternal.Weighted>
1.6766

> <Gold.Chemscore.Rot.Weighted>
9.5237

> <Gold.Chemscore.Internal.Correction.Weighted>
   9.000000E+99

> <Gold.Protein.RotatedTorsions>
[ 6907 6896 6895 6894 ] final   30.70 input  -60.11 | X-H torsion
[ 7974 7965 7964 7962 ] final  -28.58 input  175.53 | X-H torsion
[ 8008 7997 7996 7995 ] final -126.85 input   59.86 | X-H torsion
[ 10167 10162 10161 10158 ] final  -68.34 input  -65.29 | X-H torsion
[ 10718 10713 10712 10709 ] final  152.09 input   66.30 | X-H torsion
[ 10763 10752 10751 10750 ] final -126.24 input  -60.55 | X-H torsion
[ 11005 11000 10999 10996 ] final  179.25 input  -57.11 | X-H torsion

> <Gold.Protein.ActiveResidues>
 VAL166  LYS551  ARG553  GLY616  TRP617  ASP618  TYR619  PRO620  LYS621  CYS622 
 ASP623  PHE694  ASN695  SER759  ASP760  ASP761  ALA762  ILE779  LEU786  VAL792 
 PHE793  MET794  SER795  GLU796  ALA797  LYS798  CYS799  TRP800  GLU811  SER814 

> <Gold.Protein.RotatedAtoms>
  152.0498  134.9660  160.0574 H   0  0  0  0  0  0  0  0  0  0  0  0  # atno 6907 bound_to 6896
  152.1066  133.4273  159.4620 H   0  0  0  0  0  0  0  0  0  0  0  0  # atno 6908 bound_to 6896
  150.6841  134.2617  159.4595 H   0  0  0  0  0  0  0  0  0  0  0  0  # atno 6909 bound_to 6896
  146.1278  140.5301  142.8707 H   0  0  0  0  0  0  0  0  0  0  0  0  # atno 7974 bound_to 7965
  155.2366  140.0427  157.2969 H   0  0  0  0  0  0  0  0  0  0  0  0  # atno 8008 bound_to 7997
  154.5855  140.2412  155.7964 H   0  0  0  0  0  0  0  0  0  0  0  0  # atno 8009 bound_to 7997
  156.2223  140.2966  155.9990 H   0  0  0  0  0  0  0  0  0  0  0  0  # atno 8010 bound_to 7997
  140.5515  143.2312  151.6902 H   0  0  0  0  0  0  0  0  0  0  0  0  # atno 10167 bound_to 10162
  157.2622  131.0800  151.1658 H   0  0  0  0  0  0  0  0  0  0  0  0  # atno 10718 bound_to 10713
  154.8744  135.4002  154.3398 H   0  0  0  0  0  0  0  0  0  0  0  0  # atno 10763 bound_to 10752
  153.4199  135.7023  153.6306 H   0  0  0  0  0  0  0  0  0  0  0  0  # atno 10764 bound_to 10752
  153.4973  135.3735  155.2492 H   0  0  0  0  0  0  0  0  0  0  0  0  # atno 10765 bound_to 10752
  140.4041  134.6751  157.4578 H   0  0  0  0  0  0  0  0  0  0  0  0  # atno 11005 bound_to 11000
  144.7660  140.5531  143.6703 LP  0  0  0  0  0  0  0  0  0  0  0  0  # atno 17320 bound_to 7965
  145.5327  139.1475  143.3491 LP  0  0  0  0  0  0  0  0  0  0  0  0  # atno 17321 bound_to 7965
  139.5029  144.3810  152.0375 LP  0  0  0  0  0  0  0  0  0  0  0  0  # atno 17342 bound_to 10162
  140.2928  144.3735  150.6083 LP  0  0  0  0  0  0  0  0  0  0  0  0  # atno 17343 bound_to 10162
  157.3163  130.6915  149.6243 LP  0  0  0  0  0  0  0  0  0  0  0  0  # atno 17370 bound_to 10713
  155.9664  130.4349  150.5067 LP  0  0  0  0  0  0  0  0  0  0  0  0  # atno 17371 bound_to 10713
  140.0315  134.6399  155.9100 LP  0  0  0  0  0  0  0  0  0  0  0  0  # atno 17394 bound_to 11000
  141.1846  133.6553  156.5162 LP  0  0  0  0  0  0  0  0  0  0  0  0  # atno 17395 bound_to 11000

$$$$
