AV-unprocessed.smi:2442|AV-procd|sdf|9624|dock8
  -GOLD-   2272013253D 1   1.00000     0.00000
 Structure written by MMmdl.
 46 47  0  0  0  0  0  0  0  0  1 V2000
  145.5453  136.3708  151.9603 C   0  0  0  0  0  0  0  0  0  0  0  0
  145.2029  135.3026  151.0914 O   0  0  0  0  0  0  0  0  0  0  0  0
  144.9310  134.0717  151.7552 C   0  0  1  0  0  0  0  0  0  0  0  0
  143.7971  133.3050  151.0414 C   0  0  0  0  0  0  0  0  0  0  0  0
  144.2089  132.8562  149.6296 C   0  0  0  0  0  0  0  0  0  0  0  0
  145.4962  132.0188  149.6652 C   0  0  0  0  0  0  0  0  0  0  0  0
  146.6351  132.7793  150.3622 C   0  0  0  0  0  0  0  0  0  0  0  0
  146.2286  133.2283  151.7793 C   0  0  1  0  0  0  0  0  0  0  0  0
  147.3278  133.9626  152.4011 N   0  0  0  0  0  0  0  0  0  0  0  0
  147.9758  133.5895  153.5129 C   0  0  0  0  0  0  0  0  0  0  0  0
  147.7270  132.5629  154.1460 O   0  0  0  0  0  0  0  0  0  0  0  0
  148.9209  134.4741  153.8598 N   0  0  0  0  0  0  0  0  0  0  0  0
  149.7692  134.3579  155.0398 C   0  0  0  0  0  0  0  0  0  0  0  0
  149.5629  135.5438  155.9965 C   0  0  0  0  0  0  0  0  0  0  0  0
  149.8945  136.8743  155.3400 C   0  0  0  0  0  0  0  0  0  0  0  0
  151.2379  137.1891  155.0462 C   0  0  0  0  0  0  0  0  0  0  0  0
  151.5268  138.4286  154.4424 C   0  0  0  0  0  0  0  0  0  0  0  0
  150.5810  139.3376  154.1275 N   0  0  0  0  0  0  0  0  0  0  0  0
  149.2967  139.0348  154.4113 C   0  0  0  0  0  0  0  0  0  0  0  0
  148.8942  137.8243  155.0164 C   0  0  0  0  0  0  0  0  0  0  0  0
  147.4232  137.5744  155.2989 C   0  0  0  0  0  0  0  0  0  0  0  0
  145.7510  137.2644  151.3714 H   0  0  0  0  0  0  0  0  0  0  0  0
  146.4422  136.1383  152.5358 H   0  0  0  0  0  0  0  0  0  0  0  0
  144.7368  136.6078  152.6515 H   0  0  0  0  0  0  0  0  0  0  0  0
  144.6286  134.2718  152.7846 H   0  0  0  0  0  0  0  0  0  0  0  0
  143.5378  132.4255  151.6320 H   0  0  0  0  0  0  0  0  0  0  0  0
  142.8905  133.9068  150.9913 H   0  0  0  0  0  0  0  0  0  0  0  0
  143.4035  132.2790  149.1746 H   0  0  0  0  0  0  0  0  0  0  0  0
  144.3578  133.7311  148.9952 H   0  0  0  0  0  0  0  0  0  0  0  0
  145.3082  131.0813  150.1900 H   0  0  0  0  0  0  0  0  0  0  0  0
  145.7937  131.7513  148.6507 H   0  0  0  0  0  0  0  0  0  0  0  0
  147.5206  132.1446  150.4102 H   0  0  0  0  0  0  0  0  0  0  0  0
  146.9106  133.6474  149.7615 H   0  0  0  0  0  0  0  0  0  0  0  0
  146.0439  132.3290  152.3704 H   0  0  0  0  0  0  0  0  0  0  0  0
  147.6017  134.8273  151.9579 H   0  0  0  0  0  0  0  0  0  0  0  0
  149.0519  135.2890  153.2784 H   0  0  0  0  0  0  0  0  0  0  0  0
  149.5691  133.4133  155.5482 H   0  0  0  0  0  0  0  0  0  0  0  0
  150.8090  134.3176  154.7145 H   0  0  0  0  0  0  0  0  0  0  0  0
  148.5257  135.5664  156.3339 H   0  0  0  0  0  0  0  0  0  0  0  0
  150.1617  135.4180  156.8985 H   0  0  0  0  0  0  0  0  0  0  0  0
  152.0339  136.4974  155.2796 H   0  0  0  0  0  0  0  0  0  0  0  0
  152.5459  138.6973  154.2063 H   0  0  0  0  0  0  0  0  0  0  0  0
  148.5670  139.7857  154.1462 H   0  0  0  0  0  0  0  0  0  0  0  0
  146.8273  138.4673  155.1075 H   0  0  0  0  0  0  0  0  0  0  0  0
  147.2703  137.2893  156.3397 H   0  0  0  0  0  0  0  0  0  0  0  0
  147.0454  136.7748  154.6614 H   0  0  0  0  0  0  0  0  0  0  0  0
  1  2  1  0  0  0  0
  1 22  1  0  0  0  0
  1 23  1  0  0  0  0
  1 24  1  0  0  0  0
  2  3  1  0  0  0  0
  3  8  1  0  0  0  0
  3  4  1  0  0  0  0
  3 25  1  0  0  0  0
  4  5  1  0  0  0  0
  4 26  1  0  0  0  0
  4 27  1  0  0  0  0
  5  6  1  0  0  0  0
  5 28  1  0  0  0  0
  5 29  1  0  0  0  0
  6  7  1  0  0  0  0
  6 30  1  0  0  0  0
  6 31  1  0  0  0  0
  7  8  1  0  0  0  0
  7 32  1  0  0  0  0
  7 33  1  0  0  0  0
  8  9  1  0  0  0  0
  8 34  1  0  0  0  0
  9 10  1  0  0  0  0
  9 35  1  0  0  0  0
 10 11  2  0  0  0  0
 10 12  1  0  0  0  0
 12 13  1  0  0  0  0
 12 36  1  0  0  0  0
 13 14  1  0  0  0  0
 13 37  1  0  0  0  0
 13 38  1  0  0  0  0
 14 15  1  0  0  0  0
 14 39  1  0  0  0  0
 14 40  1  0  0  0  0
 15 20  1  0  0  0  0
 15 16  2  0  0  0  0
 16 17  1  0  0  0  0
 16 41  1  0  0  0  0
 17 18  2  0  0  0  0
 17 42  1  0  0  0  0
 18 19  1  0  0  0  0
 19 20  2  0  0  0  0
 19 43  1  0  0  0  0
 20 21  1  0  0  0  0
 21 44  1  0  0  0  0
 21 45  1  0  0  0  0
 21 46  1  0  0  0  0
M  END
> <s_m_source_file>
AV-unprocessed.smi

> <i_m_source_file_index>
2442

> <i_lp_mmshare_version>
43012

> <i_f3d_flags>
0

> <s_epik_input>
W0NIM11PW0NAQEhdMVtDSDJdW0NIMl1bQ0gyXVtDSDJdW0NASF0xW05IXUMoPU8pW05IXVtDSDJdW0NIMl1jMltjSF1bY0hdbltjSF1jMltDSDNd

> <s_epik_cmdline>
J2VwaWtfcHl0aG9uJywgJy1waCcsICc3LjAnLCAnLXRuJywgJzgnLCAnLW1hJywgJzIwMCcsICctbWV0YWxfYmluZGluZycsICctaW1hZScsICc8aW5maWxlLm1hZT4nLCAnLW9tYWUnLCAnPG91dGZpbGUubWFlPic=

> <r_epik_Ionization_Penalty>
0.106136

> <r_epik_Ionization_Penalty_Charging>
0

> <r_epik_Ionization_Penalty_Neutral>
0.106136

> <r_epik_State_Penalty>
0.0959393

> <r_epik_Charging_Adjusted_Penalty>
0.0959393

> <i_epik_Tot_Q>
0

> <i_epik_Tot_abs_Q>
0

> <r_epik_Metal_State_Penalty>
0.0812517

> <b_epik_Metal_Only>
0

> <s_lp_Force_Field>
OPLS_2005

> <r_lp_Energy>
9.97505

> <b_lp_Chiralities_Consistent>
1

> <s_lp_Variant>
AV-unprocessed.smi:2442-2

> <Gold.Version>
5.8.1

> <Gold.Id.Protein>
6NUR|6NUR_protein|mol2

> <Gold.PLP.Fitness>
43.6529

> <Gold.PLP.PLP>
-35.9682

> <Gold.PLP.part.hbond>
-3.0000

> <Gold.PLP.part.metal>
0.0000

> <Gold.PLP.part.buried>
-3.2122

> <Gold.PLP.part.nonpolar>
-29.3864

> <Gold.PLP.part.repulsive>
0.4841

> <Gold.PLP.ligand.clash>
0.0000

> <Gold.PLP.ligand.torsion>
0.5778

> <Gold.PLP.Chemscore.Hbond>
2.9280

> <Gold.PLP.Chemscore.CHOScore>
0.0000

> <Gold.PLP.Chemscore.Metal>
0.0000

> <Gold.Chemscore.Hbonds>
donor molecule, donor type, donor heavy atom, donor atom, acceptor molecule, acceptor atom, score
      L1  H     9    35       P1  7948  0.91
      L1  H    12    36       P1  7948  1.00
      P1  H  7989  7998       L1    18  1.00

> <Gold.PLP.Chemscore.Internal.Correction>
0.0564

> <Gold.Rescore>
     Score         DG    S(hbond)    S(metal)    S(lipo)     H(rot)  DE(clash)    DE(int)     intcor
     17.89     -19.29       2.29        0.00      88.54       1.64       0.07       1.33       ----

> <Gold.Chemscore.Fitness>
17.8881

> <Gold.Chemscore.DG>
-19.2900

> <Gold.Chemscore.ZeroCoef>
-5.4800

> <Gold.Chemscore.Hbond>
2.2886

> <Gold.Chemscore.Metal>
0.0000

> <Gold.Chemscore.Lipo>
88.5426

> <Gold.Chemscore.Internal_Hbond>
0.0000

> <Gold.Chemscore.DEClash>
0.0706

> <Gold.Chemscore.DEInternal>
1.3313

> <Gold.Chemscore.Rot>
1.6380

> <Gold.Chemscore.Internal.Correction>
   9.000000E+99

> <Gold.Chemscore.Hbonds>
donor molecule, donor type, donor heavy atom, donor atom, acceptor molecule, acceptor atom, score
      L1  H     9    35       P1  7948  0.63
      L1  H    12    36       P1  7948  0.39
      P1  H  7989  7998       L1    18  0.39

> <Gold.Chemscore.Hbond.Weighted>
-7.6439

> <Gold.Chemscore.Metal.Weighted>
-0.0000

> <Gold.Chemscore.Lipo.Weighted>
-10.3595

> <Gold.Chemscore.Internal_Hbond.Weighted>
0.0000

> <Gold.Chemscore.DEClash.Weighted>
0.0706

> <Gold.Chemscore.DEInternal.Weighted>
1.3313

> <Gold.Chemscore.Rot.Weighted>
4.1934

> <Gold.Chemscore.Internal.Correction.Weighted>
   9.000000E+99

> <Gold.Protein.RotatedTorsions>
[ 6907 6896 6895 6894 ] final  -94.95 input  -60.11 | X-H torsion
[ 7974 7965 7964 7962 ] final  147.08 input  175.53 | X-H torsion
[ 8008 7997 7996 7995 ] final   81.97 input   59.86 | X-H torsion
[ 10167 10162 10161 10158 ] final  -98.36 input  -65.29 | X-H torsion
[ 10718 10713 10712 10709 ] final  134.95 input   66.30 | X-H torsion
[ 10763 10752 10751 10750 ] final  175.30 input  -60.55 | X-H torsion
[ 11005 11000 10999 10996 ] final   89.25 input  -57.11 | X-H torsion

> <Gold.Protein.ActiveResidues>
 VAL166  LYS551  ARG553  GLY616  TRP617  ASP618  TYR619  PRO620  LYS621  CYS622 
 ASP623  PHE694  ASN695  SER759  ASP760  ASP761  ALA762  ILE779  LEU786  VAL792 
 PHE793  MET794  SER795  GLU796  ALA797  LYS798  CYS799  TRP800  GLU811  SER814 

> <Gold.Protein.RotatedAtoms>
  150.6953  134.1734  159.4220 H   0  0  0  0  0  0  0  0  0  0  0  0  # atno 6907 bound_to 6896
  151.9711  135.0074  160.0562 H   0  0  0  0  0  0  0  0  0  0  0  0  # atno 6908 bound_to 6896
  152.1841  133.4692  159.5010 H   0  0  0  0  0  0  0  0  0  0  0  0  # atno 6909 bound_to 6896
  144.8620  139.5984  143.5926 H   0  0  0  0  0  0  0  0  0  0  0  0  # atno 7974 bound_to 7965
  155.9043  140.3431  155.6050 H   0  0  0  0  0  0  0  0  0  0  0  0  # atno 8008 bound_to 7997
  155.7463  140.0814  157.2241 H   0  0  0  0  0  0  0  0  0  0  0  0  # atno 8009 bound_to 7997
  154.4047  140.1561  156.2661 H   0  0  0  0  0  0  0  0  0  0  0  0  # atno 8010 bound_to 7997
  140.2738  143.3327  152.0509 H   0  0  0  0  0  0  0  0  0  0  0  0  # atno 10167 bound_to 10162
  157.4621  131.1074  150.9907 H   0  0  0  0  0  0  0  0  0  0  0  0  # atno 10718 bound_to 10713
  154.4658  135.2769  155.1679 H   0  0  0  0  0  0  0  0  0  0  0  0  # atno 10763 bound_to 10752
  154.3449  135.6162  153.5618 H   0  0  0  0  0  0  0  0  0  0  0  0  # atno 10764 bound_to 10752
  152.9859  135.5797  154.5029 H   0  0  0  0  0  0  0  0  0  0  0  0  # atno 10765 bound_to 10752
  139.8879  134.8539  156.3115 H   0  0  0  0  0  0  0  0  0  0  0  0  # atno 11005 bound_to 11000
  146.2867  139.7025  142.9190 LP  0  0  0  0  0  0  0  0  0  0  0  0  # atno 17320 bound_to 7965
  145.4294  141.0414  143.2919 LP  0  0  0  0  0  0  0  0  0  0  0  0  # atno 17321 bound_to 7965
  139.4981  144.6638  151.6403 LP  0  0  0  0  0  0  0  0  0  0  0  0  # atno 17342 bound_to 10162
  140.5868  143.9850  150.6300 LP  0  0  0  0  0  0  0  0  0  0  0  0  # atno 17343 bound_to 10162
  157.0701  130.5860  149.5401 LP  0  0  0  0  0  0  0  0  0  0  0  0  # atno 17370 bound_to 10713
  156.0033  130.5116  150.7742 LP  0  0  0  0  0  0  0  0  0  0  0  0  # atno 17371 bound_to 10713
  140.9847  133.7246  156.0723 LP  0  0  0  0  0  0  0  0  0  0  0  0  # atno 17394 bound_to 11000
  140.7704  134.3839  157.5509 LP  0  0  0  0  0  0  0  0  0  0  0  0  # atno 17395 bound_to 11000

$$$$
