AV-unprocessed.smi:187|AV-procd|sdf|1468|dock5
  -GOLD-   2262019283D 1   1.00000     0.00000
 Structure written by MMmdl.
 53 56  0  0  0  0  0  0  0  0  1 V2000
  152.4207  143.8257  159.6595 C   0  0  0  0  0  0  0  0  0  0  0  0
  152.6325  142.4215  160.2613 C   0  0  2  0  0  0  0  0  0  0  0  0
  153.9942  142.3608  160.9828 C   0  0  0  0  0  0  0  0  0  0  0  0
  154.2592  140.9671  161.5690 C   0  0  0  0  0  0  0  0  0  0  0  0
  154.1606  139.8989  160.4637 C   0  0  1  0  0  0  0  0  0  0  0  0
  154.3773  138.4921  161.0353 C   0  0  0  0  0  0  0  0  0  0  0  0
  155.5332  138.2614  161.6629 N   0  0  0  0  0  0  0  0  0  0  0  0
  153.5155  137.6233  160.9136 O   0  0  0  0  0  0  0  0  0  0  0  0
  152.7899  140.0008  159.7668 C   0  0  0  0  0  0  0  0  0  0  0  0
  152.5498  141.3505  159.2575 N   0  0  0  0  0  0  0  0  0  0  0  0
  151.4644  141.3723  158.4523 C   0  0  0  0  0  0  0  0  0  0  0  0
  150.4126  142.1269  158.8543 N   0  0  0  0  0  0  0  0  0  0  0  0
  149.3083  142.1855  158.1040 C   0  0  0  0  0  0  0  0  0  0  0  0
  149.0581  141.5852  156.9382 N   0  0  0  0  0  0  0  0  0  0  0  0
  150.1211  140.8360  156.5259 C   0  0  0  0  0  0  0  0  0  0  0  0
  151.3533  140.6713  157.2184 C   0  0  0  0  0  0  0  0  0  0  0  0
  152.1921  139.8277  156.5008 N   0  0  0  0  0  0  0  0  0  0  0  0
  151.4919  139.5043  155.4480 C   0  0  0  0  0  0  0  0  0  0  0  0
  150.2476  140.0884  155.3680 N   0  0  0  0  0  0  0  0  0  0  0  0
  149.2649  139.8807  154.3456 C   0  0  0  0  0  0  0  0  0  0  0  0
  147.8411  140.4236  154.4907 C   0  0  0  0  0  0  0  0  0  0  0  0
  147.3050  139.2077  153.7008 C   0  0  0  0  0  0  0  0  0  0  0  0
  146.0112  138.5807  154.2459 C   0  0  0  0  0  0  0  0  0  0  0  0
  144.9398  139.5014  154.2065 O   0  0  0  0  0  0  0  0  0  0  0  0
  147.1651  139.4189  152.1796 C   0  0  0  0  0  0  0  0  0  0  0  0
  147.2456  138.1945  151.4785 O   0  0  0  0  0  0  0  0  0  0  0  0
  148.6091  138.5122  154.1483 C   0  0  0  0  0  0  0  0  0  0  0  0
  152.5443  144.5971  160.4198 H   0  0  0  0  0  0  0  0  0  0  0  0
  151.4193  143.9462  159.2458 H   0  0  0  0  0  0  0  0  0  0  0  0
  153.1382  144.0273  158.8634 H   0  0  0  0  0  0  0  0  0  0  0  0
  151.8554  142.2487  161.0065 H   0  0  0  0  0  0  0  0  0  0  0  0
  154.7927  142.6164  160.2843 H   0  0  0  0  0  0  0  0  0  0  0  0
  154.0305  143.1048  161.7790 H   0  0  0  0  0  0  0  0  0  0  0  0
  155.2456  140.9439  162.0338 H   0  0  0  0  0  0  0  0  0  0  0  0
  153.5351  140.7651  162.3601 H   0  0  0  0  0  0  0  0  0  0  0  0
  154.9370  140.0974  159.7222 H   0  0  0  0  0  0  0  0  0  0  0  0
  155.7209  137.3505  162.0557 H   0  0  0  0  0  0  0  0  0  0  0  0
  156.2161  139.0010  161.7421 H   0  0  0  0  0  0  0  0  0  0  0  0
  152.7430  139.2846  158.9445 H   0  0  0  0  0  0  0  0  0  0  0  0
  151.9926  139.7354  160.4635 H   0  0  0  0  0  0  0  0  0  0  0  0
  148.5117  142.8024  158.4931 H   0  0  0  0  0  0  0  0  0  0  0  0
  151.8721  138.8319  154.6928 H   0  0  0  0  0  0  0  0  0  0  0  0
  149.7188  140.2295  153.4164 H   0  0  0  0  0  0  0  0  0  0  0  0
  147.5046  140.4374  155.5293 H   0  0  0  0  0  0  0  0  0  0  0  0
  147.6802  141.3931  154.0185 H   0  0  0  0  0  0  0  0  0  0  0  0
  145.7229  137.7124  153.6527 H   0  0  0  0  0  0  0  0  0  0  0  0
  146.1356  138.2239  155.2685 H   0  0  0  0  0  0  0  0  0  0  0  0
  144.7704  139.7264  153.3043 H   0  0  0  0  0  0  0  0  0  0  0  0
  146.2097  139.8814  151.9312 H   0  0  0  0  0  0  0  0  0  0  0  0
  147.9330  140.0924  151.7980 H   0  0  0  0  0  0  0  0  0  0  0  0
  147.4319  137.5058  152.0980 H   0  0  0  0  0  0  0  0  0  0  0  0
  149.0815  137.8895  153.3876 H   0  0  0  0  0  0  0  0  0  0  0  0
  148.4993  137.9648  155.0866 H   0  0  0  0  0  0  0  0  0  0  0  0
  1  2  1  0  0  0  0
  1 28  1  0  0  0  0
  1 29  1  0  0  0  0
  1 30  1  0  0  0  0
  2 10  1  0  0  0  0
  2  3  1  0  0  0  0
  2 31  1  0  0  0  0
  3  4  1  0  0  0  0
  3 32  1  0  0  0  0
  3 33  1  0  0  0  0
  4  5  1  0  0  0  0
  4 34  1  0  0  0  0
  4 35  1  0  0  0  0
  5  6  1  0  0  0  0
  5  9  1  0  0  0  0
  5 36  1  0  0  0  0
  6  7  1  0  0  0  0
  6  8  2  0  0  0  0
  7 37  1  0  0  0  0
  7 38  1  0  0  0  0
  9 10  1  0  0  0  0
  9 39  1  0  0  0  0
  9 40  1  0  0  0  0
 10 11  1  0  0  0  0
 11 16  1  0  0  0  0
 11 12  2  0  0  0  0
 12 13  1  0  0  0  0
 13 14  2  0  0  0  0
 13 41  1  0  0  0  0
 14 15  1  0  0  0  0
 15 19  1  0  0  0  0
 15 16  2  0  0  0  0
 16 17  1  0  0  0  0
 17 18  2  0  0  0  0
 18 19  1  0  0  0  0
 18 42  1  0  0  0  0
 19 20  1  0  0  0  0
 20 27  1  0  0  0  0
 20 21  1  0  0  0  0
 20 43  1  0  0  0  0
 21 22  1  0  0  0  0
 21 44  1  0  0  0  0
 21 45  1  0  0  0  0
 22 23  1  0  0  0  0
 22 25  1  0  0  0  0
 22 27  1  0  0  0  0
 23 24  1  0  0  0  0
 23 46  1  0  0  0  0
 23 47  1  0  0  0  0
 24 48  1  0  0  0  0
 25 26  1  0  0  0  0
 25 49  1  0  0  0  0
 25 50  1  0  0  0  0
 26 51  1  0  0  0  0
 27 52  1  0  0  0  0
 27 53  1  0  0  0  0
M  END
> <s_m_source_file>
AV-unprocessed.smi

> <i_m_source_file_index>
187

> <i_lp_mmshare_version>
43012

> <i_f3d_flags>
0

> <s_epik_input>
W0NIM11bQ0BASF0xW0NIMl1bQ0gyXVtDQEBIXShDKD1PKVtOSDJdKVtDSDJdTjFjKG5bY0hdbjIpYyhjMjMpbltjSF1uM1tDSF0oW0NIMl00KVtDSDJdQzQoW0NIMl1bT0hdKVtDSDJdW09IXQ==

> <s_epik_cmdline>
J2VwaWtfcHl0aG9uJywgJy1waCcsICc3LjAnLCAnLXRuJywgJzgnLCAnLW1hJywgJzIwMCcsICctbWV0YWxfYmluZGluZycsICctaW1hZScsICc8aW5maWxlLm1hZT4nLCAnLW9tYWUnLCAnPG91dGZpbGUubWFlPic=

> <r_lp_tautomer_probability>
1

> <r_epik_Ionization_Penalty>
0.0017711

> <r_epik_Ionization_Penalty_Charging>
0

> <r_epik_Ionization_Penalty_Neutral>
0.0017711

> <r_epik_State_Penalty>
0.00107211

> <r_epik_Charging_Adjusted_Penalty>
0.00107211

> <i_epik_Tot_Q>
0

> <i_epik_Tot_abs_Q>
0

> <r_epik_Metal_State_Penalty>
-0

> <b_epik_Metal_Only>
0

> <s_lp_Force_Field>
OPLS_2005

> <r_lp_Energy>
40.3757

> <b_lp_Chiralities_Consistent>
1

> <s_lp_Variant>
AV-unprocessed.smi:187-1

> <Gold.Version>
5.8.1

> <Gold.Id.Protein>
6NUR|6NUR_protein|mol2

> <Gold.PLP.Fitness>
52.2877

> <Gold.PLP.PLP>
-42.8741

> <Gold.PLP.part.hbond>
-5.4650

> <Gold.PLP.part.metal>
0.0000

> <Gold.PLP.part.buried>
0.4968

> <Gold.PLP.part.nonpolar>
-36.7813

> <Gold.PLP.part.repulsive>
0.1236

> <Gold.PLP.ligand.clash>
0.0000

> <Gold.PLP.ligand.torsion>
0.6702

> <Gold.PLP.Chemscore.Hbond>
3.3495

> <Gold.PLP.Chemscore.CHOScore>
0.0000

> <Gold.PLP.Chemscore.Metal>
0.0000

> <Gold.Chemscore.Hbonds>
donor molecule, donor type, donor heavy atom, donor atom, acceptor molecule, acceptor atom, score
      L1  H    24    48       P1 10175  0.77
      L1  H    26    51       P1  7948  0.42
      P1  H  7954  7966       L1    26  1.00
      P1  H  7997  8009       L1    17  0.67

> <Gold.PLP.Chemscore.Internal.Correction>
0.7056

> <Gold.Rescore>
     Score         DG    S(hbond)    S(metal)    S(lipo)     H(rot)  DE(clash)    DE(int)     intcor
     11.17     -16.18       2.85        0.00      97.34       3.99       1.68       3.33       ----

> <Gold.Chemscore.Fitness>
11.1687

> <Gold.Chemscore.DG>
-16.1788

> <Gold.Chemscore.ZeroCoef>
-5.4800

> <Gold.Chemscore.Hbond>
2.8516

> <Gold.Chemscore.Metal>
0.0000

> <Gold.Chemscore.Lipo>
97.3447

> <Gold.Chemscore.Internal_Hbond>
0.0000

> <Gold.Chemscore.DEClash>
1.6829

> <Gold.Chemscore.DEInternal>
3.3272

> <Gold.Chemscore.Rot>
3.9902

> <Gold.Chemscore.Internal.Correction>
   9.000000E+99

> <Gold.Chemscore.Hbonds>
donor molecule, donor type, donor heavy atom, donor atom, acceptor molecule, acceptor atom, score
      L1  H    24    48       P1 10175  0.73
      L1  H    26    51       P1  7948  0.41
      P1  H  7954  7966       L1    26  0.70
      P1  H  7997  8009       L1    17  0.65

> <Gold.Chemscore.Hbond.Weighted>
-9.5242

> <Gold.Chemscore.Metal.Weighted>
-0.0000

> <Gold.Chemscore.Lipo.Weighted>
-11.3893

> <Gold.Chemscore.Internal_Hbond.Weighted>
0.0000

> <Gold.Chemscore.DEClash.Weighted>
1.6829

> <Gold.Chemscore.DEInternal.Weighted>
3.3272

> <Gold.Chemscore.Rot.Weighted>
10.2148

> <Gold.Chemscore.Internal.Correction.Weighted>
   9.000000E+99

> <Gold.Protein.RotatedTorsions>
[ 6907 6896 6895 6894 ] final   17.22 input  -60.11 | X-H torsion
[ 7974 7965 7964 7962 ] final  -51.46 input  175.53 | X-H torsion
[ 8008 7997 7996 7995 ] final -164.47 input   59.86 | X-H torsion
[ 10167 10162 10161 10158 ] final  108.85 input  -65.29 | X-H torsion
[ 10718 10713 10712 10709 ] final  -59.85 input   66.30 | X-H torsion
[ 10763 10752 10751 10750 ] final -152.11 input  -60.55 | X-H torsion
[ 11005 11000 10999 10996 ] final -148.70 input  -57.11 | X-H torsion

> <Gold.Protein.ActiveResidues>
 VAL166  LYS551  ARG553  GLY616  TRP617  ASP618  TYR619  PRO620  LYS621  CYS622 
 ASP623  PHE694  ASN695  SER759  ASP760  ASP761  ALA762  ILE779  LEU786  VAL792 
 PHE793  MET794  SER795  GLU796  ALA797  LYS798  CYS799  TRP800  GLU811  SER814 

> <Gold.Protein.RotatedAtoms>
  151.8463  135.0573  160.0453 H   0  0  0  0  0  0  0  0  0  0  0  0  # atno 6907 bound_to 6896
  152.2771  133.5431  159.5483 H   0  0  0  0  0  0  0  0  0  0  0  0  # atno 6908 bound_to 6896
  150.7174  134.0533  159.3848 H   0  0  0  0  0  0  0  0  0  0  0  0  # atno 6909 bound_to 6896
  145.9187  140.7852  142.9658 H   0  0  0  0  0  0  0  0  0  0  0  0  # atno 7974 bound_to 7965
  155.8361  140.0941  157.1763 H   0  0  0  0  0  0  0  0  0  0  0  0  # atno 8008 bound_to 7997
  154.3981  140.1410  156.3733 H   0  0  0  0  0  0  0  0  0  0  0  0  # atno 8009 bound_to 7997
  155.8114  140.3449  155.5462 H   0  0  0  0  0  0  0  0  0  0  0  0  # atno 8010 bound_to 7997
  139.6813  144.7118  151.1510 H   0  0  0  0  0  0  0  0  0  0  0  0  # atno 10167 bound_to 10162
  156.1032  130.4183  150.0772 H   0  0  0  0  0  0  0  0  0  0  0  0  # atno 10718 bound_to 10713
  154.8015  135.3244  154.7538 H   0  0  0  0  0  0  0  0  0  0  0  0  # atno 10763 bound_to 10752
  153.8205  135.6888  153.4832 H   0  0  0  0  0  0  0  0  0  0  0  0  # atno 10764 bound_to 10752
  153.1734  135.4614  154.9877 H   0  0  0  0  0  0  0  0  0  0  0  0  # atno 10765 bound_to 10752
  140.7585  134.3326  157.5108 H   0  0  0  0  0  0  0  0  0  0  0  0  # atno 11005 bound_to 11000
  144.6750  140.1941  143.7393 LP  0  0  0  0  0  0  0  0  0  0  0  0  # atno 17320 bound_to 7965
  145.8578  139.2207  143.1734 LP  0  0  0  0  0  0  0  0  0  0  0  0  # atno 17321 bound_to 7965
  140.7653  143.5694  150.9012 LP  0  0  0  0  0  0  0  0  0  0  0  0  # atno 17342 bound_to 10162
  139.9367  143.6430  152.3063 LP  0  0  0  0  0  0  0  0  0  0  0  0  # atno 17343 bound_to 10162
  156.8754  130.9538  151.3605 LP  0  0  0  0  0  0  0  0  0  0  0  0  # atno 17370 bound_to 10713
  157.6205  130.8652  149.9101 LP  0  0  0  0  0  0  0  0  0  0  0  0  # atno 17371 bound_to 10713
  139.8775  134.9187  156.3208 LP  0  0  0  0  0  0  0  0  0  0  0  0  # atno 17394 bound_to 11000
  140.9685  133.7342  156.0501 LP  0  0  0  0  0  0  0  0  0  0  0  0  # atno 17395 bound_to 11000

$$$$
