AV-unprocessed.smi:3198|AV-procd|sdf|12227|dock9
  -GOLD-   2272018 63D 1   1.00000     0.00000
 Structure written by MMmdl.
 38 39  0  0  0  0  0  0  0  0  2 V2000
  153.9737  141.7360  160.1346 C   0  0  0  0  0  0  0  0  0  0  0  0
  152.9089  142.7526  159.7816 C   0  0  0  0  0  0  0  0  0  0  0  0
  152.6747  143.9024  160.5638 C   0  0  0  0  0  0  0  0  0  0  0  0
  151.6641  144.8032  160.1720 C   0  0  0  0  0  0  0  0  0  0  0  0
  150.9094  144.5354  159.0111 C   0  0  0  0  0  0  0  0  0  0  0  0
  151.1822  143.3666  158.2602 C   0  0  0  0  0  0  0  0  0  0  0  0
  150.4954  142.9991  157.0964 N   0  0  0  0  0  0  0  0  0  0  0  0
  150.8514  141.7755  156.3949 C   0  0  0  0  0  0  0  0  0  0  0  0
  149.6189  141.1031  155.7818 C   0  0  0  0  0  0  0  0  0  0  0  0
  149.0209  141.9973  154.8583 O   0  0  0  0  0  0  0  0  0  0  0  0
  147.9369  141.4164  154.1530 C   0  0  0  0  0  0  0  0  0  0  0  0
  146.6773  141.4988  155.0242 C   0  0  2  0  0  0  0  0  0  0  0  0
  145.7450  142.6518  154.6551 C   0  0  0  0  0  0  0  0  0  0  0  0
  145.0055  142.9455  155.9520 C   0  0  0  0  0  0  0  0  0  0  0  0
  145.8199  142.2117  157.0212 C   0  0  0  0  0  0  0  0  0  0  0  0
  147.0151  141.8118  156.3658 O   0  0  0  0  0  0  0  0  0  0  0  0
  152.1634  142.5341  158.6752 N   0  3  0  0  0  0  0  0  0  0  0  0
  154.5353  142.0445  161.0170 H   0  0  0  0  0  0  0  0  0  0  0  0
  154.6762  141.6179  159.3092 H   0  0  0  0  0  0  0  0  0  0  0  0
  153.5190  140.7669  160.3417 H   0  0  0  0  0  0  0  0  0  0  0  0
  153.2594  144.0940  161.4520 H   0  0  0  0  0  0  0  0  0  0  0  0
  151.4693  145.6906  160.7559 H   0  0  0  0  0  0  0  0  0  0  0  0
  150.1367  145.2284  158.7130 H   0  0  0  0  0  0  0  0  0  0  0  0
  149.9414  143.6875  156.6072 H   0  0  0  0  0  0  0  0  0  0  0  0
  151.5860  141.9894  155.6176 H   0  0  0  0  0  0  0  0  0  0  0  0
  151.3184  141.0922  157.1048 H   0  0  0  0  0  0  0  0  0  0  0  0
  149.9239  140.1942  155.2609 H   0  0  0  0  0  0  0  0  0  0  0  0
  148.9099  140.8125  156.5589 H   0  0  0  0  0  0  0  0  0  0  0  0
  147.7771  141.9206  153.1985 H   0  0  0  0  0  0  0  0  0  0  0  0
  148.1684  140.3716  153.9400 H   0  0  0  0  0  0  0  0  0  0  0  0
  146.1273  140.5560  154.9957 H   0  0  0  0  0  0  0  0  0  0  0  0
  146.3265  143.5274  154.3624 H   0  0  0  0  0  0  0  0  0  0  0  0
  145.0753  142.4034  153.8314 H   0  0  0  0  0  0  0  0  0  0  0  0
  144.9667  144.0188  156.1415 H   0  0  0  0  0  0  0  0  0  0  0  0
  143.9812  142.5719  155.9247 H   0  0  0  0  0  0  0  0  0  0  0  0
  146.0366  142.8382  157.8869 H   0  0  0  0  0  0  0  0  0  0  0  0
  145.2874  141.3246  157.3676 H   0  0  0  0  0  0  0  0  0  0  0  0
  152.3514  141.6947  158.1269 H   0  0  0  0  0  0  0  0  0  0  0  0
  1  2  1  0  0  0  0
  1 18  1  0  0  0  0
  1 19  1  0  0  0  0
  1 20  1  0  0  0  0
  2 17  1  0  0  0  0
  2  3  2  0  0  0  0
  3  4  1  0  0  0  0
  3 21  1  0  0  0  0
  4  5  2  0  0  0  0
  4 22  1  0  0  0  0
  5  6  1  0  0  0  0
  5 23  1  0  0  0  0
  6  7  1  0  0  0  0
  6 17  2  0  0  0  0
  7  8  1  0  0  0  0
  7 24  1  0  0  0  0
  8  9  1  0  0  0  0
  8 25  1  0  0  0  0
  8 26  1  0  0  0  0
  9 10  1  0  0  0  0
  9 27  1  0  0  0  0
  9 28  1  0  0  0  0
 10 11  1  0  0  0  0
 11 12  1  0  0  0  0
 11 29  1  0  0  0  0
 11 30  1  0  0  0  0
 12 16  1  0  0  0  0
 12 13  1  0  0  0  0
 12 31  1  0  0  0  0
 13 14  1  0  0  0  0
 13 32  1  0  0  0  0
 13 33  1  0  0  0  0
 14 15  1  0  0  0  0
 14 34  1  0  0  0  0
 14 35  1  0  0  0  0
 15 16  1  0  0  0  0
 15 36  1  0  0  0  0
 15 37  1  0  0  0  0
 17 38  1  0  0  0  0
M  CHG  1  17   1
M  END
> <s_m_source_file>
AV-unprocessed.smi

> <i_m_source_file_index>
3198

> <i_lp_mmshare_version>
43012

> <i_f3d_flags>
0

> <s_epik_input>
W0NIM11jMVtjSF1bY0hdW2NIXWMobjEpW05IXVtDSDJdW0NIMl1PW0NIMl1bQ0BASF0yW0NIMl1bQ0gyXVtDSDJdTzI=

> <s_epik_cmdline>
J2VwaWtfcHl0aG9uJywgJy1waCcsICc3LjAnLCAnLXRuJywgJzgnLCAnLW1hJywgJzIwMCcsICctbWV0YWxfYmluZGluZycsICctaW1hZScsICc8aW5maWxlLm1hZT4nLCAnLW9tYWUnLCAnPG91dGZpbGUubWFlPic=

> <r_lp_tautomer_probability>
0.999994

> <r_epik_Ionization_Penalty>
0.0710016

> <r_epik_Ionization_Penalty_Charging>
0.0710012

> <r_epik_Ionization_Penalty_Neutral>
3.47026e-07

> <r_epik_State_Penalty>
0.0622974

> <r_epik_Charging_Adjusted_Penalty>
0.133299

> <i_epik_Tot_Q>
1

> <i_epik_Tot_abs_Q>
1

> <r_epik_Metal_State_Penalty>
2.79497

> <b_epik_Metal_Only>
0

> <s_lp_Force_Field>
OPLS_2005

> <r_lp_Energy>
24.6681

> <b_lp_Chiralities_Consistent>
1

> <s_lp_Variant>
AV-unprocessed.smi:3198-1

> <Gold.Version>
5.8.1

> <Gold.Id.Protein>
6NUR|6NUR_protein|mol2

> <Gold.PLP.Fitness>
46.1176

> <Gold.PLP.PLP>
-42.3214

> <Gold.PLP.part.hbond>
-2.2775

> <Gold.PLP.part.metal>
0.0000

> <Gold.PLP.part.buried>
-6.1911

> <Gold.PLP.part.nonpolar>
-34.9838

> <Gold.PLP.part.repulsive>
1.9353

> <Gold.PLP.ligand.clash>
0.4332

> <Gold.PLP.ligand.torsion>
0.8990

> <Gold.PLP.Chemscore.Hbond>
2.0000

> <Gold.PLP.Chemscore.CHOScore>
0.0000

> <Gold.PLP.Chemscore.Metal>
0.0000

> <Gold.Chemscore.Hbonds>
donor molecule, donor type, donor heavy atom, donor atom, acceptor molecule, acceptor atom, score
      L1  H     7    24       P1  8028  2.00

> <Gold.PLP.Chemscore.Internal.Correction>
0.0274

> <Gold.Rescore>
     Score         DG    S(hbond)    S(metal)    S(lipo)     H(rot)  DE(clash)    DE(int)     intcor
     13.55     -15.97       0.99        0.00      98.63       1.71       0.13       2.29       ----

> <Gold.Chemscore.Fitness>
13.5500

> <Gold.Chemscore.DG>
-15.9692

> <Gold.Chemscore.ZeroCoef>
-5.4800

> <Gold.Chemscore.Hbond>
0.9932

> <Gold.Chemscore.Metal>
0.0000

> <Gold.Chemscore.Lipo>
98.6314

> <Gold.Chemscore.Internal_Hbond>
0.0000

> <Gold.Chemscore.DEClash>
0.1263

> <Gold.Chemscore.DEInternal>
2.2929

> <Gold.Chemscore.Rot>
1.7063

> <Gold.Chemscore.Internal.Correction>
   9.000000E+99

> <Gold.Chemscore.Hbonds>
donor molecule, donor type, donor heavy atom, donor atom, acceptor molecule, acceptor atom, score
      L1  H     7    24       P1  8028  1.00

> <Gold.Chemscore.Hbond.Weighted>
-3.3174

> <Gold.Chemscore.Metal.Weighted>
-0.0000

> <Gold.Chemscore.Lipo.Weighted>
-11.5399

> <Gold.Chemscore.Internal_Hbond.Weighted>
0.0000

> <Gold.Chemscore.DEClash.Weighted>
0.1263

> <Gold.Chemscore.DEInternal.Weighted>
2.2929

> <Gold.Chemscore.Rot.Weighted>
4.3681

> <Gold.Chemscore.Internal.Correction.Weighted>
   9.000000E+99

> <Gold.Protein.RotatedTorsions>
[ 6907 6896 6895 6894 ] final  -33.90 input  -60.11 | X-H torsion
[ 7974 7965 7964 7962 ] final  111.65 input  175.53 | X-H torsion
[ 8008 7997 7996 7995 ] final  -10.05 input   59.86 | X-H torsion
[ 10167 10162 10161 10158 ] final   26.29 input  -65.29 | X-H torsion
[ 10718 10713 10712 10709 ] final   50.67 input   66.30 | X-H torsion
[ 10763 10752 10751 10750 ] final   43.60 input  -60.55 | X-H torsion
[ 11005 11000 10999 10996 ] final -126.30 input  -57.11 | X-H torsion

> <Gold.Protein.ActiveResidues>
 VAL166  LYS551  ARG553  GLY616  TRP617  ASP618  TYR619  PRO620  LYS621  CYS622 
 ASP623  PHE694  ASN695  SER759  ASP760  ASP761  ALA762  ILE779  LEU786  VAL792 
 PHE793  MET794  SER795  GLU796  ALA797  LYS798  CYS799  TRP800  GLU811  SER814 

> <Gold.Protein.RotatedAtoms>
  151.0596  134.9728  159.8253 H   0  0  0  0  0  0  0  0  0  0  0  0  # atno 6907 bound_to 6896
  152.5393  134.2434  159.8881 H   0  0  0  0  0  0  0  0  0  0  0  0  # atno 6908 bound_to 6896
  151.2453  133.4335  159.2643 H   0  0  0  0  0  0  0  0  0  0  0  0  # atno 6909 bound_to 6896
  145.2395  139.2785  143.4125 H   0  0  0  0  0  0  0  0  0  0  0  0  # atno 7974 bound_to 7965
  154.5590  140.2339  155.8365 H   0  0  0  0  0  0  0  0  0  0  0  0  # atno 8008 bound_to 7997
  156.2013  140.3051  155.9493 H   0  0  0  0  0  0  0  0  0  0  0  0  # atno 8009 bound_to 7997
  155.2925  140.0427  157.3014 H   0  0  0  0  0  0  0  0  0  0  0  0  # atno 8010 bound_to 7997
  140.5035  144.0277  150.6342 H   0  0  0  0  0  0  0  0  0  0  0  0  # atno 10167 bound_to 10162
  157.4907  130.8374  149.8199 H   0  0  0  0  0  0  0  0  0  0  0  0  # atno 10718 bound_to 10713
  152.9857  135.6096  154.3137 H   0  0  0  0  0  0  0  0  0  0  0  0  # atno 10763 bound_to 10752
  154.2851  135.2776  155.2681 H   0  0  0  0  0  0  0  0  0  0  0  0  # atno 10764 bound_to 10752
  154.5002  135.5869  153.6582 H   0  0  0  0  0  0  0  0  0  0  0  0  # atno 10765 bound_to 10752
  140.9692  134.0829  157.3887 H   0  0  0  0  0  0  0  0  0  0  0  0  # atno 11005 bound_to 11000
  146.3332  140.2754  142.8608 LP  0  0  0  0  0  0  0  0  0  0  0  0  # atno 17320 bound_to 7965
  144.9602  140.8267  143.5518 LP  0  0  0  0  0  0  0  0  0  0  0  0  # atno 17321 bound_to 7965
  140.3580  143.2925  152.0415 LP  0  0  0  0  0  0  0  0  0  0  0  0  # atno 17342 bound_to 10162
  139.4878  144.6325  151.7042 LP  0  0  0  0  0  0  0  0  0  0  0  0  # atno 17343 bound_to 10162
  156.0172  130.3809  150.2074 LP  0  0  0  0  0  0  0  0  0  0  0  0  # atno 17370 bound_to 10713
  157.0263  130.9994  151.3325 LP  0  0  0  0  0  0  0  0  0  0  0  0  # atno 17371 bound_to 10713
  139.8906  135.0113  156.6745 LP  0  0  0  0  0  0  0  0  0  0  0  0  # atno 17394 bound_to 11000
  140.7353  133.9024  155.8240 LP  0  0  0  0  0  0  0  0  0  0  0  0  # atno 17395 bound_to 11000

$$$$
