#       Name:                AV-unprocessed.smi:1464
#       Creating user name   scv26
#       Creation time:       Fri Mar 27 06:03:16 2020


#       File generated by GOLD software.
#

@<TRIPOS>MOLECULE
AV-unprocessed.smi:1464
    48    49     1
SMALL
NO_CHARGES


@<TRIPOS>ATOM
      1 ****        -3.7247  -1.7785   1.9885 C.3            1 S1                 0.0000
      2 ****        -3.1650  -1.1222   0.7154 C.3            1 S1                 0.0000
      3 ****        -3.7990  -1.7120  -0.5611 C.3            1 S1                 0.0000
      4 ****        -3.3097  -0.9814  -1.8219 C.3            1 S1                 0.0000
      5 ****        -1.7756  -0.9615  -1.9072 C.3            1 S1                 0.0000
      6 ****        -1.1530  -0.3686  -0.6285 C.3            1 S1                 0.0000
      7 ****         0.3022  -0.3260  -0.7546 N.am           1 S1                 0.0000
      8 ****         1.1128   0.5203  -0.1008 C.2            1 S1                 0.0000
      9 ****         0.7060   1.3561   0.7075 O.2            1 S1                 0.0000
     10 ****         2.6135   0.3774  -0.3921 C.3            1 S1                 0.0000
     11 ****         3.3671   1.6215  -0.1777 N.am           1 S1                 0.0000
     12 ****         4.0539   1.6700   1.0264 N.2            1 S1                 0.0000
     13 ****         4.7419   2.7173   1.3338 C.2            1 S1                 0.0000
     14 ****         5.4038   2.7252   2.5370 O.3            1 S1                 0.0000
     15 ****         4.8177   3.8527   0.4409 C.2            1 S1                 0.0000
     16 ****         4.1482   3.7949  -0.7309 C.2            1 S1                 0.0000
     17 ****         3.3586   2.6221  -1.1117 C.2            1 S1                 0.0000
     18 ****         2.7422   2.5409  -2.1740 O.2            1 S1                 0.0000
     19 ****        -1.6149  -1.1347   0.6413 C.3            1 S1                 0.0000
     20 ****        -1.0015  -2.5497   0.7567 C.3            1 S1                 0.0000
     21 ****         5.1963   1.8974   2.9424 H              1 S1                 0.0000
     22 ****        -3.5699  -2.8575   1.9908 H              1 S1                 0.0000
     23 ****        -4.7975  -1.6047   2.0746 H              1 S1                 0.0000
     24 ****        -3.2540  -1.3679   2.8822 H              1 S1                 0.0000
     25 ****        -3.4663  -0.0744   0.7623 H              1 S1                 0.0000
     26 ****        -3.5700  -2.7751  -0.6395 H              1 S1                 0.0000
     27 ****        -4.8856  -1.6398  -0.5031 H              1 S1                 0.0000
     28 ****        -3.7253  -1.4556  -2.7114 H              1 S1                 0.0000
     29 ****        -3.6852   0.0426  -1.8153 H              1 S1                 0.0000
     30 ****        -1.4049  -1.9731  -2.0758 H              1 S1                 0.0000
     31 ****        -1.4698  -0.3764  -2.7755 H              1 S1                 0.0000
     32 ****        -1.5079   0.6613  -0.5505 H              1 S1                 0.0000
     33 ****         0.7225  -0.9860  -1.3926 H              1 S1                 0.0000
     34 ****         3.0051  -0.4166   0.2462 H              1 S1                 0.0000
     35 ****         2.7587   0.0278  -1.4161 H              1 S1                 0.0000
     36 ****         5.3980   4.7216   0.7140 H              1 S1                 0.0000
     37 ****         4.1944   4.6361  -1.4069 H              1 S1                 0.0000
     38 ****        -1.2519  -0.5744   1.5042 H              1 S1                 0.0000
     39 ****        -1.3241  -3.2056  -0.0511 H              1 S1                 0.0000
     40 ****        -1.2749  -3.0273   1.6969 H              1 S1                 0.0000
     41 ****         0.0877  -2.5168   0.7365 H              1 S1                 0.0000
     42 ****        -0.2720   1.4274   0.9035 LP             1 S1                 0.0000
     43 ****         1.3538   1.9633   1.1677 LP             1 S1                 0.0000
     44 ****         4.0158   0.8938   1.6558 LP             1 S1                 0.0000
     45 ****         5.0858   3.4833   3.1064 LP             1 S1                 0.0000
     46 ****         6.3900   2.8071   2.3934 LP             1 S1                 0.0000
     47 ****         2.2172   1.7166  -2.3857 LP             1 S1                 0.0000
     48 ****         2.7664   3.2993  -2.8253 LP             1 S1                 0.0000
@<TRIPOS>BOND
    1    1    2 1     
    2    1   22 1     
    3    1   23 1     
    4    1   24 1     
    5    2   19 1     
    6    2    3 1     
    7    2   25 1     
    8    3    4 1     
    9    3   26 1     
   10    3   27 1     
   11    4    5 1     
   12    4   28 1     
   13    4   29 1     
   14    5    6 1     
   15    5   30 1     
   16    5   31 1     
   17    6    7 1     
   18    6   19 1     
   19    6   32 1     
   20    7    8 am    
   21    7   33 1     
   22    8    9 2     
   23    8   10 1     
   24   10   34 1     
   25   10   35 1     
   26   10   11 1     
   27   11   12 1     
   28   11   17 am    
   29   12   13 2     
   30   13   14 1     
   31   13   15 1     
   32   14   21 1     
   33   15   36 1     
   34   15   16 2     
   35   16   37 1     
   36   16   17 1     
   37   17   18 2     
   38   19   20 1     
   39   19   38 1     
   40   20   39 1     
   41   20   40 1     
   42   20   41 1     
   43    9   42 1     
   44    9   43 1     
   45   12   44 1     
   46   14   45 1     
   47   14   46 1     
   48   18   47 1     
   49   18   48 1     
@<TRIPOS>SUBSTRUCTURE
      1 S1             1
@<TRIPOS>SET
LONE_PAIRS      STATIC     ATOMS    <user>   **** ""
7 42 43 44 45 46 47 48
DONOR_HYDROGENS      STATIC     ATOMS    <user>   **** ""
2 33 21
ATOM$BLUE        STATIC     ATOMS    COLORGROUP SYSTEM
7 42 43 44 45 46 47 48
ATOM$RED        STATIC     ATOMS    COLORGROUP SYSTEM
2 33 21
