AV-unprocessed.smi:713|AV-procd|sdf|3474|dock9
  -GOLD-   22720 0463D 1   1.00000     0.00000
 Structure written by MMmdl.
 41 42  0  0  0  0  0  0  0  0  1 V2000
  154.2661  141.3918  159.8674 C   0  0  0  0  0  0  0  0  0  0  0  0
  152.7653  141.6626  159.6367 C   0  0  2  0  0  0  0  0  0  0  0  0
  152.2351  141.0526  158.3269 C   0  0  0  0  0  0  0  0  0  0  0  0
  151.6485  141.7495  157.4977 O   0  0  0  0  0  0  0  0  0  0  0  0
  152.4632  139.7411  158.1472 N   0  0  0  0  0  0  0  0  0  0  0  0
  152.0424  138.9624  156.9876 C   0  0  2  0  0  0  0  0  0  0  0  0
  152.4841  139.6795  155.6993 C   0  0  0  0  0  0  0  0  0  0  0  0
  152.0264  138.9220  154.4430 C   0  0  0  0  0  0  0  0  0  0  0  0
  150.5084  138.6641  154.4566 C   0  0  0  0  0  0  0  0  0  0  0  0
  150.0014  138.0027  155.7588 C   0  0  1  0  0  0  0  0  0  0  0  0
  150.3987  136.1885  155.8771 S   0  0  0  0  0  0  0  0  0  0  0  0
  149.5643  135.7006  157.4436 C   0  0  0  0  0  0  0  0  0  0  0  0
  149.7464  135.4574  154.7809 O   0  0  0  0  0  0  0  0  0  0  0  0
  151.8500  136.0515  156.0701 O   0  0  0  0  0  0  0  0  0  0  0  0
  150.5124  138.7654  156.9973 C   0  0  0  0  0  0  0  0  0  0  0  0
  152.4559  143.0867  159.7094 N   0  0  0  0  0  0  0  0  0  0  0  0
  151.8485  143.7715  160.7426 C   0  0  0  0  0  0  0  0  0  0  0  0
  151.7340  145.0768  160.3589 C   0  0  0  0  0  0  0  0  0  0  0  0
  152.2998  145.0962  159.0538 C   0  0  0  0  0  0  0  0  0  0  0  0
  152.7251  143.9056  158.6655 N   0  0  0  0  0  0  0  0  0  0  0  0
  154.4741  140.3217  159.8943 H   0  0  0  0  0  0  0  0  0  0  0  0
  154.5943  141.8106  160.8190 H   0  0  0  0  0  0  0  0  0  0  0  0
  154.8852  141.8298  159.0833 H   0  0  0  0  0  0  0  0  0  0  0  0
  152.2223  141.1751  160.4479 H   0  0  0  0  0  0  0  0  0  0  0  0
  152.9535  139.2426  158.8756 H   0  0  0  0  0  0  0  0  0  0  0  0
  152.5371  137.9912  157.0250 H   0  0  0  0  0  0  0  0  0  0  0  0
  152.0719  140.6896  155.6797 H   0  0  0  0  0  0  0  0  0  0  0  0
  153.5692  139.7889  155.6850 H   0  0  0  0  0  0  0  0  0  0  0  0
  152.2895  139.4975  153.5550 H   0  0  0  0  0  0  0  0  0  0  0  0
  152.5746  137.9857  154.3576 H   0  0  0  0  0  0  0  0  0  0  0  0
  150.0008  139.6226  154.3408 H   0  0  0  0  0  0  0  0  0  0  0  0
  150.2229  138.0755  153.5860 H   0  0  0  0  0  0  0  0  0  0  0  0
  148.9125  138.0561  155.7645 H   0  0  0  0  0  0  0  0  0  0  0  0
  149.8216  134.6681  157.6795 H   0  0  0  0  0  0  0  0  0  0  0  0
  148.4836  135.7789  157.3323 H   0  0  0  0  0  0  0  0  0  0  0  0
  149.8989  136.3480  158.2537 H   0  0  0  0  0  0  0  0  0  0  0  0
  150.2025  138.2467  157.9050 H   0  0  0  0  0  0  0  0  0  0  0  0
  150.0277  139.7422  157.0316 H   0  0  0  0  0  0  0  0  0  0  0  0
  151.5509  143.2775  161.6558 H   0  0  0  0  0  0  0  0  0  0  0  0
  151.3085  145.8931  160.9234 H   0  0  0  0  0  0  0  0  0  0  0  0
  152.4110  145.9335  158.3806 H   0  0  0  0  0  0  0  0  0  0  0  0
  1  2  1  0  0  0  0
  1 21  1  0  0  0  0
  1 22  1  0  0  0  0
  1 23  1  0  0  0  0
  2  3  1  0  0  0  0
  2 16  1  0  0  0  0
  2 24  1  0  0  0  0
  3  4  2  0  0  0  0
  3  5  1  0  0  0  0
  5  6  1  0  0  0  0
  5 25  1  0  0  0  0
  6 15  1  0  0  0  0
  6  7  1  0  0  0  0
  6 26  1  0  0  0  0
  7  8  1  0  0  0  0
  7 27  1  0  0  0  0
  7 28  1  0  0  0  0
  8  9  1  0  0  0  0
  8 29  1  0  0  0  0
  8 30  1  0  0  0  0
  9 10  1  0  0  0  0
  9 31  1  0  0  0  0
  9 32  1  0  0  0  0
 10 11  1  0  0  0  0
 10 15  1  0  0  0  0
 10 33  1  0  0  0  0
 11 12  1  0  0  0  0
 11 13  2  0  0  0  0
 11 14  2  0  0  0  0
 12 34  1  0  0  0  0
 12 35  1  0  0  0  0
 12 36  1  0  0  0  0
 15 37  1  0  0  0  0
 15 38  1  0  0  0  0
 16 20  1  0  0  0  0
 16 17  1  0  0  0  0
 17 18  2  0  0  0  0
 17 39  1  0  0  0  0
 18 19  1  0  0  0  0
 18 40  1  0  0  0  0
 19 20  2  0  0  0  0
 19 41  1  0  0  0  0
M  END
> <s_m_source_file>
AV-unprocessed.smi

> <i_m_source_file_index>
713

> <i_lp_mmshare_version>
43012

> <i_f3d_flags>
0

> <s_epik_input>
bjFbY0hdW2NIXVtjSF1uMVtDQEhdKFtDSDNdKUMoPU8pW05IXVtDQEBIXTJbQ0gyXVtDSDJdW0NIMl1bQ0BIXShbQ0gyXTIpUyg9TykoPU8pW0NIM10=

> <s_epik_cmdline>
J2VwaWtfcHl0aG9uJywgJy1waCcsICc3LjAnLCAnLXRuJywgJzgnLCAnLW1hJywgJzIwMCcsICctbWV0YWxfYmluZGluZycsICctaW1hZScsICc8aW5maWxlLm1hZT4nLCAnLW9tYWUnLCAnPG91dGZpbGUubWFlPic=

> <r_lp_tautomer_probability>
1

> <r_epik_Ionization_Penalty>
4.07816e-05

> <r_epik_Ionization_Penalty_Charging>
0

> <r_epik_Ionization_Penalty_Neutral>
4.07816e-05

> <r_epik_State_Penalty>
-0

> <r_epik_Charging_Adjusted_Penalty>
0

> <i_epik_Tot_Q>
0

> <i_epik_Tot_abs_Q>
0

> <r_epik_Metal_State_Penalty>
-0

> <b_epik_Metal_Only>
0

> <s_lp_Force_Field>
OPLS_2005

> <r_lp_Energy>
4.10812

> <b_lp_Chiralities_Consistent>
1

> <s_lp_Variant>
AV-unprocessed.smi:713-1

> <Gold.Version>
5.8.1

> <Gold.Id.Protein>
6NUR|6NUR_protein|mol2

> <Gold.PLP.Fitness>
40.7583

> <Gold.PLP.PLP>
-38.5777

> <Gold.PLP.part.hbond>
-1.0000

> <Gold.PLP.part.metal>
0.0000

> <Gold.PLP.part.buried>
-5.6014

> <Gold.PLP.part.nonpolar>
-32.4115

> <Gold.PLP.part.repulsive>
0.2812

> <Gold.PLP.ligand.clash>
0.0000

> <Gold.PLP.ligand.torsion>
0.5544

> <Gold.PLP.Chemscore.Hbond>
1.0000

> <Gold.PLP.Chemscore.CHOScore>
0.0000

> <Gold.PLP.Chemscore.Metal>
0.0000

> <Gold.Chemscore.Hbonds>
donor molecule, donor type, donor heavy atom, donor atom, acceptor molecule, acceptor atom, score
      P1  H 10752 10764       L1    14  1.00

> <Gold.PLP.Chemscore.Internal.Correction>
0.2894

> <Gold.Rescore>
     Score         DG    S(hbond)    S(metal)    S(lipo)     H(rot)  DE(clash)    DE(int)     intcor
     11.50     -15.53       1.00        0.00      95.10       1.72       0.10       3.94       ----

> <Gold.Chemscore.Fitness>
11.4978

> <Gold.Chemscore.DG>
-15.5305

> <Gold.Chemscore.ZeroCoef>
-5.4800

> <Gold.Chemscore.Hbond>
1.0000

> <Gold.Chemscore.Metal>
0.0000

> <Gold.Chemscore.Lipo>
95.0960

> <Gold.Chemscore.Internal_Hbond>
0.0000

> <Gold.Chemscore.DEClash>
0.0954

> <Gold.Chemscore.DEInternal>
3.9373

> <Gold.Chemscore.Rot>
1.7249

> <Gold.Chemscore.Internal.Correction>
   9.000000E+99

> <Gold.Chemscore.Hbonds>
donor molecule, donor type, donor heavy atom, donor atom, acceptor molecule, acceptor atom, score
      P1  H 10752 10764       L1    14  1.00

> <Gold.Chemscore.Hbond.Weighted>
-3.3400

> <Gold.Chemscore.Metal.Weighted>
-0.0000

> <Gold.Chemscore.Lipo.Weighted>
-11.1262

> <Gold.Chemscore.Internal_Hbond.Weighted>
0.0000

> <Gold.Chemscore.DEClash.Weighted>
0.0954

> <Gold.Chemscore.DEInternal.Weighted>
3.9373

> <Gold.Chemscore.Rot.Weighted>
4.4157

> <Gold.Chemscore.Internal.Correction.Weighted>
   9.000000E+99

> <Gold.Protein.RotatedTorsions>
[ 6907 6896 6895 6894 ] final  131.06 input  -60.11 | X-H torsion
[ 7974 7965 7964 7962 ] final  -42.32 input  175.53 | X-H torsion
[ 8008 7997 7996 7995 ] final -150.67 input   59.86 | X-H torsion
[ 10167 10162 10161 10158 ] final -163.40 input  -65.29 | X-H torsion
[ 10718 10713 10712 10709 ] final  -63.75 input   66.30 | X-H torsion
[ 10763 10752 10751 10750 ] final  -25.93 input  -60.55 | X-H torsion
[ 11005 11000 10999 10996 ] final  -97.90 input  -57.11 | X-H torsion

> <Gold.Protein.ActiveResidues>
 VAL166  LYS551  ARG553  GLY616  TRP617  ASP618  TYR619  PRO620  LYS621  CYS622 
 ASP623  PHE694  ASN695  SER759  ASP760  ASP761  ALA762  ILE779  LEU786  VAL792 
 PHE793  MET794  SER795  GLU796  ALA797  LYS798  CYS799  TRP800  GLU811  SER814 

> <Gold.Protein.RotatedAtoms>
  152.3464  133.6127  159.5912 H   0  0  0  0  0  0  0  0  0  0  0  0  # atno 6907 bound_to 6896
  150.7510  133.9642  159.3534 H   0  0  0  0  0  0  0  0  0  0  0  0  # atno 6908 bound_to 6896
  151.7500  135.0835  160.0380 H   0  0  0  0  0  0  0  0  0  0  0  0  # atno 6909 bound_to 6896
  146.0127  140.6945  142.9216 H   0  0  0  0  0  0  0  0  0  0  0  0  # atno 7974 bound_to 7965
  155.6272  140.0687  157.2660 H   0  0  0  0  0  0  0  0  0  0  0  0  # atno 8008 bound_to 7997
  154.4215  140.1774  156.1482 H   0  0  0  0  0  0  0  0  0  0  0  0  # atno 8009 bound_to 7997
  155.9962  140.3340  155.6804 H   0  0  0  0  0  0  0  0  0  0  0  0  # atno 8010 bound_to 7997
  139.6323  144.0416  152.2026 H   0  0  0  0  0  0  0  0  0  0  0  0  # atno 10167 bound_to 10162
  156.0771  130.4224  150.1322 H   0  0  0  0  0  0  0  0  0  0  0  0  # atno 10718 bound_to 10713
  153.7078  135.6952  153.5045 H   0  0  0  0  0  0  0  0  0  0  0  0  # atno 10763 bound_to 10752
  153.2295  135.4342  155.0578 H   0  0  0  0  0  0  0  0  0  0  0  0  # atno 10764 bound_to 10752
  154.8324  135.3480  154.6615 H   0  0  0  0  0  0  0  0  0  0  0  0  # atno 10765 bound_to 10752
  141.1363  133.8205  157.0768 H   0  0  0  0  0  0  0  0  0  0  0  0  # atno 11005 bound_to 11000
  144.6959  140.3426  143.7196 LP  0  0  0  0  0  0  0  0  0  0  0  0  # atno 17320 bound_to 7965
  145.7317  139.1738  143.2426 LP  0  0  0  0  0  0  0  0  0  0  0  0  # atno 17321 bound_to 7965
  140.0085  144.6241  150.7668 LP  0  0  0  0  0  0  0  0  0  0  0  0  # atno 17342 bound_to 10162
  140.7446  143.2863  151.3455 LP  0  0  0  0  0  0  0  0  0  0  0  0  # atno 17343 bound_to 10162
  156.9361  130.9729  151.3524 LP  0  0  0  0  0  0  0  0  0  0  0  0  # atno 17370 bound_to 10713
  157.5872  130.8418  149.8606 LP  0  0  0  0  0  0  0  0  0  0  0  0  # atno 17371 bound_to 10713
  140.0476  134.9822  157.1078 LP  0  0  0  0  0  0  0  0  0  0  0  0  # atno 17394 bound_to 11000
  140.4038  134.2054  155.7163 LP  0  0  0  0  0  0  0  0  0  0  0  0  # atno 17395 bound_to 11000

$$$$
