#       Name:                AV-unprocessed.smi:1613
#       Creating user name   scv26
#       Creation time:       Fri Mar 27 07:14:02 2020


#       File generated by GOLD software.
#

@<TRIPOS>MOLECULE
AV-unprocessed.smi:1613
    58    60     1
SMALL
NO_CHARGES


@<TRIPOS>ATOM
      1 ****        -2.9031   2.5974  -1.6079 O.2            1 S1                 0.0000
      2 ****        -3.3401   1.7812  -0.7955 C.2            1 S1                 0.0000
      3 ****        -4.8500   1.6367  -0.5578 C.3            1 S1                 0.0000
      4 ****        -5.6636   2.1222  -1.6842 N.am           1 S1                 0.0000
      5 ****        -6.2120   3.4116  -1.5813 C.2            1 S1                 0.0000
      6 ****        -6.9570   3.9237  -2.5714 C.2            1 S1                 0.0000
      7 ****        -7.1591   3.0664  -3.7465 C.2            1 S1                 0.0000
      8 ****        -6.6582   1.8917  -3.8448 N.2            1 S1                 0.0000
      9 ****        -5.8725   1.3581  -2.8057 C.2            1 S1                 0.0000
     10 ****        -5.3808   0.2328  -2.8963 O.2            1 S1                 0.0000
     11 ****        -2.5497   0.9830  -0.0622 N.am           1 S1                 0.0000
     12 ****        -1.0923   0.9520  -0.1341 C.3            1 S1                 0.0000
     13 ****        -0.6196   0.1061  -1.3291 C.3            1 S1                 0.0000
     14 ****         0.9131  -0.0028  -1.3567 C.3            1 S1                 0.0000
     15 ****         1.4450  -0.5625  -0.0862 N.4            1 S1                 1.0000
     16 ****         2.9138  -0.7854  -0.1597 C.3            1 S1                 0.0000
     17 ****         3.4664  -1.6754   0.9806 C.3            1 S1                 0.0000
     18 ****         4.2019  -0.8457   2.0579 C.3            1 S1                 0.0000
     19 ****         4.7314  -1.7350   3.1941 C.3            1 S1                 0.0000
     20 ****         5.6603  -2.8317   2.6527 C.3            1 S1                 0.0000
     21 ****         4.9622  -3.6593   1.5630 C.3            1 S1                 0.0000
     22 ****         4.4212  -2.7610   0.4380 C.3            1 S1                 0.0000
     23 ****         1.0174   0.2458   1.0874 C.3            1 S1                 0.0000
     24 ****        -0.5144   0.3652   1.1618 C.3            1 S1                 0.0000
     25 ****        -5.0883   0.5916  -0.3513 H              1 S1                 0.0000
     26 ****        -5.1029   2.1748   0.3567 H              1 S1                 0.0000
     27 ****        -5.9855   3.9448  -0.6695 H              1 S1                 0.0000
     28 ****        -7.4039   4.9067  -2.5584 H              1 S1                 0.0000
     29 ****        -7.7709   3.5005  -4.5414 H              1 S1                 0.0000
     30 ****        -2.9912   0.3482   0.5872 H              1 S1                 0.0000
     31 ****        -0.7180   1.9718  -0.2455 H              1 S1                 0.0000
     32 ****        -1.0544  -0.8931  -1.2741 H              1 S1                 0.0000
     33 ****        -0.9696   0.5442  -2.2647 H              1 S1                 0.0000
     34 ****         1.2079  -0.6379  -2.1931 H              1 S1                 0.0000
     35 ****         1.3545   0.9793  -1.5345 H              1 S1                 0.0000
     36 ****         3.1210  -1.2730  -1.1136 H              1 S1                 0.0000
     37 ****         3.4357   0.1722  -0.2019 H              1 S1                 0.0000
     38 ****         2.6327  -2.1975   1.4532 H              1 S1                 0.0000
     39 ****         5.0370  -0.3110   1.6030 H              1 S1                 0.0000
     40 ****         3.5489  -0.0811   2.4761 H              1 S1                 0.0000
     41 ****         5.2637  -1.1263   3.9258 H              1 S1                 0.0000
     42 ****         3.8934  -2.1915   3.7222 H              1 S1                 0.0000
     43 ****         6.5633  -2.3765   2.2439 H              1 S1                 0.0000
     44 ****         5.9826  -3.4825   3.4662 H              1 S1                 0.0000
     45 ****         5.6576  -4.3917   1.1519 H              1 S1                 0.0000
     46 ****         4.1418  -4.2271   2.0038 H              1 S1                 0.0000
     47 ****         3.9054  -3.3805  -0.2966 H              1 S1                 0.0000
     48 ****         5.2555  -2.2922  -0.0860 H              1 S1                 0.0000
     49 ****         1.3632  -0.2175   2.0099 H              1 S1                 0.0000
     50 ****         1.4718   1.2365   1.0351 H              1 S1                 0.0000
     51 ****        -0.7930   0.9893   2.0118 H              1 S1                 0.0000
     52 ****        -0.9448  -0.6201   1.3483 H              1 S1                 0.0000
     53 ****         1.0240  -1.4746   0.0197 H              1 S1                 0.0000
     54 ****        -3.5343   3.1770  -2.1232 LP             1 S1                 0.0000
     55 ****        -1.9170   2.6804  -1.7522 LP             1 S1                 0.0000
     56 ****        -6.8268   1.3485  -4.6673 LP             1 S1                 0.0000
     57 ****        -4.8242  -0.1313  -2.1495 LP             1 S1                 0.0000
     58 ****        -5.5380  -0.3170  -3.7167 LP             1 S1                 0.0000
@<TRIPOS>BOND
    1    1    2 2     
    2    2    3 1     
    3    2   11 am    
    4    3    4 1     
    5    3   25 1     
    6    3   26 1     
    7    4    9 am    
    8    4    5 1     
    9    5    6 2     
   10    5   27 1     
   11    6    7 1     
   12    6   28 1     
   13    7    8 2     
   14    7   29 1     
   15    8    9 1     
   16    9   10 2     
   17   11   12 1     
   18   11   30 1     
   19   12   24 1     
   20   12   13 1     
   21   12   31 1     
   22   13   14 1     
   23   13   32 1     
   24   13   33 1     
   25   14   15 1     
   26   14   34 1     
   27   14   35 1     
   28   15   16 1     
   29   15   23 1     
   30   15   53 1     
   31   16   17 1     
   32   16   36 1     
   33   16   37 1     
   34   17   22 1     
   35   17   18 1     
   36   17   38 1     
   37   18   19 1     
   38   18   39 1     
   39   18   40 1     
   40   19   20 1     
   41   19   41 1     
   42   19   42 1     
   43   20   21 1     
   44   20   43 1     
   45   20   44 1     
   46   21   22 1     
   47   21   45 1     
   48   21   46 1     
   49   22   47 1     
   50   22   48 1     
   51   23   24 1     
   52   23   49 1     
   53   23   50 1     
   54   24   51 1     
   55   24   52 1     
   56    1   54 1     
   57    1   55 1     
   58    8   56 1     
   59   10   57 1     
   60   10   58 1     
@<TRIPOS>SUBSTRUCTURE
      1 S1             1
@<TRIPOS>SET
LONE_PAIRS      STATIC     ATOMS    <user>   **** ""
5 54 55 56 57 58
DONOR_HYDROGENS      STATIC     ATOMS    <user>   **** ""
2 30 53
ATOM$BLUE        STATIC     ATOMS    COLORGROUP SYSTEM
5 54 55 56 57 58
ATOM$RED        STATIC     ATOMS    COLORGROUP SYSTEM
2 30 53
