#       Name:                AV-unprocessed.smi:1484
#       Creating user name   scv26
#       Creation time:       Fri Mar 27 06:09:15 2020


#       File generated by GOLD software.
#

@<TRIPOS>MOLECULE
AV-unprocessed.smi:1484
    45    46     1
SMALL
NO_CHARGES


@<TRIPOS>ATOM
      1 ****        -2.5845  -3.4855  -0.4156 C.3            1 S1                 0.0000
      2 ****        -2.0002  -2.3851   0.4812 C.3            1 S1                 0.0000
      3 ****        -2.4854  -2.5277   1.9364 C.3            1 S1                 0.0000
      4 ****        -1.9053  -1.4254   2.8365 C.3            1 S1                 0.0000
      5 ****        -2.2314  -0.0248   2.2893 C.3            1 S1                 0.0000
      6 ****        -1.7727   0.1497   0.8288 C.3            1 S1                 0.0000
      7 ****        -0.3135   0.2111   0.7618 N.am           1 S1                 0.0000
      8 ****         0.3998   0.7779  -0.2228 C.2            1 S1                 0.0000
      9 ****        -0.1139   1.3166  -1.2044 O.2            1 S1                 0.0000
     10 ****         1.9261   0.6979  -0.0733 C.3            1 S1                 0.0000
     11 ****         2.6497   1.6571  -0.9199 N.am           1 S1                 0.0000
     12 ****         3.1510   1.1117  -2.0921 N.2            1 S1                 0.0000
     13 ****         3.7936   1.8566  -2.9267 C.2            1 S1                 0.0000
     14 ****         4.2703   1.2768  -4.0767 O.3            1 S1                 0.0000
     15 ****         4.0095   3.2623  -2.6627 C.2            1 S1                 0.0000
     16 ****         3.5214   3.7834  -1.5159 C.2            1 S1                 0.0000
     17 ****         2.7866   2.9669  -0.5479 C.2            1 S1                 0.0000
     18 ****         2.3312   3.4153   0.5039 O.2            1 S1                 0.0000
     19 ****        -2.3334  -0.9801  -0.0629 C.3            1 S1                 0.0000
     20 ****         4.7011   1.9721  -4.5494 H              1 S1                 0.0000
     21 ****        -3.6730  -3.4308  -0.4529 H              1 S1                 0.0000
     22 ****        -2.3127  -4.4761  -0.0496 H              1 S1                 0.0000
     23 ****        -2.2114  -3.3984  -1.4365 H              1 S1                 0.0000
     24 ****        -0.9158  -2.5041   0.4741 H              1 S1                 0.0000
     25 ****        -3.5751  -2.4850   1.9680 H              1 S1                 0.0000
     26 ****        -2.2040  -3.5051   2.3299 H              1 S1                 0.0000
     27 ****        -2.3002  -1.5281   3.8476 H              1 S1                 0.0000
     28 ****        -0.8246  -1.5496   2.9158 H              1 S1                 0.0000
     29 ****        -3.3090   0.1351   2.3457 H              1 S1                 0.0000
     30 ****        -1.7790   0.7399   2.9218 H              1 S1                 0.0000
     31 ****        -2.1657   1.1026   0.4696 H              1 S1                 0.0000
     32 ****         0.1922  -0.2134   1.5258 H              1 S1                 0.0000
     33 ****         2.1964   0.8473   0.9738 H              1 S1                 0.0000
     34 ****         2.2352  -0.3215  -0.3115 H              1 S1                 0.0000
     35 ****         4.5494   3.8735  -3.3708 H              1 S1                 0.0000
     36 ****         3.6750   4.8314  -1.3056 H              1 S1                 0.0000
     37 ****        -1.9610  -0.8748  -1.0827 H              1 S1                 0.0000
     38 ****        -3.4169  -0.8702  -0.1289 H              1 S1                 0.0000
     39 ****        -1.1094   1.3459  -1.2949 LP             1 S1                 0.0000
     40 ****         0.4646   1.7246  -1.9107 LP             1 S1                 0.0000
     41 ****         3.0144   0.1411  -2.2905 LP             1 S1                 0.0000
     42 ****         3.5173   0.9011  -4.6169 LP             1 S1                 0.0000
     43 ****         4.9195   0.5483  -3.8579 LP             1 S1                 0.0000
     44 ****         1.8352   2.8142   1.1304 LP             1 S1                 0.0000
     45 ****         2.4572   4.3808   0.7319 LP             1 S1                 0.0000
@<TRIPOS>BOND
    1    1    2 1     
    2    1   21 1     
    3    1   22 1     
    4    1   23 1     
    5    2   19 1     
    6    2    3 1     
    7    2   24 1     
    8    3    4 1     
    9    3   25 1     
   10    3   26 1     
   11    4    5 1     
   12    4   27 1     
   13    4   28 1     
   14    5    6 1     
   15    5   29 1     
   16    5   30 1     
   17    6    7 1     
   18    6   19 1     
   19    6   31 1     
   20    7    8 am    
   21    7   32 1     
   22    8    9 2     
   23    8   10 1     
   24   10   33 1     
   25   10   34 1     
   26   10   11 1     
   27   11   12 1     
   28   11   17 am    
   29   12   13 2     
   30   13   14 1     
   31   13   15 1     
   32   14   20 1     
   33   15   35 1     
   34   15   16 2     
   35   16   36 1     
   36   16   17 1     
   37   17   18 2     
   38   19   37 1     
   39   19   38 1     
   40    9   39 1     
   41    9   40 1     
   42   12   41 1     
   43   14   42 1     
   44   14   43 1     
   45   18   44 1     
   46   18   45 1     
@<TRIPOS>SUBSTRUCTURE
      1 S1             1
@<TRIPOS>SET
LONE_PAIRS      STATIC     ATOMS    <user>   **** ""
7 39 40 41 42 43 44 45
DONOR_HYDROGENS      STATIC     ATOMS    <user>   **** ""
2 32 20
ATOM$BLUE        STATIC     ATOMS    COLORGROUP SYSTEM
7 39 40 41 42 43 44 45
ATOM$RED        STATIC     ATOMS    COLORGROUP SYSTEM
2 32 20
