AV-unprocessed.smi:3351|AV-procd|sdf|12948|dock5
  -GOLD-   2272019383D 1   1.00000     0.00000
 Structure written by MMmdl.
 35 36  0  0  0  0  0  0  0  0  2 V2000
  149.6672  138.7306  156.2194 C   0  0  0  0  0  0  0  0  0  0  0  0
  150.3643  139.9968  155.6957 C   0  0  1  0  0  0  0  0  0  0  0  0
  149.3744  141.1116  155.2933 C   0  0  0  0  0  0  0  0  0  0  0  0
  148.3463  140.6485  154.3563 N   0  0  0  0  0  0  0  0  0  0  0  0
  148.3519  139.4850  153.6306 C   0  0  0  0  0  0  0  0  0  0  0  0
  147.1945  139.4775  152.8954 C   0  0  0  0  0  0  0  0  0  0  0  0
  146.5346  140.6380  153.1994 N   0  3  0  0  0  0  0  0  0  0  0  0
  147.2383  141.3508  154.0850 C   0  0  0  0  0  0  0  0  0  0  0  0
  151.2928  140.4866  156.7103 N   0  0  0  0  0  0  0  0  0  0  0  0
  150.9449  140.9430  157.9236 C   0  0  0  0  0  0  0  0  0  0  0  0
  149.7813  140.9646  158.3273 O   0  0  0  0  0  0  0  0  0  0  0  0
  152.0935  141.4206  158.8211 C   0  0  0  0  0  0  0  0  0  0  0  0
  151.9994  142.8424  159.1576 N   0  0  0  0  0  0  0  0  0  0  0  0
  152.0782  143.8353  158.0932 C   0  0  0  0  0  0  0  0  0  0  0  0
  151.6162  145.1774  158.6650 C   0  0  0  0  0  0  0  0  0  0  0  0
  151.8271  145.1132  160.4551 S   0  0  0  0  0  0  0  0  0  0  0  0
  151.9200  143.3203  160.4592 C   0  0  0  0  0  0  0  0  0  0  0  0
  151.9144  142.6644  161.4994 O   0  0  0  0  0  0  0  0  0  0  0  0
  149.0358  138.2761  155.4555 H   0  0  0  0  0  0  0  0  0  0  0  0
  149.0399  138.9519  157.0834 H   0  0  0  0  0  0  0  0  0  0  0  0
  150.3967  137.9784  156.5222 H   0  0  0  0  0  0  0  0  0  0  0  0
  150.9405  139.7081  154.8145 H   0  0  0  0  0  0  0  0  0  0  0  0
  148.8789  141.5218  156.1750 H   0  0  0  0  0  0  0  0  0  0  0  0
  149.8978  141.9393  154.8128 H   0  0  0  0  0  0  0  0  0  0  0  0
  149.1572  138.7670  153.6920 H   0  0  0  0  0  0  0  0  0  0  0  0
  146.8022  138.7530  152.1965 H   0  0  0  0  0  0  0  0  0  0  0  0
  146.9627  142.3033  154.5015 H   0  0  0  0  0  0  0  0  0  0  0  0
  152.2721  140.5004  156.4640 H   0  0  0  0  0  0  0  0  0  0  0  0
  152.0906  140.8212  159.7321 H   0  0  0  0  0  0  0  0  0  0  0  0
  153.0507  141.2307  158.3320 H   0  0  0  0  0  0  0  0  0  0  0  0
  153.1153  143.9029  157.7626 H   0  0  0  0  0  0  0  0  0  0  0  0
  151.4748  143.5484  157.2312 H   0  0  0  0  0  0  0  0  0  0  0  0
  152.1600  146.0182  158.2344 H   0  0  0  0  0  0  0  0  0  0  0  0
  150.5563  145.3257  158.4575 H   0  0  0  0  0  0  0  0  0  0  0  0
  145.6435  140.9193  152.8101 H   0  0  0  0  0  0  0  0  0  0  0  0
  1  2  1  0  0  0  0
  1 19  1  0  0  0  0
  1 20  1  0  0  0  0
  1 21  1  0  0  0  0
  2  3  1  0  0  0  0
  2  9  1  0  0  0  0
  2 22  1  0  0  0  0
  3  4  1  0  0  0  0
  3 23  1  0  0  0  0
  3 24  1  0  0  0  0
  4  8  1  0  0  0  0
  4  5  1  0  0  0  0
  5  6  2  0  0  0  0
  5 25  1  0  0  0  0
  6  7  1  0  0  0  0
  6 26  1  0  0  0  0
  7  8  2  0  0  0  0
  7 35  1  0  0  0  0
  8 27  1  0  0  0  0
  9 10  1  0  0  0  0
  9 28  1  0  0  0  0
 10 11  2  0  0  0  0
 10 12  1  0  0  0  0
 12 13  1  0  0  0  0
 12 29  1  0  0  0  0
 12 30  1  0  0  0  0
 13 17  1  0  0  0  0
 13 14  1  0  0  0  0
 14 15  1  0  0  0  0
 14 31  1  0  0  0  0
 14 32  1  0  0  0  0
 15 16  1  0  0  0  0
 15 33  1  0  0  0  0
 15 34  1  0  0  0  0
 16 17  1  0  0  0  0
 17 18  2  0  0  0  0
M  CHG  1   7   1
M  END
> <s_m_source_file>
AV-unprocessed.smi

> <i_m_source_file_index>
3351

> <i_lp_mmshare_version>
43012

> <i_f3d_flags>
0

> <s_epik_input>
W2NIXTFuW2NIXVtjSF1uMVtDSDJdW0NAQEhdKFtDSDNdKVtOSF1DKD1PKVtDSDJdTjJbQ0gyXVtDSDJdU0MyPU8=

> <s_epik_cmdline>
J2VwaWtfcHl0aG9uJywgJy1waCcsICc3LjAnLCAnLXRuJywgJzgnLCAnLW1hJywgJzIwMCcsICctbWV0YWxfYmluZGluZycsICctaW1hZScsICc8aW5maWxlLm1hZT4nLCAnLW9tYWUnLCAnPG91dGZpbGUubWFlPic=

> <r_lp_tautomer_probability>
1

> <r_epik_Ionization_Penalty>
0.257312

> <r_epik_Ionization_Penalty_Charging>
0

> <r_epik_Ionization_Penalty_Neutral>
0.257312

> <r_epik_State_Penalty>
0.248897

> <r_epik_Charging_Adjusted_Penalty>
0.248897

> <i_epik_Tot_Q>
1

> <i_epik_Tot_abs_Q>
1

> <r_epik_Metal_State_Penalty>
0.538022

> <b_epik_Metal_Only>
0

> <s_lp_Force_Field>
OPLS_2005

> <r_lp_Energy>
6.1395

> <b_lp_Chiralities_Consistent>
1

> <s_lp_Variant>
AV-unprocessed.smi:3351-2

> <Gold.Version>
5.8.1

> <Gold.Id.Protein>
6NUR|6NUR_protein|mol2

> <Gold.PLP.Fitness>
43.2459

> <Gold.PLP.PLP>
-36.9054

> <Gold.PLP.part.hbond>
-1.9770

> <Gold.PLP.part.metal>
0.0000

> <Gold.PLP.part.buried>
-2.9741

> <Gold.PLP.part.nonpolar>
-33.2696

> <Gold.PLP.part.repulsive>
0.2427

> <Gold.PLP.ligand.clash>
0.0000

> <Gold.PLP.ligand.torsion>
0.2170

> <Gold.PLP.Chemscore.Hbond>
2.2440

> <Gold.PLP.Chemscore.CHOScore>
0.0000

> <Gold.PLP.Chemscore.Metal>
0.0000

> <Gold.Chemscore.Hbonds>
donor molecule, donor type, donor heavy atom, donor atom, acceptor molecule, acceptor atom, score
      L1  H     7    35       P1 10175  1.98
      P1  H  6933  6945       L1    18  0.37

> <Gold.PLP.Chemscore.Internal.Correction>
0.0426

> <Gold.Rescore>
     Score         DG    S(hbond)    S(metal)    S(lipo)     H(rot)  DE(clash)    DE(int)     intcor
     11.15     -13.25       1.68        0.00      71.44       2.41       0.06       2.05       ----

> <Gold.Chemscore.Fitness>
11.1481

> <Gold.Chemscore.DG>
-13.2532

> <Gold.Chemscore.ZeroCoef>
-5.4800

> <Gold.Chemscore.Hbond>
1.6751

> <Gold.Chemscore.Metal>
0.0000

> <Gold.Chemscore.Lipo>
71.4391

> <Gold.Chemscore.Internal_Hbond>
0.0000

> <Gold.Chemscore.DEClash>
0.0569

> <Gold.Chemscore.DEInternal>
2.0483

> <Gold.Chemscore.Rot>
2.4141

> <Gold.Chemscore.Internal.Correction>
   9.000000E+99

> <Gold.Chemscore.Hbonds>
donor molecule, donor type, donor heavy atom, donor atom, acceptor molecule, acceptor atom, score
      L1  H     7    35       P1 10175  0.22
      P1  H  6933  6945       L1    18  0.36

> <Gold.Chemscore.Hbond.Weighted>
-5.5949

> <Gold.Chemscore.Metal.Weighted>
-0.0000

> <Gold.Chemscore.Lipo.Weighted>
-8.3584

> <Gold.Chemscore.Internal_Hbond.Weighted>
0.0000

> <Gold.Chemscore.DEClash.Weighted>
0.0569

> <Gold.Chemscore.DEInternal.Weighted>
2.0483

> <Gold.Chemscore.Rot.Weighted>
6.1800

> <Gold.Chemscore.Internal.Correction.Weighted>
   9.000000E+99

> <Gold.Protein.RotatedTorsions>
[ 6907 6896 6895 6894 ] final  -24.07 input  -60.11 | X-H torsion
[ 7974 7965 7964 7962 ] final  148.78 input  175.53 | X-H torsion
[ 8008 7997 7996 7995 ] final -174.34 input   59.86 | X-H torsion
[ 10167 10162 10161 10158 ] final -127.88 input  -65.29 | X-H torsion
[ 10718 10713 10712 10709 ] final  -62.30 input   66.30 | X-H torsion
[ 10763 10752 10751 10750 ] final   45.71 input  -60.55 | X-H torsion
[ 11005 11000 10999 10996 ] final -110.53 input  -57.11 | X-H torsion

> <Gold.Protein.ActiveResidues>
 VAL166  LYS551  ARG553  GLY616  TRP617  ASP618  TYR619  PRO620  LYS621  CYS622 
 ASP623  PHE694  ASN695  SER759  ASP760  ASP761  ALA762  ILE779  LEU786  VAL792 
 PHE793  MET794  SER795  GLU796  ALA797  LYS798  CYS799  TRP800  GLU811  SER814 

> <Gold.Protein.RotatedAtoms>
  151.1949  135.0418  159.8847 H   0  0  0  0  0  0  0  0  0  0  0  0  # atno 6907 bound_to 6896
  152.5437  134.0915  159.8289 H   0  0  0  0  0  0  0  0  0  0  0  0  # atno 6908 bound_to 6896
  151.1048  133.5169  159.2640 H   0  0  0  0  0  0  0  0  0  0  0  0  # atno 6909 bound_to 6896
  144.8488  139.6197  143.5983 H   0  0  0  0  0  0  0  0  0  0  0  0  # atno 7974 bound_to 7965
  155.9689  140.1159  157.0830 H   0  0  0  0  0  0  0  0  0  0  0  0  # atno 8008 bound_to 7997
  154.4151  140.1167  156.5346 H   0  0  0  0  0  0  0  0  0  0  0  0  # atno 8009 bound_to 7997
  155.6623  140.3473  155.4789 H   0  0  0  0  0  0  0  0  0  0  0  0  # atno 8010 bound_to 7997
  139.9562  143.6001  152.2460 H   0  0  0  0  0  0  0  0  0  0  0  0  # atno 10167 bound_to 10162
  156.0864  130.4207  150.1116 H   0  0  0  0  0  0  0  0  0  0  0  0  # atno 10718 bound_to 10713
  152.9820  135.6031  154.3480 H   0  0  0  0  0  0  0  0  0  0  0  0  # atno 10763 bound_to 10752
  154.3172  135.2770  155.2539 H   0  0  0  0  0  0  0  0  0  0  0  0  # atno 10764 bound_to 10752
  154.4722  135.5939  153.6385 H   0  0  0  0  0  0  0  0  0  0  0  0  # atno 10765 bound_to 10752
  141.0786  133.9258  157.2336 H   0  0  0  0  0  0  0  0  0  0  0  0  # atno 11005 bound_to 11000
  146.2767  139.6771  142.9258 LP  0  0  0  0  0  0  0  0  0  0  0  0  # atno 17320 bound_to 7965
  145.4542  141.0430  143.2787 LP  0  0  0  0  0  0  0  0  0  0  0  0  # atno 17321 bound_to 7965
  139.6590  144.7662  151.2000 LP  0  0  0  0  0  0  0  0  0  0  0  0  # atno 17342 bound_to 10162
  140.7567  143.6041  150.8671 LP  0  0  0  0  0  0  0  0  0  0  0  0  # atno 17343 bound_to 10162
  156.9136  130.9660  151.3559 LP  0  0  0  0  0  0  0  0  0  0  0  0  # atno 17370 bound_to 10713
  157.5999  130.8505  149.8787 LP  0  0  0  0  0  0  0  0  0  0  0  0  # atno 17371 bound_to 10713
  139.9599  135.0156  156.9233 LP  0  0  0  0  0  0  0  0  0  0  0  0  # atno 17394 bound_to 11000
  140.5517  134.0620  155.7371 LP  0  0  0  0  0  0  0  0  0  0  0  0  # atno 17395 bound_to 11000

$$$$
