AV-unprocessed.smi:3205|AV-procd|sdf|12255|dock3
  -GOLD-   2272018 93D 1   1.00000     0.00000
 Structure written by MMmdl.
 38 39  0  0  0  0  0  0  0  0  2 V2000
  152.4124  144.4982  157.6557 C   0  0  0  0  0  0  0  0  0  0  0  0
  151.6495  143.1950  157.9650 C   0  0  1  0  0  0  0  0  0  0  0  0
  150.8984  142.7585  156.7657 N   0  3  0  0  0  0  0  0  0  0  0  0
  149.7652  141.8418  157.0159 C   0  0  0  0  0  0  0  0  0  0  0  0
  149.3306  141.1270  155.7268 C   0  0  0  0  0  0  0  0  0  0  0  0
  149.9465  139.8185  155.5941 N   0  0  0  0  0  0  0  0  0  0  0  0
  149.5429  138.7564  154.8126 C   0  0  0  0  0  0  0  0  0  0  0  0
  150.4249  137.7364  155.0273 C   0  0  0  0  0  0  0  0  0  0  0  0
  151.3463  138.2770  155.9670 C   0  0  0  0  0  0  0  0  0  0  0  0
  151.0559  139.5229  156.3061 N   0  0  0  0  0  0  0  0  0  0  0  0
  152.5794  142.0479  158.4415 C   0  0  0  0  0  0  0  0  0  0  0  0
  151.7782  140.8703  159.0402 C   0  0  0  0  0  0  0  0  0  0  0  0
  152.7103  139.7707  159.5731 C   0  0  0  0  0  0  0  0  0  0  0  0
  153.5916  140.3155  160.5462 O   0  0  0  0  0  0  0  0  0  0  0  0
  154.4449  141.3190  160.0113 C   0  0  0  0  0  0  0  0  0  0  0  0
  153.6102  142.5029  159.4961 C   0  0  0  0  0  0  0  0  0  0  0  0
  152.8905  144.9077  158.5449 H   0  0  0  0  0  0  0  0  0  0  0  0
  151.7467  145.2764  157.2833 H   0  0  0  0  0  0  0  0  0  0  0  0
  153.1853  144.3368  156.9035 H   0  0  0  0  0  0  0  0  0  0  0  0
  150.9324  143.3952  158.7627 H   0  0  0  0  0  0  0  0  0  0  0  0
  150.5733  143.5694  156.2591 H   0  0  0  0  0  0  0  0  0  0  0  0
  150.0435  141.1021  157.7680 H   0  0  0  0  0  0  0  0  0  0  0  0
  148.9253  142.4072  157.4189 H   0  0  0  0  0  0  0  0  0  0  0  0
  148.2480  140.9940  155.7252 H   0  0  0  0  0  0  0  0  0  0  0  0
  149.5722  141.7281  154.8487 H   0  0  0  0  0  0  0  0  0  0  0  0
  148.6711  138.8127  154.1773 H   0  0  0  0  0  0  0  0  0  0  0  0
  150.4143  136.7534  154.5801 H   0  0  0  0  0  0  0  0  0  0  0  0
  152.2102  137.8044  156.4106 H   0  0  0  0  0  0  0  0  0  0  0  0
  153.1316  141.6747  157.5772 H   0  0  0  0  0  0  0  0  0  0  0  0
  151.1451  141.2284  159.8530 H   0  0  0  0  0  0  0  0  0  0  0  0
  151.1103  140.4348  158.2968 H   0  0  0  0  0  0  0  0  0  0  0  0
  152.1245  138.9764  160.0359 H   0  0  0  0  0  0  0  0  0  0  0  0
  153.2799  139.3144  158.7618 H   0  0  0  0  0  0  0  0  0  0  0  0
  155.1250  141.6544  160.7945 H   0  0  0  0  0  0  0  0  0  0  0  0
  155.0610  140.9011  159.2136 H   0  0  0  0  0  0  0  0  0  0  0  0
  154.2894  143.2465  159.0805 H   0  0  0  0  0  0  0  0  0  0  0  0
  153.0989  142.9776  160.3346 H   0  0  0  0  0  0  0  0  0  0  0  0
  151.5475  142.2577  156.1747 H   0  0  0  0  0  0  0  0  0  0  0  0
  1  2  1  0  0  0  0
  1 17  1  0  0  0  0
  1 18  1  0  0  0  0
  1 19  1  0  0  0  0
  2  3  1  0  0  0  0
  2 11  1  0  0  0  0
  2 20  1  0  0  0  0
  3  4  1  0  0  0  0
  3 21  1  0  0  0  0
  3 38  1  0  0  0  0
  4  5  1  0  0  0  0
  4 22  1  0  0  0  0
  4 23  1  0  0  0  0
  5  6  1  0  0  0  0
  5 24  1  0  0  0  0
  5 25  1  0  0  0  0
  6 10  1  0  0  0  0
  6  7  1  0  0  0  0
  7  8  2  0  0  0  0
  7 26  1  0  0  0  0
  8  9  1  0  0  0  0
  8 27  1  0  0  0  0
  9 10  2  0  0  0  0
  9 28  1  0  0  0  0
 11 16  1  0  0  0  0
 11 12  1  0  0  0  0
 11 29  1  0  0  0  0
 12 13  1  0  0  0  0
 12 30  1  0  0  0  0
 12 31  1  0  0  0  0
 13 14  1  0  0  0  0
 13 32  1  0  0  0  0
 13 33  1  0  0  0  0
 14 15  1  0  0  0  0
 15 16  1  0  0  0  0
 15 34  1  0  0  0  0
 15 35  1  0  0  0  0
 16 36  1  0  0  0  0
 16 37  1  0  0  0  0
M  CHG  1   3   1
M  END
> <s_m_source_file>
AV-unprocessed.smi

> <i_m_source_file_index>
3205

> <i_lp_mmshare_version>
43012

> <i_f3d_flags>
0

> <s_epik_input>
W0NIMl0xW0NIMl1PW0NIMl1bQ0gyXVtDSF0xW0NASF0oW0NIM10pW05IXVtDSDJdW0NIMl1uMltjSF1bY0hdW2NIXW4y

> <s_epik_cmdline>
J2VwaWtfcHl0aG9uJywgJy1waCcsICc3LjAnLCAnLXRuJywgJzgnLCAnLW1hJywgJzIwMCcsICctbWV0YWxfYmluZGluZycsICctaW1hZScsICc8aW5maWxlLm1hZT4nLCAnLW9tYWUnLCAnPG91dGZpbGUubWFlPic=

> <r_lp_tautomer_probability>
1

> <r_epik_Ionization_Penalty>
0.00310903

> <r_epik_Ionization_Penalty_Charging>
0.00310601

> <r_epik_Ionization_Penalty_Neutral>
3.02836e-06

> <r_epik_State_Penalty>
-0

> <r_epik_Charging_Adjusted_Penalty>
0.00310601

> <i_epik_Tot_Q>
1

> <i_epik_Tot_abs_Q>
1

> <r_epik_Metal_State_Penalty>
-0

> <b_epik_Metal_Only>
0

> <s_lp_Force_Field>
OPLS_2005

> <r_lp_Energy>
14.7607

> <b_lp_Chiralities_Consistent>
1

> <s_lp_Variant>
AV-unprocessed.smi:3205-2

> <Gold.Version>
5.8.1

> <Gold.Id.Protein>
6NUR|6NUR_protein|mol2

> <Gold.PLP.Fitness>
45.9178

> <Gold.PLP.PLP>
-38.6892

> <Gold.PLP.part.hbond>
-1.0000

> <Gold.PLP.part.metal>
0.0000

> <Gold.PLP.part.buried>
-3.6737

> <Gold.PLP.part.nonpolar>
-32.3730

> <Gold.PLP.part.repulsive>
0.0450

> <Gold.PLP.ligand.clash>
0.0000

> <Gold.PLP.ligand.torsion>
0.9078

> <Gold.PLP.Chemscore.Hbond>
2.0000

> <Gold.PLP.Chemscore.CHOScore>
0.9997

> <Gold.PLP.Chemscore.Metal>
0.0000

> <Gold.Chemscore.Hbonds>
donor molecule, donor type, donor heavy atom, donor atom, acceptor molecule, acceptor atom, score
      L1  H     3    21       P1  8028  1.47

> <Gold.PLP.Chemscore.Internal.Correction>
0.0452

> <Gold.Rescore>
     Score         DG    S(hbond)    S(metal)    S(lipo)     H(rot)  DE(clash)    DE(int)     intcor
     16.01     -16.93       0.99        0.00     105.82       1.66       0.05       0.87       ----

> <Gold.Chemscore.Fitness>
16.0119

> <Gold.Chemscore.DG>
-16.9320

> <Gold.Chemscore.ZeroCoef>
-5.4800

> <Gold.Chemscore.Hbond>
0.9937

> <Gold.Chemscore.Metal>
0.0000

> <Gold.Chemscore.Lipo>
105.8219

> <Gold.Chemscore.Internal_Hbond>
0.0000

> <Gold.Chemscore.DEClash>
0.0452

> <Gold.Chemscore.DEInternal>
0.8749

> <Gold.Chemscore.Rot>
1.6594

> <Gold.Chemscore.Internal.Correction>
   9.000000E+99

> <Gold.Chemscore.Hbonds>
donor molecule, donor type, donor heavy atom, donor atom, acceptor molecule, acceptor atom, score
      L1  H     3    21       P1  8028  0.70

> <Gold.Chemscore.Hbond.Weighted>
-3.3190

> <Gold.Chemscore.Metal.Weighted>
-0.0000

> <Gold.Chemscore.Lipo.Weighted>
-12.3812

> <Gold.Chemscore.Internal_Hbond.Weighted>
0.0000

> <Gold.Chemscore.DEClash.Weighted>
0.0452

> <Gold.Chemscore.DEInternal.Weighted>
0.8749

> <Gold.Chemscore.Rot.Weighted>
4.2482

> <Gold.Chemscore.Internal.Correction.Weighted>
   9.000000E+99

> <Gold.Protein.RotatedTorsions>
[ 6907 6896 6895 6894 ] final   67.56 input  -60.11 | X-H torsion
[ 7974 7965 7964 7962 ] final  -10.72 input  175.53 | X-H torsion
[ 8008 7997 7996 7995 ] final   94.04 input   59.86 | X-H torsion
[ 10167 10162 10161 10158 ] final -163.89 input  -65.29 | X-H torsion
[ 10718 10713 10712 10709 ] final   78.38 input   66.30 | X-H torsion
[ 10763 10752 10751 10750 ] final  -78.02 input  -60.55 | X-H torsion
[ 11005 11000 10999 10996 ] final  139.20 input  -57.11 | X-H torsion

> <Gold.Protein.ActiveResidues>
 VAL166  LYS551  ARG553  GLY616  TRP617  ASP618  TYR619  PRO620  LYS621  CYS622 
 ASP623  PHE694  ASN695  SER759  ASP760  ASP761  ALA762  ILE779  LEU786  VAL792 
 PHE793  MET794  SER795  GLU796  ALA797  LYS798  CYS799  TRP800  GLU811  SER814 

> <Gold.Protein.RotatedAtoms>
  152.4561  134.5289  159.9804 H   0  0  0  0  0  0  0  0  0  0  0  0  # atno 6907 bound_to 6896
  151.5350  133.3437  159.2933 H   0  0  0  0  0  0  0  0  0  0  0  0  # atno 6908 bound_to 6896
  150.8505  134.7859  159.7068 H   0  0  0  0  0  0  0  0  0  0  0  0  # atno 6909 bound_to 6896
  146.2211  140.2805  142.8362 H   0  0  0  0  0  0  0  0  0  0  0  0  # atno 7974 bound_to 7965
  156.0535  140.3305  155.7378 H   0  0  0  0  0  0  0  0  0  0  0  0  # atno 8008 bound_to 7997
  155.5565  140.0615  157.2856 H   0  0  0  0  0  0  0  0  0  0  0  0  # atno 8009 bound_to 7997
  154.4447  140.1885  156.0727 H   0  0  0  0  0  0  0  0  0  0  0  0  # atno 8010 bound_to 7997
  139.6289  144.0478  152.1999 H   0  0  0  0  0  0  0  0  0  0  0  0  # atno 10167 bound_to 10162
  157.6743  130.9866  150.1779 H   0  0  0  0  0  0  0  0  0  0  0  0  # atno 10718 bound_to 10713
  154.5205  135.5744  153.6677 H   0  0  0  0  0  0  0  0  0  0  0  0  # atno 10763 bound_to 10752
  152.9916  135.6180  154.2761 H   0  0  0  0  0  0  0  0  0  0  0  0  # atno 10764 bound_to 10752
  154.2681  135.2854  155.2729 H   0  0  0  0  0  0  0  0  0  0  0  0  # atno 10765 bound_to 10752
  140.0238  134.9384  157.0527 H   0  0  0  0  0  0  0  0  0  0  0  0  # atno 11005 bound_to 11000
  144.9200  140.7857  143.5754 LP  0  0  0  0  0  0  0  0  0  0  0  0  # atno 17320 bound_to 7965
  145.2741  139.1943  143.4826 LP  0  0  0  0  0  0  0  0  0  0  0  0  # atno 17321 bound_to 7965
  140.0138  144.6204  150.7624 LP  0  0  0  0  0  0  0  0  0  0  0  0  # atno 17342 bound_to 10162
  140.7427  143.2836  151.3527 LP  0  0  0  0  0  0  0  0  0  0  0  0  # atno 17343 bound_to 10162
  156.2518  130.3701  149.8224 LP  0  0  0  0  0  0  0  0  0  0  0  0  # atno 17370 bound_to 10713
  156.5995  130.8540  151.3428 LP  0  0  0  0  0  0  0  0  0  0  0  0  # atno 17371 bound_to 10713
  140.4342  134.1749  155.7170 LP  0  0  0  0  0  0  0  0  0  0  0  0  # atno 17394 bound_to 11000
  141.1790  133.8454  157.1323 LP  0  0  0  0  0  0  0  0  0  0  0  0  # atno 17395 bound_to 11000

$$$$
