#       Name:                AV-unprocessed.smi:703
#       Creating user name   scv26
#       Creation time:       Fri Mar 27 00:42:44 2020


#       File generated by GOLD software.
#

@<TRIPOS>MOLECULE
AV-unprocessed.smi:703
    41    42     1
SMALL
NO_CHARGES


@<TRIPOS>ATOM
      1 ****        -2.4572  -2.5625   2.4274 C.3            1 S1                 0.0000
      2 ****        -2.5903  -2.6707   0.9025 C.3            1 S1                 0.0000
      3 ****        -1.6189  -1.8044   0.1943 N.4            1 S1                 1.0000
      4 ****        -1.5084  -2.0643  -1.2615 C.3            1 S1                 0.0000
      5 ****        -1.5446  -0.6911  -1.9534 C.3            1 S1                 0.0000
      6 ****        -0.7695  -0.6161  -3.2857 C.3            1 S1                 0.0000
      7 ****        -1.1660   0.3111  -0.8462 C.3            1 S1                 0.0000
      8 ****         0.2827   0.3810  -0.6703 N.pl3          1 S1                -1.0000
      9 ****         0.9331   1.5935   0.1892 S.o2           1 S1                 0.0000
     10 ****         0.7063   2.9100  -0.4290 O.2            1 S1                 0.0000
     11 ****         0.6534   1.4764   1.6294 O.2            1 S1                 0.0000
     12 ****         2.7299   1.2352  -0.0154 C.3            1 S1                 0.0000
     13 ****         3.5413   2.2034   0.7988 C.2            1 S1                 0.0000
     14 ****         3.8244   3.5705   0.5256 C.2            1 S1                 0.0000
     15 ****         4.5913   3.9562   1.5867 C.2            1 S1                 0.0000
     16 ****         4.7779   2.9181   2.4402 O.3            1 S1                 0.0000
     17 ****         4.1068   1.8023   1.9270 N.2            1 S1                 0.0000
     18 ****        -1.8216  -0.3483   0.3738 C.3            1 S1                 0.0000
     19 ****        -3.1375  -3.2548   2.9236 H              1 S1                 0.0000
     20 ****        -2.6958  -1.5595   2.7820 H              1 S1                 0.0000
     21 ****        -1.4444  -2.8025   2.7528 H              1 S1                 0.0000
     22 ****        -2.4117  -3.7061   0.6093 H              1 S1                 0.0000
     23 ****        -3.6062  -2.4252   0.5892 H              1 S1                 0.0000
     24 ****        -0.5679  -2.5862  -1.4485 H              1 S1                 0.0000
     25 ****        -2.3137  -2.7015  -1.6307 H              1 S1                 0.0000
     26 ****        -2.5904  -0.4916  -2.1939 H              1 S1                 0.0000
     27 ****         0.2876  -0.8587  -3.1656 H              1 S1                 0.0000
     28 ****        -0.8369   0.3742  -3.7393 H              1 S1                 0.0000
     29 ****        -1.1801  -1.3265  -4.0038 H              1 S1                 0.0000
     30 ****        -1.6038   1.2888  -1.0482 H              1 S1                 0.0000
     31 ****         2.9116   0.2061   0.2952 H              1 S1                 0.0000
     32 ****         2.9768   1.3116  -1.0739 H              1 S1                 0.0000
     33 ****         3.5065   4.1730  -0.3124 H              1 S1                 0.0000
     34 ****         5.0589   4.8891   1.8641 H              1 S1                 0.0000
     35 ****        -2.8904  -0.1279   0.3657 H              1 S1                 0.0000
     36 ****        -1.4294  -0.0004   1.3289 H              1 S1                 0.0000
     37 ****        -0.7040  -2.0038   0.5732 H              1 S1                 0.0000
     38 ****         0.8716  -0.3165  -1.0785 LP             1 S1                 0.0000
     39 ****         4.4095   3.1500   3.3405 LP             1 S1                 0.0000
     40 ****         5.7543   2.7180   2.5210 LP             1 S1                 0.0000
     41 ****         4.0632   0.8883   2.3302 LP             1 S1                 0.0000
@<TRIPOS>BOND
    1    1    2 1     
    2    1   19 1     
    3    1   20 1     
    4    1   21 1     
    5    2    3 1     
    6    2   22 1     
    7    2   23 1     
    8    3   18 1     
    9    3    4 1     
   10    3   37 1     
   11    4    5 1     
   12    4   24 1     
   13    4   25 1     
   14    5    6 1     
   15    5    7 1     
   16    5   26 1     
   17    6   27 1     
   18    6   28 1     
   19    6   29 1     
   20    7    8 1     
   21    7   18 1     
   22    7   30 1     
   23    8    9 1     
   24    9   10 2     
   25    9   11 2     
   26    9   12 1     
   27   12   13 1     
   28   12   31 1     
   29   12   32 1     
   30   13   17 2     
   31   13   14 1     
   32   14   15 2     
   33   14   33 1     
   34   15   16 1     
   35   15   34 1     
   36   16   17 1     
   37   18   35 1     
   38   18   36 1     
   39    8   38 1     
   40   16   39 1     
   41   16   40 1     
   42   17   41 1     
@<TRIPOS>SUBSTRUCTURE
      1 S1             1
@<TRIPOS>SET
LONE_PAIRS      STATIC     ATOMS    <user>   **** ""
6 38 10 11 39 40 41
DONOR_HYDROGENS      STATIC     ATOMS    <user>   **** ""
1 37
ATOM$BLUE        STATIC     ATOMS    COLORGROUP SYSTEM
6 38 10 11 39 40 41
ATOM$RED        STATIC     ATOMS    COLORGROUP SYSTEM
1 37
