AV-unprocessed.smi:1403|AV-procd|sdf|5701|dock2
  -GOLD-   22720 5333D 1   1.00000     0.00000
 Structure written by MMmdl.
 35 36  0  0  0  0  0  0  0  0  2 V2000
  145.6506  135.6468  151.6241 C   0  0  0  0  0  0  0  0  0  0  0  0
  145.9353  134.3463  152.3888 C   0  0  2  0  0  0  0  0  0  0  0  0
  147.3411  134.3142  152.7860 N   0  0  0  0  0  0  0  0  0  0  0  0
  147.9334  133.3585  153.5180 C   0  0  0  0  0  0  0  0  0  0  0  0
  147.3270  132.4224  154.0382 O   0  0  0  0  0  0  0  0  0  0  0  0
  149.4530  133.4719  153.6639 C   0  0  0  0  0  0  0  0  0  0  0  0
  149.8018  134.1103  154.9420 N   0  0  0  0  0  0  0  0  0  0  0  0
  149.8726  135.5149  154.9567 C   0  0  0  0  0  0  0  0  0  0  0  0
  150.2253  136.1988  156.0611 C   0  0  0  0  0  0  0  0  0  0  0  0
  150.5365  135.4444  157.2685 C   0  0  0  0  0  0  0  0  0  0  0  0
  150.8598  136.0520  158.2871 O   0  0  0  0  0  0  0  0  0  0  0  0
  150.4522  134.0832  157.2056 N   0  5  0  0  0  0  0  0  0  0  0  0
  150.0983  133.4002  156.0723 C   0  0  0  0  0  0  0  0  0  0  0  0
  150.0398  132.1711  156.0368 O   0  0  0  0  0  0  0  0  0  0  0  0
  145.5783  133.0942  151.5573 C   0  0  2  0  0  0  0  0  0  0  0  0
  146.3147  132.9533  150.2185 C   0  0  0  0  0  0  0  0  0  0  0  0
  145.3315  132.1437  149.4053 C   0  0  0  0  0  0  0  0  0  0  0  0
  144.0031  132.7335  149.8637 C   0  0  0  0  0  0  0  0  0  0  0  0
  144.1866  133.0680  151.2360 O   0  0  0  0  0  0  0  0  0  0  0  0
  144.6019  135.7081  151.3320 H   0  0  0  0  0  0  0  0  0  0  0  0
  146.2531  135.7168  150.7178 H   0  0  0  0  0  0  0  0  0  0  0  0
  145.8715  136.5195  152.2394 H   0  0  0  0  0  0  0  0  0  0  0  0
  145.2969  134.3514  153.2738 H   0  0  0  0  0  0  0  0  0  0  0  0
  147.9293  135.0422  152.4073 H   0  0  0  0  0  0  0  0  0  0  0  0
  149.9103  132.4829  153.6012 H   0  0  0  0  0  0  0  0  0  0  0  0
  149.8534  134.0268  152.8141 H   0  0  0  0  0  0  0  0  0  0  0  0
  149.6345  135.9953  154.0189 H   0  0  0  0  0  0  0  0  0  0  0  0
  150.2811  137.2773  156.0522 H   0  0  0  0  0  0  0  0  0  0  0  0
  145.7824  132.1998  152.1478 H   0  0  0  0  0  0  0  0  0  0  0  0
  146.4687  133.9176  149.7348 H   0  0  0  0  0  0  0  0  0  0  0  0
  147.2868  132.4703  150.3191 H   0  0  0  0  0  0  0  0  0  0  0  0
  145.4882  132.2317  148.3296 H   0  0  0  0  0  0  0  0  0  0  0  0
  145.3933  131.0898  149.6790 H   0  0  0  0  0  0  0  0  0  0  0  0
  143.7834  133.6469  149.3101 H   0  0  0  0  0  0  0  0  0  0  0  0
  143.1688  132.0454  149.7266 H   0  0  0  0  0  0  0  0  0  0  0  0
  1  2  1  0  0  0  0
  1 20  1  0  0  0  0
  1 21  1  0  0  0  0
  1 22  1  0  0  0  0
  2  3  1  0  0  0  0
  2 15  1  0  0  0  0
  2 23  1  0  0  0  0
  3  4  1  0  0  0  0
  3 24  1  0  0  0  0
  4  5  2  0  0  0  0
  4  6  1  0  0  0  0
  6  7  1  0  0  0  0
  6 25  1  0  0  0  0
  6 26  1  0  0  0  0
  7 13  1  0  0  0  0
  7  8  1  0  0  0  0
  8  9  2  0  0  0  0
  8 27  1  0  0  0  0
  9 10  1  0  0  0  0
  9 28  1  0  0  0  0
 10 11  2  0  0  0  0
 10 12  1  0  0  0  0
 12 13  1  0  0  0  0
 13 14  2  0  0  0  0
 15 19  1  0  0  0  0
 15 16  1  0  0  0  0
 15 29  1  0  0  0  0
 16 17  1  0  0  0  0
 16 30  1  0  0  0  0
 16 31  1  0  0  0  0
 17 18  1  0  0  0  0
 17 32  1  0  0  0  0
 17 33  1  0  0  0  0
 18 19  1  0  0  0  0
 18 34  1  0  0  0  0
 18 35  1  0  0  0  0
M  CHG  1  12  -1
M  END
> <s_m_source_file>
AV-unprocessed.smi

> <i_m_source_file_index>
1403

> <i_lp_mmshare_version>
43012

> <i_f3d_flags>
0

> <s_epik_input>
TzFbQ0gyXVtDSDJdW0NIMl1bQ0BIXTFbQ0BIXShbQ0gzXSlbTkhdQyg9TylbQ0gyXW4yW2NIXVtjSF1jKD1PKVtuSF1jMj1P

> <s_epik_cmdline>
J2VwaWtfcHl0aG9uJywgJy1waCcsICc3LjAnLCAnLXRuJywgJzgnLCAnLW1hJywgJzIwMCcsICctbWV0YWxfYmluZGluZycsICctaW1hZScsICc8aW5maWxlLm1hZT4nLCAnLW9tYWUnLCAnPG91dGZpbGUubWFlPic=

> <r_lp_tautomer_probability>
0.999537

> <r_epik_Ionization_Penalty>
3.07438

> <r_epik_Ionization_Penalty_Charging>
2.82466e-08

> <r_epik_Ionization_Penalty_Neutral>
3.07438

> <r_epik_State_Penalty>
3.07341

> <r_epik_Charging_Adjusted_Penalty>
3.07341

> <i_epik_Tot_Q>
-1

> <i_epik_Tot_abs_Q>
1

> <r_epik_Metal_State_Penalty>
0.45947

> <b_epik_Metal_Only>
1

> <s_lp_Force_Field>
OPLS_2005

> <r_lp_Energy>
29.4252

> <b_lp_Chiralities_Consistent>
1

> <s_lp_Variant>
AV-unprocessed.smi:1403-5

> <Gold.Version>
5.8.1

> <Gold.Id.Protein>
6NUR|6NUR_protein|mol2

> <Gold.PLP.Fitness>
40.6640

> <Gold.PLP.PLP>
-30.5083

> <Gold.PLP.part.hbond>
-3.0000

> <Gold.PLP.part.metal>
0.0000

> <Gold.PLP.part.buried>
-3.2872

> <Gold.PLP.part.nonpolar>
-24.5685

> <Gold.PLP.part.repulsive>
0.2041

> <Gold.PLP.ligand.clash>
0.0000

> <Gold.PLP.ligand.torsion>
0.6956

> <Gold.PLP.Chemscore.Hbond>
2.8398

> <Gold.PLP.Chemscore.CHOScore>
1.0000

> <Gold.PLP.Chemscore.Metal>
0.0000

> <Gold.Chemscore.Hbonds>
donor molecule, donor type, donor heavy atom, donor atom, acceptor molecule, acceptor atom, score
      L1  H     3    24       P1  7948  1.00
      P1  H  6896  6908       L1    12  0.99
      P1  H  6896  6909       L1    11  0.34
      L1  C     8    27       P1  7948  1.00

> <Gold.PLP.Chemscore.Internal.Correction>
0.0276

> <Gold.Rescore>
     Score         DG    S(hbond)    S(metal)    S(lipo)     H(rot)  DE(clash)    DE(int)     intcor
     12.70     -13.49       1.84        0.00      59.51       1.99       0.07       0.72       ----

> <Gold.Chemscore.Fitness>
12.6953

> <Gold.Chemscore.DG>
-13.4862

> <Gold.Chemscore.ZeroCoef>
-5.4800

> <Gold.Chemscore.Hbond>
1.8409

> <Gold.Chemscore.Metal>
0.0000

> <Gold.Chemscore.Lipo>
59.5065

> <Gold.Chemscore.Internal_Hbond>
0.0000

> <Gold.Chemscore.DEClash>
0.0686

> <Gold.Chemscore.DEInternal>
0.7222

> <Gold.Chemscore.Rot>
1.9940

> <Gold.Chemscore.Internal.Correction>
   9.000000E+99

> <Gold.Chemscore.Hbonds>
donor molecule, donor type, donor heavy atom, donor atom, acceptor molecule, acceptor atom, score
      L1  H     3    24       P1  7948  0.90
      P1  H  6896  6908       L1    12  0.07
      P1  H  6896  6909       L1    11  0.33

> <Gold.Chemscore.Hbond.Weighted>
-6.1486

> <Gold.Chemscore.Metal.Weighted>
-0.0000

> <Gold.Chemscore.Lipo.Weighted>
-6.9623

> <Gold.Chemscore.Internal_Hbond.Weighted>
0.0000

> <Gold.Chemscore.DEClash.Weighted>
0.0686

> <Gold.Chemscore.DEInternal.Weighted>
0.7222

> <Gold.Chemscore.Rot.Weighted>
5.1047

> <Gold.Chemscore.Internal.Correction.Weighted>
   9.000000E+99

> <Gold.Protein.RotatedTorsions>
[ 6907 6896 6895 6894 ] final  115.99 input  -60.11 | X-H torsion
[ 7974 7965 7964 7962 ] final -109.77 input  175.53 | X-H torsion
[ 8008 7997 7996 7995 ] final   36.12 input   59.86 | X-H torsion
[ 10167 10162 10161 10158 ] final  155.48 input  -65.29 | X-H torsion
[ 10718 10713 10712 10709 ] final   94.09 input   66.30 | X-H torsion
[ 10763 10752 10751 10750 ] final   71.89 input  -60.55 | X-H torsion
[ 11005 11000 10999 10996 ] final -169.99 input  -57.11 | X-H torsion

> <Gold.Protein.ActiveResidues>
 VAL166  LYS551  ARG553  GLY616  TRP617  ASP618  TYR619  PRO620  LYS621  CYS622 
 ASP623  PHE694  ASN695  SER759  ASP760  ASP761  ALA762  ILE779  LEU786  VAL792 
 PHE793  MET794  SER795  GLU796  ALA797  LYS798  CYS799  TRP800  GLU811  SER814 

> <Gold.Protein.RotatedAtoms>
  152.4707  133.8023  159.6958 H   0  0  0  0  0  0  0  0  0  0  0  0  # atno 6907 bound_to 6896
  150.8694  133.7517  159.2972 H   0  0  0  0  0  0  0  0  0  0  0  0  # atno 6908 bound_to 6896
  151.5057  135.1066  159.9893 H   0  0  0  0  0  0  0  0  0  0  0  0  # atno 6909 bound_to 6896
  145.1764  140.8950  143.3505 H   0  0  0  0  0  0  0  0  0  0  0  0  # atno 7974 bound_to 7965
  155.1822  140.3301  155.4373 H   0  0  0  0  0  0  0  0  0  0  0  0  # atno 8008 bound_to 7997
  156.2473  140.1925  156.6869 H   0  0  0  0  0  0  0  0  0  0  0  0  # atno 8009 bound_to 7997
  154.6264  140.0588  156.9664 H   0  0  0  0  0  0  0  0  0  0  0  0  # atno 8010 bound_to 7997
  139.4821  144.5095  151.8047 H   0  0  0  0  0  0  0  0  0  0  0  0  # atno 10167 bound_to 10162
  157.6950  131.0500  150.4133 H   0  0  0  0  0  0  0  0  0  0  0  0  # atno 10718 bound_to 10713
  153.0426  135.5120  154.7661 H   0  0  0  0  0  0  0  0  0  0  0  0  # atno 10763 bound_to 10752
  154.6587  135.2935  154.9897 H   0  0  0  0  0  0  0  0  0  0  0  0  # atno 10764 bound_to 10752
  154.0756  135.6671  153.4883 H   0  0  0  0  0  0  0  0  0  0  0  0  # atno 10765 bound_to 10752
  140.5246  134.5676  157.5057 H   0  0  0  0  0  0  0  0  0  0  0  0  # atno 11005 bound_to 11000
  145.0181  139.3449  143.6086 LP  0  0  0  0  0  0  0  0  0  0  0  0  # atno 17320 bound_to 7965
  146.3460  139.9470  142.8733 LP  0  0  0  0  0  0  0  0  0  0  0  0  # atno 17321 bound_to 7965
  140.4596  144.1740  150.5905 LP  0  0  0  0  0  0  0  0  0  0  0  0  # atno 17342 bound_to 10162
  140.4498  143.2491  151.9362 LP  0  0  0  0  0  0  0  0  0  0  0  0  # atno 17343 bound_to 10162
  156.4515  130.4012  149.6633 LP  0  0  0  0  0  0  0  0  0  0  0  0  # atno 17370 bound_to 10713
  156.3780  130.7564  151.2554 LP  0  0  0  0  0  0  0  0  0  0  0  0  # atno 17371 bound_to 10713
  139.9587  134.7490  156.0284 LP  0  0  0  0  0  0  0  0  0  0  0  0  # atno 17394 bound_to 11000
  141.1315  133.6585  156.3478 LP  0  0  0  0  0  0  0  0  0  0  0  0  # atno 17395 bound_to 11000

$$$$
