AV-unprocessed.smi:1261|AV-procd|sdf|5301|dock6
  -GOLD-   22720 4423D 1   1.00000     0.00000
 Structure written by MMmdl.
 49 50  0  0  0  0  0  0  0  0  3 V2000
  152.4283  145.0028  158.9317 C   0  0  0  0  0  0  0  0  0  0  0  0
  151.5094  143.9691  159.6061 C   0  0  2  0  0  0  0  0  0  0  0  0
  152.1068  143.3885  160.9013 C   0  0  0  0  0  0  0  0  0  0  0  0
  153.2425  142.3919  160.6082 C   0  0  1  0  0  0  0  0  0  0  0  0
  153.7868  141.7686  161.9017 C   0  0  0  0  0  0  0  0  0  0  0  0
  152.7612  141.3105  159.6218 C   0  0  0  0  0  0  0  0  0  0  0  0
  152.2344  141.9121  158.3695 N   0  3  1  0  0  0  0  0  0  0  0  0
  151.9185  140.8858  157.3437 C   0  0  0  0  0  0  0  0  0  0  0  0
  150.8862  139.8579  157.8371 C   0  0  0  0  0  0  0  0  0  0  0  0
  150.0052  139.3258  156.6951 C   0  0  0  0  0  0  0  0  0  0  0  0
  148.7436  138.7922  157.1931 N   0  0  0  0  0  0  0  0  0  0  0  0
  148.6227  137.8653  158.1556 C   0  0  0  0  0  0  0  0  0  0  0  0
  149.5837  137.3724  158.7471 O   0  0  0  0  0  0  0  0  0  0  0  0
  147.1939  137.4440  158.5142 C   0  0  0  0  0  0  0  0  0  0  0  0
  147.1075  136.9107  159.8792 N   0  0  0  0  0  0  0  0  0  0  0  0
  146.2274  137.6819  160.7540 N   0  5  0  0  0  0  0  0  0  0  0  0
  146.0442  137.2724  162.0372 C   0  0  0  0  0  0  0  0  0  0  0  0
  145.3094  137.8620  162.8261 O   0  0  0  0  0  0  0  0  0  0  0  0
  146.7541  136.0856  162.4846 C   0  0  0  0  0  0  0  0  0  0  0  0
  147.5681  135.3993  161.6585 C   0  0  0  0  0  0  0  0  0  0  0  0
  147.7862  135.7952  160.2723 C   0  0  0  0  0  0  0  0  0  0  0  0
  148.5253  135.1698  159.5121 O   0  0  0  0  0  0  0  0  0  0  0  0
  151.1014  142.8370  158.6427 C   0  0  0  0  0  0  0  0  0  0  0  0
  153.3575  144.5559  158.5784 H   0  0  0  0  0  0  0  0  0  0  0  0
  152.6876  145.8060  159.6220 H   0  0  0  0  0  0  0  0  0  0  0  0
  151.9363  145.4583  158.0718 H   0  0  0  0  0  0  0  0  0  0  0  0
  150.6003  144.5049  159.8831 H   0  0  0  0  0  0  0  0  0  0  0  0
  152.4631  144.1928  161.5460 H   0  0  0  0  0  0  0  0  0  0  0  0
  151.3184  142.8802  161.4586 H   0  0  0  0  0  0  0  0  0  0  0  0
  154.0656  142.9343  160.1414 H   0  0  0  0  0  0  0  0  0  0  0  0
  153.0165  141.2006  162.4244 H   0  0  0  0  0  0  0  0  0  0  0  0
  154.1538  142.5362  162.5836 H   0  0  0  0  0  0  0  0  0  0  0  0
  154.6156  141.0913  161.6933 H   0  0  0  0  0  0  0  0  0  0  0  0
  153.5957  140.6491  159.3850 H   0  0  0  0  0  0  0  0  0  0  0  0
  151.9876  140.6922  160.0808 H   0  0  0  0  0  0  0  0  0  0  0  0
  151.5035  141.3771  156.4625 H   0  0  0  0  0  0  0  0  0  0  0  0
  152.8345  140.3910  157.0171 H   0  0  0  0  0  0  0  0  0  0  0  0
  151.3898  139.0194  158.3175 H   0  0  0  0  0  0  0  0  0  0  0  0
  150.2526  140.3151  158.5983 H   0  0  0  0  0  0  0  0  0  0  0  0
  149.7766  140.1292  155.9944 H   0  0  0  0  0  0  0  0  0  0  0  0
  150.5342  138.5592  156.1264 H   0  0  0  0  0  0  0  0  0  0  0  0
  147.8961  139.1249  156.7552 H   0  0  0  0  0  0  0  0  0  0  0  0
  146.5274  138.3001  158.3966 H   0  0  0  0  0  0  0  0  0  0  0  0
  146.8433  136.7048  157.7910 H   0  0  0  0  0  0  0  0  0  0  0  0
  146.6272  135.7478  163.5028 H   0  0  0  0  0  0  0  0  0  0  0  0
  148.0763  134.5237  162.0343 H   0  0  0  0  0  0  0  0  0  0  0  0
  150.2747  142.2683  159.0716 H   0  0  0  0  0  0  0  0  0  0  0  0
  150.7269  143.2736  157.7175 H   0  0  0  0  0  0  0  0  0  0  0  0
  152.9854  142.4711  157.9901 H   0  0  0  0  0  0  0  0  0  0  0  0
  1  2  1  0  0  0  0
  1 24  1  0  0  0  0
  1 25  1  0  0  0  0
  1 26  1  0  0  0  0
  2 23  1  0  0  0  0
  2  3  1  0  0  0  0
  2 27  1  0  0  0  0
  3  4  1  0  0  0  0
  3 28  1  0  0  0  0
  3 29  1  0  0  0  0
  4  5  1  0  0  0  0
  4  6  1  0  0  0  0
  4 30  1  0  0  0  0
  5 31  1  0  0  0  0
  5 32  1  0  0  0  0
  5 33  1  0  0  0  0
  6  7  1  0  0  0  0
  6 34  1  0  0  0  0
  6 35  1  0  0  0  0
  7  8  1  0  0  0  0
  7 23  1  0  0  0  0
  7 49  1  0  0  0  0
  8  9  1  0  0  0  0
  8 36  1  0  0  0  0
  8 37  1  0  0  0  0
  9 10  1  0  0  0  0
  9 38  1  0  0  0  0
  9 39  1  0  0  0  0
 10 11  1  0  0  0  0
 10 40  1  0  0  0  0
 10 41  1  0  0  0  0
 11 12  1  0  0  0  0
 11 42  1  0  0  0  0
 12 13  2  0  0  0  0
 12 14  1  0  0  0  0
 14 43  1  0  0  0  0
 14 44  1  0  0  0  0
 14 15  1  0  0  0  0
 15 16  1  0  0  0  0
 15 21  1  0  0  0  0
 16 17  1  0  0  0  0
 17 18  2  0  0  0  0
 17 19  1  0  0  0  0
 19 45  1  0  0  0  0
 19 20  2  0  0  0  0
 20 46  1  0  0  0  0
 20 21  1  0  0  0  0
 21 22  2  0  0  0  0
 23 47  1  0  0  0  0
 23 48  1  0  0  0  0
M  CHG  1   7   1
M  CHG  1  16  -1
M  END
> <s_m_source_file>
AV-unprocessed.smi

> <i_m_source_file_index>
1261

> <i_lp_mmshare_version>
43012

> <i_f3d_flags>
0

> <s_epik_input>
W0NIM11bQ0BASF0xW0NIMl1bQ0BASF0oW0NIM10pW0NIMl1OKFtDSDJdMSlbQ0gyXVtDSDJdW0NIMl1bTkhdQyg9TylbQ0gyXW4yW25IXWMoPU8pW2NIXVtjSF1jMj1P

> <s_epik_cmdline>
J2VwaWtfcHl0aG9uJywgJy1waCcsICc3LjAnLCAnLXRuJywgJzgnLCAnLW1hJywgJzIwMCcsICctbWV0YWxfYmluZGluZycsICctaW1hZScsICc8aW5maWxlLm1hZT4nLCAnLW9tYWUnLCAnPG91dGZpbGUubWFlPic=

> <r_lp_tautomer_probability>
1

> <r_epik_Ionization_Penalty>
0.0955723

> <r_epik_Ionization_Penalty_Charging>
0.0955723

> <r_epik_Ionization_Penalty_Neutral>
2.68632e-08

> <r_epik_State_Penalty>
0.0334406

> <r_epik_Charging_Adjusted_Penalty>
0.129013

> <i_epik_Tot_Q>
0

> <i_epik_Tot_abs_Q>
2

> <r_epik_Metal_State_Penalty>
0.0334406

> <b_epik_Metal_Only>
0

> <s_lp_Force_Field>
OPLS_2005

> <r_lp_Energy>
33.9758

> <b_lp_Chiralities_Consistent>
1

> <s_lp_Variant>
AV-unprocessed.smi:1261-1

> <Gold.Version>
5.8.1

> <Gold.Id.Protein>
6NUR|6NUR_protein|mol2

> <Gold.PLP.Fitness>
49.7115

> <Gold.PLP.PLP>
-42.0162

> <Gold.PLP.part.hbond>
-2.1562

> <Gold.PLP.part.metal>
0.0000

> <Gold.PLP.part.buried>
-6.2191

> <Gold.PLP.part.nonpolar>
-34.1419

> <Gold.PLP.part.repulsive>
0.1266

> <Gold.PLP.ligand.clash>
0.0000

> <Gold.PLP.ligand.torsion>
0.6981

> <Gold.PLP.Chemscore.Hbond>
3.0000

> <Gold.PLP.Chemscore.CHOScore>
0.0000

> <Gold.PLP.Chemscore.Metal>
0.0000

> <Gold.Chemscore.Hbonds>
donor molecule, donor type, donor heavy atom, donor atom, acceptor molecule, acceptor atom, score
      P1  H  6896  6909       L1    22  0.54
      P1  H  6934  6947       L1    16  1.90

> <Gold.PLP.Chemscore.Internal.Correction>
0.0915

> <Gold.Rescore>
     Score         DG    S(hbond)    S(metal)    S(lipo)     H(rot)  DE(clash)    DE(int)     intcor
     14.11     -16.52       1.48        0.00     106.80       2.49       0.12       2.29       ----

> <Gold.Chemscore.Fitness>
14.1075

> <Gold.Chemscore.DG>
-16.5216

> <Gold.Chemscore.ZeroCoef>
-5.4800

> <Gold.Chemscore.Hbond>
1.4760

> <Gold.Chemscore.Metal>
0.0000

> <Gold.Chemscore.Lipo>
106.8030

> <Gold.Chemscore.Internal_Hbond>
0.0000

> <Gold.Chemscore.DEClash>
0.1214

> <Gold.Chemscore.DEInternal>
2.2927

> <Gold.Chemscore.Rot>
2.4938

> <Gold.Chemscore.Internal.Correction>
   9.000000E+99

> <Gold.Chemscore.Hbonds>
donor molecule, donor type, donor heavy atom, donor atom, acceptor molecule, acceptor atom, score
      P1  H  6896  6909       L1    22  0.53
      P1  H  6934  6947       L1    16  0.09

> <Gold.Chemscore.Hbond.Weighted>
-4.9297

> <Gold.Chemscore.Metal.Weighted>
-0.0000

> <Gold.Chemscore.Lipo.Weighted>
-12.4960

> <Gold.Chemscore.Internal_Hbond.Weighted>
0.0000

> <Gold.Chemscore.DEClash.Weighted>
0.1214

> <Gold.Chemscore.DEInternal.Weighted>
2.2927

> <Gold.Chemscore.Rot.Weighted>
6.3840

> <Gold.Chemscore.Internal.Correction.Weighted>
   9.000000E+99

> <Gold.Protein.RotatedTorsions>
[ 6907 6896 6895 6894 ] final   44.84 input  -60.11 | X-H torsion
[ 7974 7965 7964 7962 ] final  163.76 input  175.53 | X-H torsion
[ 8008 7997 7996 7995 ] final  -31.46 input   59.86 | X-H torsion
[ 10167 10162 10161 10158 ] final -127.00 input  -65.29 | X-H torsion
[ 10718 10713 10712 10709 ] final  100.21 input   66.30 | X-H torsion
[ 10763 10752 10751 10750 ] final  -63.57 input  -60.55 | X-H torsion
[ 11005 11000 10999 10996 ] final  168.10 input  -57.11 | X-H torsion

> <Gold.Protein.ActiveResidues>
 VAL166  LYS551  ARG553  GLY616  TRP617  ASP618  TYR619  PRO620  LYS621  CYS622 
 ASP623  PHE694  ASN695  SER759  ASP760  ASP761  ALA762  ILE779  LEU786  VAL792 
 PHE793  MET794  SER795  GLU796  ALA797  LYS798  CYS799  TRP800  GLU811  SER814 

> <Gold.Protein.RotatedAtoms>
  152.2373  134.8263  160.0465 H   0  0  0  0  0  0  0  0  0  0  0  0  # atno 6907 bound_to 6896
  151.8990  133.3528  159.3832 H   0  0  0  0  0  0  0  0  0  0  0  0  # atno 6908 bound_to 6896
  150.7043  134.4773  159.5498 H   0  0  0  0  0  0  0  0  0  0  0  0  # atno 6909 bound_to 6896
  144.7575  139.8229  143.6344 H   0  0  0  0  0  0  0  0  0  0  0  0  # atno 7974 bound_to 7965
  154.4213  140.1764  156.1570 H   0  0  0  0  0  0  0  0  0  0  0  0  # atno 8008 bound_to 7997
  155.9869  140.3372  155.6692 H   0  0  0  0  0  0  0  0  0  0  0  0  # atno 8009 bound_to 7997
  155.6425  140.0681  157.2604 H   0  0  0  0  0  0  0  0  0  0  0  0  # atno 8010 bound_to 7997
  139.9655  143.5902  152.2430 H   0  0  0  0  0  0  0  0  0  0  0  0  # atno 10167 bound_to 10162
  157.6859  131.0692  150.5066 H   0  0  0  0  0  0  0  0  0  0  0  0  # atno 10718 bound_to 10713
  154.3170  135.6204  153.5491 H   0  0  0  0  0  0  0  0  0  0  0  0  # atno 10763 bound_to 10752
  152.9823  135.5715  154.5113 H   0  0  0  0  0  0  0  0  0  0  0  0  # atno 10764 bound_to 10752
  154.4773  135.2861  155.1574 H   0  0  0  0  0  0  0  0  0  0  0  0  # atno 10765 bound_to 10752
  140.2837  134.7729  157.3780 H   0  0  0  0  0  0  0  0  0  0  0  0  # atno 11005 bound_to 11000
  146.1602  139.4714  142.9993 LP  0  0  0  0  0  0  0  0  0  0  0  0  # atno 17320 bound_to 7965
  145.6729  141.0211  143.1647 LP  0  0  0  0  0  0  0  0  0  0  0  0  # atno 17321 bound_to 7965
  139.6521  144.7661  151.2128 LP  0  0  0  0  0  0  0  0  0  0  0  0  # atno 17342 bound_to 10162
  140.7539  143.6144  150.8573 LP  0  0  0  0  0  0  0  0  0  0  0  0  # atno 17343 bound_to 10162
  156.5385  130.4202  149.6165 LP  0  0  0  0  0  0  0  0  0  0  0  0  # atno 17370 bound_to 10713
  156.3006  130.7174  151.2045 LP  0  0  0  0  0  0  0  0  0  0  0  0  # atno 17371 bound_to 10713
  140.1259  134.5158  155.8145 LP  0  0  0  0  0  0  0  0  0  0  0  0  # atno 17394 bound_to 11000
  141.2158  133.6772  156.6951 LP  0  0  0  0  0  0  0  0  0  0  0  0  # atno 17395 bound_to 11000

$$$$
