AV-unprocessed.smi:3299|AV-procd|sdf|12649|dock7
  -GOLD-   2272018583D 1   1.00000     0.00000
 Structure written by MMmdl.
 34 35  0  0  0  0  0  0  0  0  1 V2000
  146.2706  142.6683  153.9945 C   0  0  0  0  0  0  0  0  0  0  0  0
  147.2328  141.5241  154.0612 C   0  0  0  0  0  0  0  0  0  0  0  0
  148.5181  141.5547  154.5458 C   0  0  0  0  0  0  0  0  0  0  0  0
  149.2952  139.9984  154.4377 S   0  0  0  0  0  0  0  0  0  0  0  0
  147.8141  139.3570  153.7238 C   0  0  0  0  0  0  0  0  0  0  0  0
  147.5711  138.0292  153.2937 N   0  0  0  0  0  0  0  0  0  0  0  0
  146.4539  137.3027  153.4580 C   0  0  0  0  0  0  0  0  0  0  0  0
  145.4293  137.6938  154.0164 O   0  0  0  0  0  0  0  0  0  0  0  0
  146.5960  136.0753  152.9326 N   0  0  0  0  0  0  0  0  0  0  0  0
  145.6000  135.0016  152.9159 C   0  0  1  0  0  0  0  0  0  0  0  0
  144.3959  135.3356  152.0059 C   0  0  0  0  0  0  0  0  0  0  0  0
  144.6727  135.1442  150.5054 C   0  0  0  0  0  0  0  0  0  0  0  0
  145.2177  136.3284  149.9644 O   0  0  0  0  0  0  0  0  0  0  0  0
  146.1667  133.6247  152.6016 C   0  0  0  0  0  0  0  0  0  0  0  0
  147.6412  133.3383  152.7558 C   0  0  0  0  0  0  0  0  0  0  0  0
  147.0192  133.3896  151.3779 C   0  0  0  0  0  0  0  0  0  0  0  0
  146.8441  140.2639  153.5950 N   0  0  0  0  0  0  0  0  0  0  0  0
  146.6476  143.5385  154.5322 H   0  0  0  0  0  0  0  0  0  0  0  0
  145.3091  142.4018  154.4341 H   0  0  0  0  0  0  0  0  0  0  0  0
  146.0911  142.9705  152.9625 H   0  0  0  0  0  0  0  0  0  0  0  0
  149.0541  142.3965  154.9586 H   0  0  0  0  0  0  0  0  0  0  0  0
  148.3371  137.5813  152.8131 H   0  0  0  0  0  0  0  0  0  0  0  0
  147.4809  135.8603  152.4969 H   0  0  0  0  0  0  0  0  0  0  0  0
  145.2212  134.9584  153.9380 H   0  0  0  0  0  0  0  0  0  0  0  0
  143.5308  134.7373  152.2946 H   0  0  0  0  0  0  0  0  0  0  0  0
  144.1075  136.3737  152.1774 H   0  0  0  0  0  0  0  0  0  0  0  0
  145.3743  134.3254  150.3445 H   0  0  0  0  0  0  0  0  0  0  0  0
  143.7574  134.9043  149.9641 H   0  0  0  0  0  0  0  0  0  0  0  0
  144.5713  137.0146  150.0302 H   0  0  0  0  0  0  0  0  0  0  0  0
  145.5076  132.8049  152.8807 H   0  0  0  0  0  0  0  0  0  0  0  0
  148.2919  134.1618  153.0434 H   0  0  0  0  0  0  0  0  0  0  0  0
  147.9242  132.3623  153.1449 H   0  0  0  0  0  0  0  0  0  0  0  0
  146.8869  132.4480  150.8491 H   0  0  0  0  0  0  0  0  0  0  0  0
  147.2569  134.2470  150.7515 H   0  0  0  0  0  0  0  0  0  0  0  0
  1  2  1  0  0  0  0
  1 18  1  0  0  0  0
  1 19  1  0  0  0  0
  1 20  1  0  0  0  0
  2 17  1  0  0  0  0
  2  3  2  0  0  0  0
  3  4  1  0  0  0  0
  3 21  1  0  0  0  0
  4  5  1  0  0  0  0
  5  6  1  0  0  0  0
  5 17  2  0  0  0  0
  6  7  1  0  0  0  0
  6 22  1  0  0  0  0
  7  8  2  0  0  0  0
  7  9  1  0  0  0  0
  9 10  1  0  0  0  0
  9 23  1  0  0  0  0
 10 11  1  0  0  0  0
 10 14  1  0  0  0  0
 10 24  1  0  0  0  0
 11 12  1  0  0  0  0
 11 25  1  0  0  0  0
 11 26  1  0  0  0  0
 12 13  1  0  0  0  0
 12 27  1  0  0  0  0
 12 28  1  0  0  0  0
 13 29  1  0  0  0  0
 14 16  1  0  0  0  0
 14 15  1  0  0  0  0
 14 30  1  0  0  0  0
 15 16  1  0  0  0  0
 15 31  1  0  0  0  0
 15 32  1  0  0  0  0
 16 33  1  0  0  0  0
 16 34  1  0  0  0  0
M  END
> <s_m_source_file>
AV-unprocessed.smi

> <i_m_source_file_index>
3299

> <i_lp_mmshare_version>
43012

> <i_f3d_flags>
0

> <s_epik_input>
W0NIM11jMVtjSF1zYyhuMSlbTkhdQyg9TylbTkhdW0NASF0oW0NIMl1bQ0gyXVtPSF0pW0NIXTJbQ0gyXVtDSDJdMg==

> <s_epik_cmdline>
J2VwaWtfcHl0aG9uJywgJy1waCcsICc3LjAnLCAnLXRuJywgJzgnLCAnLW1hJywgJzIwMCcsICctbWV0YWxfYmluZGluZycsICctaW1hZScsICc8aW5maWxlLm1hZT4nLCAnLW9tYWUnLCAnPG91dGZpbGUubWFlPic=

> <r_lp_tautomer_probability>
0.999

> <r_epik_Ionization_Penalty>
0.000568872

> <r_epik_Ionization_Penalty_Charging>
0

> <r_epik_Ionization_Penalty_Neutral>
0.000568872

> <r_epik_State_Penalty>
0.000177984

> <r_epik_Charging_Adjusted_Penalty>
0.000177984

> <i_epik_Tot_Q>
0

> <i_epik_Tot_abs_Q>
0

> <r_epik_Metal_State_Penalty>
-0

> <b_epik_Metal_Only>
0

> <s_lp_Force_Field>
OPLS_2005

> <r_lp_Energy>
11.9184

> <b_lp_Chiralities_Consistent>
1

> <s_lp_Variant>
AV-unprocessed.smi:3299-2

> <Gold.Version>
5.8.1

> <Gold.Id.Protein>
6NUR|6NUR_protein|mol2

> <Gold.PLP.Fitness>
42.3223

> <Gold.PLP.PLP>
-31.7485

> <Gold.PLP.part.hbond>
-4.0000

> <Gold.PLP.part.metal>
0.0000

> <Gold.PLP.part.buried>
-3.4845

> <Gold.PLP.part.nonpolar>
-24.1183

> <Gold.PLP.part.repulsive>
0.3418

> <Gold.PLP.ligand.clash>
0.0000

> <Gold.PLP.ligand.torsion>
1.2983

> <Gold.PLP.Chemscore.Hbond>
3.0000

> <Gold.PLP.Chemscore.CHOScore>
1.0000

> <Gold.PLP.Chemscore.Metal>
0.0000

> <Gold.Chemscore.Hbonds>
donor molecule, donor type, donor heavy atom, donor atom, acceptor molecule, acceptor atom, score
      L1  H     6    22       P1  7948  1.00
      L1  H     9    23       P1  7948  1.00
      L1  H    13    29       P1 10171  1.00
      L1  C     3    21       P1  8028  1.00

> <Gold.PLP.Chemscore.Internal.Correction>
1.1704

> <Gold.Rescore>
     Score         DG    S(hbond)    S(metal)    S(lipo)     H(rot)  DE(clash)    DE(int)     intcor
     14.39     -15.85       2.96        0.00      56.44       2.39       0.03       1.43       ----

> <Gold.Chemscore.Fitness>
14.3937

> <Gold.Chemscore.DG>
-15.8483

> <Gold.Chemscore.ZeroCoef>
-5.4800

> <Gold.Chemscore.Hbond>
2.9604

> <Gold.Chemscore.Metal>
0.0000

> <Gold.Chemscore.Lipo>
56.4393

> <Gold.Chemscore.Internal_Hbond>
0.0000

> <Gold.Chemscore.DEClash>
0.0292

> <Gold.Chemscore.DEInternal>
1.4254

> <Gold.Chemscore.Rot>
2.3917

> <Gold.Chemscore.Internal.Correction>
   9.000000E+99

> <Gold.Chemscore.Hbonds>
donor molecule, donor type, donor heavy atom, donor atom, acceptor molecule, acceptor atom, score
      L1  H     6    22       P1  7948  0.95
      L1  H     9    23       P1  7948  0.98
      L1  H    13    29       P1 10171  0.99

> <Gold.Chemscore.Hbond.Weighted>
-9.8877

> <Gold.Chemscore.Metal.Weighted>
-0.0000

> <Gold.Chemscore.Lipo.Weighted>
-6.6034

> <Gold.Chemscore.Internal_Hbond.Weighted>
0.0000

> <Gold.Chemscore.DEClash.Weighted>
0.0292

> <Gold.Chemscore.DEInternal.Weighted>
1.4254

> <Gold.Chemscore.Rot.Weighted>
6.1228

> <Gold.Chemscore.Internal.Correction.Weighted>
   9.000000E+99

> <Gold.Protein.RotatedTorsions>
[ 6907 6896 6895 6894 ] final   60.39 input  -60.11 | X-H torsion
[ 7974 7965 7964 7962 ] final  -46.92 input  175.53 | X-H torsion
[ 8008 7997 7996 7995 ] final  137.17 input   59.86 | X-H torsion
[ 10167 10162 10161 10158 ] final   80.61 input  -65.29 | X-H torsion
[ 10718 10713 10712 10709 ] final  160.09 input   66.30 | X-H torsion
[ 10763 10752 10751 10750 ] final  -55.53 input  -60.55 | X-H torsion
[ 11005 11000 10999 10996 ] final   12.44 input  -57.11 | X-H torsion

> <Gold.Protein.ActiveResidues>
 VAL166  LYS551  ARG553  GLY616  TRP617  ASP618  TYR619  PRO620  LYS621  CYS622 
 ASP623  PHE694  ASN695  SER759  ASP760  ASP761  ALA762  ILE779  LEU786  VAL792 
 PHE793  MET794  SER795  GLU796  ALA797  LYS798  CYS799  TRP800  GLU811  SER814 

> <Gold.Protein.RotatedAtoms>
  152.3999  134.6303  160.0073 H   0  0  0  0  0  0  0  0  0  0  0  0  # atno 6907 bound_to 6896
  151.6512  133.3315  159.3160 H   0  0  0  0  0  0  0  0  0  0  0  0  # atno 6908 bound_to 6896
  150.7901  134.6960  159.6568 H   0  0  0  0  0  0  0  0  0  0  0  0  # atno 6909 bound_to 6896
  145.9669  140.7422  142.9429 H   0  0  0  0  0  0  0  0  0  0  0  0  # atno 7974 bound_to 7965
  156.3003  140.2426  156.3866 H   0  0  0  0  0  0  0  0  0  0  0  0  # atno 8008 bound_to 7997
  154.8652  140.0418  157.1710 H   0  0  0  0  0  0  0  0  0  0  0  0  # atno 8009 bound_to 7997
  154.8854  140.2955  155.5405 H   0  0  0  0  0  0  0  0  0  0  0  0  # atno 8010 bound_to 7997
  139.9480  144.6045  150.8188 H   0  0  0  0  0  0  0  0  0  0  0  0  # atno 10167 bound_to 10162
  157.1551  131.0573  151.2260 H   0  0  0  0  0  0  0  0  0  0  0  0  # atno 10718 bound_to 10713
  154.1923  135.6425  153.5063 H   0  0  0  0  0  0  0  0  0  0  0  0  # atno 10763 bound_to 10752
  153.0032  135.5431  154.6402 H   0  0  0  0  0  0  0  0  0  0  0  0  # atno 10764 bound_to 10752
  154.5794  135.2924  155.0721 H   0  0  0  0  0  0  0  0  0  0  0  0  # atno 10765 bound_to 10752
  140.4920  134.0831  155.7773 H   0  0  0  0  0  0  0  0  0  0  0  0  # atno 11005 bound_to 11000
  144.6828  140.2684  143.7309 LP  0  0  0  0  0  0  0  0  0  0  0  0  # atno 17320 bound_to 7965
  145.7961  139.1946  143.2075 LP  0  0  0  0  0  0  0  0  0  0  0  0  # atno 17321 bound_to 7965
  140.7591  143.3122  151.2817 LP  0  0  0  0  0  0  0  0  0  0  0  0  # atno 17342 bound_to 10162
  139.6651  144.0119  152.2718 LP  0  0  0  0  0  0  0  0  0  0  0  0  # atno 17343 bound_to 10162
  157.4184  130.7424  149.6894 LP  0  0  0  0  0  0  0  0  0  0  0  0  # atno 17370 bound_to 10713
  155.9763  130.4077  150.3786 LP  0  0  0  0  0  0  0  0  0  0  0  0  # atno 17371 bound_to 10713
  141.1479  133.9021  157.2170 LP  0  0  0  0  0  0  0  0  0  0  0  0  # atno 17394 bound_to 11000
  139.9764  135.0112  156.9641 LP  0  0  0  0  0  0  0  0  0  0  0  0  # atno 17395 bound_to 11000

$$$$
