AV-unprocessed.smi:2330|AV-procd|sdf|9313|dock5
  -GOLD-   2272012533D 1   1.00000     0.00000
 Structure written by MMmdl.
 42 43  0  0  0  0  0  0  0  0  1 V2000
  146.1720  132.4499  149.8951 C   0  0  0  0  0  0  0  0  0  0  0  0
  145.7689  132.8135  151.3310 C   0  0  2  0  0  0  0  0  0  0  0  0
  145.1242  134.2111  151.3993 C   0  0  0  0  0  0  0  0  0  0  0  0
  144.7147  134.5776  152.8370 C   0  0  0  0  0  0  0  0  0  0  0  0
  145.8908  134.4694  153.8269 C   0  0  2  0  0  0  0  0  0  0  0  0
  146.8600  135.5369  153.5833 N   0  0  0  0  0  0  0  0  0  0  0  0
  147.1202  136.5671  154.4002 C   0  0  0  0  0  0  0  0  0  0  0  0
  146.5841  136.7413  155.4946 O   0  0  0  0  0  0  0  0  0  0  0  0
  148.0249  137.4003  153.8692 N   0  0  0  0  0  0  0  0  0  0  0  0
  148.4617  138.6572  154.4710 C   0  0  0  0  0  0  0  0  0  0  0  0
  149.8568  138.5552  155.1276 C   0  0  1  0  0  0  0  0  0  0  0  0
  150.9447  138.0856  154.1515 C   0  0  0  0  0  0  0  0  0  0  0  0
  150.2547  139.7989  155.8639 C   0  0  0  0  0  0  0  0  0  0  0  0
  150.2961  141.0126  155.3048 N   0  0  0  0  0  0  0  0  0  0  0  0
  150.6776  142.0061  156.2096 C   0  0  0  0  0  0  0  0  0  0  0  0
  150.9231  141.5314  157.4726 C   0  0  0  0  0  0  0  0  0  0  0  0
  150.6840  139.8088  157.5723 S   0  0  0  0  0  0  0  0  0  0  0  0
  146.5694  133.0888  153.7346 C   0  0  0  0  0  0  0  0  0  0  0  0
  146.9696  132.7285  152.2926 C   0  0  0  0  0  0  0  0  0  0  0  0
  146.9193  133.1419  149.5054 H   0  0  0  0  0  0  0  0  0  0  0  0
  145.3109  132.4778  149.2268 H   0  0  0  0  0  0  0  0  0  0  0  0
  146.5918  131.4448  149.8481 H   0  0  0  0  0  0  0  0  0  0  0  0
  145.0251  132.0847  151.6571 H   0  0  0  0  0  0  0  0  0  0  0  0
  145.8194  134.9581  151.0138 H   0  0  0  0  0  0  0  0  0  0  0  0
  144.2467  134.2482  150.7526 H   0  0  0  0  0  0  0  0  0  0  0  0
  144.2927  135.5831  152.8612 H   0  0  0  0  0  0  0  0  0  0  0  0
  143.9163  133.9076  153.1588 H   0  0  0  0  0  0  0  0  0  0  0  0
  145.4833  134.5729  154.8340 H   0  0  0  0  0  0  0  0  0  0  0  0
  147.3593  135.4958  152.7069 H   0  0  0  0  0  0  0  0  0  0  0  0
  148.4107  137.1719  152.9647 H   0  0  0  0  0  0  0  0  0  0  0  0
  148.4436  139.4560  153.7280 H   0  0  0  0  0  0  0  0  0  0  0  0
  147.7228  138.9240  155.2271 H   0  0  0  0  0  0  0  0  0  0  0  0
  149.7841  137.7732  155.8846 H   0  0  0  0  0  0  0  0  0  0  0  0
  151.8923  137.9264  154.6671 H   0  0  0  0  0  0  0  0  0  0  0  0
  151.1134  138.8193  153.3629 H   0  0  0  0  0  0  0  0  0  0  0  0
  150.6654  137.1451  153.6759 H   0  0  0  0  0  0  0  0  0  0  0  0
  150.7477  143.0285  155.8688 H   0  0  0  0  0  0  0  0  0  0  0  0
  151.2284  142.0877  158.3465 H   0  0  0  0  0  0  0  0  0  0  0  0
  147.4440  133.0541  154.3855 H   0  0  0  0  0  0  0  0  0  0  0  0
  145.8831  132.3291  154.1109 H   0  0  0  0  0  0  0  0  0  0  0  0
  147.3902  131.7225  152.2742 H   0  0  0  0  0  0  0  0  0  0  0  0
  147.7624  133.3971  151.9543 H   0  0  0  0  0  0  0  0  0  0  0  0
  1  2  1  0  0  0  0
  1 20  1  0  0  0  0
  1 21  1  0  0  0  0
  1 22  1  0  0  0  0
  2 19  1  0  0  0  0
  2  3  1  0  0  0  0
  2 23  1  0  0  0  0
  3  4  1  0  0  0  0
  3 24  1  0  0  0  0
  3 25  1  0  0  0  0
  4  5  1  0  0  0  0
  4 26  1  0  0  0  0
  4 27  1  0  0  0  0
  5  6  1  0  0  0  0
  5 18  1  0  0  0  0
  5 28  1  0  0  0  0
  6  7  1  0  0  0  0
  6 29  1  0  0  0  0
  7  8  2  0  0  0  0
  7  9  1  0  0  0  0
  9 10  1  0  0  0  0
  9 30  1  0  0  0  0
 10 11  1  0  0  0  0
 10 31  1  0  0  0  0
 10 32  1  0  0  0  0
 11 12  1  0  0  0  0
 11 13  1  0  0  0  0
 11 33  1  0  0  0  0
 12 34  1  0  0  0  0
 12 35  1  0  0  0  0
 12 36  1  0  0  0  0
 13 17  1  0  0  0  0
 13 14  2  0  0  0  0
 14 15  1  0  0  0  0
 15 16  2  0  0  0  0
 15 37  1  0  0  0  0
 16 17  1  0  0  0  0
 16 38  1  0  0  0  0
 18 19  1  0  0  0  0
 18 39  1  0  0  0  0
 18 40  1  0  0  0  0
 19 41  1  0  0  0  0
 19 42  1  0  0  0  0
M  END
> <s_m_source_file>
AV-unprocessed.smi

> <i_m_source_file_index>
2330

> <i_lp_mmshare_version>
43012

> <i_f3d_flags>
0

> <s_epik_input>
W0NIM11bQ0BASF0xW0NIMl1bQ0gyXVtDQEhdKFtDSDJdW0NIMl0xKVtOSF1DKD1PKVtOSF1bQ0gyXVtDQEhdKFtDSDNdKWMybltjSF1bY0hdczI=

> <s_epik_cmdline>
J2VwaWtfcHl0aG9uJywgJy1waCcsICc3LjAnLCAnLXRuJywgJzgnLCAnLW1hJywgJzIwMCcsICctbWV0YWxfYmluZGluZycsICctaW1hZScsICc8aW5maWxlLm1hZT4nLCAnLW9tYWUnLCAnPG91dGZpbGUubWFlPic=

> <r_lp_tautomer_probability>
1

> <r_epik_Ionization_Penalty>
0.000331107

> <r_epik_Ionization_Penalty_Charging>
0

> <r_epik_Ionization_Penalty_Neutral>
0.000331107

> <r_epik_State_Penalty>
-0

> <r_epik_Charging_Adjusted_Penalty>
0

> <i_epik_Tot_Q>
0

> <i_epik_Tot_abs_Q>
0

> <r_epik_Metal_State_Penalty>
-0

> <b_epik_Metal_Only>
0

> <s_lp_Force_Field>
OPLS_2005

> <r_lp_Energy>
-2.32189

> <b_lp_Chiralities_Consistent>
1

> <s_lp_Variant>
AV-unprocessed.smi:2330-4

> <Gold.Version>
5.8.1

> <Gold.Id.Protein>
6NUR|6NUR_protein|mol2

> <Gold.PLP.Fitness>
36.8595

> <Gold.PLP.PLP>
-27.7656

> <Gold.PLP.part.hbond>
-2.8536

> <Gold.PLP.part.metal>
0.0000

> <Gold.PLP.part.buried>
-3.5280

> <Gold.PLP.part.nonpolar>
-21.2869

> <Gold.PLP.part.repulsive>
0.1251

> <Gold.PLP.ligand.clash>
0.0000

> <Gold.PLP.ligand.torsion>
0.3155

> <Gold.PLP.Chemscore.Hbond>
2.2372

> <Gold.PLP.Chemscore.CHOScore>
0.9656

> <Gold.PLP.Chemscore.Metal>
0.0000

> <Gold.Chemscore.Hbonds>
donor molecule, donor type, donor heavy atom, donor atom, acceptor molecule, acceptor atom, score
      L1  H     6    29       P1  7948  0.83
      L1  H     9    30       P1  7948  1.00
      P1  H  7989  7998       L1    14  0.34
      L1  C    15    37       P1  8028  0.97

> <Gold.PLP.Chemscore.Internal.Correction>
0.1165

> <Gold.Rescore>
     Score         DG    S(hbond)    S(metal)    S(lipo)     H(rot)  DE(clash)    DE(int)     intcor
     18.45     -18.70       2.44        0.00      74.99       1.45       0.01       0.24       ----

> <Gold.Chemscore.Fitness>
18.4530

> <Gold.Chemscore.DG>
-18.6979

> <Gold.Chemscore.ZeroCoef>
-5.4800

> <Gold.Chemscore.Hbond>
2.4448

> <Gold.Chemscore.Metal>
0.0000

> <Gold.Chemscore.Lipo>
74.9855

> <Gold.Chemscore.Internal_Hbond>
0.0000

> <Gold.Chemscore.DEClash>
0.0066

> <Gold.Chemscore.DEInternal>
0.2383

> <Gold.Chemscore.Rot>
1.4536

> <Gold.Chemscore.Internal.Correction>
   9.000000E+99

> <Gold.Chemscore.Hbonds>
donor molecule, donor type, donor heavy atom, donor atom, acceptor molecule, acceptor atom, score
      L1  H     6    29       P1  7948  0.81
      L1  H     9    30       P1  7948  0.93
      P1  H  7989  7998       L1    14  0.19

> <Gold.Chemscore.Hbond.Weighted>
-8.1658

> <Gold.Chemscore.Metal.Weighted>
-0.0000

> <Gold.Chemscore.Lipo.Weighted>
-8.7733

> <Gold.Chemscore.Internal_Hbond.Weighted>
0.0000

> <Gold.Chemscore.DEClash.Weighted>
0.0066

> <Gold.Chemscore.DEInternal.Weighted>
0.2383

> <Gold.Chemscore.Rot.Weighted>
3.7212

> <Gold.Chemscore.Internal.Correction.Weighted>
   9.000000E+99

> <Gold.Protein.RotatedTorsions>
[ 6907 6896 6895 6894 ] final   49.55 input  -60.11 | X-H torsion
[ 7974 7965 7964 7962 ] final   44.48 input  175.53 | X-H torsion
[ 8008 7997 7996 7995 ] final -144.60 input   59.86 | X-H torsion
[ 10167 10162 10161 10158 ] final  -65.44 input  -65.29 | X-H torsion
[ 10718 10713 10712 10709 ] final  105.09 input   66.30 | X-H torsion
[ 10763 10752 10751 10750 ] final  -79.06 input  -60.55 | X-H torsion
[ 11005 11000 10999 10996 ] final  152.81 input  -57.11 | X-H torsion

> <Gold.Protein.ActiveResidues>
 VAL166  LYS551  ARG553  GLY616  TRP617  ASP618  TYR619  PRO620  LYS621  CYS622 
 ASP623  PHE694  ASN695  SER759  ASP760  ASP761  ALA762  ILE779  LEU786  VAL792 
 PHE793  MET794  SER795  GLU796  ALA797  LYS798  CYS799  TRP800  GLU811  SER814 

> <Gold.Protein.RotatedAtoms>
  152.2920  134.7710  160.0375 H   0  0  0  0  0  0  0  0  0  0  0  0  # atno 6907 bound_to 6896
  151.8252  133.3395  159.3604 H   0  0  0  0  0  0  0  0  0  0  0  0  # atno 6908 bound_to 6896
  150.7235  134.5464  159.5817 H   0  0  0  0  0  0  0  0  0  0  0  0  # atno 6909 bound_to 6896
  146.0564  139.5069  142.9686 H   0  0  0  0  0  0  0  0  0  0  0  0  # atno 7974 bound_to 7965
  155.5296  140.0598  157.2891 H   0  0  0  0  0  0  0  0  0  0  0  0  # atno 8008 bound_to 7997
  154.4489  140.1938  156.0526 H   0  0  0  0  0  0  0  0  0  0  0  0  # atno 8009 bound_to 7997
  156.0661  140.3266  155.7524 H   0  0  0  0  0  0  0  0  0  0  0  0  # atno 8010 bound_to 7997
  140.5729  143.2319  151.6501 H   0  0  0  0  0  0  0  0  0  0  0  0  # atno 10167 bound_to 10162
  157.6718  131.0819  150.5804 H   0  0  0  0  0  0  0  0  0  0  0  0  # atno 10718 bound_to 10713
  154.5338  135.5708  153.6781 H   0  0  0  0  0  0  0  0  0  0  0  0  # atno 10763 bound_to 10752
  152.9946  135.6211  154.2593 H   0  0  0  0  0  0  0  0  0  0  0  0  # atno 10764 bound_to 10752
  154.2521  135.2859  155.2792 H   0  0  0  0  0  0  0  0  0  0  0  0  # atno 10765 bound_to 10752
  140.1341  134.8783  157.2243 H   0  0  0  0  0  0  0  0  0  0  0  0  # atno 11005 bound_to 11000
  145.6636  141.0234  143.1696 LP  0  0  0  0  0  0  0  0  0  0  0  0  # atno 17320 bound_to 7965
  144.7150  139.8229  143.7401 LP  0  0  0  0  0  0  0  0  0  0  0  0  # atno 17321 bound_to 7965
  139.5127  144.3467  152.0690 LP  0  0  0  0  0  0  0  0  0  0  0  0  # atno 17342 bound_to 10162
  140.2607  144.4070  150.6187 LP  0  0  0  0  0  0  0  0  0  0  0  0  # atno 17343 bound_to 10162
  156.6105  130.4379  149.5861 LP  0  0  0  0  0  0  0  0  0  0  0  0  # atno 17370 bound_to 10713
  156.2434  130.6864  151.1577 LP  0  0  0  0  0  0  0  0  0  0  0  0  # atno 17371 bound_to 10713
  140.2805  134.3355  155.7344 LP  0  0  0  0  0  0  0  0  0  0  0  0  # atno 17394 bound_to 11000
  141.2175  133.7475  156.9357 LP  0  0  0  0  0  0  0  0  0  0  0  0  # atno 17395 bound_to 11000

$$$$
