AV-unprocessed.smi:1734|AV-procd|sdf|6983|dock9
  -GOLD-   22720 8193D 1   1.00000     0.00000
 Structure written by MMmdl.
 50 52  0  0  0  0  0  0  0  0  1 V2000
  145.7336  135.9021  150.9337 C   0  0  0  0  0  0  0  0  0  0  0  0
  145.5394  134.4157  151.1860 C   0  0  0  0  0  0  0  0  0  0  0  0
  144.5987  133.7018  150.4134 C   0  0  0  0  0  0  0  0  0  0  0  0
  144.4206  132.3278  150.6475 C   0  0  0  0  0  0  0  0  0  0  0  0
  145.1954  131.7217  151.6510 C   0  0  0  0  0  0  0  0  0  0  0  0
  146.0957  132.3964  152.3946 N   0  0  0  0  0  0  0  0  0  0  0  0
  146.2803  133.7238  152.1817 C   0  0  0  0  0  0  0  0  0  0  0  0
  147.2096  134.5001  152.9304 N   0  0  0  0  0  0  0  0  0  0  0  0
  147.3695  134.5572  154.2643 C   0  0  0  0  0  0  0  0  0  0  0  0
  146.7333  133.8978  155.0871 O   0  0  0  0  0  0  0  0  0  0  0  0
  148.3180  135.4445  154.5982 N   0  0  0  0  0  0  0  0  0  0  0  0
  148.7164  135.7962  155.9589 C   0  0  0  0  0  0  0  0  0  0  0  0
  148.7714  137.3343  156.1687 C   0  0  1  0  0  0  0  0  0  0  0  0
  148.0880  137.7903  157.4949 C   0  0  1  0  0  0  0  0  0  0  0  0
  146.7551  137.1437  157.8837 C   0  0  0  0  0  0  0  0  0  0  0  0
  146.9131  136.8312  159.3726 C   0  0  0  0  0  0  0  0  0  0  0  0
  147.9659  137.6807  159.8015 O   0  0  0  0  0  0  0  0  0  0  0  0
  148.9365  137.6772  158.7681 C   0  0  0  0  0  0  0  0  0  0  0  0
  150.0872  137.9505  155.9058 N   0  0  0  0  0  0  0  0  0  0  0  0
  150.6740  137.6540  154.6004 C   0  0  0  0  0  0  0  0  0  0  0  0
  152.0838  138.2546  154.4599 C   0  0  0  0  0  0  0  0  0  0  0  0
  152.0439  139.6553  154.7126 O   0  0  0  0  0  0  0  0  0  0  0  0
  151.5335  139.9647  156.0050 C   0  0  0  0  0  0  0  0  0  0  0  0
  150.1132  139.3923  156.1421 C   0  0  0  0  0  0  0  0  0  0  0  0
  145.0755  136.2596  150.1411 H   0  0  0  0  0  0  0  0  0  0  0  0
  146.7617  136.1068  150.6337 H   0  0  0  0  0  0  0  0  0  0  0  0
  145.5137  136.4744  151.8353 H   0  0  0  0  0  0  0  0  0  0  0  0
  144.0185  134.1983  149.6494 H   0  0  0  0  0  0  0  0  0  0  0  0
  143.7090  131.7534  150.0729 H   0  0  0  0  0  0  0  0  0  0  0  0
  145.0902  130.6680  151.8634 H   0  0  0  0  0  0  0  0  0  0  0  0
  147.8099  135.0986  152.3830 H   0  0  0  0  0  0  0  0  0  0  0  0
  148.7884  135.9352  153.8517 H   0  0  0  0  0  0  0  0  0  0  0  0
  148.0618  135.3295  156.6956 H   0  0  0  0  0  0  0  0  0  0  0  0
  149.6987  135.3515  156.1105 H   0  0  0  0  0  0  0  0  0  0  0  0
  148.1129  137.7416  155.3999 H   0  0  0  0  0  0  0  0  0  0  0  0
  147.8722  138.8546  157.3871 H   0  0  0  0  0  0  0  0  0  0  0  0
  145.9424  137.8557  157.7347 H   0  0  0  0  0  0  0  0  0  0  0  0
  146.5030  136.2525  157.3115 H   0  0  0  0  0  0  0  0  0  0  0  0
  145.9985  137.0091  159.9386 H   0  0  0  0  0  0  0  0  0  0  0  0
  147.2074  135.7907  159.5192 H   0  0  0  0  0  0  0  0  0  0  0  0
  149.4948  136.7418  158.8208 H   0  0  0  0  0  0  0  0  0  0  0  0
  149.6417  138.5014  158.8770 H   0  0  0  0  0  0  0  0  0  0  0  0
  150.7549  136.5795  154.4551 H   0  0  0  0  0  0  0  0  0  0  0  0
  150.0377  138.0405  153.8040 H   0  0  0  0  0  0  0  0  0  0  0  0
  152.7757  137.7744  155.1536 H   0  0  0  0  0  0  0  0  0  0  0  0
  152.4696  138.0838  153.4549 H   0  0  0  0  0  0  0  0  0  0  0  0
  152.1916  139.5568  156.7737 H   0  0  0  0  0  0  0  0  0  0  0  0
  151.5208  141.0470  156.1340 H   0  0  0  0  0  0  0  0  0  0  0  0
  149.4655  139.9051  155.4315 H   0  0  0  0  0  0  0  0  0  0  0  0
  149.7295  139.6146  157.1382 H   0  0  0  0  0  0  0  0  0  0  0  0
  1  2  1  0  0  0  0
  1 25  1  0  0  0  0
  1 26  1  0  0  0  0
  1 27  1  0  0  0  0
  2  7  1  0  0  0  0
  2  3  2  0  0  0  0
  3  4  1  0  0  0  0
  3 28  1  0  0  0  0
  4  5  2  0  0  0  0
  4 29  1  0  0  0  0
  5  6  1  0  0  0  0
  5 30  1  0  0  0  0
  6  7  2  0  0  0  0
  7  8  1  0  0  0  0
  8  9  1  0  0  0  0
  8 31  1  0  0  0  0
  9 10  2  0  0  0  0
  9 11  1  0  0  0  0
 11 12  1  0  0  0  0
 11 32  1  0  0  0  0
 12 13  1  0  0  0  0
 12 33  1  0  0  0  0
 12 34  1  0  0  0  0
 13 14  1  0  0  0  0
 13 19  1  0  0  0  0
 13 35  1  0  0  0  0
 14 18  1  0  0  0  0
 14 15  1  0  0  0  0
 14 36  1  0  0  0  0
 15 16  1  0  0  0  0
 15 37  1  0  0  0  0
 15 38  1  0  0  0  0
 16 17  1  0  0  0  0
 16 39  1  0  0  0  0
 16 40  1  0  0  0  0
 17 18  1  0  0  0  0
 18 41  1  0  0  0  0
 18 42  1  0  0  0  0
 19 24  1  0  0  0  0
 19 20  1  0  0  0  0
 20 21  1  0  0  0  0
 20 43  1  0  0  0  0
 20 44  1  0  0  0  0
 21 22  1  0  0  0  0
 21 45  1  0  0  0  0
 21 46  1  0  0  0  0
 22 23  1  0  0  0  0
 23 24  1  0  0  0  0
 23 47  1  0  0  0  0
 23 48  1  0  0  0  0
 24 49  1  0  0  0  0
 24 50  1  0  0  0  0
M  END
> <s_m_source_file>
AV-unprocessed.smi

> <i_m_source_file_index>
1734

> <i_lp_mmshare_version>
43012

> <i_f3d_flags>
0

> <s_epik_input>
W0NIM11jMVtjSF1bY0hdW2NIXW5jMVtOSF1DKD1PKVtOSF1bQ0gyXVtDQEhdKFtDQEBIXTJbQ0gyXVtDSDJdT1tDSDJdMilOM1tDSDJdW0NIMl1PW0NIMl1bQ0gyXTM=

> <s_epik_cmdline>
J2VwaWtfcHl0aG9uJywgJy1waCcsICc3LjAnLCAnLXRuJywgJzgnLCAnLW1hJywgJzIwMCcsICctbWV0YWxfYmluZGluZycsICctaW1hZScsICc8aW5maWxlLm1hZT4nLCAnLW9tYWUnLCAnPG91dGZpbGUubWFlPic=

> <r_epik_Ionization_Penalty>
0.125073

> <r_epik_Ionization_Penalty_Charging>
0

> <r_epik_Ionization_Penalty_Neutral>
0.125073

> <r_epik_State_Penalty>
0.114484

> <r_epik_Charging_Adjusted_Penalty>
0.114484

> <i_epik_Tot_Q>
0

> <i_epik_Tot_abs_Q>
0

> <r_epik_Metal_State_Penalty>
0.114483

> <b_epik_Metal_Only>
0

> <s_lp_Force_Field>
OPLS_2005

> <r_lp_Energy>
55.6911

> <b_lp_Chiralities_Consistent>
1

> <s_lp_Variant>
AV-unprocessed.smi:1734-4

> <Gold.Version>
5.8.1

> <Gold.Id.Protein>
6NUR|6NUR_protein|mol2

> <Gold.PLP.Fitness>
42.0993

> <Gold.PLP.PLP>
-33.7894

> <Gold.PLP.part.hbond>
-5.0000

> <Gold.PLP.part.metal>
0.0000

> <Gold.PLP.part.buried>
-6.4356

> <Gold.PLP.part.nonpolar>
-23.1506

> <Gold.PLP.part.repulsive>
0.2446

> <Gold.PLP.ligand.clash>
0.0000

> <Gold.PLP.ligand.torsion>
1.2854

> <Gold.PLP.Chemscore.Hbond>
3.4862

> <Gold.PLP.Chemscore.CHOScore>
0.0000

> <Gold.PLP.Chemscore.Metal>
0.0000

> <Gold.Chemscore.Hbonds>
donor molecule, donor type, donor heavy atom, donor atom, acceptor molecule, acceptor atom, score
      L1  H     8    31       P1  7948  1.00
      L1  H    11    32       P1  7948  0.94
      P1  H  6931  6943       L1    17  0.02
      P1  H  6934  6947       L1    17  0.56
      P1  H  7989  7998       L1    22  0.88

> <Gold.PLP.Chemscore.Internal.Correction>
0.4220

> <Gold.Rescore>
     Score         DG    S(hbond)    S(metal)    S(lipo)     H(rot)  DE(clash)    DE(int)     intcor
     19.85     -21.10       3.43        0.00      71.64       1.65       0.01       1.24       ----

> <Gold.Chemscore.Fitness>
19.8538

> <Gold.Chemscore.DG>
-21.1046

> <Gold.Chemscore.ZeroCoef>
-5.4800

> <Gold.Chemscore.Hbond>
3.4317

> <Gold.Chemscore.Metal>
0.0000

> <Gold.Chemscore.Lipo>
71.6364

> <Gold.Chemscore.Internal_Hbond>
0.0000

> <Gold.Chemscore.DEClash>
0.0106

> <Gold.Chemscore.DEInternal>
1.2402

> <Gold.Chemscore.Rot>
1.6480

> <Gold.Chemscore.Internal.Correction>
   9.000000E+99

> <Gold.Chemscore.Hbonds>
donor molecule, donor type, donor heavy atom, donor atom, acceptor molecule, acceptor atom, score
      L1  H     8    31       P1  7948  0.96
      L1  H    11    32       P1  7948  0.87
      P1  H  6931  6943       L1    17  0.03
      P1  H  6934  6947       L1    17  0.37
      P1  H  7989  7998       L1    22  0.76

> <Gold.Chemscore.Hbond.Weighted>
-11.4620

> <Gold.Chemscore.Metal.Weighted>
-0.0000

> <Gold.Chemscore.Lipo.Weighted>
-8.3815

> <Gold.Chemscore.Internal_Hbond.Weighted>
0.0000

> <Gold.Chemscore.DEClash.Weighted>
0.0106

> <Gold.Chemscore.DEInternal.Weighted>
1.2402

> <Gold.Chemscore.Rot.Weighted>
4.2188

> <Gold.Chemscore.Internal.Correction.Weighted>
   9.000000E+99

> <Gold.Protein.RotatedTorsions>
[ 6907 6896 6895 6894 ] final  -24.47 input  -60.11 | X-H torsion
[ 7974 7965 7964 7962 ] final -136.53 input  175.53 | X-H torsion
[ 8008 7997 7996 7995 ] final -116.65 input   59.86 | X-H torsion
[ 10167 10162 10161 10158 ] final    1.40 input  -65.29 | X-H torsion
[ 10718 10713 10712 10709 ] final  -96.22 input   66.30 | X-H torsion
[ 10763 10752 10751 10750 ] final   10.49 input  -60.55 | X-H torsion
[ 11005 11000 10999 10996 ] final  -50.50 input  -57.11 | X-H torsion

> <Gold.Protein.ActiveResidues>
 VAL166  LYS551  ARG553  GLY616  TRP617  ASP618  TYR619  PRO620  LYS621  CYS622 
 ASP623  PHE694  ASN695  SER759  ASP760  ASP761  ALA762  ILE779  LEU786  VAL792 
 PHE793  MET794  SER795  GLU796  ALA797  LYS798  CYS799  TRP800  GLU811  SER814 

> <Gold.Protein.RotatedAtoms>
  151.1890  135.0394  159.8824 H   0  0  0  0  0  0  0  0  0  0  0  0  # atno 6907 bound_to 6896
  152.5440  134.0977  159.8314 H   0  0  0  0  0  0  0  0  0  0  0  0  # atno 6908 bound_to 6896
  151.1103  133.5130  159.2638 H   0  0  0  0  0  0  0  0  0  0  0  0  # atno 6909 bound_to 6896
  144.8919  140.6653  143.5140 H   0  0  0  0  0  0  0  0  0  0  0  0  # atno 7974 bound_to 7965
  155.0712  140.0393  157.2609 H   0  0  0  0  0  0  0  0  0  0  0  0  # atno 8008 bound_to 7997
  154.6981  140.2667  155.6722 H   0  0  0  0  0  0  0  0  0  0  0  0  # atno 8009 bound_to 7997
  156.2751  140.2746  156.1582 H   0  0  0  0  0  0  0  0  0  0  0  0  # atno 8010 bound_to 7997
  140.6684  143.7115  150.7874 H   0  0  0  0  0  0  0  0  0  0  0  0  # atno 10167 bound_to 10162
  156.0058  130.5142  150.6193 H   0  0  0  0  0  0  0  0  0  0  0  0  # atno 10718 bound_to 10713
  153.2026  135.6858  153.8212 H   0  0  0  0  0  0  0  0  0  0  0  0  # atno 10763 bound_to 10752
  153.7473  135.3229  155.3316 H   0  0  0  0  0  0  0  0  0  0  0  0  # atno 10764 bound_to 10752
  154.8179  135.4672  154.0799 H   0  0  0  0  0  0  0  0  0  0  0  0  # atno 10765 bound_to 10752
  141.0819  133.6651  156.3740 H   0  0  0  0  0  0  0  0  0  0  0  0  # atno 11005 bound_to 11000
  145.3768  139.1646  143.4302 LP  0  0  0  0  0  0  0  0  0  0  0  0  # atno 17320 bound_to 7965
  146.3059  140.3845  142.8687 LP  0  0  0  0  0  0  0  0  0  0  0  0  # atno 17321 bound_to 7965
  140.0796  143.4981  152.2537 LP  0  0  0  0  0  0  0  0  0  0  0  0  # atno 17342 bound_to 10162
  139.5942  144.7561  151.3325 LP  0  0  0  0  0  0  0  0  0  0  0  0  # atno 17343 bound_to 10162
  157.4011  131.0810  151.1307 LP  0  0  0  0  0  0  0  0  0  0  0  0  # atno 17370 bound_to 10713
  157.1968  130.6377  149.5724 LP  0  0  0  0  0  0  0  0  0  0  0  0  # atno 17371 bound_to 10713
  140.5449  134.6085  157.5391 LP  0  0  0  0  0  0  0  0  0  0  0  0  # atno 17394 bound_to 11000
  139.9634  134.7414  156.0189 LP  0  0  0  0  0  0  0  0  0  0  0  0  # atno 17395 bound_to 11000

$$$$
