#       Name:                AV-unprocessed.smi:189
#       Creating user name   scv26
#       Creation time:       Thu Mar 26 19:30:20 2020


#       File generated by GOLD software.
#

@<TRIPOS>MOLECULE
AV-unprocessed.smi:189
    60    64     1
SMALL
NO_CHARGES


@<TRIPOS>ATOM
      1 ****        -3.4909   0.7586   2.9926 C.3            1 S1                 0.0000
      2 ****        -3.1013   1.1909   1.5684 C.3            1 S1                 0.0000
      3 ****        -4.3166   1.2394   0.6220 C.3            1 S1                 0.0000
      4 ****        -4.1080   0.0471  -0.3149 C.3            1 S1                 0.0000
      5 ****        -4.8314   0.1048  -1.6757 C.3            1 S1                 0.0000
      6 ****        -4.1830   1.0871  -2.6630 C.3            1 S1                 0.0000
      7 ****        -2.6800   0.8120  -2.8036 C.3            1 S1                 0.0000
      8 ****        -1.9833   0.9253  -1.4419 C.3            1 S1                 0.0000
      9 ****        -2.5792  -0.0582  -0.4046 C.3            1 S1                 0.0000
     10 ****        -2.1520   0.2546   0.9551 N.pl3          1 S1                 0.0000
     11 ****        -0.8316   0.2436   1.2925 C.ar           1 S1                 0.0000
     12 ****        -0.3718   1.1621   2.1839 N.ar           1 S1                 0.0000
     13 ****         0.9148   1.1859   2.5399 C.ar           1 S1                 0.0000
     14 ****         1.9057   0.3928   2.1332 N.ar           1 S1                 0.0000
     15 ****         1.4592  -0.5350   1.2398 C.ar           1 S1                 0.0000
     16 ****         0.1210  -0.6830   0.7712 C.ar           1 S1                 0.0000
     17 ****         0.0581  -1.7517  -0.1167 N.2            1 S1                 0.0000
     18 ****         1.2818  -2.1990  -0.1766 C.2            1 S1                 0.0000
     19 ****         2.1912  -1.5218   0.6024 N.pl3          1 S1                 0.0000
     20 ****         3.6118  -1.8105   0.7334 C.3            1 S1                 0.0000
     21 ****         4.4727  -1.2479  -0.4236 C.3            1 S1                 0.0000
     22 ****         4.0890  -1.8833  -1.6299 O.3            1 S1                 0.0000
     23 ****         5.9695  -1.4717  -0.1961 C.3            1 S1                 0.0000
     24 ****         6.4995  -0.0750   0.1046 C.3            1 S1                 0.0000
     25 ****         5.6956   0.7450  -0.7240 O.3            1 S1                 0.0000
     26 ****         4.3595   0.2804  -0.5978 C.3            1 S1                 0.0000
     27 ****        -4.2148   1.4500   3.4241 H              1 S1                 0.0000
     28 ****        -2.6291   0.7330   3.6588 H              1 S1                 0.0000
     29 ****        -3.9393  -0.2355   2.9930 H              1 S1                 0.0000
     30 ****        -2.6613   2.1882   1.6100 H              1 S1                 0.0000
     31 ****        -5.2729   1.1927   1.1441 H              1 S1                 0.0000
     32 ****        -4.3000   2.1738   0.0608 H              1 S1                 0.0000
     33 ****        -4.4718  -0.8356   0.2143 H              1 S1                 0.0000
     34 ****        -4.8153  -0.8914  -2.1196 H              1 S1                 0.0000
     35 ****        -5.8829   0.3544  -1.5313 H              1 S1                 0.0000
     36 ****        -4.6683   1.0061  -3.6360 H              1 S1                 0.0000
     37 ****        -4.3397   2.1125  -2.3269 H              1 S1                 0.0000
     38 ****        -2.5203  -0.1832  -3.2205 H              1 S1                 0.0000
     39 ****        -2.2381   1.5193  -3.5058 H              1 S1                 0.0000
     40 ****        -0.9160   0.7396  -1.5633 H              1 S1                 0.0000
     41 ****        -2.0722   1.9522  -1.0844 H              1 S1                 0.0000
     42 ****        -2.3240  -1.0823  -0.6727 H              1 S1                 0.0000
     43 ****         1.1892   1.9504   3.2515 H              1 S1                 0.0000
     44 ****         1.5569  -3.0411  -0.7950 H              1 S1                 0.0000
     45 ****         3.9576  -1.4056   1.6854 H              1 S1                 0.0000
     46 ****         3.7329  -2.8925   0.8026 H              1 S1                 0.0000
     47 ****         4.6053  -1.5218  -2.3343 H              1 S1                 0.0000
     48 ****         6.1874  -2.1774   0.6064 H              1 S1                 0.0000
     49 ****         6.4526  -1.8471  -1.0998 H              1 S1                 0.0000
     50 ****         6.3402   0.1885   1.1515 H              1 S1                 0.0000
     51 ****         7.5600   0.0332  -0.1238 H              1 S1                 0.0000
     52 ****         3.7502   0.5810  -1.4511 H              1 S1                 0.0000
     53 ****         3.9349   0.7484   0.2903 H              1 S1                 0.0000
     54 ****        -1.0054   1.8280   2.5777 LP             1 S1                 0.0000
     55 ****         2.8534   0.4684   2.4431 LP             1 S1                 0.0000
     56 ****        -0.7451  -2.0992  -0.6006 LP             1 S1                 0.0000
     57 ****         3.1180  -1.7194  -1.8041 LP             1 S1                 0.0000
     58 ****         4.2537  -2.8673  -1.5607 LP             1 S1                 0.0000
     59 ****         5.9962   0.6717  -1.6749 LP             1 S1                 0.0000
     60 ****         5.7572   1.6980  -0.4274 LP             1 S1                 0.0000
@<TRIPOS>BOND
    1    1    2 1     
    2    1   27 1     
    3    1   28 1     
    4    1   29 1     
    5    2   10 1     
    6    2    3 1     
    7    2   30 1     
    8    3    4 1     
    9    3   31 1     
   10    3   32 1     
   11    4    9 1     
   12    4    5 1     
   13    4   33 1     
   14    5    6 1     
   15    5   34 1     
   16    5   35 1     
   17    6    7 1     
   18    6   36 1     
   19    6   37 1     
   20    7    8 1     
   21    7   38 1     
   22    7   39 1     
   23    8    9 1     
   24    8   40 1     
   25    8   41 1     
   26    9   10 1     
   27    9   42 1     
   28   10   11 1     
   29   11   16 ar    
   30   11   12 ar    
   31   12   13 ar    
   32   13   14 ar    
   33   13   43 1     
   34   14   15 ar    
   35   15   19 1     
   36   15   16 ar    
   37   16   17 1     
   38   17   18 2     
   39   18   19 1     
   40   18   44 1     
   41   19   20 1     
   42   20   21 1     
   43   20   45 1     
   44   20   46 1     
   45   21   26 1     
   46   21   22 1     
   47   21   23 1     
   48   22   47 1     
   49   23   24 1     
   50   23   48 1     
   51   23   49 1     
   52   24   25 1     
   53   24   50 1     
   54   24   51 1     
   55   25   26 1     
   56   26   52 1     
   57   26   53 1     
   58   12   54 1     
   59   14   55 1     
   60   17   56 1     
   61   22   57 1     
   62   22   58 1     
   63   25   59 1     
   64   25   60 1     
@<TRIPOS>SUBSTRUCTURE
      1 S1             1
@<TRIPOS>SET
LONE_PAIRS      STATIC     ATOMS    <user>   **** ""
7 54 55 56 57 58 59 60
DONOR_HYDROGENS      STATIC     ATOMS    <user>   **** ""
1 47
ATOM$BLUE        STATIC     ATOMS    COLORGROUP SYSTEM
7 54 55 56 57 58 59 60
ATOM$RED        STATIC     ATOMS    COLORGROUP SYSTEM
1 47
