AV-unprocessed.smi:2202|AV-procd|sdf|8934|dock6
  -GOLD-   2272012153D 1   1.00000     0.00000
 Structure written by MMmdl.
 43 45  0  0  0  0  0  0  0  0  2 V2000
  155.4670  138.5472  160.4903 O   0  0  0  0  0  0  0  0  0  0  0  0
  155.4233  139.7501  160.7542 C   0  0  0  0  0  0  0  0  0  0  0  0
  154.2545  140.3459  161.5519 C   0  0  0  0  0  0  0  0  0  0  0  0
  153.5429  141.4131  160.8368 N   0  0  0  0  0  0  0  0  0  0  0  0
  153.1013  142.5490  161.4119 C   0  0  0  0  0  0  0  0  0  0  0  0
  153.2810  142.9139  162.5733 O   0  0  0  0  0  0  0  0  0  0  0  0
  152.2547  143.3144  160.4062 C   0  0  1  0  0  0  0  0  0  0  0  0
  152.2286  144.8462  160.3386 C   0  0  0  0  0  0  0  0  0  0  0  0
  151.4890  145.2523  159.0593 C   0  0  0  0  0  0  0  0  0  0  0  0
  151.2358  144.4020  158.0342 C   0  0  0  0  0  0  0  0  0  0  0  0
  151.6939  142.9399  158.0088 C   0  0  0  0  0  0  0  0  0  0  0  0
  152.7649  142.7594  159.0912 C   0  0  2  0  0  0  0  0  0  0  0  0
  153.2861  141.3942  159.5138 C   0  0  0  0  0  0  0  0  0  0  0  0
  153.4945  140.4693  158.7292 O   0  0  0  0  0  0  0  0  0  0  0  0
  156.3715  140.6178  160.3696 N   0  0  0  0  0  0  0  0  0  0  0  0
  157.5646  140.2656  159.6090 C   0  0  0  0  0  0  0  0  0  0  0  0
  158.0757  141.4534  158.7761 C   0  0  0  0  0  0  0  0  0  0  0  0
  159.5282  141.7745  159.0682 C   0  0  0  0  0  0  0  0  0  0  0  0
  159.9655  142.1916  160.3441 C   0  0  0  0  0  0  0  0  0  0  0  0
  161.3319  142.4802  160.5431 C   0  0  0  0  0  0  0  0  0  0  0  0
  162.2301  142.3472  159.4637 C   0  0  0  0  0  0  0  0  0  0  0  0
  161.7385  141.9288  158.2104 C   0  0  0  0  0  0  0  0  0  0  0  0
  160.4228  141.6615  158.0596 N   0  3  0  0  0  0  0  0  0  0  0  0
  153.5549  139.5481  161.8083 H   0  0  0  0  0  0  0  0  0  0  0  0
  154.6391  140.7209  162.5021 H   0  0  0  0  0  0  0  0  0  0  0  0
  151.2300  142.9728  160.5715 H   0  0  0  0  0  0  0  0  0  0  0  0
  151.7051  145.2532  161.2042 H   0  0  0  0  0  0  0  0  0  0  0  0
  153.2343  145.2677  160.3321 H   0  0  0  0  0  0  0  0  0  0  0  0
  151.1572  146.2783  158.9968 H   0  0  0  0  0  0  0  0  0  0  0  0
  150.6866  144.7519  157.1725 H   0  0  0  0  0  0  0  0  0  0  0  0
  150.8387  142.2835  158.1729 H   0  0  0  0  0  0  0  0  0  0  0  0
  152.1068  142.7064  157.0271 H   0  0  0  0  0  0  0  0  0  0  0  0
  153.6486  143.3209  158.7784 H   0  0  0  0  0  0  0  0  0  0  0  0
  156.2578  141.5889  160.6224 H   0  0  0  0  0  0  0  0  0  0  0  0
  158.3423  139.9063  160.2857 H   0  0  0  0  0  0  0  0  0  0  0  0
  157.3157  139.4316  158.9521 H   0  0  0  0  0  0  0  0  0  0  0  0
  157.9624  141.2396  157.7122 H   0  0  0  0  0  0  0  0  0  0  0  0
  157.4772  142.3436  158.9754 H   0  0  0  0  0  0  0  0  0  0  0  0
  159.2646  142.2905  161.1604 H   0  0  0  0  0  0  0  0  0  0  0  0
  161.6870  142.8004  161.5119 H   0  0  0  0  0  0  0  0  0  0  0  0
  163.2804  142.5636  159.5953 H   0  0  0  0  0  0  0  0  0  0  0  0
  162.3526  141.8011  157.3309 H   0  0  0  0  0  0  0  0  0  0  0  0
  160.0883  141.3600  157.1438 H   0  0  0  0  0  0  0  0  0  0  0  0
  1  2  2  0  0  0  0
  2  3  1  0  0  0  0
  2 15  1  0  0  0  0
  3  4  1  0  0  0  0
  3 24  1  0  0  0  0
  3 25  1  0  0  0  0
  4 13  1  0  0  0  0
  4  5  1  0  0  0  0
  5  6  2  0  0  0  0
  5  7  1  0  0  0  0
  7 12  1  0  0  0  0
  7  8  1  0  0  0  0
  7 26  1  0  0  0  0
  8  9  1  0  0  0  0
  8 27  1  0  0  0  0
  8 28  1  0  0  0  0
  9 10  2  0  0  0  0
  9 29  1  0  0  0  0
 10 11  1  0  0  0  0
 10 30  1  0  0  0  0
 11 12  1  0  0  0  0
 11 31  1  0  0  0  0
 11 32  1  0  0  0  0
 12 13  1  0  0  0  0
 12 33  1  0  0  0  0
 13 14  2  0  0  0  0
 15 16  1  0  0  0  0
 15 34  1  0  0  0  0
 16 17  1  0  0  0  0
 16 35  1  0  0  0  0
 16 36  1  0  0  0  0
 17 18  1  0  0  0  0
 17 37  1  0  0  0  0
 17 38  1  0  0  0  0
 18 23  1  0  0  0  0
 18 19  2  0  0  0  0
 19 20  1  0  0  0  0
 19 39  1  0  0  0  0
 20 21  2  0  0  0  0
 20 40  1  0  0  0  0
 21 22  1  0  0  0  0
 21 41  1  0  0  0  0
 22 23  2  0  0  0  0
 22 42  1  0  0  0  0
 23 43  1  0  0  0  0
M  CHG  1  23   1
M  END
> <s_m_source_file>
AV-unprocessed.smi

> <i_m_source_file_index>
2202

> <i_lp_mmshare_version>
43012

> <i_f3d_flags>
0

> <s_epik_input>
W0NIMl0xW0NIXT1bQ0hdW0NIMl1bQ0BIXShbQ0BIXTEyKUMoPU8pTihDMj1PKVtDSDJdQyg9TylbTkhdW0NIMl1bQ0gyXWMzW2NIXVtjSF1bY0hdW2NIXW4z

> <s_epik_cmdline>
J2VwaWtfcHl0aG9uJywgJy1waCcsICc3LjAnLCAnLXRuJywgJzgnLCAnLW1hJywgJzIwMCcsICctbWV0YWxfYmluZGluZycsICctaW1hZScsICc8aW5maWxlLm1hZT4nLCAnLW9tYWUnLCAnPG91dGZpbGUubWFlPic=

> <r_lp_tautomer_probability>
1

> <r_epik_Ionization_Penalty>
1.90039

> <r_epik_Ionization_Penalty_Charging>
1.90039

> <r_epik_Ionization_Penalty_Neutral>
1.50224e-07

> <r_epik_State_Penalty>
2.02162

> <r_epik_Charging_Adjusted_Penalty>
3.922

> <i_epik_Tot_Q>
1

> <i_epik_Tot_abs_Q>
1

> <r_epik_Metal_State_Penalty>
2.04542

> <b_epik_Metal_Only>
0

> <s_lp_Force_Field>
OPLS_2005

> <r_lp_Energy>
26.7025

> <b_lp_Chiralities_Consistent>
1

> <s_lp_Variant>
AV-unprocessed.smi:2202-6

> <Gold.Version>
5.8.1

> <Gold.Id.Protein>
6NUR|6NUR_protein|mol2

> <Gold.PLP.Fitness>
52.5365

> <Gold.PLP.PLP>
-51.7835

> <Gold.PLP.part.hbond>
-3.6904

> <Gold.PLP.part.metal>
0.0000

> <Gold.PLP.part.buried>
-4.5008

> <Gold.PLP.part.nonpolar>
-43.5028

> <Gold.PLP.part.repulsive>
0.2175

> <Gold.PLP.ligand.clash>
0.0000

> <Gold.PLP.ligand.torsion>
0.8498

> <Gold.PLP.Chemscore.Hbond>
0.8000

> <Gold.PLP.Chemscore.CHOScore>
0.0000

> <Gold.PLP.Chemscore.Metal>
0.0000

> <Gold.Chemscore.Hbonds>
donor molecule, donor type, donor heavy atom, donor atom, acceptor molecule, acceptor atom, score
      P1  H  7997  8008       L1    14  0.78

> <Gold.PLP.Chemscore.Internal.Correction>
0.0525

> <Gold.Rescore>
     Score         DG    S(hbond)    S(metal)    S(lipo)     H(rot)  DE(clash)    DE(int)     intcor
     14.87     -18.13       0.78        0.00     128.70       1.96       1.19       2.07       ----

> <Gold.Chemscore.Fitness>
14.8740

> <Gold.Chemscore.DG>
-18.1350

> <Gold.Chemscore.ZeroCoef>
-5.4800

> <Gold.Chemscore.Hbond>
0.7846

> <Gold.Chemscore.Metal>
0.0000

> <Gold.Chemscore.Lipo>
128.7035

> <Gold.Chemscore.Internal_Hbond>
0.0000

> <Gold.Chemscore.DEClash>
1.1944

> <Gold.Chemscore.DEInternal>
2.0665

> <Gold.Chemscore.Rot>
1.9625

> <Gold.Chemscore.Internal.Correction>
   9.000000E+99

> <Gold.Chemscore.Hbonds>
donor molecule, donor type, donor heavy atom, donor atom, acceptor molecule, acceptor atom, score
      P1  H  7997  8008       L1    14  0.73

> <Gold.Chemscore.Hbond.Weighted>
-2.6206

> <Gold.Chemscore.Metal.Weighted>
-0.0000

> <Gold.Chemscore.Lipo.Weighted>
-15.0583

> <Gold.Chemscore.Internal_Hbond.Weighted>
0.0000

> <Gold.Chemscore.DEClash.Weighted>
1.1944

> <Gold.Chemscore.DEInternal.Weighted>
2.0665

> <Gold.Chemscore.Rot.Weighted>
5.0240

> <Gold.Chemscore.Internal.Correction.Weighted>
   9.000000E+99

> <Gold.Protein.RotatedTorsions>
[ 6907 6896 6895 6894 ] final -142.88 input  -60.11 | X-H torsion
[ 7974 7965 7964 7962 ] final   48.29 input  175.53 | X-H torsion
[ 8008 7997 7996 7995 ] final  -95.20 input   59.86 | X-H torsion
[ 10167 10162 10161 10158 ] final    6.82 input  -65.29 | X-H torsion
[ 10718 10713 10712 10709 ] final   57.54 input   66.30 | X-H torsion
[ 10763 10752 10751 10750 ] final   48.70 input  -60.55 | X-H torsion
[ 11005 11000 10999 10996 ] final  -78.96 input  -57.11 | X-H torsion

> <Gold.Protein.ActiveResidues>
 VAL166  LYS551  ARG553  GLY616  TRP617  ASP618  TYR619  PRO620  LYS621  CYS622 
 ASP623  PHE694  ASN695  SER759  ASP760  ASP761  ALA762  ILE779  LEU786  VAL792 
 PHE793  MET794  SER795  GLU796  ALA797  LYS798  CYS799  TRP800  GLU811  SER814 

> <Gold.Protein.RotatedAtoms>
  151.0930  133.5301  159.2613 H   0  0  0  0  0  0  0  0  0  0  0  0  # atno 6907 bound_to 6896
  151.2161  135.0500  159.8941 H   0  0  0  0  0  0  0  0  0  0  0  0  # atno 6908 bound_to 6896
  152.5436  134.0739  159.8259 H   0  0  0  0  0  0  0  0  0  0  0  0  # atno 6909 bound_to 6896
  146.0218  139.4660  142.9892 H   0  0  0  0  0  0  0  0  0  0  0  0  # atno 7974 bound_to 7965
  154.7582  140.0482  157.0951 H   0  0  0  0  0  0  0  0  0  0  0  0  # atno 8008 bound_to 7997
  154.9971  140.3120  155.4863 H   0  0  0  0  0  0  0  0  0  0  0  0  # atno 8009 bound_to 7997
  156.2899  140.2208  156.5078 H   0  0  0  0  0  0  0  0  0  0  0  0  # atno 8010 bound_to 7997
  140.6407  143.7782  150.7423 H   0  0  0  0  0  0  0  0  0  0  0  0  # atno 10167 bound_to 10162
  157.5523  130.8775  149.8982 H   0  0  0  0  0  0  0  0  0  0  0  0  # atno 10718 bound_to 10713
  152.9790  135.5935  154.3969 H   0  0  0  0  0  0  0  0  0  0  0  0  # atno 10763 bound_to 10752
  154.3619  135.2767  155.2317 H   0  0  0  0  0  0  0  0  0  0  0  0  # atno 10764 bound_to 10752
  154.4311  135.6036  153.6124 H   0  0  0  0  0  0  0  0  0  0  0  0  # atno 10765 bound_to 10752
  141.1666  133.7085  156.8051 H   0  0  0  0  0  0  0  0  0  0  0  0  # atno 11005 bound_to 11000
  145.7181  141.0084  143.1417 LP  0  0  0  0  0  0  0  0  0  0  0  0  # atno 17320 bound_to 7965
  144.6993  139.8837  143.7449 LP  0  0  0  0  0  0  0  0  0  0  0  0  # atno 17321 bound_to 7965
  140.1412  143.4439  152.2192 LP  0  0  0  0  0  0  0  0  0  0  0  0  # atno 17342 bound_to 10162
  139.5616  144.7409  151.4139 LP  0  0  0  0  0  0  0  0  0  0  0  0  # atno 17343 bound_to 10162
  156.0588  130.3703  150.1030 LP  0  0  0  0  0  0  0  0  0  0  0  0  # atno 17370 bound_to 10713
  156.9202  130.9680  151.3550 LP  0  0  0  0  0  0  0  0  0  0  0  0  # atno 17371 bound_to 10713
  140.2228  134.8744  157.3395 LP  0  0  0  0  0  0  0  0  0  0  0  0  # atno 17394 bound_to 11000
  140.1970  134.4301  155.7683 LP  0  0  0  0  0  0  0  0  0  0  0  0  # atno 17395 bound_to 11000

$$$$
