#       Name:                AV-unprocessed.smi:525
#       Creating user name   scv26
#       Creation time:       Thu Mar 26 23:28:25 2020


#       File generated by GOLD software.
#

@<TRIPOS>MOLECULE
AV-unprocessed.smi:525
    48    50     1
SMALL
NO_CHARGES


@<TRIPOS>ATOM
      1 ****        -3.7146   1.2596  -1.0067 C.3            1 S1                 0.0000
      2 ****        -3.1656  -0.0379  -1.1586 O.3            1 S1                 0.0000
      3 ****        -1.7492  -0.0304  -1.1306 C.3            1 S1                 0.0000
      4 ****        -1.2352  -1.4699  -1.2518 C.3            1 S1                 0.0000
      5 ****         0.2175  -1.5242  -1.2062 N.pl3          1 S1                 0.0000
      6 ****         1.0149  -1.5780  -0.1119 C.2            1 S1                 0.0000
      7 ****         0.3573  -1.5995   1.5225 S.3            1 S1                 0.0000
      8 ****         0.9909   0.0107   2.1026 C.3            1 S1                 0.0000
      9 ****         1.8488  -0.1199   3.3718 C.2            1 S1                 0.0000
     10 ****         2.9324  -0.8960   3.2824 N.am           1 S1                 0.0000
     11 ****         1.5641   0.4740   4.4111 O.2            1 S1                 0.0000
     12 ****        -0.1713   0.9867   2.2787 C.ar           1 S1                 0.0000
     13 ****        -1.3026   0.6424   3.0544 C.ar           1 S1                 0.0000
     14 ****        -2.3752   1.5446   3.1896 C.ar           1 S1                 0.0000
     15 ****        -2.3256   2.7988   2.5524 C.ar           1 S1                 0.0000
     16 ****        -1.2023   3.1499   1.7800 C.ar           1 S1                 0.0000
     17 ****        -0.1293   2.2479   1.6442 C.ar           1 S1                 0.0000
     18 ****         2.3258  -1.6184  -0.3516 N.2            1 S1                 0.0000
     19 ****         2.3839  -1.5783  -1.7311 C.ar           1 S1                 0.0000
     20 ****         3.4952  -1.5885  -2.6043 C.ar           1 S1                 0.0000
     21 ****         3.3055  -1.5365  -4.0009 C.ar           1 S1                 0.0000
     22 ****         2.0055  -1.4726  -4.5431 C.ar           1 S1                 0.0000
     23 ****         0.8847  -1.4620  -3.6908 C.ar           1 S1                 0.0000
     24 ****         1.0793  -1.5162  -2.2977 C.ar           1 S1                 0.0000
     25 ****        -4.8025   1.2045  -1.0425 H              1 S1                 0.0000
     26 ****        -3.3843   1.9239  -1.8063 H              1 S1                 0.0000
     27 ****        -3.4320   1.6976  -0.0488 H              1 S1                 0.0000
     28 ****        -1.3615   0.5795  -1.9483 H              1 S1                 0.0000
     29 ****        -1.4027   0.4122  -0.1975 H              1 S1                 0.0000
     30 ****        -1.6431  -2.0917  -0.4546 H              1 S1                 0.0000
     31 ****        -1.5741  -1.9119  -2.1892 H              1 S1                 0.0000
     32 ****         1.6486   0.4186   1.3343 H              1 S1                 0.0000
     33 ****         3.5343  -1.0146   4.0850 H              1 S1                 0.0000
     34 ****         3.1477  -1.3584   2.4112 H              1 S1                 0.0000
     35 ****        -1.3516  -0.3166   3.5492 H              1 S1                 0.0000
     36 ****        -3.2360   1.2737   3.7829 H              1 S1                 0.0000
     37 ****        -3.1487   3.4903   2.6562 H              1 S1                 0.0000
     38 ****        -1.1638   4.1116   1.2900 H              1 S1                 0.0000
     39 ****         0.7252   2.5286   1.0460 H              1 S1                 0.0000
     40 ****         4.4952  -1.6362  -2.1991 H              1 S1                 0.0000
     41 ****         4.1617  -1.5453  -4.6595 H              1 S1                 0.0000
     42 ****         1.8689  -1.4321  -5.6138 H              1 S1                 0.0000
     43 ****        -0.1120  -1.4128  -4.1034 H              1 S1                 0.0000
     44 ****        -3.4677  -0.4142  -2.0344 LP             1 S1                 0.0000
     45 ****        -3.4987  -0.6170  -0.4144 LP             1 S1                 0.0000
     46 ****         0.7554   1.0612   4.4460 LP             1 S1                 0.0000
     47 ****         2.1414   0.3694   5.2209 LP             1 S1                 0.0000
     48 ****         3.0794  -1.6659   0.3041 LP             1 S1                 0.0000
@<TRIPOS>BOND
    1    1    2 1     
    2    1   25 1     
    3    1   26 1     
    4    1   27 1     
    5    2    3 1     
    6    3    4 1     
    7    3   28 1     
    8    3   29 1     
    9    4    5 1     
   10    4   30 1     
   11    4   31 1     
   12    5   24 1     
   13    5    6 1     
   14    6    7 1     
   15    6   18 2     
   16    7    8 1     
   17    8    9 1     
   18    8   12 1     
   19    8   32 1     
   20    9   10 am    
   21    9   11 2     
   22   10   33 1     
   23   10   34 1     
   24   12   17 ar    
   25   12   13 ar    
   26   13   14 ar    
   27   13   35 1     
   28   14   15 ar    
   29   14   36 1     
   30   15   16 ar    
   31   15   37 1     
   32   16   17 ar    
   33   16   38 1     
   34   17   39 1     
   35   18   19 1     
   36   19   24 ar    
   37   19   20 ar    
   38   20   21 ar    
   39   20   40 1     
   40   21   22 ar    
   41   21   41 1     
   42   22   23 ar    
   43   22   42 1     
   44   23   24 ar    
   45   23   43 1     
   46    2   44 1     
   47    2   45 1     
   48   11   46 1     
   49   11   47 1     
   50   18   48 1     
@<TRIPOS>SUBSTRUCTURE
      1 S1             1
@<TRIPOS>SET
LONE_PAIRS      STATIC     ATOMS    <user>   **** ""
5 44 45 46 47 48
DONOR_HYDROGENS      STATIC     ATOMS    <user>   **** ""
2 33 34
ATOM$BLUE        STATIC     ATOMS    COLORGROUP SYSTEM
5 44 45 46 47 48
ATOM$RED        STATIC     ATOMS    COLORGROUP SYSTEM
2 33 34
