AV-unprocessed.smi:2881|AV-procd|sdf|11070|dock7
  -GOLD-   2272015543D 1   1.00000     0.00000
 Structure written by MMmdl.
 40 42  0  0  0  0  0  0  0  0  1 V2000
  148.9637  147.8382  161.8417 C   0  0  0  0  0  0  0  0  0  0  0  0
  149.6674  146.9292  160.8777 C   0  0  0  0  0  0  0  0  0  0  0  0
  149.1785  145.7297  160.2822 C   0  0  0  0  0  0  0  0  0  0  0  0
  150.2061  145.3024  159.4886 C   0  0  0  0  0  0  0  0  0  0  0  0
  150.3312  144.1137  158.5907 C   0  0  0  0  0  0  0  0  0  0  0  0
  149.0470  143.9015  157.7896 C   0  0  0  0  0  0  0  0  0  0  0  0
  148.1133  144.6954  157.9018 O   0  0  0  0  0  0  0  0  0  0  0  0
  149.0144  142.8289  156.9841 N   0  0  0  0  0  0  0  0  0  0  0  0
  147.8933  142.4582  156.1247 C   0  0  1  0  0  0  0  0  0  0  0  0
  148.3467  142.3688  154.6508 C   0  0  2  0  0  0  0  0  0  0  0  0
  147.0999  142.3839  153.7482 C   0  0  0  0  0  0  0  0  0  0  0  0
  146.4987  140.9862  153.9878 C   0  0  0  0  0  0  0  0  0  0  0  0
  147.4726  140.3599  155.0092 C   0  0  1  0  0  0  0  0  0  0  0  0
  148.8032  140.9182  154.5201 C   0  0  0  0  0  0  0  0  0  0  0  0
  147.3658  141.0272  156.4033 C   0  0  2  0  0  0  0  0  0  0  0  0
  145.9777  140.9885  157.0718 C   0  0  0  0  0  0  0  0  0  0  0  0
  145.6213  139.6604  157.3916 O   0  0  0  0  0  0  0  0  0  0  0  0
  151.2192  146.2214  159.6466 N   0  0  0  0  0  0  0  0  0  0  0  0
  150.9007  147.2195  160.4912 N   0  0  0  0  0  0  0  0  0  0  0  0
  152.1196  146.1816  159.1906 H   0  0  0  0  0  0  0  0  0  0  0  0
  147.9192  147.5507  161.9632 H   0  0  0  0  0  0  0  0  0  0  0  0
  148.9840  148.8720  161.4953 H   0  0  0  0  0  0  0  0  0  0  0  0
  149.4333  147.8056  162.8251 H   0  0  0  0  0  0  0  0  0  0  0  0
  148.2161  145.2572  160.4135 H   0  0  0  0  0  0  0  0  0  0  0  0
  150.5394  143.2219  159.1827 H   0  0  0  0  0  0  0  0  0  0  0  0
  151.1722  144.2360  157.9067 H   0  0  0  0  0  0  0  0  0  0  0  0
  149.8274  142.2312  156.9553 H   0  0  0  0  0  0  0  0  0  0  0  0
  147.1061  143.2077  156.2278 H   0  0  0  0  0  0  0  0  0  0  0  0
  149.0896  143.1152  154.3672 H   0  0  0  0  0  0  0  0  0  0  0  0
  146.4073  143.1864  154.0046 H   0  0  0  0  0  0  0  0  0  0  0  0
  147.3787  142.5055  152.7008 H   0  0  0  0  0  0  0  0  0  0  0  0
  145.4676  141.0230  154.3360 H   0  0  0  0  0  0  0  0  0  0  0  0
  146.5029  140.4123  153.0603 H   0  0  0  0  0  0  0  0  0  0  0  0
  147.4254  139.2712  155.0441 H   0  0  0  0  0  0  0  0  0  0  0  0
  149.0450  140.6310  153.4951 H   0  0  0  0  0  0  0  0  0  0  0  0
  149.6451  140.6668  155.1675 H   0  0  0  0  0  0  0  0  0  0  0  0
  148.0630  140.5103  157.0663 H   0  0  0  0  0  0  0  0  0  0  0  0
  145.9948  141.5669  157.9954 H   0  0  0  0  0  0  0  0  0  0  0  0
  145.2078  141.4337  156.4426 H   0  0  0  0  0  0  0  0  0  0  0  0
  145.8216  139.1091  156.6505 H   0  0  0  0  0  0  0  0  0  0  0  0
  1 21  1  0  0  0  0
  1 22  1  0  0  0  0
  1 23  1  0  0  0  0
  1  2  1  0  0  0  0
  2 19  2  0  0  0  0
  2  3  1  0  0  0  0
  3  4  2  0  0  0  0
  3 24  1  0  0  0  0
  4 18  1  0  0  0  0
  4  5  1  0  0  0  0
  5  6  1  0  0  0  0
  5 25  1  0  0  0  0
  5 26  1  0  0  0  0
  6  7  2  0  0  0  0
  6  8  1  0  0  0  0
  8  9  1  0  0  0  0
  8 27  1  0  0  0  0
  9 15  1  0  0  0  0
  9 10  1  0  0  0  0
  9 28  1  0  0  0  0
 10 14  1  0  0  0  0
 10 11  1  0  0  0  0
 10 29  1  0  0  0  0
 11 12  1  0  0  0  0
 11 30  1  0  0  0  0
 11 31  1  0  0  0  0
 12 13  1  0  0  0  0
 12 32  1  0  0  0  0
 12 33  1  0  0  0  0
 13 14  1  0  0  0  0
 13 15  1  0  0  0  0
 13 34  1  0  0  0  0
 14 35  1  0  0  0  0
 14 36  1  0  0  0  0
 15 16  1  0  0  0  0
 15 37  1  0  0  0  0
 16 17  1  0  0  0  0
 16 38  1  0  0  0  0
 16 39  1  0  0  0  0
 17 40  1  0  0  0  0
 18 19  1  0  0  0  0
 18 20  1  0  0  0  0
M  END
> <s_m_source_file>
AV-unprocessed.smi

> <i_m_source_file_index>
2881

> <i_lp_mmshare_version>
43012

> <i_f3d_flags>
0

> <s_epik_input>
W0NIM11jMVtjSF1jKG5bbkhdMSlbQ0gyXUMoPU8pW05IXVtDQEhdKFtDQEBIXTIzKVtDQEhdKFtDSDJdW09IXSlbQ0BASF0oW0NIMl0zKVtDSDJdW0NIMl0y

> <s_epik_cmdline>
J2VwaWtfcHl0aG9uJywgJy1waCcsICc3LjAnLCAnLXRuJywgJzgnLCAnLW1hJywgJzIwMCcsICctbWV0YWxfYmluZGluZycsICctaW1hZScsICc8aW5maWxlLm1hZT4nLCAnLW9tYWUnLCAnPG91dGZpbGUubWFlPic=

> <r_lp_tautomer_probability>
0.5

> <r_epik_Ionization_Penalty>
0.00013396

> <r_epik_Ionization_Penalty_Charging>
0

> <r_epik_Ionization_Penalty_Neutral>
0.00013396

> <r_epik_State_Penalty>
0.41068

> <r_epik_Charging_Adjusted_Penalty>
0.41068

> <i_epik_Tot_Q>
0

> <i_epik_Tot_abs_Q>
0

> <r_epik_Metal_State_Penalty>
0.41066

> <b_epik_Metal_Only>
0

> <s_lp_Force_Field>
OPLS_2005

> <r_lp_Energy>
46.6194

> <b_lp_Chiralities_Consistent>
1

> <s_lp_Variant>
AV-unprocessed.smi:2881-16

> <Gold.Version>
5.8.1

> <Gold.Id.Protein>
6NUR|6NUR_protein|mol2

> <Gold.PLP.Fitness>
42.1463

> <Gold.PLP.PLP>
-35.8158

> <Gold.PLP.part.hbond>
-3.1545

> <Gold.PLP.part.metal>
0.0000

> <Gold.PLP.part.buried>
-0.2191

> <Gold.PLP.part.nonpolar>
-32.1543

> <Gold.PLP.part.repulsive>
0.3824

> <Gold.PLP.ligand.clash>
0.0000

> <Gold.PLP.ligand.torsion>
0.2670

> <Gold.PLP.Chemscore.Hbond>
2.2819

> <Gold.PLP.Chemscore.CHOScore>
0.0000

> <Gold.PLP.Chemscore.Metal>
0.0000

> <Gold.PLP.Chemscore.Internal.Correction>
0.0187

> <Gold.Rescore>
     Score         DG    S(hbond)    S(metal)    S(lipo)     H(rot)  DE(clash)    DE(int)     intcor
     14.52     -17.40       1.83        0.00      99.47       2.28       1.46       1.42       ----

> <Gold.Chemscore.Fitness>
14.5204

> <Gold.Chemscore.DG>
-17.3989

> <Gold.Chemscore.ZeroCoef>
-5.4800

> <Gold.Chemscore.Hbond>
1.8283

> <Gold.Chemscore.Metal>
0.0000

> <Gold.Chemscore.Lipo>
99.4666

> <Gold.Chemscore.Internal_Hbond>
0.0000

> <Gold.Chemscore.DEClash>
1.4561

> <Gold.Chemscore.DEInternal>
1.4223

> <Gold.Chemscore.Rot>
2.2755

> <Gold.Chemscore.Internal.Correction>
   9.000000E+99

> <Gold.Chemscore.Hbond.Weighted>
-6.1065

> <Gold.Chemscore.Metal.Weighted>
-0.0000

> <Gold.Chemscore.Lipo.Weighted>
-11.6376

> <Gold.Chemscore.Internal_Hbond.Weighted>
0.0000

> <Gold.Chemscore.DEClash.Weighted>
1.4561

> <Gold.Chemscore.DEInternal.Weighted>
1.4223

> <Gold.Chemscore.Rot.Weighted>
5.8252

> <Gold.Chemscore.Internal.Correction.Weighted>
   9.000000E+99

> <Gold.Protein.RotatedTorsions>
[ 6907 6896 6895 6894 ] final   37.05 input  -60.11 | X-H torsion
[ 7974 7965 7964 7962 ] final  -83.15 input  175.53 | X-H torsion
[ 8008 7997 7996 7995 ] final   16.37 input   59.86 | X-H torsion
[ 10167 10162 10161 10158 ] final  -83.94 input  -65.29 | X-H torsion
[ 10718 10713 10712 10709 ] final   12.32 input   66.30 | X-H torsion
[ 10763 10752 10751 10750 ] final   49.05 input  -60.55 | X-H torsion
[ 11005 11000 10999 10996 ] final  166.09 input  -57.11 | X-H torsion

> <Gold.Protein.ActiveResidues>
 VAL166  LYS551  ARG553  GLY616  TRP617  ASP618  TYR619  PRO620  LYS621  CYS622 
 ASP623  PHE694  ASN695  SER759  ASP760  ASP761  ALA762  ILE779  LEU786  VAL792 
 PHE793  MET794  SER795  GLU796  ALA797  LYS798  CYS799  TRP800  GLU811  SER814 

> <Gold.Protein.RotatedAtoms>
  152.1380  134.9084  160.0555 H   0  0  0  0  0  0  0  0  0  0  0  0  # atno 6907 bound_to 6896
  152.0163  133.3876  159.4248 H   0  0  0  0  0  0  0  0  0  0  0  0  # atno 6908 bound_to 6896
  150.6862  134.3597  159.4988 H   0  0  0  0  0  0  0  0  0  0  0  0  # atno 6909 bound_to 6896
  145.5238  140.9528  143.1640 H   0  0  0  0  0  0  0  0  0  0  0  0  # atno 7974 bound_to 7965
  154.8759  140.2966  155.5453 H   0  0  0  0  0  0  0  0  0  0  0  0  # atno 8008 bound_to 7997
  156.3022  140.2451  156.3688 H   0  0  0  0  0  0  0  0  0  0  0  0  # atno 8009 bound_to 7997
  154.8768  140.0399  157.1747 H   0  0  0  0  0  0  0  0  0  0  0  0  # atno 8010 bound_to 7997
  140.4179  143.2596  151.8929 H   0  0  0  0  0  0  0  0  0  0  0  0  # atno 10167 bound_to 10162
  157.0084  130.6107  149.5705 H   0  0  0  0  0  0  0  0  0  0  0  0  # atno 10718 bound_to 10713
  152.9788  135.5924  154.4026 H   0  0  0  0  0  0  0  0  0  0  0  0  # atno 10763 bound_to 10752
  154.3670  135.2767  155.2290 H   0  0  0  0  0  0  0  0  0  0  0  0  # atno 10764 bound_to 10752
  154.4262  135.6047  153.6095 H   0  0  0  0  0  0  0  0  0  0  0  0  # atno 10765 bound_to 10752
  140.2628  134.7889  157.3605 H   0  0  0  0  0  0  0  0  0  0  0  0  # atno 11005 bound_to 11000
  144.7662  139.6841  143.7214 LP  0  0  0  0  0  0  0  0  0  0  0  0  # atno 17320 bound_to 7965
  146.2088  139.5431  142.9694 LP  0  0  0  0  0  0  0  0  0  0  0  0  # atno 17321 bound_to 7965
  139.4782  144.5468  151.8446 LP  0  0  0  0  0  0  0  0  0  0  0  0  # atno 17342 bound_to 10162
  140.4566  144.1781  150.5902 LP  0  0  0  0  0  0  0  0  0  0  0  0  # atno 17343 bound_to 10162
  156.0145  130.5239  150.8092 LP  0  0  0  0  0  0  0  0  0  0  0  0  # atno 17370 bound_to 10713
  157.5339  131.0938  150.9919 LP  0  0  0  0  0  0  0  0  0  0  0  0  # atno 17371 bound_to 10713
  140.1448  134.4925  155.8004 LP  0  0  0  0  0  0  0  0  0  0  0  0  # atno 17394 bound_to 11000
  141.2188  133.6839  156.7274 LP  0  0  0  0  0  0  0  0  0  0  0  0  # atno 17395 bound_to 11000

$$$$
