#       Name:                AV-unprocessed.smi:1734
#       Creating user name   scv26
#       Creation time:       Fri Mar 27 08:20:17 2020


#       File generated by GOLD software.
#

@<TRIPOS>MOLECULE
AV-unprocessed.smi:1734
    58    60     1
SMALL
NO_CHARGES


@<TRIPOS>ATOM
      1 ****        -5.3595  -0.7290  -0.5849 C.3            1 S1                 0.0000
      2 ****        -5.0691   0.7000  -1.0146 C.ar           1 S1                 0.0000
      3 ****        -6.1397   1.6071  -1.1636 C.ar           1 S1                 0.0000
      4 ****        -5.8695   2.9272  -1.5622 C.ar           1 S1                 0.0000
      5 ****        -4.5311   3.2872  -1.7952 C.ar           1 S1                 0.0000
      6 ****        -3.5017   2.4271  -1.6546 N.ar           1 S1                 0.0000
      7 ****        -3.7458   1.1483  -1.2720 C.ar           1 S1                 0.0000
      8 ****        -2.7103   0.1858  -1.1068 N.am           1 S1                 0.0000
      9 ****        -1.3843   0.3507  -1.2552 C.2            1 S1                 0.0000
     10 ****        -0.8239   1.3998  -1.5742 O.2            1 S1                 0.0000
     11 ****        -0.7216  -0.7851  -0.9938 N.am           1 S1                 0.0000
     12 ****         0.7296  -0.9252  -1.0302 C.3            1 S1                 0.0000
     13 ****         1.4486  -0.2787   0.1889 C.3            1 S1                 0.0000
     14 ****         1.1075  -0.9538   1.5479 C.3            1 S1                 0.0000
     15 ****         1.8706  -0.3862   2.7344 C.3            1 S1                 0.0000
     16 ****         1.0512  -0.8881   3.9167 C.3            1 S1                 0.0000
     17 ****        -0.2960  -0.8956   3.4630 O.3            1 S1                 0.0000
     18 ****        -0.3329  -0.7695   2.0451 C.3            1 S1                 0.0000
     19 ****         2.9297  -0.2331  -0.0017 N.4            1 S1                 1.0000
     20 ****         3.5867  -1.5233  -0.3321 C.3            1 S1                 0.0000
     21 ****         5.1144  -1.3500  -0.3143 C.3            1 S1                 0.0000
     22 ****         5.4882  -0.3302  -1.2334 O.3            1 S1                 0.0000
     23 ****         4.9248   0.9318  -0.8940 C.3            1 S1                 0.0000
     24 ****         3.3897   0.8388  -0.9185 C.3            1 S1                 0.0000
     25 ****        -6.4256  -0.8838  -0.4163 H              1 S1                 0.0000
     26 ****        -4.8364  -0.9637   0.3427 H              1 S1                 0.0000
     27 ****        -5.0359  -1.4310  -1.3540 H              1 S1                 0.0000
     28 ****        -7.1576   1.2982  -0.9759 H              1 S1                 0.0000
     29 ****        -6.6670   3.6448  -1.6860 H              1 S1                 0.0000
     30 ****        -4.2798   4.2915  -2.1027 H              1 S1                 0.0000
     31 ****        -3.0193  -0.7354  -0.8340 H              1 S1                 0.0000
     32 ****        -1.2556  -1.6044  -0.7425 H              1 S1                 0.0000
     33 ****         0.9465  -1.9925  -1.0742 H              1 S1                 0.0000
     34 ****         1.0899  -0.5032  -1.9689 H              1 S1                 0.0000
     35 ****         1.1218   0.7592   0.2679 H              1 S1                 0.0000
     36 ****         1.3100  -2.0242   1.4907 H              1 S1                 0.0000
     37 ****         2.9086  -0.7172   2.7793 H              1 S1                 0.0000
     38 ****         1.8607   0.7046   2.7096 H              1 S1                 0.0000
     39 ****         1.3382  -1.9087   4.1728 H              1 S1                 0.0000
     40 ****         1.1720  -0.2674   4.8049 H              1 S1                 0.0000
     41 ****        -0.7036   0.2279   1.8050 H              1 S1                 0.0000
     42 ****        -1.0203  -1.4988   1.6164 H              1 S1                 0.0000
     43 ****         3.3008  -2.2938   0.3831 H              1 S1                 0.0000
     44 ****         3.2751  -1.8659  -1.3195 H              1 S1                 0.0000
     45 ****         5.4672  -1.1018   0.6883 H              1 S1                 0.0000
     46 ****         5.6025  -2.2813  -0.6023 H              1 S1                 0.0000
     47 ****         5.2807   1.2501   0.0873 H              1 S1                 0.0000
     48 ****         5.2674   1.6762  -1.6131 H              1 S1                 0.0000
     49 ****         3.0507   0.6379  -1.9351 H              1 S1                 0.0000
     50 ****         2.9620   1.7969  -0.6210 H              1 S1                 0.0000
     51 ****         3.2931   0.0308   0.9030 H              1 S1                 0.0000
     52 ****        -2.5651   2.7297  -1.8311 LP             1 S1                 0.0000
     53 ****        -1.3647   2.2231  -1.7467 LP             1 S1                 0.0000
     54 ****         0.1719   1.4284  -1.6607 LP             1 S1                 0.0000
     55 ****        -0.7890  -0.1301   3.8765 LP             1 S1                 0.0000
     56 ****        -0.7308  -1.7555   3.7304 LP             1 S1                 0.0000
     57 ****         5.1732  -0.5885  -2.1467 LP             1 S1                 0.0000
     58 ****         6.4848  -0.2480  -1.2355 LP             1 S1                 0.0000
@<TRIPOS>BOND
    1    1    2 1     
    2    1   25 1     
    3    1   26 1     
    4    1   27 1     
    5    2    7 ar    
    6    2    3 ar    
    7    3    4 ar    
    8    3   28 1     
    9    4    5 ar    
   10    4   29 1     
   11    5    6 ar    
   12    5   30 1     
   13    6    7 ar    
   14    7    8 1     
   15    8    9 am    
   16    8   31 1     
   17    9   10 2     
   18    9   11 am    
   19   11   12 1     
   20   11   32 1     
   21   12   13 1     
   22   12   33 1     
   23   12   34 1     
   24   13   14 1     
   25   13   19 1     
   26   13   35 1     
   27   14   18 1     
   28   14   15 1     
   29   14   36 1     
   30   15   16 1     
   31   15   37 1     
   32   15   38 1     
   33   16   17 1     
   34   16   39 1     
   35   16   40 1     
   36   17   18 1     
   37   18   41 1     
   38   18   42 1     
   39   19   24 1     
   40   19   20 1     
   41   19   51 1     
   42   20   21 1     
   43   20   43 1     
   44   20   44 1     
   45   21   22 1     
   46   21   45 1     
   47   21   46 1     
   48   22   23 1     
   49   23   24 1     
   50   23   47 1     
   51   23   48 1     
   52   24   49 1     
   53   24   50 1     
   54    6   52 1     
   55   10   53 1     
   56   10   54 1     
   57   17   55 1     
   58   17   56 1     
   59   22   57 1     
   60   22   58 1     
@<TRIPOS>SUBSTRUCTURE
      1 S1             1
@<TRIPOS>SET
LONE_PAIRS      STATIC     ATOMS    <user>   **** ""
7 52 53 54 55 56 57 58
DONOR_HYDROGENS      STATIC     ATOMS    <user>   **** ""
3 31 32 51
ATOM$BLUE        STATIC     ATOMS    COLORGROUP SYSTEM
7 52 53 54 55 56 57 58
ATOM$RED        STATIC     ATOMS    COLORGROUP SYSTEM
3 31 32 51
