AV-unprocessed.smi:531|AV-procd|sdf|2846|dock4
  -GOLD-   2262023333D 1   1.00000     0.00000
 Structure written by MMmdl.
 46 48  0  0  0  0  0  0  0  0  1 V2000
  147.7373  142.1467  154.0917 C   0  0  0  0  0  0  0  0  0  0  0  0
  148.1951  141.5156  155.4083 C   0  0  0  0  0  0  0  0  0  0  0  0
  149.5644  141.8207  155.6114 O   0  0  0  0  0  0  0  0  0  0  0  0
  150.0843  141.2388  156.7944 C   0  0  0  0  0  0  0  0  0  0  0  0
  151.5067  141.7636  157.0185 C   0  0  0  0  0  0  0  0  0  0  0  0
  152.1520  141.0924  158.1435 N   0  0  0  0  0  0  0  0  0  0  0  0
  152.6271  141.6342  159.2998 C   0  0  0  0  0  0  0  0  0  0  0  0
  152.5699  143.0041  159.5661 N   0  0  0  0  0  0  0  0  0  0  0  0
  152.7451  144.0892  158.5998 C   0  0  0  0  0  0  0  0  0  0  0  0
  151.5893  145.1039  158.6719 C   0  0  0  0  0  0  0  0  0  0  0  0
  151.4759  145.6859  160.0876 C   0  0  0  0  0  0  0  0  0  0  0  0
  151.4113  144.5508  161.1191 C   0  0  0  0  0  0  0  0  0  0  0  0
  152.5743  143.5626  160.9174 C   0  0  0  0  0  0  0  0  0  0  0  0
  153.0981  140.7436  160.1771 N   0  0  0  0  0  0  0  0  0  0  0  0
  152.9293  139.5344  159.5217 C   0  0  0  0  0  0  0  0  0  0  0  0
  152.3486  139.7192  158.3089 C   0  0  0  0  0  0  0  0  0  0  0  0
  152.0010  138.5961  157.4260 C   0  0  0  0  0  0  0  0  0  0  0  0
  151.4512  138.7322  156.3355 O   0  0  0  0  0  0  0  0  0  0  0  0
  152.3370  137.3892  157.9426 N   0  0  0  0  0  0  0  0  0  0  0  0
  152.9299  137.1362  159.1489 C   0  0  0  0  0  0  0  0  0  0  0  0
  153.1677  135.9765  159.4860 O   0  0  0  0  0  0  0  0  0  0  0  0
  153.2352  138.2097  159.9458 N   0  0  0  0  0  0  0  0  0  0  0  0
  153.8671  138.0005  161.2499 C   0  0  0  0  0  0  0  0  0  0  0  0
  152.1187  136.5835  157.3749 H   0  0  0  0  0  0  0  0  0  0  0  0
  146.6861  141.9297  153.9005 H   0  0  0  0  0  0  0  0  0  0  0  0
  148.3167  141.7633  153.2513 H   0  0  0  0  0  0  0  0  0  0  0  0
  147.8564  143.2303  154.1155 H   0  0  0  0  0  0  0  0  0  0  0  0
  147.5958  141.9030  156.2334 H   0  0  0  0  0  0  0  0  0  0  0  0
  148.0517  140.4347  155.3734 H   0  0  0  0  0  0  0  0  0  0  0  0
  149.4505  141.4978  157.6442 H   0  0  0  0  0  0  0  0  0  0  0  0
  150.0938  140.1511  156.7078 H   0  0  0  0  0  0  0  0  0  0  0  0
  152.1062  141.6371  156.1193 H   0  0  0  0  0  0  0  0  0  0  0  0
  151.4877  142.8360  157.1842 H   0  0  0  0  0  0  0  0  0  0  0  0
  153.6883  144.5947  158.8117 H   0  0  0  0  0  0  0  0  0  0  0  0
  152.8518  143.6907  157.5918 H   0  0  0  0  0  0  0  0  0  0  0  0
  151.7490  145.9057  157.9507 H   0  0  0  0  0  0  0  0  0  0  0  0
  150.6503  144.6219  158.3977 H   0  0  0  0  0  0  0  0  0  0  0  0
  152.3422  146.3160  160.2932 H   0  0  0  0  0  0  0  0  0  0  0  0
  150.5966  146.3255  160.1678 H   0  0  0  0  0  0  0  0  0  0  0  0
  151.4390  144.9611  162.1288 H   0  0  0  0  0  0  0  0  0  0  0  0
  150.4620  144.0216  161.0243 H   0  0  0  0  0  0  0  0  0  0  0  0
  152.4950  142.7563  161.6475 H   0  0  0  0  0  0  0  0  0  0  0  0
  153.5294  144.0557  161.1033 H   0  0  0  0  0  0  0  0  0  0  0  0
  154.7316  137.3404  161.1648 H   0  0  0  0  0  0  0  0  0  0  0  0
  153.1587  137.5479  161.9446 H   0  0  0  0  0  0  0  0  0  0  0  0
  154.2203  138.9306  161.6953 H   0  0  0  0  0  0  0  0  0  0  0  0
  1  2  1  0  0  0  0
  1 25  1  0  0  0  0
  1 26  1  0  0  0  0
  1 27  1  0  0  0  0
  2  3  1  0  0  0  0
  2 28  1  0  0  0  0
  2 29  1  0  0  0  0
  3  4  1  0  0  0  0
  4  5  1  0  0  0  0
  4 30  1  0  0  0  0
  4 31  1  0  0  0  0
  5  6  1  0  0  0  0
  5 32  1  0  0  0  0
  5 33  1  0  0  0  0
  6 16  1  0  0  0  0
  6  7  1  0  0  0  0
  7  8  1  0  0  0  0
  7 14  2  0  0  0  0
  8 13  1  0  0  0  0
  8  9  1  0  0  0  0
  9 10  1  0  0  0  0
  9 34  1  0  0  0  0
  9 35  1  0  0  0  0
 10 11  1  0  0  0  0
 10 36  1  0  0  0  0
 10 37  1  0  0  0  0
 11 12  1  0  0  0  0
 11 38  1  0  0  0  0
 11 39  1  0  0  0  0
 12 13  1  0  0  0  0
 12 40  1  0  0  0  0
 12 41  1  0  0  0  0
 13 42  1  0  0  0  0
 13 43  1  0  0  0  0
 14 15  1  0  0  0  0
 15 22  1  0  0  0  0
 15 16  2  0  0  0  0
 16 17  1  0  0  0  0
 17 18  2  0  0  0  0
 17 19  1  0  0  0  0
 19 24  1  0  0  0  0
 19 20  1  0  0  0  0
 20 21  2  0  0  0  0
 20 22  1  0  0  0  0
 22 23  1  0  0  0  0
 23 44  1  0  0  0  0
 23 45  1  0  0  0  0
 23 46  1  0  0  0  0
M  END
> <s_m_source_file>
AV-unprocessed.smi

> <i_m_source_file_index>
531

> <i_lp_mmshare_version>
43012

> <i_f3d_flags>
0

> <s_epik_input>
W0NIM11uMWMoPU8pW25IXWMoPU8pYyhjMTIpbihbQ0gyXVtDSDJdT1tDSDJdW0NIM10pYyhuMilOM1tDSDJdW0NIMl1bQ0gyXVtDSDJdW0NIMl0z

> <s_epik_cmdline>
J2VwaWtfcHl0aG9uJywgJy1waCcsICc3LjAnLCAnLXRuJywgJzgnLCAnLW1hJywgJzIwMCcsICctbWV0YWxfYmluZGluZycsICctaW1hZScsICc8aW5maWxlLm1hZT4nLCAnLW9tYWUnLCAnPG91dGZpbGUubWFlPic=

> <r_lp_tautomer_probability>
1

> <r_epik_Ionization_Penalty>
0.000274134

> <r_epik_Ionization_Penalty_Charging>
0.000122674

> <r_epik_Ionization_Penalty_Neutral>
0.00015146

> <r_epik_State_Penalty>
-0

> <r_epik_Charging_Adjusted_Penalty>
0.000122674

> <i_epik_Tot_Q>
0

> <i_epik_Tot_abs_Q>
0

> <r_epik_Metal_State_Penalty>
0.0938197

> <b_epik_Metal_Only>
0

> <s_lp_Force_Field>
OPLS_2005

> <r_lp_Energy>
38.5132

> <b_lp_Chiralities_Consistent>
1

> <s_lp_Variant>
AV-unprocessed.smi:531-1

> <Gold.Version>
5.8.1

> <Gold.Id.Protein>
6NUR|6NUR_protein|mol2

> <Gold.PLP.Fitness>
47.8582

> <Gold.PLP.PLP>
-45.1752

> <Gold.PLP.part.hbond>
-1.0000

> <Gold.PLP.part.metal>
0.0000

> <Gold.PLP.part.buried>
-5.9333

> <Gold.PLP.part.nonpolar>
-38.2299

> <Gold.PLP.part.repulsive>
0.4191

> <Gold.PLP.ligand.clash>
0.0000

> <Gold.PLP.ligand.torsion>
0.3921

> <Gold.PLP.Chemscore.Hbond>
1.0000

> <Gold.PLP.Chemscore.CHOScore>
0.0000

> <Gold.PLP.Chemscore.Metal>
0.0000

> <Gold.Chemscore.Hbonds>
donor molecule, donor type, donor heavy atom, donor atom, acceptor molecule, acceptor atom, score
      P1  H  6896  6909       L1    21  0.96

> <Gold.PLP.Chemscore.Internal.Correction>
0.4671

> <Gold.Rescore>
     Score         DG    S(hbond)    S(metal)    S(lipo)     H(rot)  DE(clash)    DE(int)     intcor
     14.03     -16.31       0.99        0.00      99.83       1.62       0.78       1.49       ----

> <Gold.Chemscore.Fitness>
14.0345

> <Gold.Chemscore.DG>
-16.3074

> <Gold.Chemscore.ZeroCoef>
-5.4800

> <Gold.Chemscore.Hbond>
0.9865

> <Gold.Chemscore.Metal>
0.0000

> <Gold.Chemscore.Lipo>
99.8331

> <Gold.Chemscore.Internal_Hbond>
0.0000

> <Gold.Chemscore.DEClash>
0.7781

> <Gold.Chemscore.DEInternal>
1.4947

> <Gold.Chemscore.Rot>
1.6204

> <Gold.Chemscore.Internal.Correction>
   9.000000E+99

> <Gold.Chemscore.Hbonds>
donor molecule, donor type, donor heavy atom, donor atom, acceptor molecule, acceptor atom, score
      P1  H  6896  6909       L1    21  0.88

> <Gold.Chemscore.Hbond.Weighted>
-3.2950

> <Gold.Chemscore.Metal.Weighted>
-0.0000

> <Gold.Chemscore.Lipo.Weighted>
-11.6805

> <Gold.Chemscore.Internal_Hbond.Weighted>
0.0000

> <Gold.Chemscore.DEClash.Weighted>
0.7781

> <Gold.Chemscore.DEInternal.Weighted>
1.4947

> <Gold.Chemscore.Rot.Weighted>
4.1481

> <Gold.Chemscore.Internal.Correction.Weighted>
   9.000000E+99

> <Gold.Protein.RotatedTorsions>
[ 6907 6896 6895 6894 ] final  159.83 input  -60.11 | X-H torsion
[ 7974 7965 7964 7962 ] final  108.62 input  175.53 | X-H torsion
[ 8008 7997 7996 7995 ] final -132.00 input   59.86 | X-H torsion
[ 10167 10162 10161 10158 ] final  -44.68 input  -65.29 | X-H torsion
[ 10718 10713 10712 10709 ] final   85.99 input   66.30 | X-H torsion
[ 10763 10752 10751 10750 ] final -169.11 input  -60.55 | X-H torsion
[ 11005 11000 10999 10996 ] final  -80.65 input  -57.11 | X-H torsion

> <Gold.Protein.ActiveResidues>
 VAL166  LYS551  ARG553  GLY616  TRP617  ASP618  TYR619  PRO620  LYS621  CYS622 
 ASP623  PHE694  ASN695  SER759  ASP760  ASP761  ALA762  ILE779  LEU786  VAL792 
 PHE793  MET794  SER795  GLU796  ALA797  LYS798  CYS799  TRP800  GLU811  SER814 

> <Gold.Protein.RotatedAtoms>
  151.9797  133.3753  159.4102 H   0  0  0  0  0  0  0  0  0  0  0  0  # atno 6907 bound_to 6896
  150.6936  134.4052  159.5146 H   0  0  0  0  0  0  0  0  0  0  0  0  # atno 6908 bound_to 6896
  152.1769  134.8787  160.0580 H   0  0  0  0  0  0  0  0  0  0  0  0  # atno 6909 bound_to 6896
  145.2784  139.2641  143.3929 H   0  0  0  0  0  0  0  0  0  0  0  0  # atno 7974 bound_to 7965
  155.3216  140.0462  157.3039 H   0  0  0  0  0  0  0  0  0  0  0  0  # atno 8008 bound_to 7997
  154.5377  140.2277  155.8661 H   0  0  0  0  0  0  0  0  0  0  0  0  # atno 8009 bound_to 7997
  156.1851  140.3064  155.9228 H   0  0  0  0  0  0  0  0  0  0  0  0  # atno 8010 bound_to 7997
  140.6887  143.2918  151.3530 H   0  0  0  0  0  0  0  0  0  0  0  0  # atno 10167 bound_to 10162
  157.6922  131.0197  150.2906 H   0  0  0  0  0  0  0  0  0  0  0  0  # atno 10718 bound_to 10713
  154.6558  135.2918  154.9930 H   0  0  0  0  0  0  0  0  0  0  0  0  # atno 10763 bound_to 10752
  154.1007  135.6577  153.4871 H   0  0  0  0  0  0  0  0  0  0  0  0  # atno 10764 bound_to 10752
  153.0401  135.5242  154.7486 H   0  0  0  0  0  0  0  0  0  0  0  0  # atno 10765 bound_to 10752
  141.1667  133.7160  156.8305 H   0  0  0  0  0  0  0  0  0  0  0  0  # atno 11005 bound_to 11000
  146.3224  140.3244  142.8635 LP  0  0  0  0  0  0  0  0  0  0  0  0  # atno 17320 bound_to 7965
  144.9275  140.7937  143.5710 LP  0  0  0  0  0  0  0  0  0  0  0  0  # atno 17321 bound_to 7965
  139.6270  144.0796  152.2442 LP  0  0  0  0  0  0  0  0  0  0  0  0  # atno 17342 bound_to 10162
  140.0258  144.6118  150.7529 LP  0  0  0  0  0  0  0  0  0  0  0  0  # atno 17343 bound_to 10162
  156.3437  130.3819  149.7387 LP  0  0  0  0  0  0  0  0  0  0  0  0  # atno 17370 bound_to 10713
  156.4887  130.8075  151.3086 LP  0  0  0  0  0  0  0  0  0  0  0  0  # atno 17371 bound_to 10713
  140.2054  134.8866  157.3216 LP  0  0  0  0  0  0  0  0  0  0  0  0  # atno 17394 bound_to 11000
  140.2143  134.4101  155.7597 LP  0  0  0  0  0  0  0  0  0  0  0  0  # atno 17395 bound_to 11000

$$$$
