#       Name:                AV-unprocessed.smi:573
#       Creating user name   scv26
#       Creation time:       Thu Mar 26 23:47:13 2020


#       File generated by GOLD software.
#

@<TRIPOS>MOLECULE
AV-unprocessed.smi:573
    49    51     1
SMALL
NO_CHARGES


@<TRIPOS>ATOM
      1 ****        -3.4681   2.8122   1.9513 C.3            1 S1                 0.0000
      2 ****        -3.8328   1.9728   0.7179 C.3            1 S1                 0.0000
      3 ****        -5.2360   1.9912   0.5679 O.3            1 S1                 0.0000
      4 ****        -3.3852   0.5042   0.8343 C.3            1 S1                 0.0000
      5 ****        -1.9366   0.3584   0.8450 N.pl3          1 S1                 0.0000
      6 ****        -1.2152   0.4406  -0.3519 C.cat          1 S1                 0.0000
      7 ****        -1.7416   0.4668  -1.6057 N.pl3          1 S1                 1.0000
      8 ****        -0.6895   0.5373  -2.5231 C.ar           1 S1                 0.0000
      9 ****        -0.7006   0.5856  -3.9137 C.ar           1 S1                 0.0000
     10 ****         0.5536   0.6451  -4.5559 C.ar           1 S1                 0.0000
     11 ****         1.7566   0.6532  -3.8205 C.ar           1 S1                 0.0000
     12 ****         1.7586   0.6066  -2.4110 C.ar           1 S1                 0.0000
     13 ****         0.5158   0.5515  -1.7801 C.ar           1 S1                 0.0000
     14 ****         0.1390   0.4971  -0.4313 N.pl3          1 S1                 0.0000
     15 ****         1.1632   0.5007   0.6238 C.3            1 S1                 0.0000
     16 ****         1.5647  -0.9204   1.0524 C.3            1 S1                 0.0000
     17 ****         2.6450  -0.9060   2.1506 C.3            1 S1                 0.0000
     18 ****         3.0689  -2.3347   2.5095 C.3            1 S1                 0.0000
     19 ****         3.4714  -3.0896   1.2381 C.3            1 S1                 0.0000
     20 ****         2.3570  -2.9941   0.1841 C.3            1 S1                 0.0000
     21 ****         2.0579  -1.6279  -0.0840 O.3            1 S1                 0.0000
     22 ****        -2.3877   2.8604   2.0910 H              1 S1                 0.0000
     23 ****        -3.9019   2.3929   2.8598 H              1 S1                 0.0000
     24 ****        -3.8296   3.8362   1.8510 H              1 S1                 0.0000
     25 ****        -3.4009   2.4283  -0.1739 H              1 S1                 0.0000
     26 ****        -5.5197   2.8896   0.4909 H              1 S1                 0.0000
     27 ****        -3.7804   0.0663   1.7514 H              1 S1                 0.0000
     28 ****        -3.7996  -0.0841   0.0145 H              1 S1                 0.0000
     29 ****        -1.4491   0.3771   1.7294 H              1 S1                 0.0000
     30 ****        -1.6202   0.5756  -4.4804 H              1 S1                 0.0000
     31 ****         0.5938   0.6825  -5.6348 H              1 S1                 0.0000
     32 ****         2.6986   0.6952  -4.3482 H              1 S1                 0.0000
     33 ****         2.6870   0.6071  -1.8592 H              1 S1                 0.0000
     34 ****         2.0278   1.0695   0.2815 H              1 S1                 0.0000
     35 ****         0.7555   1.0475   1.4747 H              1 S1                 0.0000
     36 ****         0.6758  -1.4321   1.4264 H              1 S1                 0.0000
     37 ****         3.5144  -0.3455   1.8045 H              1 S1                 0.0000
     38 ****         2.2759  -0.3931   3.0394 H              1 S1                 0.0000
     39 ****         3.8948  -2.3200   3.2214 H              1 S1                 0.0000
     40 ****         2.2418  -2.8516   2.9978 H              1 S1                 0.0000
     41 ****         4.3914  -2.6645   0.8348 H              1 S1                 0.0000
     42 ****         3.6837  -4.1336   1.4703 H              1 S1                 0.0000
     43 ****         2.6763  -3.4720  -0.7421 H              1 S1                 0.0000
     44 ****         1.4584  -3.5153   0.5175 H              1 S1                 0.0000
     45 ****        -2.7312   0.4343  -1.8138 H              1 S1                 0.0000
     46 ****        -5.6657   1.5696   1.3664 LP             1 S1                 0.0000
     47 ****        -5.4934   1.4850  -0.2553 LP             1 S1                 0.0000
     48 ****         2.8927  -1.1771  -0.3999 LP             1 S1                 0.0000
     49 ****         1.3659  -1.5909  -0.8050 LP             1 S1                 0.0000
@<TRIPOS>BOND
    1    1    2 1     
    2    1   22 1     
    3    1   23 1     
    4    1   24 1     
    5    2    3 1     
    6    2    4 1     
    7    2   25 1     
    8    3   26 1     
    9    4    5 1     
   10    4   27 1     
   11    4   28 1     
   12    5    6 ar    
   13    5   29 1     
   14    6   14 ar    
   15    6    7 ar    
   16    7    8 1     
   17    7   45 1     
   18    8   13 ar    
   19    8    9 ar    
   20    9   10 ar    
   21    9   30 1     
   22   10   11 ar    
   23   10   31 1     
   24   11   12 ar    
   25   11   32 1     
   26   12   13 ar    
   27   12   33 1     
   28   13   14 1     
   29   14   15 1     
   30   15   16 1     
   31   15   34 1     
   32   15   35 1     
   33   16   21 1     
   34   16   17 1     
   35   16   36 1     
   36   17   18 1     
   37   17   37 1     
   38   17   38 1     
   39   18   19 1     
   40   18   39 1     
   41   18   40 1     
   42   19   20 1     
   43   19   41 1     
   44   19   42 1     
   45   20   21 1     
   46   20   43 1     
   47   20   44 1     
   48    3   46 1     
   49    3   47 1     
   50   21   48 1     
   51   21   49 1     
@<TRIPOS>SUBSTRUCTURE
      1 S1             1
@<TRIPOS>SET
LONE_PAIRS      STATIC     ATOMS    <user>   **** ""
4 46 47 48 49
DONOR_HYDROGENS      STATIC     ATOMS    <user>   **** ""
3 26 29 45
ATOM$BLUE        STATIC     ATOMS    COLORGROUP SYSTEM
4 46 47 48 49
ATOM$RED        STATIC     ATOMS    COLORGROUP SYSTEM
3 26 29 45
