AV-unprocessed.smi:273|AV-procd|sdf|2056|dock10
  -GOLD-   2262021303D 1   1.00000     0.00000
 Structure written by MMmdl.
 59 62  0  0  0  0  0  0  0  0  1 V2000
  146.1121  131.5433  151.5919 C   0  0  0  0  0  0  0  0  0  0  0  0
  146.9968  131.0203  152.7275 C   0  0  0  0  0  0  0  0  0  0  0  0
  147.6002  132.1275  153.4553 N   0  0  0  0  0  0  0  0  0  0  0  0
  148.4195  131.9935  154.5100 C   0  0  0  0  0  0  0  0  0  0  0  0
  148.7402  130.8927  154.9588 O   0  0  0  0  0  0  0  0  0  0  0  0
  148.9839  133.2745  155.1565 C   0  0  0  0  0  0  0  0  0  0  0  0
  148.6480  134.5232  154.3121 C   0  0  0  0  0  0  0  0  0  0  0  0
  149.1887  135.8056  154.9647 C   0  0  0  0  0  0  0  0  0  0  0  0
  150.6211  135.6938  155.2343 N   0  0  0  0  0  0  0  0  0  0  0  0
  151.2352  136.8767  155.4905 C   0  0  0  0  0  0  0  0  0  0  0  0
  152.0512  137.4362  154.5567 N   0  0  0  0  0  0  0  0  0  0  0  0
  152.6736  138.5916  154.8081 C   0  0  0  0  0  0  0  0  0  0  0  0
  152.6227  139.3443  155.9086 N   0  0  0  0  0  0  0  0  0  0  0  0
  151.7987  138.7937  156.8449 C   0  0  0  0  0  0  0  0  0  0  0  0
  151.0713  137.5767  156.7193 C   0  0  0  0  0  0  0  0  0  0  0  0
  150.3301  137.3486  157.8734 N   0  0  0  0  0  0  0  0  0  0  0  0
  150.6115  138.3662  158.6406 C   0  0  0  0  0  0  0  0  0  0  0  0
  151.4922  139.2776  158.1035 N   0  0  0  0  0  0  0  0  0  0  0  0
  151.9847  140.4905  158.7316 C   0  0  0  0  0  0  0  0  0  0  0  0
  151.2631  141.7676  158.2340 C   0  0  2  0  0  0  0  0  0  0  0  0
  151.0828  141.7902  156.6966 C   0  0  0  0  0  0  0  0  0  0  0  0
  149.8565  142.3878  156.3283 O   0  0  0  0  0  0  0  0  0  0  0  0
  151.9452  143.0518  158.7688 C   0  0  1  0  0  0  0  0  0  0  0  0
  151.2723  144.3514  158.3622 C   0  0  0  0  0  0  0  0  0  0  0  0
  151.8281  145.3415  159.3808 C   0  0  0  0  0  0  0  0  0  0  0  0
  152.0768  144.5870  160.5617 O   0  0  0  0  0  0  0  0  0  0  0  0
  151.9197  143.1977  160.2936 C   0  0  0  0  0  0  0  0  0  0  0  0
  151.0039  134.5418  156.0512 C   0  0  0  0  0  0  0  0  0  0  0  0
  150.5086  133.2311  155.4197 C   0  0  0  0  0  0  0  0  0  0  0  0
  145.6666  130.7181  151.0360 H   0  0  0  0  0  0  0  0  0  0  0  0
  146.6876  132.1459  150.8882 H   0  0  0  0  0  0  0  0  0  0  0  0
  145.3001  132.1603  151.9781 H   0  0  0  0  0  0  0  0  0  0  0  0
  146.4021  130.4100  153.4090 H   0  0  0  0  0  0  0  0  0  0  0  0
  147.7841  130.3819  152.3236 H   0  0  0  0  0  0  0  0  0  0  0  0
  147.3814  133.0606  153.1375 H   0  0  0  0  0  0  0  0  0  0  0  0
  148.4814  133.3735  156.1197 H   0  0  0  0  0  0  0  0  0  0  0  0
  149.0749  134.4207  153.3130 H   0  0  0  0  0  0  0  0  0  0  0  0
  147.5696  134.6208  154.1792 H   0  0  0  0  0  0  0  0  0  0  0  0
  148.9697  136.6551  154.3187 H   0  0  0  0  0  0  0  0  0  0  0  0
  148.6692  135.9893  155.9061 H   0  0  0  0  0  0  0  0  0  0  0  0
  153.3052  138.9647  154.0153 H   0  0  0  0  0  0  0  0  0  0  0  0
  150.1888  138.4770  159.6287 H   0  0  0  0  0  0  0  0  0  0  0  0
  151.8649  140.3749  159.8089 H   0  0  0  0  0  0  0  0  0  0  0  0
  153.0572  140.5649  158.5477 H   0  0  0  0  0  0  0  0  0  0  0  0
  150.2571  141.7438  158.6558 H   0  0  0  0  0  0  0  0  0  0  0  0
  151.8956  142.3339  156.2152 H   0  0  0  0  0  0  0  0  0  0  0  0
  151.1175  140.7815  156.2860 H   0  0  0  0  0  0  0  0  0  0  0  0
  150.0365  143.2352  155.9503 H   0  0  0  0  0  0  0  0  0  0  0  0
  152.9843  143.0812  158.4366 H   0  0  0  0  0  0  0  0  0  0  0  0
  151.4896  144.6472  157.3355 H   0  0  0  0  0  0  0  0  0  0  0  0
  150.1898  144.2711  158.4730 H   0  0  0  0  0  0  0  0  0  0  0  0
  152.7733  145.7582  159.0306 H   0  0  0  0  0  0  0  0  0  0  0  0
  151.1435  146.1679  159.5725 H   0  0  0  0  0  0  0  0  0  0  0  0
  150.9574  142.8785  160.6966 H   0  0  0  0  0  0  0  0  0  0  0  0
  152.7001  142.6153  160.7839 H   0  0  0  0  0  0  0  0  0  0  0  0
  152.0888  134.5031  156.1588 H   0  0  0  0  0  0  0  0  0  0  0  0
  150.5838  134.6536  157.0521 H   0  0  0  0  0  0  0  0  0  0  0  0
  150.7625  132.4035  156.0832 H   0  0  0  0  0  0  0  0  0  0  0  0
  151.0448  133.0608  154.4845 H   0  0  0  0  0  0  0  0  0  0  0  0
  1  2  1  0  0  0  0
  1 30  1  0  0  0  0
  1 31  1  0  0  0  0
  1 32  1  0  0  0  0
  2  3  1  0  0  0  0
  2 33  1  0  0  0  0
  2 34  1  0  0  0  0
  3  4  1  0  0  0  0
  3 35  1  0  0  0  0
  4  5  2  0  0  0  0
  4  6  1  0  0  0  0
  6 29  1  0  0  0  0
  6  7  1  0  0  0  0
  6 36  1  0  0  0  0
  7  8  1  0  0  0  0
  7 37  1  0  0  0  0
  7 38  1  0  0  0  0
  8  9  1  0  0  0  0
  8 39  1  0  0  0  0
  8 40  1  0  0  0  0
  9 10  1  0  0  0  0
  9 28  1  0  0  0  0
 10 15  1  0  0  0  0
 10 11  2  0  0  0  0
 11 12  1  0  0  0  0
 12 13  2  0  0  0  0
 12 41  1  0  0  0  0
 13 14  1  0  0  0  0
 14 18  1  0  0  0  0
 14 15  2  0  0  0  0
 15 16  1  0  0  0  0
 16 17  2  0  0  0  0
 17 18  1  0  0  0  0
 17 42  1  0  0  0  0
 18 19  1  0  0  0  0
 19 20  1  0  0  0  0
 19 43  1  0  0  0  0
 19 44  1  0  0  0  0
 20 21  1  0  0  0  0
 20 23  1  0  0  0  0
 20 45  1  0  0  0  0
 21 22  1  0  0  0  0
 21 46  1  0  0  0  0
 21 47  1  0  0  0  0
 22 48  1  0  0  0  0
 23 27  1  0  0  0  0
 23 24  1  0  0  0  0
 23 49  1  0  0  0  0
 24 25  1  0  0  0  0
 24 50  1  0  0  0  0
 24 51  1  0  0  0  0
 25 26  1  0  0  0  0
 25 52  1  0  0  0  0
 25 53  1  0  0  0  0
 26 27  1  0  0  0  0
 27 54  1  0  0  0  0
 27 55  1  0  0  0  0
 28 29  1  0  0  0  0
 28 56  1  0  0  0  0
 28 57  1  0  0  0  0
 29 58  1  0  0  0  0
 29 59  1  0  0  0  0
M  END
> <s_m_source_file>
AV-unprocessed.smi

> <i_m_source_file_index>
273

> <i_lp_mmshare_version>
43012

> <i_f3d_flags>
0

> <s_epik_input>
W0NIM11bQ0gyXVtOSF1DKD1PKVtDSF0xW0NIMl1bQ0gyXU4oW0NIMl1bQ0gyXTEpYyhuW2NIXW4yKWMoYzIzKW5bY0hdbjNbQ0gyXVtDQEhdKFtDSDJdW09IXSlbQ0BASF00W0NIMl1bQ0gyXU9bQ0gyXTQ=

> <s_epik_cmdline>
J2VwaWtfcHl0aG9uJywgJy1waCcsICc3LjAnLCAnLXRuJywgJzgnLCAnLW1hJywgJzIwMCcsICctbWV0YWxfYmluZGluZycsICctaW1hZScsICc8aW5maWxlLm1hZT4nLCAnLW9tYWUnLCAnPG91dGZpbGUubWFlPic=

> <r_lp_tautomer_probability>
1

> <r_epik_Ionization_Penalty>
0.00226556

> <r_epik_Ionization_Penalty_Charging>
0

> <r_epik_Ionization_Penalty_Neutral>
0.00226556

> <r_epik_State_Penalty>
0.00139883

> <r_epik_Charging_Adjusted_Penalty>
0.00139883

> <i_epik_Tot_Q>
0

> <i_epik_Tot_abs_Q>
0

> <r_epik_Metal_State_Penalty>
-0

> <b_epik_Metal_Only>
0

> <s_lp_Force_Field>
OPLS_2005

> <r_lp_Energy>
43.2491

> <b_lp_Chiralities_Consistent>
1

> <s_lp_Variant>
AV-unprocessed.smi:273-3

> <Gold.Version>
5.8.1

> <Gold.Id.Protein>
6NUR|6NUR_protein|mol2

> <Gold.PLP.Fitness>
50.2163

> <Gold.PLP.PLP>
-46.7809

> <Gold.PLP.part.hbond>
-3.0000

> <Gold.PLP.part.metal>
0.0000

> <Gold.PLP.part.buried>
-6.7627

> <Gold.PLP.part.nonpolar>
-38.0060

> <Gold.PLP.part.repulsive>
0.3959

> <Gold.PLP.ligand.clash>
0.0000

> <Gold.PLP.ligand.torsion>
1.2123

> <Gold.PLP.Chemscore.Hbond>
1.7680

> <Gold.PLP.Chemscore.CHOScore>
0.0000

> <Gold.PLP.Chemscore.Metal>
0.0000

> <Gold.Chemscore.Hbonds>
donor molecule, donor type, donor heavy atom, donor atom, acceptor molecule, acceptor atom, score
      L1  H    22    48       P1  8028  0.62
      P1  H  7997  8010       L1    13  1.00

> <Gold.PLP.Chemscore.Internal.Correction>
0.5559

> <Gold.Rescore>
     Score         DG    S(hbond)    S(metal)    S(lipo)     H(rot)  DE(clash)    DE(int)     intcor
     14.18     -15.59       1.78        0.00     106.27       3.22       0.04       1.37       ----

> <Gold.Chemscore.Fitness>
14.1825

> <Gold.Chemscore.DG>
-15.5944

> <Gold.Chemscore.ZeroCoef>
-5.4800

> <Gold.Chemscore.Hbond>
1.7771

> <Gold.Chemscore.Metal>
0.0000

> <Gold.Chemscore.Lipo>
106.2683

> <Gold.Chemscore.Internal_Hbond>
0.0000

> <Gold.Chemscore.DEClash>
0.0442

> <Gold.Chemscore.DEInternal>
1.3676

> <Gold.Chemscore.Rot>
3.2244

> <Gold.Chemscore.Internal.Correction>
   9.000000E+99

> <Gold.Chemscore.Hbonds>
donor molecule, donor type, donor heavy atom, donor atom, acceptor molecule, acceptor atom, score
      L1  H    22    48       P1  8028  0.62
      P1  H  7997  8010       L1    13  0.78

> <Gold.Chemscore.Hbond.Weighted>
-5.9355

> <Gold.Chemscore.Metal.Weighted>
-0.0000

> <Gold.Chemscore.Lipo.Weighted>
-12.4334

> <Gold.Chemscore.Internal_Hbond.Weighted>
0.0000

> <Gold.Chemscore.DEClash.Weighted>
0.0442

> <Gold.Chemscore.DEInternal.Weighted>
1.3676

> <Gold.Chemscore.Rot.Weighted>
8.2545

> <Gold.Chemscore.Internal.Correction.Weighted>
   9.000000E+99

> <Gold.Protein.RotatedTorsions>
[ 6907 6896 6895 6894 ] final -167.37 input  -60.11 | X-H torsion
[ 7974 7965 7964 7962 ] final -130.66 input  175.53 | X-H torsion
[ 8008 7997 7996 7995 ] final   79.80 input   59.86 | X-H torsion
[ 10167 10162 10161 10158 ] final  -62.48 input  -65.29 | X-H torsion
[ 10718 10713 10712 10709 ] final -157.62 input   66.30 | X-H torsion
[ 10763 10752 10751 10750 ] final  -34.35 input  -60.55 | X-H torsion
[ 11005 11000 10999 10996 ] final  -80.05 input  -57.11 | X-H torsion

> <Gold.Protein.ActiveResidues>
 VAL166  LYS551  ARG553  GLY616  TRP617  ASP618  TYR619  PRO620  LYS621  CYS622 
 ASP623  PHE694  ASN695  SER759  ASP760  ASP761  ALA762  ILE779  LEU786  VAL792 
 PHE793  MET794  SER795  GLU796  ALA797  LYS798  CYS799  TRP800  GLU811  SER814 

> <Gold.Protein.RotatedAtoms>
  151.4584  133.3599  159.2805 H   0  0  0  0  0  0  0  0  0  0  0  0  # atno 6907 bound_to 6896
  150.9042  134.8458  159.7392 H   0  0  0  0  0  0  0  0  0  0  0  0  # atno 6908 bound_to 6896
  152.4897  134.4508  159.9625 H   0  0  0  0  0  0  0  0  0  0  0  0  # atno 6909 bound_to 6896
  144.9453  140.7285  143.4821 H   0  0  0  0  0  0  0  0  0  0  0  0  # atno 7974 bound_to 7965
  155.8747  140.3447  155.5846 H   0  0  0  0  0  0  0  0  0  0  0  0  # atno 8008 bound_to 7997
  155.7788  140.0855  157.2089 H   0  0  0  0  0  0  0  0  0  0  0  0  # atno 8009 bound_to 7997
  154.4020  140.1504  156.3014 H   0  0  0  0  0  0  0  0  0  0  0  0  # atno 8010 bound_to 7997
  140.5936  143.2346  151.6084 H   0  0  0  0  0  0  0  0  0  0  0  0  # atno 10167 bound_to 10162
  156.5428  130.8570  151.2754 H   0  0  0  0  0  0  0  0  0  0  0  0  # atno 10718 bound_to 10713
  153.8453  135.6854  153.4798 H   0  0  0  0  0  0  0  0  0  0  0  0  # atno 10763 bound_to 10752
  153.1429  135.4650  154.9521 H   0  0  0  0  0  0  0  0  0  0  0  0  # atno 10764 bound_to 10752
  154.7827  135.3274  154.7902 H   0  0  0  0  0  0  0  0  0  0  0  0  # atno 10765 bound_to 10752
  141.1668  133.7133  156.8215 H   0  0  0  0  0  0  0  0  0  0  0  0  # atno 11005 bound_to 11000
  145.2927  139.1878  143.4732 LP  0  0  0  0  0  0  0  0  0  0  0  0  # atno 17320 bound_to 7965
  146.3301  140.2906  142.8615 LP  0  0  0  0  0  0  0  0  0  0  0  0  # atno 17321 bound_to 7965
  139.5244  144.3106  152.0996 LP  0  0  0  0  0  0  0  0  0  0  0  0  # atno 17342 bound_to 10162
  140.2274  144.4403  150.6315 LP  0  0  0  0  0  0  0  0  0  0  0  0  # atno 17343 bound_to 10162
  157.7402  130.9846  150.2363 LP  0  0  0  0  0  0  0  0  0  0  0  0  # atno 17370 bound_to 10713
  156.2956  130.3751  149.7799 LP  0  0  0  0  0  0  0  0  0  0  0  0  # atno 17371 bound_to 10713
  140.2116  134.8823  157.3280 LP  0  0  0  0  0  0  0  0  0  0  0  0  # atno 17394 bound_to 11000
  140.2081  134.4172  155.7627 LP  0  0  0  0  0  0  0  0  0  0  0  0  # atno 17395 bound_to 11000

$$$$
