AV-unprocessed.smi:2340|AV-procd|sdf|9346|dock7
  -GOLD-   2272012563D 1   1.00000     0.00000
 Structure written by MMmdl.
 40 41  0  0  0  0  0  0  0  0  1 V2000
  147.4240  134.8812  161.1602 C   0  0  0  0  0  0  0  0  0  0  0  0
  147.6724  135.8486  160.0465 C   0  0  0  0  0  0  0  0  0  0  0  0
  146.7704  136.7253  159.4971 C   0  0  0  0  0  0  0  0  0  0  0  0
  147.4814  137.6735  158.2207 S   0  0  0  0  0  0  0  0  0  0  0  0
  149.0039  136.8286  158.4820 C   0  0  0  0  0  0  0  0  0  0  0  0
  150.2503  137.1288  157.7053 C   0  0  2  0  0  0  0  0  0  0  0  0
  150.6407  135.9784  156.7667 C   0  0  0  0  0  0  0  0  0  0  0  0
  151.4213  137.6055  158.5946 C   0  0  0  0  0  0  0  0  0  0  0  0
  151.2864  138.9980  159.0133 N   0  0  0  0  0  0  0  0  0  0  0  0
  152.1692  139.9699  158.7491 C   0  0  0  0  0  0  0  0  0  0  0  0
  153.2404  139.7921  158.1687 O   0  0  0  0  0  0  0  0  0  0  0  0
  151.7307  141.1638  159.1681 N   0  0  0  0  0  0  0  0  0  0  0  0
  152.4361  142.4292  158.9733 C   0  0  1  0  0  0  0  0  0  0  0  0
  151.5991  143.4163  158.1562 C   0  0  0  0  0  0  0  0  0  0  0  0
  151.6045  144.6928  158.9913 C   0  0  0  0  0  0  0  0  0  0  0  0
  151.7306  144.2160  160.3192 O   0  0  0  0  0  0  0  0  0  0  0  0
  152.7002  143.1790  160.2973 C   0  0  1  0  0  0  0  0  0  0  0  0
  152.6333  142.3586  161.5957 C   0  0  0  0  0  0  0  0  0  0  0  0
  148.9387  135.9197  159.4599 N   0  0  0  0  0  0  0  0  0  0  0  0
  146.3837  134.9060  161.4857 H   0  0  0  0  0  0  0  0  0  0  0  0
  148.0457  135.1106  162.0258 H   0  0  0  0  0  0  0  0  0  0  0  0
  147.6483  133.8598  160.8519 H   0  0  0  0  0  0  0  0  0  0  0  0
  145.7346  136.8715  159.7656 H   0  0  0  0  0  0  0  0  0  0  0  0
  149.9981  137.9664  157.0538 H   0  0  0  0  0  0  0  0  0  0  0  0
  149.8264  135.7360  156.0832 H   0  0  0  0  0  0  0  0  0  0  0  0
  150.8856  135.0756  157.3270 H   0  0  0  0  0  0  0  0  0  0  0  0
  151.5104  136.2418  156.1645 H   0  0  0  0  0  0  0  0  0  0  0  0
  151.4567  137.0020  159.5020 H   0  0  0  0  0  0  0  0  0  0  0  0
  152.3759  137.4559  158.0878 H   0  0  0  0  0  0  0  0  0  0  0  0
  150.4346  139.2468  159.4946 H   0  0  0  0  0  0  0  0  0  0  0  0
  150.8354  141.2090  159.6322 H   0  0  0  0  0  0  0  0  0  0  0  0
  153.3911  142.2346  158.4820 H   0  0  0  0  0  0  0  0  0  0  0  0
  151.9998  143.5775  157.1550 H   0  0  0  0  0  0  0  0  0  0  0  0
  150.5724  143.0627  158.0465 H   0  0  0  0  0  0  0  0  0  0  0  0
  152.4651  145.3164  158.7443 H   0  0  0  0  0  0  0  0  0  0  0  0
  150.6999  145.2868  158.8596 H   0  0  0  0  0  0  0  0  0  0  0  0
  153.6814  143.6533  160.2355 H   0  0  0  0  0  0  0  0  0  0  0  0
  153.3476  141.5353  161.5774 H   0  0  0  0  0  0  0  0  0  0  0  0
  151.6388  141.9424  161.7589 H   0  0  0  0  0  0  0  0  0  0  0  0
  152.8701  142.9829  162.4574 H   0  0  0  0  0  0  0  0  0  0  0  0
  1  2  1  0  0  0  0
  1 20  1  0  0  0  0
  1 21  1  0  0  0  0
  1 22  1  0  0  0  0
  2 19  1  0  0  0  0
  2  3  2  0  0  0  0
  3  4  1  0  0  0  0
  3 23  1  0  0  0  0
  4  5  1  0  0  0  0
  5  6  1  0  0  0  0
  5 19  2  0  0  0  0
  6  7  1  0  0  0  0
  6  8  1  0  0  0  0
  6 24  1  0  0  0  0
  7 25  1  0  0  0  0
  7 26  1  0  0  0  0
  7 27  1  0  0  0  0
  8  9  1  0  0  0  0
  8 28  1  0  0  0  0
  8 29  1  0  0  0  0
  9 10  1  0  0  0  0
  9 30  1  0  0  0  0
 10 11  2  0  0  0  0
 10 12  1  0  0  0  0
 12 13  1  0  0  0  0
 12 31  1  0  0  0  0
 13 17  1  0  0  0  0
 13 14  1  0  0  0  0
 13 32  1  0  0  0  0
 14 15  1  0  0  0  0
 14 33  1  0  0  0  0
 14 34  1  0  0  0  0
 15 16  1  0  0  0  0
 15 35  1  0  0  0  0
 15 36  1  0  0  0  0
 16 17  1  0  0  0  0
 17 18  1  0  0  0  0
 17 37  1  0  0  0  0
 18 38  1  0  0  0  0
 18 39  1  0  0  0  0
 18 40  1  0  0  0  0
M  END
> <s_m_source_file>
AV-unprocessed.smi

> <i_m_source_file_index>
2340

> <i_lp_mmshare_version>
43012

> <i_f3d_flags>
0

> <s_epik_input>
W0NIM11jMVtjSF1zYyhuMSlbQ0BIXShbQ0gzXSlbQ0gyXVtOSF1DKD1PKVtOSF1bQ0BASF0yW0NIMl1bQ0gyXU9bQ0BIXTJbQ0gzXQ==

> <s_epik_cmdline>
J2VwaWtfcHl0aG9uJywgJy1waCcsICc3LjAnLCAnLXRuJywgJzgnLCAnLW1hJywgJzIwMCcsICctbWV0YWxfYmluZGluZycsICctaW1hZScsICc8aW5maWxlLm1hZT4nLCAnLW9tYWUnLCAnPG91dGZpbGUubWFlPic=

> <r_epik_Ionization_Penalty>
0.00156622

> <r_epik_Ionization_Penalty_Charging>
0

> <r_epik_Ionization_Penalty_Neutral>
0.00156622

> <r_epik_State_Penalty>
0.00101902

> <r_epik_Charging_Adjusted_Penalty>
0.00101902

> <i_epik_Tot_Q>
0

> <i_epik_Tot_abs_Q>
0

> <r_epik_Metal_State_Penalty>
-0

> <b_epik_Metal_Only>
0

> <s_lp_Force_Field>
OPLS_2005

> <r_lp_Energy>
5.02478

> <b_lp_Chiralities_Consistent>
1

> <s_lp_Variant>
AV-unprocessed.smi:2340-3

> <Gold.Version>
5.8.1

> <Gold.Id.Protein>
6NUR|6NUR_protein|mol2

> <Gold.PLP.Fitness>
39.8359

> <Gold.PLP.PLP>
-34.3453

> <Gold.PLP.part.hbond>
-2.0000

> <Gold.PLP.part.metal>
0.0000

> <Gold.PLP.part.buried>
-5.1314

> <Gold.PLP.part.nonpolar>
-27.9139

> <Gold.PLP.part.repulsive>
0.3744

> <Gold.PLP.ligand.clash>
0.0000

> <Gold.PLP.ligand.torsion>
0.3137

> <Gold.PLP.Chemscore.Hbond>
2.0000

> <Gold.PLP.Chemscore.CHOScore>
0.0000

> <Gold.PLP.Chemscore.Metal>
0.0000

> <Gold.Chemscore.Hbonds>
donor molecule, donor type, donor heavy atom, donor atom, acceptor molecule, acceptor atom, score
      P1  H  6896  6909       L1    19  0.67
      P1  H  7997  8010       L1    11  1.00

> <Gold.PLP.Chemscore.Internal.Correction>
0.1181

> <Gold.Rescore>
     Score         DG    S(hbond)    S(metal)    S(lipo)     H(rot)  DE(clash)    DE(int)     intcor
     18.41     -18.78       1.94        0.00      91.83       1.53       0.05       0.32       ----

> <Gold.Chemscore.Fitness>
18.4123

> <Gold.Chemscore.DG>
-18.7845

> <Gold.Chemscore.ZeroCoef>
-5.4800

> <Gold.Chemscore.Hbond>
1.9412

> <Gold.Chemscore.Metal>
0.0000

> <Gold.Chemscore.Lipo>
91.8301

> <Gold.Chemscore.Internal_Hbond>
0.0000

> <Gold.Chemscore.DEClash>
0.0473

> <Gold.Chemscore.DEInternal>
0.3250

> <Gold.Chemscore.Rot>
1.5325

> <Gold.Chemscore.Internal.Correction>
   9.000000E+99

> <Gold.Chemscore.Hbonds>
donor molecule, donor type, donor heavy atom, donor atom, acceptor molecule, acceptor atom, score
      P1  H  6896  6909       L1    19  0.59
      P1  H  7997  8010       L1    11  0.94

> <Gold.Chemscore.Hbond.Weighted>
-6.4837

> <Gold.Chemscore.Metal.Weighted>
-0.0000

> <Gold.Chemscore.Lipo.Weighted>
-10.7441

> <Gold.Chemscore.Internal_Hbond.Weighted>
0.0000

> <Gold.Chemscore.DEClash.Weighted>
0.0473

> <Gold.Chemscore.DEInternal.Weighted>
0.3250

> <Gold.Chemscore.Rot.Weighted>
3.9233

> <Gold.Chemscore.Internal.Correction.Weighted>
   9.000000E+99

> <Gold.Protein.RotatedTorsions>
[ 6907 6896 6895 6894 ] final   56.06 input  -60.11 | X-H torsion
[ 7974 7965 7964 7962 ] final  -69.38 input  175.53 | X-H torsion
[ 8008 7997 7996 7995 ] final   19.98 input   59.86 | X-H torsion
[ 10167 10162 10161 10158 ] final  -98.55 input  -65.29 | X-H torsion
[ 10718 10713 10712 10709 ] final  -18.67 input   66.30 | X-H torsion
[ 10763 10752 10751 10750 ] final   57.39 input  -60.55 | X-H torsion
[ 11005 11000 10999 10996 ] final  -83.91 input  -57.11 | X-H torsion

> <Gold.Protein.ActiveResidues>
 VAL166  LYS551  ARG553  GLY616  TRP617  ASP618  TYR619  PRO620  LYS621  CYS622 
 ASP623  PHE694  ASN695  SER759  ASP760  ASP761  ALA762  ILE779  LEU786  VAL792 
 PHE793  MET794  SER795  GLU796  ALA797  LYS798  CYS799  TRP800  GLU811  SER814 

> <Gold.Protein.RotatedAtoms>
  152.3599  134.6886  160.0210 H   0  0  0  0  0  0  0  0  0  0  0  0  # atno 6907 bound_to 6896
  151.7213  133.3309  159.3324 H   0  0  0  0  0  0  0  0  0  0  0  0  # atno 6908 bound_to 6896
  150.7598  134.6380  159.6266 H   0  0  0  0  0  0  0  0  0  0  0  0  # atno 6909 bound_to 6896
  145.7045  140.9103  143.0713 H   0  0  0  0  0  0  0  0  0  0  0  0  # atno 7974 bound_to 7965
  154.9287  140.3037  155.5178 H   0  0  0  0  0  0  0  0  0  0  0  0  # atno 8008 bound_to 7997
  156.3005  140.2358  156.4282 H   0  0  0  0  0  0  0  0  0  0  0  0  # atno 8009 bound_to 7997
  154.8258  140.0421  157.1431 H   0  0  0  0  0  0  0  0  0  0  0  0  # atno 8010 bound_to 7997
  140.2717  143.3339  152.0528 H   0  0  0  0  0  0  0  0  0  0  0  0  # atno 10167 bound_to 10162
  156.5563  130.4714  149.6428 H   0  0  0  0  0  0  0  0  0  0  0  0  # atno 10718 bound_to 10713
  152.9849  135.5643  154.5383 H   0  0  0  0  0  0  0  0  0  0  0  0  # atno 10763 bound_to 10752
  154.4842  135.2790  155.1549 H   0  0  0  0  0  0  0  0  0  0  0  0  # atno 10764 bound_to 10752
  154.3045  135.6301  153.5492 H   0  0  0  0  0  0  0  0  0  0  0  0  # atno 10765 bound_to 10752
  141.1654  133.7319  156.8791 H   0  0  0  0  0  0  0  0  0  0  0  0  # atno 11005 bound_to 11000
  144.6959  139.8991  143.7457 LP  0  0  0  0  0  0  0  0  0  0  0  0  # atno 17320 bound_to 7965
  146.0768  139.3756  143.0489 LP  0  0  0  0  0  0  0  0  0  0  0  0  # atno 17321 bound_to 7965
  139.4987  144.6651  151.6374 LP  0  0  0  0  0  0  0  0  0  0  0  0  # atno 17342 bound_to 10162
  140.5884  143.9823  150.6309 LP  0  0  0  0  0  0  0  0  0  0  0  0  # atno 17343 bound_to 10162
  156.2839  130.7086  151.1918 LP  0  0  0  0  0  0  0  0  0  0  0  0  # atno 17370 bound_to 10713
  157.7377  131.0548  150.5336 LP  0  0  0  0  0  0  0  0  0  0  0  0  # atno 17371 bound_to 10713
  140.1728  134.9088  157.2854 LP  0  0  0  0  0  0  0  0  0  0  0  0  # atno 17394 bound_to 11000
  140.2483  134.3713  155.7452 LP  0  0  0  0  0  0  0  0  0  0  0  0  # atno 17395 bound_to 11000

$$$$
