AV-unprocessed.smi:2355|AV-procd|sdf|9388|dock3
  -GOLD-   2272013 23D 1   1.00000     0.00000
 Structure written by MMmdl.
 48 49  0  0  0  0  0  0  0  0  1 V2000
  153.6059  141.1506  160.2989 C   0  0  0  0  0  0  0  0  0  0  0  0
  152.7946  142.2900  159.7187 C   0  0  0  0  0  0  0  0  0  0  0  0
  152.7678  143.5513  160.3442 C   0  0  0  0  0  0  0  0  0  0  0  0
  151.9939  144.5694  159.7537 C   0  0  0  0  0  0  0  0  0  0  0  0
  151.9221  145.9506  160.3702 C   0  0  0  0  0  0  0  0  0  0  0  0
  151.2806  144.3901  158.6214 N   0  0  0  0  0  0  0  0  0  0  0  0
  151.2980  143.1791  158.0109 C   0  0  0  0  0  0  0  0  0  0  0  0
  150.5801  142.8860  156.8211 N   0  0  0  0  0  0  0  0  0  0  0  0
  150.1847  141.6850  156.3635 C   0  0  0  0  0  0  0  0  0  0  0  0
  150.3673  140.6099  156.9358 O   0  0  0  0  0  0  0  0  0  0  0  0
  149.5572  141.8013  155.1841 N   0  0  0  0  0  0  0  0  0  0  0  0
  149.0306  140.6971  154.3817 C   0  0  1  0  0  0  0  0  0  0  0  0
  149.9970  139.5007  154.4472 C   0  0  0  0  0  0  0  0  0  0  0  0
  147.5604  140.3695  154.7930 C   0  0  1  0  0  0  0  0  0  0  0  0
  146.6626  141.6154  154.5757 C   0  0  0  0  0  0  0  0  0  0  0  0
  147.0139  139.1530  154.1396 N   0  0  0  0  0  0  0  0  0  0  0  0
  145.7464  138.7012  154.7277 C   0  0  0  0  0  0  0  0  0  0  0  0
  145.1746  137.4548  154.0307 C   0  0  0  0  0  0  0  0  0  0  0  0
  145.0016  137.7177  152.6454 O   0  0  0  0  0  0  0  0  0  0  0  0
  146.2225  138.0811  152.0168 C   0  0  0  0  0  0  0  0  0  0  0  0
  146.8055  139.3314  152.6979 C   0  0  0  0  0  0  0  0  0  0  0  0
  152.0495  142.1045  158.5368 C   0  0  0  0  0  0  0  0  0  0  0  0
  154.1000  141.4455  161.2252 H   0  0  0  0  0  0  0  0  0  0  0  0
  154.3706  140.8331  159.5899 H   0  0  0  0  0  0  0  0  0  0  0  0
  152.9605  140.2985  160.5135 H   0  0  0  0  0  0  0  0  0  0  0  0
  153.3252  143.7337  161.2515 H   0  0  0  0  0  0  0  0  0  0  0  0
  152.4294  145.9800  161.3348 H   0  0  0  0  0  0  0  0  0  0  0  0
  150.8836  146.2461  160.5232 H   0  0  0  0  0  0  0  0  0  0  0  0
  152.3947  146.6815  159.7137 H   0  0  0  0  0  0  0  0  0  0  0  0
  150.3537  143.6822  156.2439 H   0  0  0  0  0  0  0  0  0  0  0  0
  149.4576  142.7260  154.7921 H   0  0  0  0  0  0  0  0  0  0  0  0
  149.0347  140.9694  153.3273 H   0  0  0  0  0  0  0  0  0  0  0  0
  149.5837  138.6318  153.9344 H   0  0  0  0  0  0  0  0  0  0  0  0
  150.2332  139.2106  155.4706 H   0  0  0  0  0  0  0  0  0  0  0  0
  150.9426  139.7459  153.9623 H   0  0  0  0  0  0  0  0  0  0  0  0
  147.5773  140.1840  155.8681 H   0  0  0  0  0  0  0  0  0  0  0  0
  147.0814  142.5124  155.0275 H   0  0  0  0  0  0  0  0  0  0  0  0
  145.6842  141.5042  155.0404 H   0  0  0  0  0  0  0  0  0  0  0  0
  146.5086  141.8195  153.5157 H   0  0  0  0  0  0  0  0  0  0  0  0
  145.8789  138.4356  155.7744 H   0  0  0  0  0  0  0  0  0  0  0  0
  145.0125  139.5075  154.6923 H   0  0  0  0  0  0  0  0  0  0  0  0
  145.8368  136.5983  154.1677 H   0  0  0  0  0  0  0  0  0  0  0  0
  144.2117  137.1867  154.4652 H   0  0  0  0  0  0  0  0  0  0  0  0
  146.9280  137.2499  152.0646 H   0  0  0  0  0  0  0  0  0  0  0  0
  146.0327  138.2789  150.9617 H   0  0  0  0  0  0  0  0  0  0  0  0
  146.1433  140.1807  152.5225 H   0  0  0  0  0  0  0  0  0  0  0  0
  147.7460  139.5543  152.1978 H   0  0  0  0  0  0  0  0  0  0  0  0
  152.0555  141.1444  158.0408 H   0  0  0  0  0  0  0  0  0  0  0  0
  1  2  1  0  0  0  0
  1 23  1  0  0  0  0
  1 24  1  0  0  0  0
  1 25  1  0  0  0  0
  2 22  1  0  0  0  0
  2  3  2  0  0  0  0
  3  4  1  0  0  0  0
  3 26  1  0  0  0  0
  4  5  1  0  0  0  0
  4  6  2  0  0  0  0
  5 27  1  0  0  0  0
  5 28  1  0  0  0  0
  5 29  1  0  0  0  0
  6  7  1  0  0  0  0
  7  8  1  0  0  0  0
  7 22  2  0  0  0  0
  8  9  1  0  0  0  0
  8 30  1  0  0  0  0
  9 10  2  0  0  0  0
  9 11  1  0  0  0  0
 11 12  1  0  0  0  0
 11 31  1  0  0  0  0
 12 13  1  0  0  0  0
 12 14  1  0  0  0  0
 12 32  1  0  0  0  0
 13 33  1  0  0  0  0
 13 34  1  0  0  0  0
 13 35  1  0  0  0  0
 14 15  1  0  0  0  0
 14 16  1  0  0  0  0
 14 36  1  0  0  0  0
 15 37  1  0  0  0  0
 15 38  1  0  0  0  0
 15 39  1  0  0  0  0
 16 21  1  0  0  0  0
 16 17  1  0  0  0  0
 17 18  1  0  0  0  0
 17 40  1  0  0  0  0
 17 41  1  0  0  0  0
 18 19  1  0  0  0  0
 18 42  1  0  0  0  0
 18 43  1  0  0  0  0
 19 20  1  0  0  0  0
 20 21  1  0  0  0  0
 20 44  1  0  0  0  0
 20 45  1  0  0  0  0
 21 46  1  0  0  0  0
 21 47  1  0  0  0  0
 22 48  1  0  0  0  0
M  END
> <s_m_source_file>
AV-unprocessed.smi

> <i_m_source_file_index>
2355

> <i_lp_mmshare_version>
43012

> <i_f3d_flags>
0

> <s_epik_input>
W0NIM11jMVtjSF1jKFtDSDNdKW5jKFtjSF0xKVtOSF1DKD1PKVtOSF1bQ0BIXShbQ0gzXSlbQ0BIXShbQ0gzXSlOMltDSDJdW0NIMl1PW0NIMl1bQ0gyXTI=

> <s_epik_cmdline>
J2VwaWtfcHl0aG9uJywgJy1waCcsICc3LjAnLCAnLXRuJywgJzgnLCAnLW1hJywgJzIwMCcsICctbWV0YWxfYmluZGluZycsICctaW1hZScsICc8aW5maWxlLm1hZT4nLCAnLW9tYWUnLCAnPG91dGZpbGUubWFlPic=

> <r_epik_Ionization_Penalty>
0.266238

> <r_epik_Ionization_Penalty_Charging>
0

> <r_epik_Ionization_Penalty_Neutral>
0.266238

> <r_epik_State_Penalty>
0.257924

> <r_epik_Charging_Adjusted_Penalty>
0.257924

> <i_epik_Tot_Q>
0

> <i_epik_Tot_abs_Q>
0

> <r_epik_Metal_State_Penalty>
0.257904

> <b_epik_Metal_Only>
0

> <s_lp_Force_Field>
OPLS_2005

> <r_lp_Energy>
36.8304

> <b_lp_Chiralities_Consistent>
1

> <s_lp_Variant>
AV-unprocessed.smi:2355-4

> <Gold.Version>
5.8.1

> <Gold.Id.Protein>
6NUR|6NUR_protein|mol2

> <Gold.PLP.Fitness>
46.0199

> <Gold.PLP.PLP>
-43.0877

> <Gold.PLP.part.hbond>
-2.0000

> <Gold.PLP.part.metal>
0.0000

> <Gold.PLP.part.buried>
-5.8029

> <Gold.PLP.part.nonpolar>
-38.3591

> <Gold.PLP.part.repulsive>
1.1362

> <Gold.PLP.ligand.clash>
0.0131

> <Gold.PLP.ligand.torsion>
0.5670

> <Gold.PLP.Chemscore.Hbond>
1.3289

> <Gold.PLP.Chemscore.CHOScore>
0.0000

> <Gold.PLP.Chemscore.Metal>
0.0000

> <Gold.Chemscore.Hbonds>
donor molecule, donor type, donor heavy atom, donor atom, acceptor molecule, acceptor atom, score
      L1  H     8    30       P1  8028  0.85
      L1  H    11    31       P1  8028  0.34

> <Gold.PLP.Chemscore.Internal.Correction>
0.0926

> <Gold.Rescore>
     Score         DG    S(hbond)    S(metal)    S(lipo)     H(rot)  DE(clash)    DE(int)     intcor
     16.90     -20.75       1.74        0.00     111.63       1.40       0.35       3.50       ----

> <Gold.Chemscore.Fitness>
16.9037

> <Gold.Chemscore.DG>
-20.7536

> <Gold.Chemscore.ZeroCoef>
-5.4800

> <Gold.Chemscore.Hbond>
1.7366

> <Gold.Chemscore.Metal>
0.0000

> <Gold.Chemscore.Lipo>
111.6340

> <Gold.Chemscore.Internal_Hbond>
0.0000

> <Gold.Chemscore.DEClash>
0.3539

> <Gold.Chemscore.DEInternal>
3.4960

> <Gold.Chemscore.Rot>
1.4015

> <Gold.Chemscore.Internal.Correction>
   9.000000E+99

> <Gold.Chemscore.Hbonds>
donor molecule, donor type, donor heavy atom, donor atom, acceptor molecule, acceptor atom, score
      L1  H     8    30       P1  8028  0.85
      L1  H    11    31       P1  8028  0.32

> <Gold.Chemscore.Hbond.Weighted>
-5.8002

> <Gold.Chemscore.Metal.Weighted>
-0.0000

> <Gold.Chemscore.Lipo.Weighted>
-13.0612

> <Gold.Chemscore.Internal_Hbond.Weighted>
0.0000

> <Gold.Chemscore.DEClash.Weighted>
0.3539

> <Gold.Chemscore.DEInternal.Weighted>
3.4960

> <Gold.Chemscore.Rot.Weighted>
3.5878

> <Gold.Chemscore.Internal.Correction.Weighted>
   9.000000E+99

> <Gold.Protein.RotatedTorsions>
[ 6907 6896 6895 6894 ] final -108.17 input  -60.11 | X-H torsion
[ 7974 7965 7964 7962 ] final -144.07 input  175.53 | X-H torsion
[ 8008 7997 7996 7995 ] final -139.45 input   59.86 | X-H torsion
[ 10167 10162 10161 10158 ] final  -69.48 input  -65.29 | X-H torsion
[ 10718 10713 10712 10709 ] final   29.94 input   66.30 | X-H torsion
[ 10763 10752 10751 10750 ] final  -42.91 input  -60.55 | X-H torsion
[ 11005 11000 10999 10996 ] final -126.80 input  -57.11 | X-H torsion

> <Gold.Protein.ActiveResidues>
 VAL166  LYS551  ARG553  GLY616  TRP617  ASP618  TYR619  PRO620  LYS621  CYS622 
 ASP623  PHE694  ASN695  SER759  ASP760  ASP761  ALA762  ILE779  LEU786  VAL792 
 PHE793  MET794  SER795  GLU796  ALA797  LYS798  CYS799  TRP800  GLU811  SER814 

> <Gold.Protein.RotatedAtoms>
  150.7486  133.9717  159.3547 H   0  0  0  0  0  0  0  0  0  0  0  0  # atno 6907 bound_to 6896
  151.7652  135.0798  160.0361 H   0  0  0  0  0  0  0  0  0  0  0  0  # atno 6908 bound_to 6896
  152.3376  133.5993  159.5890 H   0  0  0  0  0  0  0  0  0  0  0  0  # atno 6909 bound_to 6896
  144.8323  140.5755  143.5506 H   0  0  0  0  0  0  0  0  0  0  0  0  # atno 7974 bound_to 7965
  155.4451  140.0534  157.3006 H   0  0  0  0  0  0  0  0  0  0  0  0  # atno 8008 bound_to 7997
  154.4801  140.2078  155.9740 H   0  0  0  0  0  0  0  0  0  0  0  0  # atno 8009 bound_to 7997
  156.1193  140.3191  155.8189 H   0  0  0  0  0  0  0  0  0  0  0  0  # atno 8010 bound_to 7997
  140.5427  143.2314  151.7058 H   0  0  0  0  0  0  0  0  0  0  0  0  # atno 10167 bound_to 10162
  157.2531  130.7124  149.6415 H   0  0  0  0  0  0  0  0  0  0  0  0  # atno 10718 bound_to 10713
  153.9868  135.6710  153.4752 H   0  0  0  0  0  0  0  0  0  0  0  0  # atno 10763 bound_to 10752
  153.0723  135.4967  154.8327 H   0  0  0  0  0  0  0  0  0  0  0  0  # atno 10764 bound_to 10752
  154.7132  135.3101  154.9126 H   0  0  0  0  0  0  0  0  0  0  0  0  # atno 10765 bound_to 10752
  140.9652  134.0881  157.3927 H   0  0  0  0  0  0  0  0  0  0  0  0  # atno 11005 bound_to 11000
  145.4868  139.1491  143.3731 LP  0  0  0  0  0  0  0  0  0  0  0  0  # atno 17320 bound_to 7965
  146.2625  140.5005  142.8847 LP  0  0  0  0  0  0  0  0  0  0  0  0  # atno 17321 bound_to 7965
  139.4995  144.3943  152.0248 LP  0  0  0  0  0  0  0  0  0  0  0  0  # atno 17342 bound_to 10162
  140.3053  144.3600  150.6049 LP  0  0  0  0  0  0  0  0  0  0  0  0  # atno 17343 bound_to 10162
  155.9665  130.4421  150.5368 LP  0  0  0  0  0  0  0  0  0  0  0  0  # atno 17370 bound_to 10713
  157.3256  131.0690  151.1899 LP  0  0  0  0  0  0  0  0  0  0  0  0  # atno 17371 bound_to 10713
  139.8892  135.0103  156.6665 LP  0  0  0  0  0  0  0  0  0  0  0  0  # atno 17394 bound_to 11000
  140.7410  133.8978  155.8278 LP  0  0  0  0  0  0  0  0  0  0  0  0  # atno 17395 bound_to 11000

$$$$
