AV-unprocessed.smi:756|AV-procd|sdf|3613|dock5
  -GOLD-   22720 1 13D 1   1.00000     0.00000
 Structure written by MMmdl.
 42 43  0  0  0  0  0  0  0  0  1 V2000
  150.5500  145.0891  159.7853 C   0  0  0  0  0  0  0  0  0  0  0  0
  151.4683  144.0236  160.3580 C   0  0  0  0  0  0  0  0  0  0  0  0
  151.9203  143.9798  161.6157 C   0  0  0  0  0  0  0  0  0  0  0  0
  152.9244  142.5844  161.9242 S   0  0  0  0  0  0  0  0  0  0  0  0
  152.6994  142.0357  160.2246 C   0  0  0  0  0  0  0  0  0  0  0  0
  153.2079  141.0064  159.7825 O   0  0  0  0  0  0  0  0  0  0  0  0
  151.8902  142.9539  159.5562 N   0  0  0  0  0  0  0  0  0  0  0  0
  151.5231  142.8031  158.1419 C   0  0  0  0  0  0  0  0  0  0  0  0
  150.9677  141.4124  157.8081 C   0  0  0  0  0  0  0  0  0  0  0  0
  150.9676  140.5101  158.6468 O   0  0  0  0  0  0  0  0  0  0  0  0
  150.4784  141.2598  156.5703 N   0  0  0  0  0  0  0  0  0  0  0  0
  149.8957  140.0248  156.0563 C   0  0  0  0  0  0  0  0  0  0  0  0
  149.1094  140.2341  154.7370 C   0  0  2  0  0  0  0  0  0  0  0  0
  148.4224  138.9345  154.2621 C   0  0  0  0  0  0  0  0  0  0  0  0
  150.0430  140.6169  153.7429 O   0  0  0  0  0  0  0  0  0  0  0  0
  148.0678  141.3784  154.9086 C   0  0  0  0  0  0  0  0  0  0  0  0
  147.0186  141.1809  156.0125 C   0  0  0  0  0  0  0  0  0  0  0  0
  145.9471  142.2290  155.7091 C   0  0  0  0  0  0  0  0  0  0  0  0
  145.9575  142.4114  154.1857 C   0  0  0  0  0  0  0  0  0  0  0  0
  147.2163  141.7012  153.6679 C   0  0  0  0  0  0  0  0  0  0  0  0
  150.0991  145.6732  160.5880 H   0  0  0  0  0  0  0  0  0  0  0  0
  149.7390  144.6475  159.2060 H   0  0  0  0  0  0  0  0  0  0  0  0
  151.1106  145.7703  159.1452 H   0  0  0  0  0  0  0  0  0  0  0  0
  151.7087  144.6939  162.3979 H   0  0  0  0  0  0  0  0  0  0  0  0
  150.8008  143.5604  157.8379 H   0  0  0  0  0  0  0  0  0  0  0  0
  152.4042  142.9837  157.5235 H   0  0  0  0  0  0  0  0  0  0  0  0
  150.5007  142.0502  155.9424 H   0  0  0  0  0  0  0  0  0  0  0  0
  150.7030  139.3111  155.8818 H   0  0  0  0  0  0  0  0  0  0  0  0
  149.2570  139.5914  156.8275 H   0  0  0  0  0  0  0  0  0  0  0  0
  147.7013  138.5814  155.0001 H   0  0  0  0  0  0  0  0  0  0  0  0
  149.1372  138.1296  154.0895 H   0  0  0  0  0  0  0  0  0  0  0  0
  147.8880  139.0787  153.3233 H   0  0  0  0  0  0  0  0  0  0  0  0
  149.6835  140.4025  152.8957 H   0  0  0  0  0  0  0  0  0  0  0  0
  148.6166  142.2883  155.1588 H   0  0  0  0  0  0  0  0  0  0  0  0
  146.5773  140.1855  155.9528 H   0  0  0  0  0  0  0  0  0  0  0  0
  147.4304  141.3027  157.0145 H   0  0  0  0  0  0  0  0  0  0  0  0
  144.9667  141.9367  156.0864 H   0  0  0  0  0  0  0  0  0  0  0  0
  146.2138  143.1720  156.1884 H   0  0  0  0  0  0  0  0  0  0  0  0
  145.0644  141.9799  153.7325 H   0  0  0  0  0  0  0  0  0  0  0  0
  145.9709  143.4715  153.9302 H   0  0  0  0  0  0  0  0  0  0  0  0
  147.7591  142.3136  152.9472 H   0  0  0  0  0  0  0  0  0  0  0  0
  146.9207  140.7854  153.1548 H   0  0  0  0  0  0  0  0  0  0  0  0
  1  2  1  0  0  0  0
  1 21  1  0  0  0  0
  1 22  1  0  0  0  0
  1 23  1  0  0  0  0
  2  7  1  0  0  0  0
  2  3  2  0  0  0  0
  3  4  1  0  0  0  0
  3 24  1  0  0  0  0
  4  5  1  0  0  0  0
  5  6  2  0  0  0  0
  5  7  1  0  0  0  0
  7  8  1  0  0  0  0
  8  9  1  0  0  0  0
  8 25  1  0  0  0  0
  8 26  1  0  0  0  0
  9 10  2  0  0  0  0
  9 11  1  0  0  0  0
 11 12  1  0  0  0  0
 11 27  1  0  0  0  0
 12 13  1  0  0  0  0
 12 28  1  0  0  0  0
 12 29  1  0  0  0  0
 13 14  1  0  0  0  0
 13 15  1  0  0  0  0
 13 16  1  0  0  0  0
 14 30  1  0  0  0  0
 14 31  1  0  0  0  0
 14 32  1  0  0  0  0
 15 33  1  0  0  0  0
 16 20  1  0  0  0  0
 16 17  1  0  0  0  0
 16 34  1  0  0  0  0
 17 18  1  0  0  0  0
 17 35  1  0  0  0  0
 17 36  1  0  0  0  0
 18 19  1  0  0  0  0
 18 37  1  0  0  0  0
 18 38  1  0  0  0  0
 19 20  1  0  0  0  0
 19 39  1  0  0  0  0
 19 40  1  0  0  0  0
 20 41  1  0  0  0  0
 20 42  1  0  0  0  0
M  END
> <s_m_source_file>
AV-unprocessed.smi

> <i_m_source_file_index>
756

> <i_lp_mmshare_version>
43012

> <i_f3d_flags>
0

> <s_epik_input>
W0NIM11jMVtjSF1zYyg9TyluMVtDSDJdQyg9TylbTkhdW0NIMl1bQ0BAXShbQ0gzXSkoW09IXSlbQ0hdMltDSDJdW0NIMl1bQ0gyXVtDSDJdMg==

> <s_epik_cmdline>
J2VwaWtfcHl0aG9uJywgJy1waCcsICc3LjAnLCAnLXRuJywgJzgnLCAnLW1hJywgJzIwMCcsICctbWV0YWxfYmluZGluZycsICctaW1hZScsICc8aW5maWxlLm1hZT4nLCAnLW9tYWUnLCAnPG91dGZpbGUubWFlPic=

> <r_lp_tautomer_probability>
1

> <r_epik_Ionization_Penalty>
1.53576e-06

> <r_epik_Ionization_Penalty_Charging>
1.31044e-06

> <r_epik_Ionization_Penalty_Neutral>
2.25323e-07

> <r_epik_State_Penalty>
-0

> <r_epik_Charging_Adjusted_Penalty>
1.31044e-06

> <i_epik_Tot_Q>
0

> <i_epik_Tot_abs_Q>
0

> <r_epik_Metal_State_Penalty>
-0

> <b_epik_Metal_Only>
0

> <s_lp_Force_Field>
OPLS_2005

> <r_lp_Energy>
32.7074

> <b_lp_Chiralities_Consistent>
1

> <s_lp_Variant>
AV-unprocessed.smi:756-2

> <Gold.Version>
5.8.1

> <Gold.Id.Protein>
6NUR|6NUR_protein|mol2

> <Gold.PLP.Fitness>
50.7617

> <Gold.PLP.PLP>
-46.2756

> <Gold.PLP.part.hbond>
-1.5380

> <Gold.PLP.part.metal>
0.0000

> <Gold.PLP.part.buried>
-7.4890

> <Gold.PLP.part.nonpolar>
-36.7029

> <Gold.PLP.part.repulsive>
0.0599

> <Gold.PLP.ligand.clash>
0.0000

> <Gold.PLP.ligand.torsion>
0.2576

> <Gold.PLP.Chemscore.Hbond>
1.6560

> <Gold.PLP.Chemscore.CHOScore>
0.0000

> <Gold.PLP.Chemscore.Metal>
0.0000

> <Gold.Chemscore.Hbonds>
donor molecule, donor type, donor heavy atom, donor atom, acceptor molecule, acceptor atom, score
      L1  H    15    33       P1  7957  1.00
      P1  H  7989  7998       L1    15  0.56

> <Gold.PLP.Chemscore.Internal.Correction>
0.0333

> <Gold.Rescore>
     Score         DG    S(hbond)    S(metal)    S(lipo)     H(rot)  DE(clash)    DE(int)     intcor
     14.08     -14.54       1.23        0.00      94.09       2.37       0.15       0.30       ----

> <Gold.Chemscore.Fitness>
14.0835

> <Gold.Chemscore.DG>
-14.5357

> <Gold.Chemscore.ZeroCoef>
-5.4800

> <Gold.Chemscore.Hbond>
1.2333

> <Gold.Chemscore.Metal>
0.0000

> <Gold.Chemscore.Lipo>
94.0861

> <Gold.Chemscore.Internal_Hbond>
0.0000

> <Gold.Chemscore.DEClash>
0.1545

> <Gold.Chemscore.DEInternal>
0.2977

> <Gold.Chemscore.Rot>
2.3717

> <Gold.Chemscore.Internal.Correction>
   9.000000E+99

> <Gold.Chemscore.Hbonds>
donor molecule, donor type, donor heavy atom, donor atom, acceptor molecule, acceptor atom, score
      L1  H    15    33       P1  7957  0.99
      P1  H  7989  7998       L1    15  0.25

> <Gold.Chemscore.Hbond.Weighted>
-4.1191

> <Gold.Chemscore.Metal.Weighted>
-0.0000

> <Gold.Chemscore.Lipo.Weighted>
-11.0081

> <Gold.Chemscore.Internal_Hbond.Weighted>
0.0000

> <Gold.Chemscore.DEClash.Weighted>
0.1545

> <Gold.Chemscore.DEInternal.Weighted>
0.2977

> <Gold.Chemscore.Rot.Weighted>
6.0715

> <Gold.Chemscore.Internal.Correction.Weighted>
   9.000000E+99

> <Gold.Protein.RotatedTorsions>
[ 6907 6896 6895 6894 ] final -111.01 input  -60.11 | X-H torsion
[ 7974 7965 7964 7962 ] final  -36.19 input  175.53 | X-H torsion
[ 8008 7997 7996 7995 ] final -177.30 input   59.86 | X-H torsion
[ 10167 10162 10161 10158 ] final  -97.89 input  -65.29 | X-H torsion
[ 10718 10713 10712 10709 ] final  139.34 input   66.30 | X-H torsion
[ 10763 10752 10751 10750 ] final  -72.10 input  -60.55 | X-H torsion
[ 11005 11000 10999 10996 ] final   47.02 input  -57.11 | X-H torsion

> <Gold.Protein.ActiveResidues>
 VAL166  LYS551  ARG553  GLY616  TRP617  ASP618  TYR619  PRO620  LYS621  CYS622 
 ASP623  PHE694  ASN695  SER759  ASP760  ASP761  ALA762  ILE779  LEU786  VAL792 
 PHE793  MET794  SER795  GLU796  ALA797  LYS798  CYS799  TRP800  GLU811  SER814 

> <Gold.Protein.RotatedAtoms>
  150.7662  133.9298  159.3423 H   0  0  0  0  0  0  0  0  0  0  0  0  # atno 6907 bound_to 6896
  151.7195  135.0895  160.0291 H   0  0  0  0  0  0  0  0  0  0  0  0  # atno 6908 bound_to 6896
  152.3659  133.6318  159.6086 H   0  0  0  0  0  0  0  0  0  0  0  0  # atno 6909 bound_to 6896
  146.0682  140.6249  142.8965 H   0  0  0  0  0  0  0  0  0  0  0  0  # atno 7974 bound_to 7965
  156.0052  140.1229  157.0508 H   0  0  0  0  0  0  0  0  0  0  0  0  # atno 8008 bound_to 7997
  154.4256  140.1098  156.5822 H   0  0  0  0  0  0  0  0  0  0  0  0  # atno 8009 bound_to 7997
  155.6156  140.3472  155.4638 H   0  0  0  0  0  0  0  0  0  0  0  0  # atno 8010 bound_to 7997
  140.2787  143.3296  152.0463 H   0  0  0  0  0  0  0  0  0  0  0  0  # atno 10167 bound_to 10162
  157.4154  131.1033  151.0410 H   0  0  0  0  0  0  0  0  0  0  0  0  # atno 10718 bound_to 10713
  154.4409  135.5941  153.6129 H   0  0  0  0  0  0  0  0  0  0  0  0  # atno 10763 bound_to 10752
  152.9805  135.5998  154.3723 H   0  0  0  0  0  0  0  0  0  0  0  0  # atno 10764 bound_to 10752
  154.3573  135.2841  155.2318 H   0  0  0  0  0  0  0  0  0  0  0  0  # atno 10765 bound_to 10752
  140.1317  134.4697  155.8516 H   0  0  0  0  0  0  0  0  0  0  0  0  # atno 11005 bound_to 11000
  144.7215  140.4390  143.7004 LP  0  0  0  0  0  0  0  0  0  0  0  0  # atno 17320 bound_to 7965
  145.6438  139.1554  143.2900 LP  0  0  0  0  0  0  0  0  0  0  0  0  # atno 17321 bound_to 7965
  139.4968  144.6607  151.6471 LP  0  0  0  0  0  0  0  0  0  0  0  0  # atno 17342 bound_to 10162
  140.5830  143.9913  150.6279 LP  0  0  0  0  0  0  0  0  0  0  0  0  # atno 17343 bound_to 10162
  157.1359  130.6122  149.5542 LP  0  0  0  0  0  0  0  0  0  0  0  0  # atno 17370 bound_to 10713
  155.9863  130.4898  150.7075 LP  0  0  0  0  0  0  0  0  0  0  0  0  # atno 17371 bound_to 10713
  141.2171  133.6798  156.7081 LP  0  0  0  0  0  0  0  0  0  0  0  0  # atno 17394 bound_to 11000
  140.2834  134.8298  157.3953 LP  0  0  0  0  0  0  0  0  0  0  0  0  # atno 17395 bound_to 11000

$$$$
