AV-unprocessed.smi:2281|AV-procd|sdf|9194|dock2
  -GOLD-   2272012413D 1   1.00000     0.00000
 Structure written by MMmdl.
 40 41  0  0  0  0  0  0  0  0  1 V2000
  147.0755  140.6268  152.8227 C   0  0  0  0  0  0  0  0  0  0  0  0
  147.8196  140.3342  154.1134 C   0  0  0  0  0  0  0  0  0  0  0  0
  148.5380  139.1360  154.1382 N   0  0  0  0  0  0  0  0  0  0  0  0
  149.2206  138.8152  155.1880 C   0  0  0  0  0  0  0  0  0  0  0  0
  149.2680  139.6451  156.3236 N   0  0  0  0  0  0  0  0  0  0  0  0
  150.1013  139.1887  157.4572 C   0  0  0  0  0  0  0  0  0  0  0  0
  151.6293  139.4571  157.2985 C   0  0  2  0  0  0  0  0  0  0  0  0
  151.9376  139.9043  155.8537 C   0  0  0  0  0  0  0  0  0  0  0  0
  152.2820  138.2019  157.3745 O   0  0  0  0  0  0  0  0  0  0  0  0
  152.1736  140.4661  158.3215 C   0  0  0  0  0  0  0  0  0  0  0  0
  153.0693  140.0631  159.3403 C   0  0  0  0  0  0  0  0  0  0  0  0
  153.5365  140.9906  160.2899 C   0  0  0  0  0  0  0  0  0  0  0  0
  153.1152  142.3316  160.2361 C   0  0  0  0  0  0  0  0  0  0  0  0
  152.2203  142.7521  159.2294 C   0  0  0  0  0  0  0  0  0  0  0  0
  151.7364  144.1924  159.1559 C   0  0  0  0  0  0  0  0  0  0  0  0
  152.1098  144.7338  157.9964 F   0  0  0  0  0  0  0  0  0  0  0  0
  150.4060  144.2139  159.2309 F   0  0  0  0  0  0  0  0  0  0  0  0
  152.2313  144.9358  160.1461 F   0  0  0  0  0  0  0  0  0  0  0  0
  151.7543  141.8162  158.2828 C   0  0  0  0  0  0  0  0  0  0  0  0
  148.5555  140.8067  156.3981 C   0  0  0  0  0  0  0  0  0  0  0  0
  148.5522  141.5008  157.4161 O   0  0  0  0  0  0  0  0  0  0  0  0
  147.8020  141.1699  155.1871 C   0  0  0  0  0  0  0  0  0  0  0  0
  147.0436  142.4912  155.2155 C   0  0  0  0  0  0  0  0  0  0  0  0
  146.0064  140.7270  153.0122 H   0  0  0  0  0  0  0  0  0  0  0  0
  147.2115  139.8257  152.0951 H   0  0  0  0  0  0  0  0  0  0  0  0
  147.4391  141.5514  152.3739 H   0  0  0  0  0  0  0  0  0  0  0  0
  149.8028  137.8943  155.2509 H   0  0  0  0  0  0  0  0  0  0  0  0
  149.7314  139.6032  158.3974 H   0  0  0  0  0  0  0  0  0  0  0  0
  149.9587  138.1134  157.5831 H   0  0  0  0  0  0  0  0  0  0  0  0
  151.4374  140.8368  155.5935 H   0  0  0  0  0  0  0  0  0  0  0  0
  151.6072  139.1598  155.1277 H   0  0  0  0  0  0  0  0  0  0  0  0
  153.0080  140.0549  155.7050 H   0  0  0  0  0  0  0  0  0  0  0  0
  153.1976  138.3484  157.5571 H   0  0  0  0  0  0  0  0  0  0  0  0
  153.3992  139.0376  159.4150 H   0  0  0  0  0  0  0  0  0  0  0  0
  154.2174  140.6703  161.0648 H   0  0  0  0  0  0  0  0  0  0  0  0
  153.4803  143.0285  160.9758 H   0  0  0  0  0  0  0  0  0  0  0  0
  151.0523  142.1454  157.5319 H   0  0  0  0  0  0  0  0  0  0  0  0
  147.7369  143.3178  155.3743 H   0  0  0  0  0  0  0  0  0  0  0  0
  146.3209  142.4935  156.0323 H   0  0  0  0  0  0  0  0  0  0  0  0
  146.4976  142.6938  154.2955 H   0  0  0  0  0  0  0  0  0  0  0  0
  1  2  1  0  0  0  0
  1 24  1  0  0  0  0
  1 25  1  0  0  0  0
  1 26  1  0  0  0  0
  2 22  2  0  0  0  0
  2  3  1  0  0  0  0
  3  4  2  0  0  0  0
  4  5  1  0  0  0  0
  4 27  1  0  0  0  0
  5  6  1  0  0  0  0
  5 20  1  0  0  0  0
  6  7  1  0  0  0  0
  6 28  1  0  0  0  0
  6 29  1  0  0  0  0
  7  8  1  0  0  0  0
  7  9  1  0  0  0  0
  7 10  1  0  0  0  0
  8 30  1  0  0  0  0
  8 31  1  0  0  0  0
  8 32  1  0  0  0  0
  9 33  1  0  0  0  0
 10 19  1  0  0  0  0
 10 11  2  0  0  0  0
 11 12  1  0  0  0  0
 11 34  1  0  0  0  0
 12 13  2  0  0  0  0
 12 35  1  0  0  0  0
 13 14  1  0  0  0  0
 13 36  1  0  0  0  0
 14 15  1  0  0  0  0
 14 19  2  0  0  0  0
 15 16  1  0  0  0  0
 15 17  1  0  0  0  0
 15 18  1  0  0  0  0
 19 37  1  0  0  0  0
 20 21  2  0  0  0  0
 20 22  1  0  0  0  0
 22 23  1  0  0  0  0
 23 38  1  0  0  0  0
 23 39  1  0  0  0  0
 23 40  1  0  0  0  0
M  END
> <s_m_source_file>
AV-unprocessed.smi

> <i_m_source_file_index>
2281

> <i_lp_mmshare_version>
43012

> <i_f3d_flags>
0

> <s_epik_input>
W0NIM11jMW5bY0hdbihjKD1PKWMxW0NIM10pW0NIMl1bQ0BAXShbQ0gzXSkoW09IXSljMltjSF1bY0hdW2NIXWMoQyhGKShGKUYpW2NIXTI=

> <s_epik_cmdline>
J2VwaWtfcHl0aG9uJywgJy1waCcsICc3LjAnLCAnLXRuJywgJzgnLCAnLW1hJywgJzIwMCcsICctbWV0YWxfYmluZGluZycsICctaW1hZScsICc8aW5maWxlLm1hZT4nLCAnLW9tYWUnLCAnPG91dGZpbGUubWFlPic=

> <r_lp_tautomer_probability>
1

> <r_epik_Ionization_Penalty>
5.68222e-05

> <r_epik_Ionization_Penalty_Charging>
9.07816e-08

> <r_epik_Ionization_Penalty_Neutral>
5.67314e-05

> <r_epik_State_Penalty>
-0

> <r_epik_Charging_Adjusted_Penalty>
9.07816e-08

> <i_epik_Tot_Q>
0

> <i_epik_Tot_abs_Q>
0

> <r_epik_Metal_State_Penalty>
-0

> <b_epik_Metal_Only>
0

> <s_lp_Force_Field>
OPLS_2005

> <r_lp_Energy>
21.2776

> <b_lp_Chiralities_Consistent>
1

> <s_lp_Variant>
AV-unprocessed.smi:2281-2

> <Gold.Version>
5.8.1

> <Gold.Id.Protein>
6NUR|6NUR_protein|mol2

> <Gold.PLP.Fitness>
40.6536

> <Gold.PLP.PLP>
-43.3503

> <Gold.PLP.part.hbond>
0.0000

> <Gold.PLP.part.metal>
0.0000

> <Gold.PLP.part.buried>
-4.1907

> <Gold.PLP.part.nonpolar>
-39.4050

> <Gold.PLP.part.repulsive>
0.2580

> <Gold.PLP.ligand.clash>
0.0000

> <Gold.PLP.ligand.torsion>
1.5000

> <Gold.PLP.Chemscore.Hbond>
0.0000

> <Gold.PLP.Chemscore.CHOScore>
0.0000

> <Gold.PLP.Chemscore.Metal>
0.0000

> <Gold.PLP.Chemscore.Internal.Correction>
0.3033

> <Gold.Rescore>
     Score         DG    S(hbond)    S(metal)    S(lipo)     H(rot)  DE(clash)    DE(int)     intcor
      9.70     -12.45       0.00        0.00     105.19       2.09       0.19       2.56       ----

> <Gold.Chemscore.Fitness>
9.7002

> <Gold.Chemscore.DG>
-12.4474

> <Gold.Chemscore.ZeroCoef>
-5.4800

> <Gold.Chemscore.Hbond>
0.0000

> <Gold.Chemscore.Metal>
0.0000

> <Gold.Chemscore.Lipo>
105.1931

> <Gold.Chemscore.Internal_Hbond>
0.0000

> <Gold.Chemscore.DEClash>
0.1877

> <Gold.Chemscore.DEInternal>
2.5596

> <Gold.Chemscore.Rot>
2.0860

> <Gold.Chemscore.Internal.Correction>
   9.000000E+99

> <Gold.Chemscore.Hbond.Weighted>
-0.0000

> <Gold.Chemscore.Metal.Weighted>
-0.0000

> <Gold.Chemscore.Lipo.Weighted>
-12.3076

> <Gold.Chemscore.Internal_Hbond.Weighted>
0.0000

> <Gold.Chemscore.DEClash.Weighted>
0.1877

> <Gold.Chemscore.DEInternal.Weighted>
2.5596

> <Gold.Chemscore.Rot.Weighted>
5.3402

> <Gold.Chemscore.Internal.Correction.Weighted>
   9.000000E+99

> <Gold.Protein.RotatedTorsions>
[ 6907 6896 6895 6894 ] final  -12.99 input  -60.11 | X-H torsion
[ 7974 7965 7964 7962 ] final   32.35 input  175.53 | X-H torsion
[ 8008 7997 7996 7995 ] final  108.43 input   59.86 | X-H torsion
[ 10167 10162 10161 10158 ] final  -25.88 input  -65.29 | X-H torsion
[ 10718 10713 10712 10709 ] final  -46.37 input   66.30 | X-H torsion
[ 10763 10752 10751 10750 ] final  135.22 input  -60.55 | X-H torsion
[ 11005 11000 10999 10996 ] final  -54.76 input  -57.11 | X-H torsion

> <Gold.Protein.ActiveResidues>
 VAL166  LYS551  ARG553  GLY616  TRP617  ASP618  TYR619  PRO620  LYS621  CYS622 
 ASP623  PHE694  ASN695  SER759  ASP760  ASP761  ALA762  ILE779  LEU786  VAL792 
 PHE793  MET794  SER795  GLU796  ALA797  LYS798  CYS799  TRP800  GLU811  SER814 

> <Gold.Protein.RotatedAtoms>
  151.3619  135.0905  159.9436 H   0  0  0  0  0  0  0  0  0  0  0  0  # atno 6907 bound_to 6896
  152.5159  133.9250  159.7563 H   0  0  0  0  0  0  0  0  0  0  0  0  # atno 6908 bound_to 6896
  150.9646  133.6354  159.2777 H   0  0  0  0  0  0  0  0  0  0  0  0  # atno 6909 bound_to 6896
  146.1492  139.6537  142.9110 H   0  0  0  0  0  0  0  0  0  0  0  0  # atno 7974 bound_to 7965
  156.1902  140.3076  155.9317 H   0  0  0  0  0  0  0  0  0  0  0  0  # atno 8008 bound_to 7997
  155.3190  140.0455  157.3055 H   0  0  0  0  0  0  0  0  0  0  0  0  # atno 8009 bound_to 7997
  154.5443  140.2271  155.8598 H   0  0  0  0  0  0  0  0  0  0  0  0  # atno 8010 bound_to 7997
  140.7285  143.4226  151.0927 H   0  0  0  0  0  0  0  0  0  0  0  0  # atno 10167 bound_to 10162
  156.2189  130.4165  149.9018 H   0  0  0  0  0  0  0  0  0  0  0  0  # atno 10718 bound_to 10713
  153.8365  135.3097  155.3423 H   0  0  0  0  0  0  0  0  0  0  0  0  # atno 10763 bound_to 10752
  154.7951  135.4760  154.0145 H   0  0  0  0  0  0  0  0  0  0  0  0  # atno 10764 bound_to 10752
  153.1602  135.6859  153.8845 H   0  0  0  0  0  0  0  0  0  0  0  0  # atno 10765 bound_to 10752
  141.1041  133.6615  156.4368 H   0  0  0  0  0  0  0  0  0  0  0  0  # atno 11005 bound_to 11000
  145.4865  141.0438  143.2617 LP  0  0  0  0  0  0  0  0  0  0  0  0  # atno 17320 bound_to 7965
  144.7883  139.6381  143.7124 LP  0  0  0  0  0  0  0  0  0  0  0  0  # atno 17321 bound_to 7965
  139.7873  143.8268  152.3147 LP  0  0  0  0  0  0  0  0  0  0  0  0  # atno 17342 bound_to 10162
  139.8240  144.7283  150.9535 LP  0  0  0  0  0  0  0  0  0  0  0  0  # atno 17343 bound_to 10162
  156.6671  130.8805  151.3556 LP  0  0  0  0  0  0  0  0  0  0  0  0  # atno 17370 bound_to 10713
  157.7077  130.9404  150.0986 LP  0  0  0  0  0  0  0  0  0  0  0  0  # atno 17371 bound_to 10713
  140.4947  134.6543  157.5225 LP  0  0  0  0  0  0  0  0  0  0  0  0  # atno 17394 bound_to 11000
  139.9904  134.6994  155.9699 LP  0  0  0  0  0  0  0  0  0  0  0  0  # atno 17395 bound_to 11000

$$$$
