AV-unprocessed.smi:223|AV-procd|sdf|1706|dock10
  -GOLD-   2262020173D 1   1.00000     0.00000
 Structure written by MMmdl.
 47 50  0  0  0  0  0  0  0  0  1 V2000
  152.3920  142.4373  161.9327 C   0  0  0  0  0  0  0  0  0  0  0  0
  152.8339  141.3791  160.9151 C   0  0  1  0  0  0  0  0  0  0  0  0
  153.4704  140.2420  161.6002 C   0  0  0  0  0  0  0  0  0  0  0  0
  153.9690  139.3476  162.1392 N   0  0  0  0  0  0  0  0  0  0  0  0
  151.6532  140.9435  160.0226 C   0  0  0  0  0  0  0  0  0  0  0  0
  151.5770  141.6581  158.7481 N   0  0  0  0  0  0  0  0  0  0  0  0
  151.2972  140.9213  157.6380 C   0  0  0  0  0  0  0  0  0  0  0  0
  152.1590  139.9388  157.2598 N   0  0  0  0  0  0  0  0  0  0  0  0
  151.9248  139.2120  156.1642 C   0  0  0  0  0  0  0  0  0  0  0  0
  150.9025  139.2950  155.3125 N   0  0  0  0  0  0  0  0  0  0  0  0
  150.0254  140.2690  155.6870 C   0  0  0  0  0  0  0  0  0  0  0  0
  150.1457  141.1236  156.8208 C   0  0  0  0  0  0  0  0  0  0  0  0
  149.0571  141.9873  156.8700 N   0  0  0  0  0  0  0  0  0  0  0  0
  148.3430  141.6688  155.8260 C   0  0  0  0  0  0  0  0  0  0  0  0
  148.8443  140.6373  155.0656 N   0  0  0  0  0  0  0  0  0  0  0  0
  148.2548  140.0734  153.8599 C   0  0  0  0  0  0  0  0  0  0  0  0
  147.2603  138.9182  154.1338 C   0  0  2  0  0  0  0  0  0  0  0  0
  146.9864  138.2488  152.9167 O   0  0  0  0  0  0  0  0  0  0  0  0
  145.9435  139.4116  154.7382 C   0  0  0  0  0  0  0  0  0  0  0  0
  146.0042  138.9241  156.1808 C   0  0  0  0  0  0  0  0  0  0  0  0
  146.6840  137.6877  156.0609 O   0  0  0  0  0  0  0  0  0  0  0  0
  147.7694  137.8951  155.1691 C   0  0  0  0  0  0  0  0  0  0  0  0
  151.1288  143.0484  158.7832 C   0  0  0  0  0  0  0  0  0  0  0  0
  151.7986  144.0605  157.8805 C   0  0  0  0  0  0  0  0  0  0  0  0
  152.0506  144.0919  159.3693 C   0  0  0  0  0  0  0  0  0  0  0  0
  153.2341  142.7712  162.5395 H   0  0  0  0  0  0  0  0  0  0  0  0
  151.6311  142.0430  162.6069 H   0  0  0  0  0  0  0  0  0  0  0  0
  151.9769  143.3128  161.4330 H   0  0  0  0  0  0  0  0  0  0  0  0
  153.6084  141.8276  160.2929 H   0  0  0  0  0  0  0  0  0  0  0  0
  151.7421  139.8764  159.8154 H   0  0  0  0  0  0  0  0  0  0  0  0
  150.7116  141.0506  160.5585 H   0  0  0  0  0  0  0  0  0  0  0  0
  152.6629  138.4570  155.9371 H   0  0  0  0  0  0  0  0  0  0  0  0
  147.4220  142.1791  155.5851 H   0  0  0  0  0  0  0  0  0  0  0  0
  147.7536  140.8776  153.3195 H   0  0  0  0  0  0  0  0  0  0  0  0
  149.0630  139.7304  153.2124 H   0  0  0  0  0  0  0  0  0  0  0  0
  147.6337  137.5712  152.7956 H   0  0  0  0  0  0  0  0  0  0  0  0
  145.8117  140.4922  154.6717 H   0  0  0  0  0  0  0  0  0  0  0  0
  145.0876  138.9480  154.2446 H   0  0  0  0  0  0  0  0  0  0  0  0
  146.5848  139.6075  156.8025 H   0  0  0  0  0  0  0  0  0  0  0  0
  145.0173  138.8014  156.6275 H   0  0  0  0  0  0  0  0  0  0  0  0
  148.1086  136.9569  154.7281 H   0  0  0  0  0  0  0  0  0  0  0  0
  148.5955  138.3027  155.7523 H   0  0  0  0  0  0  0  0  0  0  0  0
  150.0652  143.2008  158.9546 H   0  0  0  0  0  0  0  0  0  0  0  0
  152.6091  143.7149  157.2415 H   0  0  0  0  0  0  0  0  0  0  0  0
  151.1735  144.8444  157.4581 H   0  0  0  0  0  0  0  0  0  0  0  0
  151.5948  144.8973  159.9411 H   0  0  0  0  0  0  0  0  0  0  0  0
  153.0295  143.7682  159.7179 H   0  0  0  0  0  0  0  0  0  0  0  0
  1  2  1  0  0  0  0
  1 26  1  0  0  0  0
  1 27  1  0  0  0  0
  1 28  1  0  0  0  0
  2  3  1  0  0  0  0
  2  5  1  0  0  0  0
  2 29  1  0  0  0  0
  3  4  3  0  0  0  0
  5  6  1  0  0  0  0
  5 30  1  0  0  0  0
  5 31  1  0  0  0  0
  6  7  1  0  0  0  0
  6 23  1  0  0  0  0
  7 12  1  0  0  0  0
  7  8  2  0  0  0  0
  8  9  1  0  0  0  0
  9 10  2  0  0  0  0
  9 32  1  0  0  0  0
 10 11  1  0  0  0  0
 11 15  1  0  0  0  0
 11 12  2  0  0  0  0
 12 13  1  0  0  0  0
 13 14  2  0  0  0  0
 14 15  1  0  0  0  0
 14 33  1  0  0  0  0
 15 16  1  0  0  0  0
 16 17  1  0  0  0  0
 16 34  1  0  0  0  0
 16 35  1  0  0  0  0
 17 22  1  0  0  0  0
 17 18  1  0  0  0  0
 17 19  1  0  0  0  0
 18 36  1  0  0  0  0
 19 20  1  0  0  0  0
 19 37  1  0  0  0  0
 19 38  1  0  0  0  0
 20 21  1  0  0  0  0
 20 39  1  0  0  0  0
 20 40  1  0  0  0  0
 21 22  1  0  0  0  0
 22 41  1  0  0  0  0
 22 42  1  0  0  0  0
 23 25  1  0  0  0  0
 23 24  1  0  0  0  0
 23 43  1  0  0  0  0
 24 25  1  0  0  0  0
 24 44  1  0  0  0  0
 24 45  1  0  0  0  0
 25 46  1  0  0  0  0
 25 47  1  0  0  0  0
M  END
> <s_m_source_file>
AV-unprocessed.smi

> <i_m_source_file_index>
223

> <i_lp_mmshare_version>
43012

> <i_f3d_flags>
0

> <s_epik_input>
TiNDW0NAQEhdKFtDSDNdKVtDSDJdTihbQ0hdMVtDSDJdW0NIMl0xKWMobltjSF1uMiljKGMyMyluW2NIXW4zW0NIMl1bQ0BAXTQoW09IXSlbQ0gyXVtDSDJdT1tDSDJdNA==

> <s_epik_cmdline>
J2VwaWtfcHl0aG9uJywgJy1waCcsICc3LjAnLCAnLXRuJywgJzgnLCAnLW1hJywgJzIwMCcsICctbWV0YWxfYmluZGluZycsICctaW1hZScsICc8aW5maWxlLm1hZT4nLCAnLW9tYWUnLCAnPG91dGZpbGUubWFlPic=

> <r_lp_tautomer_probability>
1

> <r_epik_Ionization_Penalty>
0.000756152

> <r_epik_Ionization_Penalty_Charging>
0

> <r_epik_Ionization_Penalty_Neutral>
0.000756152

> <r_epik_State_Penalty>
0.00038036

> <r_epik_Charging_Adjusted_Penalty>
0.00038036

> <i_epik_Tot_Q>
0

> <i_epik_Tot_abs_Q>
0

> <r_epik_Metal_State_Penalty>
-0

> <b_epik_Metal_Only>
0

> <s_lp_Force_Field>
OPLS_2005

> <r_lp_Energy>
37.1983

> <b_lp_Chiralities_Consistent>
1

> <s_lp_Variant>
AV-unprocessed.smi:223-4

> <Gold.Version>
5.8.1

> <Gold.Id.Protein>
6NUR|6NUR_protein|mol2

> <Gold.PLP.Fitness>
48.0180

> <Gold.PLP.PLP>
-43.8595

> <Gold.PLP.part.hbond>
-3.0000

> <Gold.PLP.part.metal>
0.0000

> <Gold.PLP.part.buried>
-1.1961

> <Gold.PLP.part.nonpolar>
-39.8266

> <Gold.PLP.part.repulsive>
1.0165

> <Gold.PLP.ligand.clash>
0.0000

> <Gold.PLP.ligand.torsion>
2.3805

> <Gold.PLP.Chemscore.Hbond>
2.5300

> <Gold.PLP.Chemscore.CHOScore>
0.0000

> <Gold.PLP.Chemscore.Metal>
0.0000

> <Gold.Chemscore.Hbonds>
donor molecule, donor type, donor heavy atom, donor atom, acceptor molecule, acceptor atom, score
      L1  H    18    36       P1  7948  0.84
      P1  H  7997  8009       L1     8  0.08
      L1  C    14    33       P1  8028  0.01

> <Gold.PLP.Chemscore.Internal.Correction>
1.3296

> <Gold.Rescore>
     Score         DG    S(hbond)    S(metal)    S(lipo)     H(rot)  DE(clash)    DE(int)     intcor
      7.06     -11.33       1.11        0.00      77.81       2.72       1.26       3.01       ----

> <Gold.Chemscore.Fitness>
7.0574

> <Gold.Chemscore.DG>
-11.3264

> <Gold.Chemscore.ZeroCoef>
-5.4800

> <Gold.Chemscore.Hbond>
1.1072

> <Gold.Chemscore.Metal>
0.0000

> <Gold.Chemscore.Lipo>
77.8139

> <Gold.Chemscore.Internal_Hbond>
0.0000

> <Gold.Chemscore.DEClash>
1.2607

> <Gold.Chemscore.DEInternal>
3.0084

> <Gold.Chemscore.Rot>
2.7171

> <Gold.Chemscore.Internal.Correction>
   9.000000E+99

> <Gold.Chemscore.Hbonds>
donor molecule, donor type, donor heavy atom, donor atom, acceptor molecule, acceptor atom, score
      L1  H    18    36       P1  7948  0.84

> <Gold.Chemscore.Hbond.Weighted>
-3.6980

> <Gold.Chemscore.Metal.Weighted>
-0.0000

> <Gold.Chemscore.Lipo.Weighted>
-9.1042

> <Gold.Chemscore.Internal_Hbond.Weighted>
0.0000

> <Gold.Chemscore.DEClash.Weighted>
1.2607

> <Gold.Chemscore.DEInternal.Weighted>
3.0084

> <Gold.Chemscore.Rot.Weighted>
6.9558

> <Gold.Chemscore.Internal.Correction.Weighted>
   9.000000E+99

> <Gold.Protein.RotatedTorsions>
[ 6907 6896 6895 6894 ] final   54.65 input  -60.11 | X-H torsion
[ 7974 7965 7964 7962 ] final -169.93 input  175.53 | X-H torsion
[ 8008 7997 7996 7995 ] final -169.75 input   59.86 | X-H torsion
[ 10167 10162 10161 10158 ] final   30.65 input  -65.29 | X-H torsion
[ 10718 10713 10712 10709 ] final -160.11 input   66.30 | X-H torsion
[ 10763 10752 10751 10750 ] final   42.04 input  -60.55 | X-H torsion
[ 11005 11000 10999 10996 ] final  168.41 input  -57.11 | X-H torsion

> <Gold.Protein.ActiveResidues>
 VAL166  LYS551  ARG553  GLY616  TRP617  ASP618  TYR619  PRO620  LYS621  CYS622 
 ASP623  PHE694  ASN695  SER759  ASP760  ASP761  ALA762  ILE779  LEU786  VAL792 
 PHE793  MET794  SER795  GLU796  ALA797  LYS798  CYS799  TRP800  GLU811  SER814 

> <Gold.Protein.RotatedAtoms>
  152.3460  134.7070  160.0249 H   0  0  0  0  0  0  0  0  0  0  0  0  # atno 6907 bound_to 6896
  151.7440  133.3318  159.3381 H   0  0  0  0  0  0  0  0  0  0  0  0  # atno 6908 bound_to 6896
  150.7509  134.6185  159.6168 H   0  0  0  0  0  0  0  0  0  0  0  0  # atno 6909 bound_to 6896
  144.7177  140.2148  143.6323 H   0  0  0  0  0  0  0  0  0  0  0  0  # atno 7974 bound_to 7965
  155.9092  140.1054  157.1292 H   0  0  0  0  0  0  0  0  0  0  0  0  # atno 8008 bound_to 7997
  154.4037  140.1277  156.4600 H   0  0  0  0  0  0  0  0  0  0  0  0  # atno 8009 bound_to 7997
  155.7331  140.3468  155.5071 H   0  0  0  0  0  0  0  0  0  0  0  0  # atno 8010 bound_to 7997
  140.4659  144.0837  150.6224 H   0  0  0  0  0  0  0  0  0  0  0  0  # atno 10167 bound_to 10162
  156.5775  130.8715  151.2855 H   0  0  0  0  0  0  0  0  0  0  0  0  # atno 10718 bound_to 10713
  152.9893  135.6144  154.2884 H   0  0  0  0  0  0  0  0  0  0  0  0  # atno 10763 bound_to 10752
  154.2611  135.2782  155.2779 H   0  0  0  0  0  0  0  0  0  0  0  0  # atno 10764 bound_to 10752
  154.5205  135.5816  153.6734 H   0  0  0  0  0  0  0  0  0  0  0  0  # atno 10765 bound_to 10752
  140.2870  134.7704  157.3806 H   0  0  0  0  0  0  0  0  0  0  0  0  # atno 11005 bound_to 11000
  145.8557  139.2197  143.1746 LP  0  0  0  0  0  0  0  0  0  0  0  0  # atno 17320 bound_to 7965
  146.0220  140.8339  142.9919 LP  0  0  0  0  0  0  0  0  0  0  0  0  # atno 17321 bound_to 7965
  140.4037  143.2691  151.9917 LP  0  0  0  0  0  0  0  0  0  0  0  0  # atno 17342 bound_to 10162
  139.4812  144.5975  151.7664 LP  0  0  0  0  0  0  0  0  0  0  0  0  # atno 17343 bound_to 10162
  157.7334  130.9730  150.1976 LP  0  0  0  0  0  0  0  0  0  0  0  0  # atno 17370 bound_to 10713
  156.2660  130.3716  149.8080 LP  0  0  0  0  0  0  0  0  0  0  0  0  # atno 17371 bound_to 10713
  140.1231  134.5194  155.8167 LP  0  0  0  0  0  0  0  0  0  0  0  0  # atno 17394 bound_to 11000
  141.2153  133.6763  156.6901 LP  0  0  0  0  0  0  0  0  0  0  0  0  # atno 17395 bound_to 11000

$$$$
