#       Name:                AV-unprocessed.smi:3247
#       Creating user name   scv26
#       Creation time:       Fri Mar 27 18:29:31 2020


#       File generated by GOLD software.
#

@<TRIPOS>MOLECULE
AV-unprocessed.smi:3247
    40    41     1
SMALL
NO_CHARGES


@<TRIPOS>ATOM
      1 ****        -1.3770   1.8912  -0.0602 O.2            1 S1                 0.0000
      2 ****        -0.6322   0.9287  -0.2444 C.2            1 S1                 0.0000
      3 ****         0.8824   1.1215  -0.2472 C.3            1 S1                 0.0000
      4 ****         1.4553   0.2555   0.7220 O.3            1 S1                 0.0000
      5 ****         2.8729   0.3176   0.7780 C.3            1 S1                 0.0000
      6 ****         3.4177  -0.7695   1.7023 C.3            1 S1                 0.0000
      7 ****         4.8175  -0.2820   2.0879 C.3            1 S1                 0.0000
      8 ****         4.7854   1.2497   1.9622 C.3            1 S1                 0.0000
      9 ****         3.4007   1.6099   1.4091 C.3            1 S1                 0.0000
     10 ****        -1.0750  -0.3190  -0.4629 N.am           1 S1                 0.0000
     11 ****        -2.4768  -0.7189  -0.5061 C.3            1 S1                 0.0000
     12 ****        -3.1311  -0.3607  -1.8511 C.3            1 S1                 0.0000
     13 ****        -4.5564  -0.8178  -1.9266 C.2            1 S1                 0.0000
     14 ****        -5.6785  -0.0499  -1.7259 C.2            1 S1                 0.0000
     15 ****        -7.1459  -0.9755  -1.9016 S.3            1 S1                 0.0000
     16 ****        -6.1583  -2.3861  -2.2432 C.2            1 S1                 0.0000
     17 ****        -4.8452  -2.1552  -2.2202 N.2            1 S1                 0.0000
     18 ****         1.2696   0.8954  -1.2419 H              1 S1                 0.0000
     19 ****         1.1182   2.1632  -0.0253 H              1 S1                 0.0000
     20 ****         3.3028   0.1830  -0.2164 H              1 S1                 0.0000
     21 ****         2.7980  -0.8353   2.5979 H              1 S1                 0.0000
     22 ****         3.4281  -1.7539   1.2339 H              1 S1                 0.0000
     23 ****         5.0947  -0.6068   3.0912 H              1 S1                 0.0000
     24 ****         5.5560  -0.6905   1.3970 H              1 S1                 0.0000
     25 ****         4.9616   1.7377   2.9214 H              1 S1                 0.0000
     26 ****         5.5678   1.5825   1.2788 H              1 S1                 0.0000
     27 ****         3.4384   2.4392   0.7022 H              1 S1                 0.0000
     28 ****         2.7496   1.9073   2.2324 H              1 S1                 0.0000
     29 ****        -0.3877  -1.0459  -0.6010 H              1 S1                 0.0000
     30 ****        -2.5218  -1.7965  -0.3460 H              1 S1                 0.0000
     31 ****        -3.0226  -0.2586   0.3193 H              1 S1                 0.0000
     32 ****        -3.0828   0.7175  -2.0078 H              1 S1                 0.0000
     33 ****        -2.5566  -0.8051  -2.6650 H              1 S1                 0.0000
     34 ****        -5.7299   1.0015  -1.4842 H              1 S1                 0.0000
     35 ****        -6.5406  -3.3732  -2.4577 H              1 S1                 0.0000
     36 ****        -0.9903   2.8014   0.0879 LP             1 S1                 0.0000
     37 ****        -2.3687   1.7629  -0.0587 LP             1 S1                 0.0000
     38 ****         1.1891  -0.6832   0.5029 LP             1 S1                 0.0000
     39 ****         1.0930   0.5037   1.6203 LP             1 S1                 0.0000
     40 ****        -4.1504  -2.8537  -2.3921 LP             1 S1                 0.0000
@<TRIPOS>BOND
    1    1    2 2     
    2    2    3 1     
    3    2   10 am    
    4    3    4 1     
    5    3   18 1     
    6    3   19 1     
    7    4    5 1     
    8    5    9 1     
    9    5    6 1     
   10    5   20 1     
   11    6    7 1     
   12    6   21 1     
   13    6   22 1     
   14    7    8 1     
   15    7   23 1     
   16    7   24 1     
   17    8    9 1     
   18    8   25 1     
   19    8   26 1     
   20    9   27 1     
   21    9   28 1     
   22   10   11 1     
   23   10   29 1     
   24   11   12 1     
   25   11   30 1     
   26   11   31 1     
   27   12   13 1     
   28   12   32 1     
   29   12   33 1     
   30   13   17 1     
   31   13   14 2     
   32   14   15 1     
   33   14   34 1     
   34   15   16 1     
   35   16   17 2     
   36   16   35 1     
   37    1   36 1     
   38    1   37 1     
   39    4   38 1     
   40    4   39 1     
   41   17   40 1     
@<TRIPOS>SUBSTRUCTURE
      1 S1             1
@<TRIPOS>SET
LONE_PAIRS      STATIC     ATOMS    <user>   **** ""
5 36 37 38 39 40
DONOR_HYDROGENS      STATIC     ATOMS    <user>   **** ""
1 29
ATOM$BLUE        STATIC     ATOMS    COLORGROUP SYSTEM
5 36 37 38 39 40
ATOM$RED        STATIC     ATOMS    COLORGROUP SYSTEM
1 29
