#       Name:                AV-unprocessed.smi:2693
#       Creating user name   scv26
#       Creation time:       Fri Mar 27 14:43:47 2020


#       File generated by GOLD software.
#

@<TRIPOS>MOLECULE
AV-unprocessed.smi:2693
    51    53     1
SMALL
NO_CHARGES


@<TRIPOS>ATOM
      1 ****        -6.8334   1.8552   0.8033 C.3            1 S1                 0.0000
      2 ****        -6.1335   1.0120  -0.1615 N.pl3          1 S1                 0.0000
      3 ****        -6.9424   0.2922  -1.1412 C.3            1 S1                 0.0000
      4 ****        -4.7395   0.9063  -0.1552 C.ar           1 S1                 0.0000
      5 ****        -4.1800   0.0779  -1.0468 N.ar           1 S1                 0.0000
      6 ****        -2.8345  -0.0319  -1.0470 C.ar           1 S1                 0.0000
      7 ****        -2.0301   0.6956  -0.1377 C.ar           1 S1                 0.0000
      8 ****        -0.6113   0.6533  -0.0861 N.am           1 S1                 0.0000
      9 ****         0.2122  -0.2831  -0.5864 C.2            1 S1                 0.0000
     10 ****        -0.1438  -1.3123  -1.1593 O.2            1 S1                 0.0000
     11 ****         1.4945   0.0288  -0.3592 N.am           1 S1                 0.0000
     12 ****         2.6347  -0.8062  -0.7516 C.3            1 S1                 0.0000
     13 ****         3.9667  -0.0558  -0.6837 C.3            1 S1                 0.0000
     14 ****         4.3854   1.3689  -0.6370 C.3            1 S1                 0.0000
     15 ****         5.5060   1.2048   0.4254 C.3            1 S1                 0.0000
     16 ****         5.3629  -0.1390   0.9537 O.3            1 S1                 0.0000
     17 ****         3.9893  -0.4276   0.7846 C.3            1 S1                 0.0000
     18 ****         3.2333  -1.7172   0.3928 C.3            1 S1                 0.0000
     19 ****         2.2532  -2.2510   1.4438 C.3            1 S1                 0.0000
     20 ****         4.0833  -2.9257  -0.0391 C.3            1 S1                 0.0000
     21 ****        -2.7223   1.5455   0.7476 C.ar           1 S1                 0.0000
     22 ****        -4.0683   1.6447   0.7387 N.ar           1 S1                 0.0000
     23 ****        -6.5919   2.9048   0.6334 H              1 S1                 0.0000
     24 ****        -6.5433   1.5948   1.8216 H              1 S1                 0.0000
     25 ****        -7.9152   1.7436   0.7310 H              1 S1                 0.0000
     26 ****        -6.6109   0.5227  -2.1542 H              1 S1                 0.0000
     27 ****        -7.9974   0.5576  -1.0716 H              1 S1                 0.0000
     28 ****        -6.8556  -0.7838  -0.9869 H              1 S1                 0.0000
     29 ****        -2.4228  -0.6908  -1.7951 H              1 S1                 0.0000
     30 ****        -0.1733   1.4019   0.4305 H              1 S1                 0.0000
     31 ****         1.7014   0.8909   0.1233 H              1 S1                 0.0000
     32 ****         2.4958  -1.3330  -1.6973 H              1 S1                 0.0000
     33 ****         4.7006  -0.6118  -1.2724 H              1 S1                 0.0000
     34 ****         4.7620   1.7337  -1.5930 H              1 S1                 0.0000
     35 ****         3.5853   2.0244  -0.2906 H              1 S1                 0.0000
     36 ****         6.4991   1.3223  -0.0087 H              1 S1                 0.0000
     37 ****         5.3952   1.9411   1.2224 H              1 S1                 0.0000
     38 ****         3.3832   0.2262   1.4202 H              1 S1                 0.0000
     39 ****         2.7712  -2.7782   2.2456 H              1 S1                 0.0000
     40 ****         1.5361  -2.9439   1.0025 H              1 S1                 0.0000
     41 ****         1.6813  -1.4511   1.9143 H              1 S1                 0.0000
     42 ****         4.6716  -3.3117   0.7940 H              1 S1                 0.0000
     43 ****         4.7857  -2.7007  -0.8396 H              1 S1                 0.0000
     44 ****         3.4552  -3.7414  -0.3989 H              1 S1                 0.0000
     45 ****        -2.1955   2.1492   1.4720 H              1 S1                 0.0000
     46 ****        -4.7406  -0.4422  -1.6912 LP             1 S1                 0.0000
     47 ****        -1.1173  -1.5046  -1.2829 LP             1 S1                 0.0000
     48 ****         0.5404  -1.9565  -1.5013 LP             1 S1                 0.0000
     49 ****         5.6163  -0.1699   1.9205 LP             1 S1                 0.0000
     50 ****         5.9278  -0.7850   0.4403 LP             1 S1                 0.0000
     51 ****        -4.5474   2.2477   1.3765 LP             1 S1                 0.0000
@<TRIPOS>BOND
    1    1    2 1     
    2    1   23 1     
    3    1   24 1     
    4    1   25 1     
    5    2    3 1     
    6    2    4 1     
    7    3   26 1     
    8    3   27 1     
    9    3   28 1     
   10    4   22 ar    
   11    4    5 ar    
   12    5    6 ar    
   13    6    7 ar    
   14    6   29 1     
   15    7    8 1     
   16    7   21 ar    
   17    8    9 am    
   18    8   30 1     
   19    9   10 2     
   20    9   11 am    
   21   11   12 1     
   22   11   31 1     
   23   12   18 1     
   24   12   13 1     
   25   12   32 1     
   26   13   17 1     
   27   13   14 1     
   28   13   33 1     
   29   14   15 1     
   30   14   34 1     
   31   14   35 1     
   32   15   16 1     
   33   15   36 1     
   34   15   37 1     
   35   16   17 1     
   36   17   18 1     
   37   17   38 1     
   38   18   19 1     
   39   18   20 1     
   40   19   39 1     
   41   19   40 1     
   42   19   41 1     
   43   20   42 1     
   44   20   43 1     
   45   20   44 1     
   46   21   22 ar    
   47   21   45 1     
   48    5   46 1     
   49   10   47 1     
   50   10   48 1     
   51   16   49 1     
   52   16   50 1     
   53   22   51 1     
@<TRIPOS>SUBSTRUCTURE
      1 S1             1
@<TRIPOS>SET
LONE_PAIRS      STATIC     ATOMS    <user>   **** ""
6 46 47 48 49 50 51
DONOR_HYDROGENS      STATIC     ATOMS    <user>   **** ""
2 30 31
ATOM$BLUE        STATIC     ATOMS    COLORGROUP SYSTEM
6 46 47 48 49 50 51
ATOM$RED        STATIC     ATOMS    COLORGROUP SYSTEM
2 30 31
