AV-unprocessed.smi:107|AV-procd|sdf|1027|dock6
  -GOLD-   2262018 33D 1   1.00000     0.00000
 Structure written by MMmdl.
 30 31  0  0  0  0  0  0  0  0  2 V2000
  150.5237  142.7927  158.7924 C   0  0  0  0  0  0  0  0  0  0  0  0
  150.8461  141.8048  157.6850 C   0  0  0  0  0  0  0  0  0  0  0  0
  150.0637  141.6663  156.5914 C   0  0  0  0  0  0  0  0  0  0  0  0
  150.3643  140.7661  155.5846 N   0  0  0  0  0  0  0  0  0  0  0  0
  149.4826  140.6530  154.3643 C   0  0  2  0  0  0  0  0  0  0  0  0
  148.3077  141.6192  154.4462 C   0  0  0  0  0  0  0  0  0  0  0  0
  147.2337  140.8847  153.6524 C   0  0  2  0  0  0  0  0  0  0  0  0
  145.9947  140.9563  154.3335 O   0  0  0  0  0  0  0  0  0  0  0  0
  147.7829  139.4485  153.4654 C   0  0  2  0  0  0  0  0  0  0  0  0
  146.8154  138.2990  153.8053 C   0  0  0  0  0  0  0  0  0  0  0  0
  147.4785  137.0570  153.6972 O   0  0  0  0  0  0  0  0  0  0  0  0
  148.9181  139.3852  154.3206 O   0  0  0  0  0  0  0  0  0  0  0  0
  151.5427  139.9812  155.6715 C   0  0  0  0  0  0  0  0  0  0  0  0
  151.8048  139.2227  154.7374 O   0  0  0  0  0  0  0  0  0  0  0  0
  152.3333  140.1067  156.7757 N   0  5  0  0  0  0  0  0  0  0  0  0
  152.0502  140.9715  157.7922 C   0  0  0  0  0  0  0  0  0  0  0  0
  152.7716  141.0728  158.7842 O   0  0  0  0  0  0  0  0  0  0  0  0
  149.6069  143.3428  158.5787 H   0  0  0  0  0  0  0  0  0  0  0  0
  151.3329  143.5149  158.9051 H   0  0  0  0  0  0  0  0  0  0  0  0
  150.3915  142.2718  159.7411 H   0  0  0  0  0  0  0  0  0  0  0  0
  149.1826  142.2844  156.5017 H   0  0  0  0  0  0  0  0  0  0  0  0
  150.1129  140.7922  153.4840 H   0  0  0  0  0  0  0  0  0  0  0  0
  148.0159  141.7396  155.4913 H   0  0  0  0  0  0  0  0  0  0  0  0
  148.5737  142.5940  154.0364 H   0  0  0  0  0  0  0  0  0  0  0  0
  147.1072  141.3517  152.6749 H   0  0  0  0  0  0  0  0  0  0  0  0
  145.3102  141.0948  153.6971 H   0  0  0  0  0  0  0  0  0  0  0  0
  148.1286  139.3527  152.4343 H   0  0  0  0  0  0  0  0  0  0  0  0
  146.3931  138.4190  154.8036 H   0  0  0  0  0  0  0  0  0  0  0  0
  145.9860  138.2743  153.0982 H   0  0  0  0  0  0  0  0  0  0  0  0
  147.9319  137.0301  152.8686 H   0  0  0  0  0  0  0  0  0  0  0  0
  1  2  1  0  0  0  0
  1 18  1  0  0  0  0
  1 19  1  0  0  0  0
  1 20  1  0  0  0  0
  2 16  1  0  0  0  0
  2  3  2  0  0  0  0
  3  4  1  0  0  0  0
  3 21  1  0  0  0  0
  4  5  1  0  0  0  0
  4 13  1  0  0  0  0
  5 12  1  0  0  0  0
  5  6  1  0  0  0  0
  5 22  1  0  0  0  0
  6  7  1  0  0  0  0
  6 23  1  0  0  0  0
  6 24  1  0  0  0  0
  7  8  1  0  0  0  0
  7  9  1  0  0  0  0
  7 25  1  0  0  0  0
  8 26  1  0  0  0  0
  9 10  1  0  0  0  0
  9 12  1  0  0  0  0
  9 27  1  0  0  0  0
 10 11  1  0  0  0  0
 10 28  1  0  0  0  0
 10 29  1  0  0  0  0
 11 30  1  0  0  0  0
 13 14  2  0  0  0  0
 13 15  1  0  0  0  0
 15 16  1  0  0  0  0
 16 17  2  0  0  0  0
M  CHG  1  15  -1
M  END
> <s_m_source_file>
AV-unprocessed.smi

> <i_m_source_file_index>
107

> <i_lp_mmshare_version>
43012

> <i_f3d_flags>
0

> <s_epik_input>
Tz1jMVtuSF1jKD1PKW4oW2NIXWMxW0NIM10pW0NAQEhdMltDSDJdW0NAQEhdKFtPSF0pW0NASF0oTzIpW0NIMl1bT0hd

> <s_epik_cmdline>
J2VwaWtfcHl0aG9uJywgJy1waCcsICc3LjAnLCAnLXRuJywgJzgnLCAnLW1hJywgJzIwMCcsICctbWV0YWxfYmluZGluZycsICctaW1hZScsICc8aW5maWxlLm1hZT4nLCAnLW9tYWUnLCAnPG91dGZpbGUubWFlPic=

> <r_lp_tautomer_probability>
0.999537

> <r_epik_Ionization_Penalty>
3.66603

> <r_epik_Ionization_Penalty_Charging>
1.09773e-07

> <r_epik_Ionization_Penalty_Neutral>
3.66603

> <r_epik_State_Penalty>
3.66562

> <r_epik_Charging_Adjusted_Penalty>
3.66562

> <i_epik_Tot_Q>
-1

> <i_epik_Tot_abs_Q>
1

> <r_epik_Metal_State_Penalty>
0.234536

> <b_epik_Metal_Only>
1

> <s_epik_Chemistry_Notes>
This compound contains an acetal/aminal-like group ( X-CH(R)-Y where X, Y are N, S, or O) that may be acid/base labile, releasing an aldehyde.

> <s_lp_Force_Field>
OPLS_2005

> <r_lp_Energy>
40.7454

> <b_lp_Chiralities_Consistent>
1

> <s_lp_Variant>
AV-unprocessed.smi:107-15

> <Gold.Version>
5.8.1

> <Gold.Id.Protein>
6NUR|6NUR_protein|mol2

> <Gold.PLP.Fitness>
43.5048

> <Gold.PLP.PLP>
-27.5491

> <Gold.PLP.part.hbond>
-3.8993

> <Gold.PLP.part.metal>
0.0000

> <Gold.PLP.part.buried>
-0.3506

> <Gold.PLP.part.nonpolar>
-22.5919

> <Gold.PLP.part.repulsive>
0.1989

> <Gold.PLP.ligand.clash>
0.0000

> <Gold.PLP.ligand.torsion>
0.0384

> <Gold.PLP.Chemscore.Hbond>
4.3425

> <Gold.PLP.Chemscore.CHOScore>
0.9936

> <Gold.PLP.Chemscore.Metal>
0.0000

> <Gold.Chemscore.Hbonds>
donor molecule, donor type, donor heavy atom, donor atom, acceptor molecule, acceptor atom, score
      L1  H     8    26       P1 10175  0.80
      L1  H    11    30       P1  7948  0.98
      P1  H  7989  7998       L1    14  0.38
      P1  H  7997  8008       L1    15  2.00
      L1  C     3    21       P1  8028  0.84

> <Gold.PLP.Chemscore.Internal.Correction>
0.0242

> <Gold.Rescore>
     Score         DG    S(hbond)    S(metal)    S(lipo)     H(rot)  DE(clash)    DE(int)     intcor
     11.32     -12.70       2.72        0.00      42.84       2.69       0.14       1.24       ----

> <Gold.Chemscore.Fitness>
11.3211

> <Gold.Chemscore.DG>
-12.6970

> <Gold.Chemscore.ZeroCoef>
-5.4800

> <Gold.Chemscore.Hbond>
2.7198

> <Gold.Chemscore.Metal>
0.0000

> <Gold.Chemscore.Lipo>
42.8359

> <Gold.Chemscore.Internal_Hbond>
0.0000

> <Gold.Chemscore.DEClash>
0.1377

> <Gold.Chemscore.DEInternal>
1.2381

> <Gold.Chemscore.Rot>
2.6871

> <Gold.Chemscore.Internal.Correction>
   9.000000E+99

> <Gold.Chemscore.Hbonds>
donor molecule, donor type, donor heavy atom, donor atom, acceptor molecule, acceptor atom, score
      L1  H     8    26       P1 10175  0.50
      L1  H    11    30       P1  7948  0.93
      P1  H  7989  7998       L1    14  0.01
      P1  H  7997  8008       L1    15  0.54

> <Gold.Chemscore.Hbond.Weighted>
-9.0842

> <Gold.Chemscore.Metal.Weighted>
-0.0000

> <Gold.Chemscore.Lipo.Weighted>
-5.0118

> <Gold.Chemscore.Internal_Hbond.Weighted>
0.0000

> <Gold.Chemscore.DEClash.Weighted>
0.1377

> <Gold.Chemscore.DEInternal.Weighted>
1.2381

> <Gold.Chemscore.Rot.Weighted>
6.8791

> <Gold.Chemscore.Internal.Correction.Weighted>
   9.000000E+99

> <Gold.Protein.RotatedTorsions>
[ 6907 6896 6895 6894 ] final  -95.29 input  -60.11 | X-H torsion
[ 7974 7965 7964 7962 ] final   88.65 input  175.53 | X-H torsion
[ 8008 7997 7996 7995 ] final  -53.98 input   59.86 | X-H torsion
[ 10167 10162 10161 10158 ] final  139.53 input  -65.29 | X-H torsion
[ 10718 10713 10712 10709 ] final  110.17 input   66.30 | X-H torsion
[ 10763 10752 10751 10750 ] final   79.14 input  -60.55 | X-H torsion
[ 11005 11000 10999 10996 ] final -124.50 input  -57.11 | X-H torsion

> <Gold.Protein.ActiveResidues>
 VAL166  LYS551  ARG553  GLY616  TRP617  ASP618  TYR619  PRO620  LYS621  CYS622 
 ASP623  PHE694  ASN695  SER759  ASP760  ASP761  ALA762  ILE779  LEU786  VAL792 
 PHE793  MET794  SER795  GLU796  ALA797  LYS798  CYS799  TRP800  GLU811  SER814 

> <Gold.Protein.RotatedAtoms>
  150.6960  134.1681  159.4201 H   0  0  0  0  0  0  0  0  0  0  0  0  # atno 6907 bound_to 6896
  151.9660  135.0098  160.0559 H   0  0  0  0  0  0  0  0  0  0  0  0  # atno 6908 bound_to 6896
  152.1884  133.4721  159.5032 H   0  0  0  0  0  0  0  0  0  0  0  0  # atno 6909 bound_to 6896
  145.5428  139.2290  143.2556 H   0  0  0  0  0  0  0  0  0  0  0  0  # atno 7974 bound_to 7965
  154.4149  140.1187  156.5242 H   0  0  0  0  0  0  0  0  0  0  0  0  # atno 8008 bound_to 7997
  155.6671  140.3496  155.4785 H   0  0  0  0  0  0  0  0  0  0  0  0  # atno 8009 bound_to 7997
  155.9664  140.1133  157.0841 H   0  0  0  0  0  0  0  0  0  0  0  0  # atno 8010 bound_to 7997
  139.5076  144.6289  151.5867 H   0  0  0  0  0  0  0  0  0  0  0  0  # atno 10167 bound_to 10162
  157.6507  131.0927  150.6562 H   0  0  0  0  0  0  0  0  0  0  0  0  # atno 10718 bound_to 10713
  153.0929  135.4851  154.8724 H   0  0  0  0  0  0  0  0  0  0  0  0  # atno 10763 bound_to 10752
  154.7290  135.3056  154.8925 H   0  0  0  0  0  0  0  0  0  0  0  0  # atno 10764 bound_to 10752
  153.9566  135.6817  153.4798 H   0  0  0  0  0  0  0  0  0  0  0  0  # atno 10765 bound_to 10752
  140.9836  134.0639  157.3737 H   0  0  0  0  0  0  0  0  0  0  0  0  # atno 11005 bound_to 11000
  146.1969  140.6249  142.9120 LP  0  0  0  0  0  0  0  0  0  0  0  0  # atno 17320 bound_to 7965
  144.7568  140.5327  143.6763 LP  0  0  0  0  0  0  0  0  0  0  0  0  # atno 17321 bound_to 7965
  140.6015  143.9601  150.6389 LP  0  0  0  0  0  0  0  0  0  0  0  0  # atno 17342 bound_to 10162
  140.2814  143.3387  152.1147 LP  0  0  0  0  0  0  0  0  0  0  0  0  # atno 17343 bound_to 10162
  156.6874  130.4585  149.5610 LP  0  0  0  0  0  0  0  0  0  0  0  0  # atno 17370 bound_to 10713
  156.1886  130.6545  151.1035 LP  0  0  0  0  0  0  0  0  0  0  0  0  # atno 17371 bound_to 10713
  139.8960  135.0144  156.7033 LP  0  0  0  0  0  0  0  0  0  0  0  0  # atno 17394 bound_to 11000
  140.7149  133.9191  155.8108 LP  0  0  0  0  0  0  0  0  0  0  0  0  # atno 17395 bound_to 11000

$$$$
