#       Name:                AV-unprocessed.smi:1005
#       Creating user name   scv26
#       Creation time:       Fri Mar 27 02:31:26 2020


#       File generated by GOLD software.
#

@<TRIPOS>MOLECULE
AV-unprocessed.smi:1005
    62    64     1
SMALL
NO_CHARGES


@<TRIPOS>ATOM
      1 ****        -5.5806   2.4021   1.9347 C.3            1 S1                 0.0000
      2 ****        -4.3436   2.4779   1.0573 C.ar           1 S1                 0.0000
      3 ****        -4.4772   2.9072  -0.2825 C.ar           1 S1                 0.0000
      4 ****        -3.3520   2.9920  -1.1316 C.ar           1 S1                 0.0000
      5 ****        -3.2523   3.3801  -2.4568 N.2            1 S1                 0.0000
      6 ****        -1.9477   3.2460  -2.6781 C.2            1 S1                 0.0000
      7 ****        -1.1895   2.8158  -1.6513 N.pl3          1 S1                 0.0000
      8 ****         0.2453   2.5940  -1.6502 C.3            1 S1                 0.0000
      9 ****         0.6079   1.1003  -1.7455 C.3            1 S1                 0.0000
     10 ****         0.1134   0.5791  -2.9643 O.3            1 S1                 0.0000
     11 ****         2.1344   0.8843  -1.6940 C.3            1 S1                 0.0000
     12 ****         2.5748  -0.5076  -1.5866 N.3            1 S1                 0.0000
     13 ****         4.0135  -0.6158  -1.7996 C.3            1 S1                 0.0000
     14 ****         4.5038  -2.0683  -1.6856 C.3            1 S1                 0.0000
     15 ****         4.1281  -2.5944  -0.4171 O.3            1 S1                 0.0000
     16 ****         2.7188  -2.5762  -0.1997 C.3            1 S1                 0.0000
     17 ****         2.4461  -3.2069   1.1819 C.3            1 S1                 0.0000
     18 ****         1.2479  -4.0435   1.2732 N.3            1 S1                 0.0000
     19 ****         0.0173  -3.2903   1.0669 C.3            1 S1                 0.0000
     20 ****         1.2040  -4.7419   2.5503 C.3            1 S1                 0.0000
     21 ****         2.2454  -1.1088  -0.2953 C.3            1 S1                 0.0000
     22 ****        -2.0794   2.6336  -0.5988 C.ar           1 S1                 0.0000
     23 ****        -1.9334   2.2053   0.7324 C.ar           1 S1                 0.0000
     24 ****        -3.0677   2.1260   1.5671 C.ar           1 S1                 0.0000
     25 ****        -2.8989   1.6601   3.0025 C.3            1 S1                 0.0000
     26 ****        -6.4830   2.6452   1.3728 H              1 S1                 0.0000
     27 ****        -5.5025   3.1057   2.7640 H              1 S1                 0.0000
     28 ****        -5.7017   1.3980   2.3417 H              1 S1                 0.0000
     29 ****        -5.4485   3.1760  -0.6712 H              1 S1                 0.0000
     30 ****        -1.5178   3.4712  -3.6432 H              1 S1                 0.0000
     31 ****         0.6889   3.1514  -2.4766 H              1 S1                 0.0000
     32 ****         0.6509   3.0212  -0.7323 H              1 S1                 0.0000
     33 ****         0.1144   0.5794  -0.9266 H              1 S1                 0.0000
     34 ****         0.5568   1.0104  -3.6784 H              1 S1                 0.0000
     35 ****         2.5685   1.3315  -2.5898 H              1 S1                 0.0000
     36 ****         2.5461   1.4494  -0.8562 H              1 S1                 0.0000
     37 ****         4.2735  -0.2251  -2.7841 H              1 S1                 0.0000
     38 ****         4.5425  -0.0003  -1.0701 H              1 S1                 0.0000
     39 ****         4.0844  -2.6831  -2.4834 H              1 S1                 0.0000
     40 ****         5.5885  -2.1121  -1.7830 H              1 S1                 0.0000
     41 ****         2.2481  -3.1798  -0.9785 H              1 S1                 0.0000
     42 ****         3.3041  -3.8365   1.4224 H              1 S1                 0.0000
     43 ****         2.4310  -2.4351   1.9530 H              1 S1                 0.0000
     44 ****        -0.8549  -3.9325   1.1937 H              1 S1                 0.0000
     45 ****        -0.0306  -2.8864   0.0561 H              1 S1                 0.0000
     46 ****        -0.0644  -2.4647   1.7752 H              1 S1                 0.0000
     47 ****         0.3427  -5.4090   2.5976 H              1 S1                 0.0000
     48 ****         1.1356  -4.0390   3.3817 H              1 S1                 0.0000
     49 ****         2.0982  -5.3501   2.6918 H              1 S1                 0.0000
     50 ****         2.7018  -0.5272   0.5073 H              1 S1                 0.0000
     51 ****         1.1722  -1.0728  -0.1270 H              1 S1                 0.0000
     52 ****        -0.9557   1.9394   1.1064 H              1 S1                 0.0000
     53 ****        -1.8485   1.4985   3.2469 H              1 S1                 0.0000
     54 ****        -3.4289   0.7208   3.1627 H              1 S1                 0.0000
     55 ****        -3.2918   2.4031   3.6970 H              1 S1                 0.0000
     56 ****        -3.9715   3.6818  -3.0826 LP             1 S1                 0.0000
     57 ****        -0.8703   0.7470  -3.0280 LP             1 S1                 0.0000
     58 ****         0.2870  -0.4048  -3.0050 LP             1 S1                 0.0000
     59 ****         2.0811  -1.0068  -2.2986 LP             1 S1                 0.0000
     60 ****         4.5674  -2.0488   0.2966 LP             1 S1                 0.0000
     61 ****         4.4473  -3.5402  -0.3575 LP             1 S1                 0.0000
     62 ****         1.3097  -4.7128   0.5329 LP             1 S1                 0.0000
@<TRIPOS>BOND
    1    1    2 1     
    2    1   26 1     
    3    1   27 1     
    4    1   28 1     
    5    2   24 ar    
    6    2    3 ar    
    7    3    4 ar    
    8    3   29 1     
    9    4   22 ar    
   10    4    5 1     
   11    5    6 2     
   12    6    7 1     
   13    6   30 1     
   14    7    8 1     
   15    7   22 1     
   16    8    9 1     
   17    8   31 1     
   18    8   32 1     
   19    9   10 1     
   20    9   11 1     
   21    9   33 1     
   22   10   34 1     
   23   11   12 1     
   24   11   35 1     
   25   11   36 1     
   26   12   21 1     
   27   12   13 1     
   28   13   14 1     
   29   13   37 1     
   30   13   38 1     
   31   14   15 1     
   32   14   39 1     
   33   14   40 1     
   34   15   16 1     
   35   16   17 1     
   36   16   21 1     
   37   16   41 1     
   38   17   18 1     
   39   17   42 1     
   40   17   43 1     
   41   18   19 1     
   42   18   20 1     
   43   19   44 1     
   44   19   45 1     
   45   19   46 1     
   46   20   47 1     
   47   20   48 1     
   48   20   49 1     
   49   21   50 1     
   50   21   51 1     
   51   22   23 ar    
   52   23   24 ar    
   53   23   52 1     
   54   24   25 1     
   55   25   53 1     
   56   25   54 1     
   57   25   55 1     
   58    5   56 1     
   59   10   57 1     
   60   10   58 1     
   61   12   59 1     
   62   15   60 1     
   63   15   61 1     
   64   18   62 1     
@<TRIPOS>SUBSTRUCTURE
      1 S1             1
@<TRIPOS>SET
LONE_PAIRS      STATIC     ATOMS    <user>   **** ""
7 56 57 58 59 60 61 62
DONOR_HYDROGENS      STATIC     ATOMS    <user>   **** ""
1 34
ATOM$BLUE        STATIC     ATOMS    COLORGROUP SYSTEM
7 56 57 58 59 60 61 62
ATOM$RED        STATIC     ATOMS    COLORGROUP SYSTEM
1 34
