#       Name:                AV-unprocessed.smi:2940
#       Creating user name   scv26
#       Creation time:       Fri Mar 27 16:15:31 2020


#       File generated by GOLD software.
#

@<TRIPOS>MOLECULE
AV-unprocessed.smi:2940
    30    31     1
SMALL
NO_CHARGES


@<TRIPOS>ATOM
      1 ****        -4.6721  -0.4859   0.0050 N.pl3          1 S1                 0.0000
      2 ****        -3.2829  -0.3913   0.0057 C.ar           1 S1                 0.0000
      3 ****        -2.6609   0.8733   0.0035 C.ar           1 S1                 0.0000
      4 ****        -1.2539   0.9289   0.0042 C.ar           1 S1                 0.0000
      5 ****        -0.5210  -0.2798   0.0070 C.ar           1 S1                 0.0000
      6 ****         0.8808  -0.3068   0.0058 N.3            1 S1                 0.0000
      7 ****         1.4679   0.2284  -1.2161 C.3            1 S1                 0.0000
      8 ****         2.9965   0.0526  -1.1870 C.3            1 S1                 0.0000
      9 ****         3.5263   0.6674  -0.0158 O.3            1 S1                 0.0000
     10 ****         3.0029   0.0872   1.1757 C.3            1 S1                 0.0000
     11 ****         1.4746   0.2648   1.2080 C.3            1 S1                 0.0000
     12 ****        -1.2455  -1.4907   0.0089 C.ar           1 S1                 0.0000
     13 ****        -2.5948  -1.5524   0.0084 N.ar           1 S1                 0.0000
     14 ****        -5.1421  -1.3795   0.0065 H              1 S1                 0.0000
     15 ****        -5.2536   0.3396   0.0009 H              1 S1                 0.0000
     16 ****        -3.2453   1.7819   0.0011 H              1 S1                 0.0000
     17 ****        -0.7509   1.8848   0.0017 H              1 S1                 0.0000
     18 ****         1.0498  -0.2842  -2.0834 H              1 S1                 0.0000
     19 ****         1.2202   1.2863  -1.3138 H              1 S1                 0.0000
     20 ****         3.2673  -1.0043  -1.2096 H              1 S1                 0.0000
     21 ****         3.4453   0.5157  -2.0656 H              1 S1                 0.0000
     22 ****         3.2734  -0.9688   1.2276 H              1 S1                 0.0000
     23 ****         3.4569   0.5755   2.0379 H              1 S1                 0.0000
     24 ****         1.2287   1.3254   1.2756 H              1 S1                 0.0000
     25 ****         1.0609  -0.2213   2.0924 H              1 S1                 0.0000
     26 ****        -0.7286  -2.4393   0.0108 H              1 S1                 0.0000
     27 ****         1.1174  -1.2783   0.0217 LP             1 S1                 0.0000
     28 ****         3.2954   1.6403  -0.0294 LP             1 S1                 0.0000
     29 ****         4.5206   0.5607  -0.0169 LP             1 S1                 0.0000
     30 ****        -3.0699  -2.4324   0.0100 LP             1 S1                 0.0000
@<TRIPOS>BOND
    1    1    2 1     
    2    1   14 1     
    3    1   15 1     
    4    2   13 ar    
    5    2    3 ar    
    6    3    4 ar    
    7    3   16 1     
    8    4    5 ar    
    9    4   17 1     
   10    5    6 1     
   11    5   12 ar    
   12    6   11 1     
   13    6    7 1     
   14    7    8 1     
   15    7   18 1     
   16    7   19 1     
   17    8    9 1     
   18    8   20 1     
   19    8   21 1     
   20    9   10 1     
   21   10   11 1     
   22   10   22 1     
   23   10   23 1     
   24   11   24 1     
   25   11   25 1     
   26   12   13 ar    
   27   12   26 1     
   28    6   27 1     
   29    9   28 1     
   30    9   29 1     
   31   13   30 1     
@<TRIPOS>SUBSTRUCTURE
      1 S1             1
@<TRIPOS>SET
LONE_PAIRS      STATIC     ATOMS    <user>   **** ""
4 27 28 29 30
DONOR_HYDROGENS      STATIC     ATOMS    <user>   **** ""
2 14 15
ATOM$BLUE        STATIC     ATOMS    COLORGROUP SYSTEM
4 27 28 29 30
ATOM$RED        STATIC     ATOMS    COLORGROUP SYSTEM
2 14 15
