#       Name:                AV-unprocessed.smi:1430
#       Creating user name   scv26
#       Creation time:       Fri Mar 27 05:48:23 2020


#       File generated by GOLD software.
#

@<TRIPOS>MOLECULE
AV-unprocessed.smi:1430
    54    55     1
SMALL
NO_CHARGES


@<TRIPOS>ATOM
      1 ****        -6.8187   3.5471   1.3759 C.3            1 S1                 0.0000
      2 ****        -5.6632   3.8720   0.6109 O.3            1 S1                 0.0000
      3 ****        -4.4884   3.2006   0.8808 C.ar           1 S1                 0.0000
      4 ****        -3.3408   3.5203   0.1284 C.ar           1 S1                 0.0000
      5 ****        -2.1376   2.8402   0.3973 C.ar           1 S1                 0.0000
      6 ****        -2.1187   1.8616   1.4201 C.ar           1 S1                 0.0000
      7 ****        -0.9784   1.0912   1.7757 N.am           1 S1                 0.0000
      8 ****         0.3166   1.3376   1.5149 C.2            1 S1                 0.0000
      9 ****         0.7533   2.3373   0.9463 O.2            1 S1                 0.0000
     10 ****         1.0983   0.3452   1.9638 N.am           1 S1                 0.0000
     11 ****         2.5548   0.3006   1.8493 C.3            1 S1                 0.0000
     12 ****         3.0534   0.1621   0.3936 C.3            1 S1                 0.0000
     13 ****         2.2966  -0.8448  -0.3926 N.4            1 S1                 1.0000
     14 ****         2.4699  -0.6763  -1.8539 C.3            1 S1                 0.0000
     15 ****         1.6010  -1.6933  -2.6176 C.3            1 S1                 0.0000
     16 ****         1.8070  -1.6064  -4.1337 C.3            1 S1                 0.0000
     17 ****         1.9454  -3.0087  -2.1952 O.3            1 S1                 0.0000
     18 ****         1.7085  -3.2194  -0.8071 C.3            1 S1                 0.0000
     19 ****         2.0244  -4.6838  -0.4836 C.3            1 S1                 0.0000
     20 ****         2.5803  -2.2441   0.0059 C.3            1 S1                 0.0000
     21 ****        -3.3245   1.6078   2.1062 C.ar           1 S1                 0.0000
     22 ****        -4.4806   2.2559   1.8534 N.ar           1 S1                 0.0000
     23 ****        -7.6545   4.1638   1.0457 H              1 S1                 0.0000
     24 ****        -6.6621   3.7437   2.4376 H              1 S1                 0.0000
     25 ****        -7.1052   2.5030   1.2435 H              1 S1                 0.0000
     26 ****        -3.3836   4.2721  -0.6459 H              1 S1                 0.0000
     27 ****        -1.2665   3.0733  -0.1945 H              1 S1                 0.0000
     28 ****        -1.1719   0.2682   2.3275 H              1 S1                 0.0000
     29 ****         0.6554  -0.4308   2.4342 H              1 S1                 0.0000
     30 ****         2.9880   1.1892   2.3108 H              1 S1                 0.0000
     31 ****         2.9042  -0.5451   2.4416 H              1 S1                 0.0000
     32 ****         2.9490   1.1322  -0.0937 H              1 S1                 0.0000
     33 ****         4.1193  -0.0694   0.3750 H              1 S1                 0.0000
     34 ****         2.1882   0.3373  -2.1423 H              1 S1                 0.0000
     35 ****         3.5223  -0.8041  -2.1130 H              1 S1                 0.0000
     36 ****         0.5467  -1.5118  -2.4007 H              1 S1                 0.0000
     37 ****         1.5460  -0.6167  -4.5091 H              1 S1                 0.0000
     38 ****         1.1831  -2.3335  -4.6541 H              1 S1                 0.0000
     39 ****         2.8446  -1.8043  -4.4040 H              1 S1                 0.0000
     40 ****         0.6543  -3.0368  -0.5910 H              1 S1                 0.0000
     41 ****         1.8527  -4.8993   0.5713 H              1 S1                 0.0000
     42 ****         3.0642  -4.9227  -0.7090 H              1 S1                 0.0000
     43 ****         1.3947  -5.3569  -1.0661 H              1 S1                 0.0000
     44 ****         3.6382  -2.4607  -0.1521 H              1 S1                 0.0000
     45 ****         2.3805  -2.3784   1.0689 H              1 S1                 0.0000
     46 ****        -3.3645   0.8616   2.8864 H              1 S1                 0.0000
     47 ****         1.3187  -0.6760  -0.2042 H              1 S1                 0.0000
     48 ****        -5.4843   4.8467   0.7447 LP             1 S1                 0.0000
     49 ****        -5.8868   3.7028  -0.3490 LP             1 S1                 0.0000
     50 ****         0.1249   3.0506   0.6361 LP             1 S1                 0.0000
     51 ****         1.7367   2.4366   0.7943 LP             1 S1                 0.0000
     52 ****         2.9162  -3.1605  -2.3808 LP             1 S1                 0.0000
     53 ****         1.3999  -3.6652  -2.7162 LP             1 S1                 0.0000
     54 ****        -5.3104   2.0449   2.3700 LP             1 S1                 0.0000
@<TRIPOS>BOND
    1    1    2 1     
    2    1   23 1     
    3    1   24 1     
    4    1   25 1     
    5    2    3 1     
    6    3   22 ar    
    7    3    4 ar    
    8    4    5 ar    
    9    4   26 1     
   10    5    6 ar    
   11    5   27 1     
   12    6    7 1     
   13    6   21 ar    
   14    7    8 am    
   15    7   28 1     
   16    8    9 2     
   17    8   10 am    
   18   10   11 1     
   19   10   29 1     
   20   11   12 1     
   21   11   30 1     
   22   11   31 1     
   23   12   13 1     
   24   12   32 1     
   25   12   33 1     
   26   13   20 1     
   27   13   14 1     
   28   13   47 1     
   29   14   15 1     
   30   14   34 1     
   31   14   35 1     
   32   15   16 1     
   33   15   17 1     
   34   15   36 1     
   35   16   37 1     
   36   16   38 1     
   37   16   39 1     
   38   17   18 1     
   39   18   19 1     
   40   18   20 1     
   41   18   40 1     
   42   19   41 1     
   43   19   42 1     
   44   19   43 1     
   45   20   44 1     
   46   20   45 1     
   47   21   22 ar    
   48   21   46 1     
   49    2   48 1     
   50    2   49 1     
   51    9   50 1     
   52    9   51 1     
   53   17   52 1     
   54   17   53 1     
   55   22   54 1     
@<TRIPOS>SUBSTRUCTURE
      1 S1             1
@<TRIPOS>SET
LONE_PAIRS      STATIC     ATOMS    <user>   **** ""
7 48 49 50 51 52 53 54
DONOR_HYDROGENS      STATIC     ATOMS    <user>   **** ""
3 28 29 47
ATOM$BLUE        STATIC     ATOMS    COLORGROUP SYSTEM
7 48 49 50 51 52 53 54
ATOM$RED        STATIC     ATOMS    COLORGROUP SYSTEM
3 28 29 47
