AV-unprocessed.smi:3183|AV-procd|sdf|12160|dock8
  -GOLD-   2272017593D 1   1.00000     0.00000
 Structure written by MMmdl.
 43 44  0  0  0  0  0  0  0  0  2 V2000
  152.8558  143.2137  160.5534 C   0  0  0  0  0  0  0  0  0  0  0  0
  152.3344  142.9752  159.1252 C   0  0  1  0  0  0  0  0  0  0  0  0
  151.5597  141.6431  159.0668 C   0  0  0  0  0  0  0  0  0  0  0  0
  151.0275  141.3427  157.6585 C   0  0  0  0  0  0  0  0  0  0  0  0
  150.1391  142.4910  157.1434 C   0  0  2  0  0  0  0  0  0  0  0  0
  149.6655  142.2384  155.7644 N   0  3  0  0  0  0  0  0  0  0  0  0
  149.0645  140.9078  155.5348 C   0  0  0  0  0  0  0  0  0  0  0  0
  149.9516  140.0561  154.6146 C   0  0  0  0  0  0  0  0  0  0  0  0
  149.9613  138.5943  154.9468 C   0  0  0  0  0  0  0  0  0  0  0  0
  148.9371  137.7370  155.2453 C   0  0  0  0  0  0  0  0  0  0  0  0
  149.5795  136.4886  155.4689 C   0  0  0  0  0  0  0  0  0  0  0  0
  150.8899  136.5606  155.3216 N   0  0  0  0  0  0  0  0  0  0  0  0
  151.1280  137.8492  155.0002 N   0  0  0  0  0  0  0  0  0  0  0  0
  152.5003  138.2610  154.7712 C   0  0  0  0  0  0  0  0  0  0  0  0
  150.9183  143.8170  157.1881 C   0  0  0  0  0  0  0  0  0  0  0  0
  151.4542  144.1391  158.5986 C   0  0  2  0  0  0  0  0  0  0  0  0
  152.1921  145.4900  158.5828 C   0  0  0  0  0  0  0  0  0  0  0  0
  152.0365  143.3942  161.2498 H   0  0  0  0  0  0  0  0  0  0  0  0
  153.5321  144.0668  160.6010 H   0  0  0  0  0  0  0  0  0  0  0  0
  153.4131  142.3492  160.9153 H   0  0  0  0  0  0  0  0  0  0  0  0
  153.2030  142.8824  158.4710 H   0  0  0  0  0  0  0  0  0  0  0  0
  152.2037  140.8241  159.3894 H   0  0  0  0  0  0  0  0  0  0  0  0
  150.7258  141.6713  159.7699 H   0  0  0  0  0  0  0  0  0  0  0  0
  151.8655  141.1855  156.9782 H   0  0  0  0  0  0  0  0  0  0  0  0
  150.4713  140.4059  157.6860 H   0  0  0  0  0  0  0  0  0  0  0  0
  149.2667  142.5894  157.7917 H   0  0  0  0  0  0  0  0  0  0  0  0
  148.9559  142.9265  155.5567 H   0  0  0  0  0  0  0  0  0  0  0  0
  148.9263  140.3963  156.4874 H   0  0  0  0  0  0  0  0  0  0  0  0
  148.0782  141.0336  155.0859 H   0  0  0  0  0  0  0  0  0  0  0  0
  149.6190  140.1827  153.5837 H   0  0  0  0  0  0  0  0  0  0  0  0
  150.9740  140.4340  154.6543 H   0  0  0  0  0  0  0  0  0  0  0  0
  147.8826  137.9632  155.2982 H   0  0  0  0  0  0  0  0  0  0  0  0
  149.1352  135.5401  155.7318 H   0  0  0  0  0  0  0  0  0  0  0  0
  152.5422  139.2724  154.3683 H   0  0  0  0  0  0  0  0  0  0  0  0
  152.9745  137.5840  154.0597 H   0  0  0  0  0  0  0  0  0  0  0  0
  153.0525  138.2323  155.7108 H   0  0  0  0  0  0  0  0  0  0  0  0
  151.7511  143.7761  156.4840 H   0  0  0  0  0  0  0  0  0  0  0  0
  150.2718  144.6280  156.8496 H   0  0  0  0  0  0  0  0  0  0  0  0
  150.5955  144.2438  159.2638 H   0  0  0  0  0  0  0  0  0  0  0  0
  153.1065  145.4370  157.9912 H   0  0  0  0  0  0  0  0  0  0  0  0
  152.4608  145.8161  159.5872 H   0  0  0  0  0  0  0  0  0  0  0  0
  151.5657  146.2736  158.1555 H   0  0  0  0  0  0  0  0  0  0  0  0
  150.4362  142.3722  155.1254 H   0  0  0  0  0  0  0  0  0  0  0  0
  1  2  1  0  0  0  0
  1 18  1  0  0  0  0
  1 19  1  0  0  0  0
  1 20  1  0  0  0  0
  2 16  1  0  0  0  0
  2  3  1  0  0  0  0
  2 21  1  0  0  0  0
  3  4  1  0  0  0  0
  3 22  1  0  0  0  0
  3 23  1  0  0  0  0
  4  5  1  0  0  0  0
  4 24  1  0  0  0  0
  4 25  1  0  0  0  0
  5  6  1  0  0  0  0
  5 15  1  0  0  0  0
  5 26  1  0  0  0  0
  6  7  1  0  0  0  0
  6 27  1  0  0  0  0
  6 43  1  0  0  0  0
  7  8  1  0  0  0  0
  7 28  1  0  0  0  0
  7 29  1  0  0  0  0
  8  9  1  0  0  0  0
  8 30  1  0  0  0  0
  8 31  1  0  0  0  0
  9 13  1  0  0  0  0
  9 10  2  0  0  0  0
 10 11  1  0  0  0  0
 10 32  1  0  0  0  0
 11 12  2  0  0  0  0
 11 33  1  0  0  0  0
 12 13  1  0  0  0  0
 13 14  1  0  0  0  0
 14 34  1  0  0  0  0
 14 35  1  0  0  0  0
 14 36  1  0  0  0  0
 15 16  1  0  0  0  0
 15 37  1  0  0  0  0
 15 38  1  0  0  0  0
 16 17  1  0  0  0  0
 16 39  1  0  0  0  0
 17 40  1  0  0  0  0
 17 41  1  0  0  0  0
 17 42  1  0  0  0  0
M  CHG  1   6   1
M  END
> <s_m_source_file>
AV-unprocessed.smi

> <i_m_source_file_index>
3183

> <i_lp_mmshare_version>
43012

> <i_f3d_flags>
0

> <s_epik_input>
W0NIM11bQ0BASF0xW0NIMl1bQ0gyXVtDQEhdKFtDSDJdW0NASF0xW0NIM10pW05IXVtDSDJdW0NIMl1jMltjSF1bY0hdbm4yW0NIM10=

> <s_epik_cmdline>
J2VwaWtfcHl0aG9uJywgJy1waCcsICc3LjAnLCAnLXRuJywgJzgnLCAnLW1hJywgJzIwMCcsICctbWV0YWxfYmluZGluZycsICctaW1hZScsICc8aW5maWxlLm1hZT4nLCAnLW9tYWUnLCAnPG91dGZpbGUubWFlPic=

> <r_lp_tautomer_probability>
1

> <r_epik_Ionization_Penalty>
0.000327718

> <r_epik_Ionization_Penalty_Charging>
0.000294043

> <r_epik_Ionization_Penalty_Neutral>
3.36755e-05

> <r_epik_State_Penalty>
-0

> <r_epik_Charging_Adjusted_Penalty>
0.000294043

> <i_epik_Tot_Q>
1

> <i_epik_Tot_abs_Q>
1

> <r_epik_Metal_State_Penalty>
-0

> <b_epik_Metal_Only>
0

> <s_lp_Force_Field>
OPLS_2005

> <r_lp_Energy>
12.5672

> <b_lp_Chiralities_Consistent>
1

> <s_lp_Variant>
AV-unprocessed.smi:3183-8

> <Gold.Version>
5.8.1

> <Gold.Id.Protein>
6NUR|6NUR_protein|mol2

> <Gold.PLP.Fitness>
47.1256

> <Gold.PLP.PLP>
-39.8116

> <Gold.PLP.part.hbond>
-2.0000

> <Gold.PLP.part.metal>
0.0000

> <Gold.PLP.part.buried>
-0.1633

> <Gold.PLP.part.nonpolar>
-38.2902

> <Gold.PLP.part.repulsive>
0.2627

> <Gold.PLP.ligand.clash>
0.0000

> <Gold.PLP.ligand.torsion>
0.8260

> <Gold.PLP.Chemscore.Hbond>
2.9840

> <Gold.PLP.Chemscore.CHOScore>
0.0000

> <Gold.PLP.Chemscore.Metal>
0.0000

> <Gold.Chemscore.Hbonds>
donor molecule, donor type, donor heavy atom, donor atom, acceptor molecule, acceptor atom, score
      L1  H     6    27       P1  8028  1.41
      P1  H 10752 10763       L1    12  0.12

> <Gold.PLP.Chemscore.Internal.Correction>
0.0140

> <Gold.Rescore>
     Score         DG    S(hbond)    S(metal)    S(lipo)     H(rot)  DE(clash)    DE(int)     intcor
     20.79     -23.45       1.97        0.00     127.56       1.38       1.90       0.77       ----

> <Gold.Chemscore.Fitness>
20.7876

> <Gold.Chemscore.DG>
-23.4518

> <Gold.Chemscore.ZeroCoef>
-5.4800

> <Gold.Chemscore.Hbond>
1.9678

> <Gold.Chemscore.Metal>
0.0000

> <Gold.Chemscore.Lipo>
127.5572

> <Gold.Chemscore.Internal_Hbond>
0.0000

> <Gold.Chemscore.DEClash>
1.8968

> <Gold.Chemscore.DEInternal>
0.7674

> <Gold.Chemscore.Rot>
1.3768

> <Gold.Chemscore.Internal.Correction>
   9.000000E+99

> <Gold.Chemscore.Hbonds>
donor molecule, donor type, donor heavy atom, donor atom, acceptor molecule, acceptor atom, score
      L1  H     6    27       P1  8028  0.70
      P1  H 10752 10763       L1    12  0.03

> <Gold.Chemscore.Hbond.Weighted>
-6.5724

> <Gold.Chemscore.Metal.Weighted>
-0.0000

> <Gold.Chemscore.Lipo.Weighted>
-14.9242

> <Gold.Chemscore.Internal_Hbond.Weighted>
0.0000

> <Gold.Chemscore.DEClash.Weighted>
1.8968

> <Gold.Chemscore.DEInternal.Weighted>
0.7674

> <Gold.Chemscore.Rot.Weighted>
3.5247

> <Gold.Chemscore.Internal.Correction.Weighted>
   9.000000E+99

> <Gold.Protein.RotatedTorsions>
[ 6907 6896 6895 6894 ] final  166.80 input  -60.11 | X-H torsion
[ 7974 7965 7964 7962 ] final  149.76 input  175.53 | X-H torsion
[ 8008 7997 7996 7995 ] final  -83.84 input   59.86 | X-H torsion
[ 10167 10162 10161 10158 ] final   74.12 input  -65.29 | X-H torsion
[ 10718 10713 10712 10709 ] final  121.50 input   66.30 | X-H torsion
[ 10763 10752 10751 10750 ] final   56.68 input  -60.55 | X-H torsion
[ 11005 11000 10999 10996 ] final   97.69 input  -57.11 | X-H torsion

> <Gold.Protein.ActiveResidues>
 VAL166  LYS551  ARG553  GLY616  TRP617  ASP618  TYR619  PRO620  LYS621  CYS622 
 ASP623  PHE694  ASN695  SER759  ASP760  ASP761  ALA762  ILE779  LEU786  VAL792 
 PHE793  MET794  SER795  GLU796  ALA797  LYS798  CYS799  TRP800  GLU811  SER814 

> <Gold.Protein.RotatedAtoms>
  151.8732  133.3480  159.3741 H   0  0  0  0  0  0  0  0  0  0  0  0  # atno 6907 bound_to 6896
  150.7147  134.5092  159.5608 H   0  0  0  0  0  0  0  0  0  0  0  0  # atno 6908 bound_to 6896
  152.2629  134.8016  160.0478 H   0  0  0  0  0  0  0  0  0  0  0  0  # atno 6909 bound_to 6896
  144.8414  139.6322  143.6015 H   0  0  0  0  0  0  0  0  0  0  0  0  # atno 7974 bound_to 7965
  154.6233  140.0613  156.9642 H   0  0  0  0  0  0  0  0  0  0  0  0  # atno 8008 bound_to 7997
  155.1782  140.3297  155.4361 H   0  0  0  0  0  0  0  0  0  0  0  0  # atno 8009 bound_to 7997
  156.2444  140.1902  156.6880 H   0  0  0  0  0  0  0  0  0  0  0  0  # atno 8010 bound_to 7997
  140.0171  144.5569  150.7612 H   0  0  0  0  0  0  0  0  0  0  0  0  # atno 10167 bound_to 10162
  157.5812  131.1074  150.8182 H   0  0  0  0  0  0  0  0  0  0  0  0  # atno 10718 bound_to 10713
  152.9836  135.5668  154.5268 H   0  0  0  0  0  0  0  0  0  0  0  0  # atno 10763 bound_to 10752
  154.4747  135.2786  155.1618 H   0  0  0  0  0  0  0  0  0  0  0  0  # atno 10764 bound_to 10752
  154.3152  135.6280  153.5536 H   0  0  0  0  0  0  0  0  0  0  0  0  # atno 10765 bound_to 10752
  139.8775  134.9013  156.4344 H   0  0  0  0  0  0  0  0  0  0  0  0  # atno 11005 bound_to 11000
  146.2706  139.6625  142.9299 LP  0  0  0  0  0  0  0  0  0  0  0  0  # atno 17320 bound_to 7965
  145.4687  141.0435  143.2711 LP  0  0  0  0  0  0  0  0  0  0  0  0  # atno 17321 bound_to 7965
  140.7358  143.2745  151.3785 LP  0  0  0  0  0  0  0  0  0  0  0  0  # atno 17342 bound_to 10162
  139.6165  144.0992  152.2350 LP  0  0  0  0  0  0  0  0  0  0  0  0  # atno 17343 bound_to 10162
  156.8628  130.5119  149.5302 LP  0  0  0  0  0  0  0  0  0  0  0  0  # atno 17370 bound_to 10713
  156.0859  130.5857  150.9646 LP  0  0  0  0  0  0  0  0  0  0  0  0  # atno 17371 bound_to 10713
  140.9044  133.7757  155.9717 LP  0  0  0  0  0  0  0  0  0  0  0  0  # atno 17394 bound_to 11000
  140.8616  134.2834  157.5232 LP  0  0  0  0  0  0  0  0  0  0  0  0  # atno 17395 bound_to 11000

$$$$
