AV-unprocessed.smi:1545|AV-procd|sdf|6215|dock8
  -GOLD-   22720 6383D 1   1.00000     0.00000
 Structure written by MMmdl.
 42 44  0  0  0  0  0  0  0  0  2 V2000
  148.8939  138.9519  153.2716 O   0  0  0  0  0  0  0  0  0  0  0  0
  147.4936  139.0023  153.4377 C   0  0  0  0  0  0  0  0  0  0  0  0
  146.7954  138.7181  152.1015 C   0  0  0  0  0  0  0  0  0  0  0  0
  145.4693  138.1550  152.2967 N   0  0  0  0  0  0  0  0  0  0  0  0
  145.2749  136.7859  152.0867 C   0  0  0  0  0  0  0  0  0  0  0  0
  146.2528  135.8615  151.8911 N   0  3  0  0  0  0  0  0  0  0  0  0
  145.6488  134.6146  151.7066 C   0  0  0  0  0  0  0  0  0  0  0  0
  146.2062  133.3619  151.4700 C   0  0  0  0  0  0  0  0  0  0  0  0
  145.3065  132.2857  151.3222 C   0  0  0  0  0  0  0  0  0  0  0  0
  143.9119  132.4751  151.4111 C   0  0  0  0  0  0  0  0  0  0  0  0
  143.3552  133.7482  151.6522 C   0  0  0  0  0  0  0  0  0  0  0  0
  144.2494  134.8080  151.7980 C   0  0  0  0  0  0  0  0  0  0  0  0
  144.0624  136.1749  152.0371 N   0  0  0  0  0  0  0  0  0  0  0  0
  142.7003  136.7136  152.1699 C   0  0  0  0  0  0  0  0  0  0  0  0
  142.1457  136.5644  153.6005 C   0  0  1  0  0  0  0  0  0  0  0  0
  143.0853  137.1196  154.4969 O   0  0  0  0  0  0  0  0  0  0  0  0
  140.7647  137.1877  153.7476 C   0  0  0  0  0  0  0  0  0  0  0  0
  139.6366  136.3852  154.0281 C   0  0  0  0  0  0  0  0  0  0  0  0
  138.3683  136.9758  154.1886 C   0  0  0  0  0  0  0  0  0  0  0  0
  138.2211  138.3715  154.0754 C   0  0  0  0  0  0  0  0  0  0  0  0
  139.3427  139.1767  153.8009 C   0  0  0  0  0  0  0  0  0  0  0  0
  139.2041  140.5198  153.7001 F   0  0  0  0  0  0  0  0  0  0  0  0
  140.6102  138.5863  153.6349 C   0  0  0  0  0  0  0  0  0  0  0  0
  149.1239  139.4536  152.5042 H   0  0  0  0  0  0  0  0  0  0  0  0
  147.2238  138.2333  154.1618 H   0  0  0  0  0  0  0  0  0  0  0  0
  147.1902  139.9613  153.8598 H   0  0  0  0  0  0  0  0  0  0  0  0
  146.7460  139.6196  151.4890 H   0  0  0  0  0  0  0  0  0  0  0  0
  147.3835  137.9870  151.5455 H   0  0  0  0  0  0  0  0  0  0  0  0
  144.6746  138.7757  152.3595 H   0  0  0  0  0  0  0  0  0  0  0  0
  147.2739  133.2128  151.4003 H   0  0  0  0  0  0  0  0  0  0  0  0
  145.6942  131.2946  151.1362 H   0  0  0  0  0  0  0  0  0  0  0  0
  143.2549  131.6257  151.2920 H   0  0  0  0  0  0  0  0  0  0  0  0
  142.2856  133.8825  151.7177 H   0  0  0  0  0  0  0  0  0  0  0  0
  142.7187  137.7605  151.8646 H   0  0  0  0  0  0  0  0  0  0  0  0
  142.0614  136.1969  151.4526 H   0  0  0  0  0  0  0  0  0  0  0  0
  142.0754  135.5047  153.8487 H   0  0  0  0  0  0  0  0  0  0  0  0
  143.0780  136.6104  155.2932 H   0  0  0  0  0  0  0  0  0  0  0  0
  139.7409  135.3147  154.1281 H   0  0  0  0  0  0  0  0  0  0  0  0
  137.5089  136.3590  154.4058 H   0  0  0  0  0  0  0  0  0  0  0  0
  137.2493  138.8244  154.2044 H   0  0  0  0  0  0  0  0  0  0  0  0
  141.4667  139.2126  153.4323 H   0  0  0  0  0  0  0  0  0  0  0  0
  147.2433  136.0671  151.8810 H   0  0  0  0  0  0  0  0  0  0  0  0
  1  2  1  0  0  0  0
  1 24  1  0  0  0  0
  2  3  1  0  0  0  0
  2 25  1  0  0  0  0
  2 26  1  0  0  0  0
  3  4  1  0  0  0  0
  3 27  1  0  0  0  0
  3 28  1  0  0  0  0
  4  5  1  0  0  0  0
  4 29  1  0  0  0  0
  5 13  1  0  0  0  0
  5  6  2  0  0  0  0
  6  7  1  0  0  0  0
  6 42  1  0  0  0  0
  7 12  2  0  0  0  0
  7  8  1  0  0  0  0
  8  9  2  0  0  0  0
  8 30  1  0  0  0  0
  9 10  1  0  0  0  0
  9 31  1  0  0  0  0
 10 11  2  0  0  0  0
 10 32  1  0  0  0  0
 11 12  1  0  0  0  0
 11 33  1  0  0  0  0
 12 13  1  0  0  0  0
 13 14  1  0  0  0  0
 14 15  1  0  0  0  0
 14 34  1  0  0  0  0
 14 35  1  0  0  0  0
 15 16  1  0  0  0  0
 15 17  1  0  0  0  0
 15 36  1  0  0  0  0
 16 37  1  0  0  0  0
 17 23  1  0  0  0  0
 17 18  2  0  0  0  0
 18 19  1  0  0  0  0
 18 38  1  0  0  0  0
 19 20  2  0  0  0  0
 19 39  1  0  0  0  0
 20 21  1  0  0  0  0
 20 40  1  0  0  0  0
 21 22  1  0  0  0  0
 21 23  2  0  0  0  0
 23 41  1  0  0  0  0
M  CHG  1   6   1
M  END
> <s_m_source_file>
AV-unprocessed.smi

> <i_m_source_file_index>
1545

> <i_lp_mmshare_version>
43012

> <i_f3d_flags>
0

> <s_epik_input>
W09IXVtDSDJdW0NIMl1bTkhdYyhuMSluKGMoYzEyKVtjSF1bY0hdW2NIXVtjSF0yKVtDSDJdW0NASF0oW09IXSljM1tjSF1bY0hdW2NIXWMoRilbY0hdMw==

> <s_epik_cmdline>
J2VwaWtfcHl0aG9uJywgJy1waCcsICc3LjAnLCAnLXRuJywgJzgnLCAnLW1hJywgJzIwMCcsICctbWV0YWxfYmluZGluZycsICctaW1hZScsICc8aW5maWxlLm1hZT4nLCAnLW9tYWUnLCAnPG91dGZpbGUubWFlPic=

> <r_epik_Ionization_Penalty>
0.0688114

> <r_epik_Ionization_Penalty_Charging>
0.0688055

> <r_epik_Ionization_Penalty_Neutral>
5.85933e-06

> <r_epik_State_Penalty>
0.0602293

> <r_epik_Charging_Adjusted_Penalty>
0.129035

> <i_epik_Tot_Q>
1

> <i_epik_Tot_abs_Q>
1

> <r_epik_Metal_State_Penalty>
2.77411

> <b_epik_Metal_Only>
0

> <s_lp_Force_Field>
OPLS_2005

> <r_lp_Energy>
23.1511

> <b_lp_Chiralities_Consistent>
1

> <s_lp_Variant>
AV-unprocessed.smi:1545-2

> <Gold.Version>
5.8.1

> <Gold.Id.Protein>
6NUR|6NUR_protein|mol2

> <Gold.PLP.Fitness>
57.4166

> <Gold.PLP.PLP>
-43.7103

> <Gold.PLP.part.hbond>
-4.7925

> <Gold.PLP.part.metal>
0.0000

> <Gold.PLP.part.buried>
-5.6068

> <Gold.PLP.part.nonpolar>
-34.5835

> <Gold.PLP.part.repulsive>
0.0665

> <Gold.PLP.ligand.clash>
0.0000

> <Gold.PLP.ligand.torsion>
0.6661

> <Gold.PLP.Chemscore.Hbond>
5.0000

> <Gold.PLP.Chemscore.CHOScore>
0.0000

> <Gold.PLP.Chemscore.Metal>
0.0000

> <Gold.Chemscore.Hbonds>
donor molecule, donor type, donor heavy atom, donor atom, acceptor molecule, acceptor atom, score
      L1  H     1    24       P1  7957  1.00
      L1  H     4    29       P1 10175  2.00
      L1  H     6    42       P1  7948  2.00

> <Gold.PLP.Chemscore.Internal.Correction>
0.0385

> <Gold.Rescore>
     Score         DG    S(hbond)    S(metal)    S(lipo)     H(rot)  DE(clash)    DE(int)     intcor
     17.84     -19.58       2.97        0.00     104.60       3.15       1.31       0.44       ----

> <Gold.Chemscore.Fitness>
17.8375

> <Gold.Chemscore.DG>
-19.5834

> <Gold.Chemscore.ZeroCoef>
-5.4800

> <Gold.Chemscore.Hbond>
2.9732

> <Gold.Chemscore.Metal>
0.0000

> <Gold.Chemscore.Lipo>
104.5985

> <Gold.Chemscore.Internal_Hbond>
0.0000

> <Gold.Chemscore.DEClash>
1.3051

> <Gold.Chemscore.DEInternal>
0.4408

> <Gold.Chemscore.Rot>
3.1505

> <Gold.Chemscore.Internal.Correction>
   9.000000E+99

> <Gold.Chemscore.Hbonds>
donor molecule, donor type, donor heavy atom, donor atom, acceptor molecule, acceptor atom, score
      L1  H     1    24       P1  7957  0.94
      L1  H     4    29       P1 10175  0.98
      L1  H     6    42       P1  7948  1.00

> <Gold.Chemscore.Hbond.Weighted>
-9.9306

> <Gold.Chemscore.Metal.Weighted>
-0.0000

> <Gold.Chemscore.Lipo.Weighted>
-12.2380

> <Gold.Chemscore.Internal_Hbond.Weighted>
0.0000

> <Gold.Chemscore.DEClash.Weighted>
1.3051

> <Gold.Chemscore.DEInternal.Weighted>
0.4408

> <Gold.Chemscore.Rot.Weighted>
8.0652

> <Gold.Chemscore.Internal.Correction.Weighted>
   9.000000E+99

> <Gold.Protein.RotatedTorsions>
[ 6907 6896 6895 6894 ] final  152.47 input  -60.11 | X-H torsion
[ 7974 7965 7964 7962 ] final  -99.06 input  175.53 | X-H torsion
[ 8008 7997 7996 7995 ] final -131.08 input   59.86 | X-H torsion
[ 10167 10162 10161 10158 ] final  -15.95 input  -65.29 | X-H torsion
[ 10718 10713 10712 10709 ] final    7.61 input   66.30 | X-H torsion
[ 10763 10752 10751 10750 ] final -153.32 input  -60.55 | X-H torsion
[ 11005 11000 10999 10996 ] final  105.22 input  -57.11 | X-H torsion

> <Gold.Protein.ActiveResidues>
 VAL166  LYS551  ARG553  GLY616  TRP617  ASP618  TYR619  PRO620  LYS621  CYS622 
 ASP623  PHE694  ASN695  SER759  ASP760  ASP761  ALA762  ILE779  LEU786  VAL792 
 PHE793  MET794  SER795  GLU796  ALA797  LYS798  CYS799  TRP800  GLU811  SER814 

> <Gold.Protein.RotatedAtoms>
  152.0863  133.4178  159.4523 H   0  0  0  0  0  0  0  0  0  0  0  0  # atno 6907 bound_to 6896
  150.6862  134.2924  159.4681 H   0  0  0  0  0  0  0  0  0  0  0  0  # atno 6908 bound_to 6896
  152.0770  134.9495  160.0624 H   0  0  0  0  0  0  0  0  0  0  0  0  # atno 6909 bound_to 6896
  145.3125  140.9403  143.2761 H   0  0  0  0  0  0  0  0  0  0  0  0  # atno 7974 bound_to 7965
  155.3064  140.0455  157.3032 H   0  0  0  0  0  0  0  0  0  0  0  0  # atno 8008 bound_to 7997
  154.5458  140.2302  155.8533 H   0  0  0  0  0  0  0  0  0  0  0  0  # atno 8009 bound_to 7997
  156.1922  140.3047  155.9362 H   0  0  0  0  0  0  0  0  0  0  0  0  # atno 8010 bound_to 7997
  140.7226  143.5166  150.9684 H   0  0  0  0  0  0  0  0  0  0  0  0  # atno 10167 bound_to 10162
  156.9395  130.5856  149.5652 H   0  0  0  0  0  0  0  0  0  0  0  0  # atno 10718 bound_to 10713
  154.7935  135.3215  154.7721 H   0  0  0  0  0  0  0  0  0  0  0  0  # atno 10763 bound_to 10752
  153.8405  135.6871  153.4808 H   0  0  0  0  0  0  0  0  0  0  0  0  # atno 10764 bound_to 10752
  153.1616  135.4658  154.9721 H   0  0  0  0  0  0  0  0  0  0  0  0  # atno 10765 bound_to 10752
  139.8800  134.9328  156.5481 H   0  0  0  0  0  0  0  0  0  0  0  0  # atno 11005 bound_to 11000
  144.9004  139.4657  143.6635 LP  0  0  0  0  0  0  0  0  0  0  0  0  # atno 17320 bound_to 7965
  146.3112  139.7755  142.9018 LP  0  0  0  0  0  0  0  0  0  0  0  0  # atno 17321 bound_to 7965
  139.8882  143.6986  152.3148 LP  0  0  0  0  0  0  0  0  0  0  0  0  # atno 17342 bound_to 10162
  139.7293  144.7586  151.0828 LP  0  0  0  0  0  0  0  0  0  0  0  0  # atno 17343 bound_to 10162
  156.0411  130.5493  150.8772 LP  0  0  0  0  0  0  0  0  0  0  0  0  # atno 17370 bound_to 10713
  157.5794  131.0946  150.9294 LP  0  0  0  0  0  0  0  0  0  0  0  0  # atno 17371 bound_to 10713
  140.8260  133.8316  155.8940 LP  0  0  0  0  0  0  0  0  0  0  0  0  # atno 17394 bound_to 11000
  140.9373  134.1945  157.4822 LP  0  0  0  0  0  0  0  0  0  0  0  0  # atno 17395 bound_to 11000

$$$$
