#       Name:                AV-unprocessed.smi:2762
#       Creating user name   scv26
#       Creation time:       Fri Mar 27 15:08:39 2020


#       File generated by GOLD software.
#

@<TRIPOS>MOLECULE
AV-unprocessed.smi:2762
    45    46     1
SMALL
NO_CHARGES


@<TRIPOS>ATOM
      1 ****         0.9563   1.1729  -0.7635 O.2            1 S1                 0.0000
      2 ****         0.4402   0.2060  -1.3249 C.2            1 S1                 0.0000
      3 ****         1.1106  -0.9109  -1.6439 N.am           1 S1                 0.0000
      4 ****         2.5139  -1.1701  -1.3369 C.3            1 S1                 0.0000
      5 ****         2.6696  -1.9585  -0.0213 C.3            1 S1                 0.0000
      6 ****         2.2571  -1.2517   1.1913 N.3            1 S1                 0.0000
      7 ****         3.1393  -0.1339   1.5200 C.3            1 S1                 0.0000
      8 ****         2.6901   0.5892   2.8013 C.3            1 S1                 0.0000
      9 ****         2.6271  -0.3405   3.8782 O.3            1 S1                 0.0000
     10 ****         1.7451  -1.4267   3.6138 C.3            1 S1                 0.0000
     11 ****         2.1930  -2.1546   2.3346 C.3            1 S1                 0.0000
     12 ****        -0.8494   0.1210  -1.6960 N.am           1 S1                 0.0000
     13 ****        -1.8896   1.0628  -1.4755 C.ar           1 S1                 0.0000
     14 ****        -3.1531   0.6882  -1.9852 C.ar           1 S1                 0.0000
     15 ****        -4.2596   1.5487  -1.8130 C.ar           1 S1                 0.0000
     16 ****        -5.6357   1.1888  -2.3509 C.3            1 S1                 0.0000
     17 ****        -6.5718   1.4829  -1.4482 F              1 S1                 0.0000
     18 ****        -5.8715   1.8907  -3.4587 F              1 S1                 0.0000
     19 ****        -5.7253  -0.1100  -2.6399 F              1 S1                 0.0000
     20 ****        -4.0577   2.7687  -1.1375 C.ar           1 S1                 0.0000
     21 ****        -2.7677   3.0648  -0.6620 C.ar           1 S1                 0.0000
     22 ****        -1.7140   2.2386  -0.8234 N.ar           1 S1                 0.0000
     23 ****         0.6053  -1.6516  -2.1073 H              1 S1                 0.0000
     24 ****         2.9160  -1.7688  -2.1543 H              1 S1                 0.0000
     25 ****         3.0987  -0.2497  -1.3329 H              1 S1                 0.0000
     26 ****         2.0870  -2.8760  -0.1149 H              1 S1                 0.0000
     27 ****         3.7075  -2.2781   0.0829 H              1 S1                 0.0000
     28 ****         4.1613  -0.4936   1.6477 H              1 S1                 0.0000
     29 ****         3.1630   0.5869   0.7042 H              1 S1                 0.0000
     30 ****         3.3926   1.3830   3.0553 H              1 S1                 0.0000
     31 ****         1.7152   1.0576   2.6574 H              1 S1                 0.0000
     32 ****         1.7557  -2.1099   4.4630 H              1 S1                 0.0000
     33 ****         0.7234  -1.0579   3.5107 H              1 S1                 0.0000
     34 ****         1.5000  -2.9698   2.1242 H              1 S1                 0.0000
     35 ****         3.1700  -2.6107   2.5018 H              1 S1                 0.0000
     36 ****        -1.1247  -0.7275  -2.1677 H              1 S1                 0.0000
     37 ****        -3.2699  -0.2519  -2.5045 H              1 S1                 0.0000
     38 ****        -4.8714   3.4626  -0.9870 H              1 S1                 0.0000
     39 ****        -2.5761   3.9897  -0.1384 H              1 S1                 0.0000
     40 ****         1.9261   1.1511  -0.5208 LP             1 S1                 0.0000
     41 ****         0.4055   1.9799  -0.5503 LP             1 S1                 0.0000
     42 ****         1.3467  -0.8867   0.9966 LP             1 S1                 0.0000
     43 ****         2.3090   0.1384   4.6964 LP             1 S1                 0.0000
     44 ****         3.5441  -0.7049   4.0407 LP             1 S1                 0.0000
     45 ****        -0.8143   2.4900  -0.4665 LP             1 S1                 0.0000
@<TRIPOS>BOND
    1    1    2 2     
    2    2    3 am    
    3    2   12 am    
    4    3    4 1     
    5    3   23 1     
    6    4    5 1     
    7    4   24 1     
    8    4   25 1     
    9    5    6 1     
   10    5   26 1     
   11    5   27 1     
   12    6   11 1     
   13    6    7 1     
   14    7    8 1     
   15    7   28 1     
   16    7   29 1     
   17    8    9 1     
   18    8   30 1     
   19    8   31 1     
   20    9   10 1     
   21   10   11 1     
   22   10   32 1     
   23   10   33 1     
   24   11   34 1     
   25   11   35 1     
   26   12   13 1     
   27   12   36 1     
   28   13   22 ar    
   29   13   14 ar    
   30   14   15 ar    
   31   14   37 1     
   32   15   16 1     
   33   15   20 ar    
   34   16   17 1     
   35   16   18 1     
   36   16   19 1     
   37   20   21 ar    
   38   20   38 1     
   39   21   22 ar    
   40   21   39 1     
   41    1   40 1     
   42    1   41 1     
   43    6   42 1     
   44    9   43 1     
   45    9   44 1     
   46   22   45 1     
@<TRIPOS>SUBSTRUCTURE
      1 S1             1
@<TRIPOS>SET
LONE_PAIRS      STATIC     ATOMS    <user>   **** ""
6 40 41 42 43 44 45
DONOR_HYDROGENS      STATIC     ATOMS    <user>   **** ""
2 23 36
ATOM$BLUE        STATIC     ATOMS    COLORGROUP SYSTEM
6 40 41 42 43 44 45
ATOM$RED        STATIC     ATOMS    COLORGROUP SYSTEM
2 23 36
