AV-unprocessed.smi:1934|AV-procd|sdf|7826|dock3
  -GOLD-   22720 9573D 1   1.00000     0.00000
 Structure written by MMmdl.
 46 47  0  0  0  0  0  0  0  0  2 V2000
  150.3853  141.3258  155.5903 C   0  0  0  0  0  0  0  0  0  0  0  0
  149.0489  141.1555  154.9303 C   0  0  0  0  0  0  0  0  0  0  0  0
  148.4656  139.9555  154.4297 C   0  0  0  0  0  0  0  0  0  0  0  0
  147.2623  140.3862  153.9417 C   0  0  0  0  0  0  0  0  0  0  0  0
  146.2776  139.6670  153.3403 N   0  0  0  0  0  0  0  0  0  0  0  0
  146.2447  138.3495  153.0748 C   0  0  0  0  0  0  0  0  0  0  0  0
  147.1309  137.5408  153.3516 O   0  0  0  0  0  0  0  0  0  0  0  0
  145.1098  138.0080  152.4477 N   0  0  0  0  0  0  0  0  0  0  0  0
  144.7737  136.6580  152.0102 C   0  0  0  0  0  0  0  0  0  0  0  0
  145.6104  136.2364  150.7860 C   0  0  0  0  0  0  0  0  0  0  0  0
  145.4911  134.7874  150.4844 N   0  3  2  0  0  0  0  0  0  0  0  0
  144.1075  134.4128  150.0923 C   0  0  0  0  0  0  0  0  0  0  0  0
  144.0324  132.9416  149.6550 C   0  0  0  0  0  0  0  0  0  0  0  0
  144.5543  132.0140  150.7591 C   0  0  0  0  0  0  0  0  0  0  0  0
  145.9765  132.4273  151.1727 C   0  0  2  0  0  0  0  0  0  0  0  0
  146.5153  131.5308  152.2966 C   0  0  0  0  0  0  0  0  0  0  0  0
  146.0044  133.9155  151.5758 C   0  0  0  0  0  0  0  0  0  0  0  0
  147.1559  141.7431  154.1544 N   0  0  0  0  0  0  0  0  0  0  0  0
  146.0755  142.6488  153.8142 C   0  0  0  0  0  0  0  0  0  0  0  0
  148.2655  142.2152  154.7626 N   0  0  0  0  0  0  0  0  0  0  0  0
  150.9025  140.3706  155.6840 H   0  0  0  0  0  0  0  0  0  0  0  0
  150.2790  141.7443  156.5916 H   0  0  0  0  0  0  0  0  0  0  0  0
  151.0257  141.9939  155.0140 H   0  0  0  0  0  0  0  0  0  0  0  0
  148.8791  138.9583  154.4383 H   0  0  0  0  0  0  0  0  0  0  0  0
  145.4777  140.2035  153.0384 H   0  0  0  0  0  0  0  0  0  0  0  0
  144.4315  138.7324  152.2601 H   0  0  0  0  0  0  0  0  0  0  0  0
  144.9155  135.9544  152.8324 H   0  0  0  0  0  0  0  0  0  0  0  0
  143.7098  136.6525  151.7767 H   0  0  0  0  0  0  0  0  0  0  0  0
  145.3350  136.8220  149.9073 H   0  0  0  0  0  0  0  0  0  0  0  0
  146.6570  136.4664  150.9909 H   0  0  0  0  0  0  0  0  0  0  0  0
  143.4294  134.5932  150.9281 H   0  0  0  0  0  0  0  0  0  0  0  0
  143.7717  135.0447  149.2692 H   0  0  0  0  0  0  0  0  0  0  0  0
  143.0038  132.6798  149.4045 H   0  0  0  0  0  0  0  0  0  0  0  0
  144.6183  132.7979  148.7461 H   0  0  0  0  0  0  0  0  0  0  0  0
  143.8871  132.0589  151.6213 H   0  0  0  0  0  0  0  0  0  0  0  0
  144.5452  130.9806  150.4104 H   0  0  0  0  0  0  0  0  0  0  0  0
  146.6306  132.2990  150.3084 H   0  0  0  0  0  0  0  0  0  0  0  0
  145.9115  131.6204  153.2003 H   0  0  0  0  0  0  0  0  0  0  0  0
  147.5409  131.7971  152.5539 H   0  0  0  0  0  0  0  0  0  0  0  0
  146.5130  130.4820  151.9979 H   0  0  0  0  0  0  0  0  0  0  0  0
  147.0282  134.1919  151.8251 H   0  0  0  0  0  0  0  0  0  0  0  0
  145.4084  134.0736  152.4765 H   0  0  0  0  0  0  0  0  0  0  0  0
  145.1212  142.2158  154.1149 H   0  0  0  0  0  0  0  0  0  0  0  0
  146.0675  142.8183  152.7373 H   0  0  0  0  0  0  0  0  0  0  0  0
  146.2026  143.6052  154.3235 H   0  0  0  0  0  0  0  0  0  0  0  0
  146.0677  134.6157  149.6730 H   0  0  0  0  0  0  0  0  0  0  0  0
  1  2  1  0  0  0  0
  1 21  1  0  0  0  0
  1 22  1  0  0  0  0
  1 23  1  0  0  0  0
  2 20  2  0  0  0  0
  2  3  1  0  0  0  0
  3  4  2  0  0  0  0
  3 24  1  0  0  0  0
  4  5  1  0  0  0  0
  4 18  1  0  0  0  0
  5  6  1  0  0  0  0
  5 25  1  0  0  0  0
  6  7  2  0  0  0  0
  6  8  1  0  0  0  0
  8  9  1  0  0  0  0
  8 26  1  0  0  0  0
  9 10  1  0  0  0  0
  9 27  1  0  0  0  0
  9 28  1  0  0  0  0
 10 11  1  0  0  0  0
 10 29  1  0  0  0  0
 10 30  1  0  0  0  0
 11 17  1  0  0  0  0
 11 12  1  0  0  0  0
 11 46  1  0  0  0  0
 12 13  1  0  0  0  0
 12 31  1  0  0  0  0
 12 32  1  0  0  0  0
 13 14  1  0  0  0  0
 13 33  1  0  0  0  0
 13 34  1  0  0  0  0
 14 15  1  0  0  0  0
 14 35  1  0  0  0  0
 14 36  1  0  0  0  0
 15 16  1  0  0  0  0
 15 17  1  0  0  0  0
 15 37  1  0  0  0  0
 16 38  1  0  0  0  0
 16 39  1  0  0  0  0
 16 40  1  0  0  0  0
 17 41  1  0  0  0  0
 17 42  1  0  0  0  0
 18 19  1  0  0  0  0
 18 20  1  0  0  0  0
 19 43  1  0  0  0  0
 19 44  1  0  0  0  0
 19 45  1  0  0  0  0
M  CHG  1  11   1
M  END
> <s_m_source_file>
AV-unprocessed.smi

> <i_m_source_file_index>
1934

> <i_lp_mmshare_version>
43012

> <i_f3d_flags>
0

> <s_epik_input>
W0NIM11jMVtjSF1jKG4objEpW0NIM10pW05IXUMoPU8pW05IXVtDSDJdW0NIMl1OMltDSDJdW0NIMl1bQ0gyXVtDQEBIXShbQ0gzXSlbQ0gyXTI=

> <s_epik_cmdline>
J2VwaWtfcHl0aG9uJywgJy1waCcsICc3LjAnLCAnLXRuJywgJzgnLCAnLW1hJywgJzIwMCcsICctbWV0YWxfYmluZGluZycsICctaW1hZScsICc8aW5maWxlLm1hZT4nLCAnLW9tYWUnLCAnPG91dGZpbGUubWFlPic=

> <r_lp_tautomer_probability>
1

> <r_epik_Ionization_Penalty>
0.00202955

> <r_epik_Ionization_Penalty_Charging>
0.00195276

> <r_epik_Ionization_Penalty_Neutral>
7.67968e-05

> <r_epik_State_Penalty>
0.00133177

> <r_epik_Charging_Adjusted_Penalty>
0.00328452

> <i_epik_Tot_Q>
1

> <i_epik_Tot_abs_Q>
1

> <r_epik_Metal_State_Penalty>
-0

> <b_epik_Metal_Only>
0

> <s_lp_Force_Field>
OPLS_2005

> <r_lp_Energy>
17.6546

> <b_lp_Chiralities_Consistent>
1

> <s_lp_Variant>
AV-unprocessed.smi:1934-4

> <Gold.Version>
5.8.1

> <Gold.Id.Protein>
6NUR|6NUR_protein|mol2

> <Gold.PLP.Fitness>
43.7911

> <Gold.PLP.PLP>
-35.3702

> <Gold.PLP.part.hbond>
-4.0000

> <Gold.PLP.part.metal>
0.0000

> <Gold.PLP.part.buried>
-3.3015

> <Gold.PLP.part.nonpolar>
-33.6326

> <Gold.PLP.part.repulsive>
5.7063

> <Gold.PLP.ligand.clash>
0.0000

> <Gold.PLP.ligand.torsion>
0.1100

> <Gold.PLP.Chemscore.Hbond>
2.8723

> <Gold.PLP.Chemscore.CHOScore>
0.0000

> <Gold.PLP.Chemscore.Metal>
0.0000

> <Gold.Chemscore.Hbonds>
donor molecule, donor type, donor heavy atom, donor atom, acceptor molecule, acceptor atom, score
      L1  H     5    25       P1 10175  1.00
      L1  H     8    26       P1 10175  1.00
      L1  H    11    46       P1  7921  0.86

> <Gold.PLP.Chemscore.Internal.Correction>
0.0240

> <Gold.Rescore>
     Score         DG    S(hbond)    S(metal)    S(lipo)     H(rot)  DE(clash)    DE(int)     intcor
     16.65     -21.26       2.76        0.00      88.65       1.48       3.34       1.27       ----

> <Gold.Chemscore.Fitness>
16.6519

> <Gold.Chemscore.DG>
-21.2598

> <Gold.Chemscore.ZeroCoef>
-5.4800

> <Gold.Chemscore.Hbond>
2.7565

> <Gold.Chemscore.Metal>
0.0000

> <Gold.Chemscore.Lipo>
88.6471

> <Gold.Chemscore.Internal_Hbond>
0.0000

> <Gold.Chemscore.DEClash>
3.3382

> <Gold.Chemscore.DEInternal>
1.2697

> <Gold.Chemscore.Rot>
1.4838

> <Gold.Chemscore.Internal.Correction>
   9.000000E+99

> <Gold.Chemscore.Hbonds>
donor molecule, donor type, donor heavy atom, donor atom, acceptor molecule, acceptor atom, score
      L1  H     5    25       P1 10175  0.97
      L1  H     8    26       P1 10175  0.98
      L1  H    11    46       P1  7921  0.39

> <Gold.Chemscore.Hbond.Weighted>
-9.2066

> <Gold.Chemscore.Metal.Weighted>
-0.0000

> <Gold.Chemscore.Lipo.Weighted>
-10.3717

> <Gold.Chemscore.Internal_Hbond.Weighted>
0.0000

> <Gold.Chemscore.DEClash.Weighted>
3.3382

> <Gold.Chemscore.DEInternal.Weighted>
1.2697

> <Gold.Chemscore.Rot.Weighted>
3.7985

> <Gold.Chemscore.Internal.Correction.Weighted>
   9.000000E+99

> <Gold.Protein.RotatedTorsions>
[ 6907 6896 6895 6894 ] final -125.37 input  -60.11 | X-H torsion
[ 7974 7965 7964 7962 ] final  -62.24 input  175.53 | X-H torsion
[ 8008 7997 7996 7995 ] final -159.15 input   59.86 | X-H torsion
[ 10167 10162 10161 10158 ] final  137.33 input  -65.29 | X-H torsion
[ 10718 10713 10712 10709 ] final   52.14 input   66.30 | X-H torsion
[ 10763 10752 10751 10750 ] final  -90.25 input  -60.55 | X-H torsion
[ 11005 11000 10999 10996 ] final   96.55 input  -57.11 | X-H torsion

> <Gold.Protein.ActiveResidues>
 VAL166  LYS551  ARG553  GLY616  TRP617  ASP618  TYR619  PRO620  LYS621  CYS622 
 ASP623  PHE694  ASN695  SER759  ASP760  ASP761  ALA762  ILE779  LEU786  VAL792 
 PHE793  MET794  SER795  GLU796  ALA797  LYS798  CYS799  TRP800  GLU811  SER814 

> <Gold.Protein.RotatedAtoms>
  150.8860  133.7307  159.2917 H   0  0  0  0  0  0  0  0  0  0  0  0  # atno 6907 bound_to 6896
  151.4872  135.1054  159.9803 H   0  0  0  0  0  0  0  0  0  0  0  0  # atno 6908 bound_to 6896
  152.4790  133.8162  159.7085 H   0  0  0  0  0  0  0  0  0  0  0  0  # atno 6909 bound_to 6896
  145.7937  140.8695  143.0267 H   0  0  0  0  0  0  0  0  0  0  0  0  # atno 7974 bound_to 7965
  155.7583  140.0835  157.2168 H   0  0  0  0  0  0  0  0  0  0  0  0  # atno 8008 bound_to 7997
  154.4006  140.1547  156.2859 H   0  0  0  0  0  0  0  0  0  0  0  0  # atno 8009 bound_to 7997
  155.8864  140.3417  155.5927 H   0  0  0  0  0  0  0  0  0  0  0  0  # atno 8010 bound_to 7997
  139.5148  144.6416  151.5554 H   0  0  0  0  0  0  0  0  0  0  0  0  # atno 10167 bound_to 10162
  157.5047  130.8461  149.8360 H   0  0  0  0  0  0  0  0  0  0  0  0  # atno 10718 bound_to 10713
  154.6639  135.5311  153.8052 H   0  0  0  0  0  0  0  0  0  0  0  0  # atno 10763 bound_to 10752
  153.0458  135.6512  154.0830 H   0  0  0  0  0  0  0  0  0  0  0  0  # atno 10764 bound_to 10752
  154.0736  135.2952  155.3283 H   0  0  0  0  0  0  0  0  0  0  0  0  # atno 10765 bound_to 10752
  139.8781  134.8956  156.4175 H   0  0  0  0  0  0  0  0  0  0  0  0  # atno 11005 bound_to 11000
  144.6778  140.0160  143.7484 LP  0  0  0  0  0  0  0  0  0  0  0  0  # atno 17320 bound_to 7965
  145.9950  139.3045  143.0962 LP  0  0  0  0  0  0  0  0  0  0  0  0  # atno 17321 bound_to 7965
  140.6185  143.9304  150.6507 LP  0  0  0  0  0  0  0  0  0  0  0  0  # atno 17342 bound_to 10162
  140.2570  143.3552  152.1356 LP  0  0  0  0  0  0  0  0  0  0  0  0  # atno 17343 bound_to 10162
  156.0251  130.3782  150.1847 LP  0  0  0  0  0  0  0  0  0  0  0  0  # atno 17370 bound_to 10713
  157.0037  130.9930  151.3384 LP  0  0  0  0  0  0  0  0  0  0  0  0  # atno 17371 bound_to 10713
  140.9157  133.7680  155.9845 LP  0  0  0  0  0  0  0  0  0  0  0  0  # atno 17394 bound_to 11000
  140.8496  134.2970  157.5281 LP  0  0  0  0  0  0  0  0  0  0  0  0  # atno 17395 bound_to 11000

$$$$
