AV-unprocessed.smi:2791|AV-procd|sdf|10771|dock10
  -GOLD-   2272015203D 1   1.00000     0.00000
 Structure written by MMmdl.
 35 36  0  0  0  0  0  0  0  0  1 V2000
  148.0292  138.7446  153.7633 C   0  0  0  0  0  0  0  0  0  0  0  0
  147.6906  140.0953  153.4768 O   0  0  0  0  0  0  0  0  0  0  0  0
  148.0104  141.0492  154.4903 C   0  0  0  0  0  0  0  0  0  0  0  0
  149.5263  141.1961  154.6810 C   0  0  0  0  0  0  0  0  0  0  0  0
  149.8260  142.2621  155.6273 N   0  0  0  0  0  0  0  0  0  0  0  0
  150.5869  142.1132  156.7187 C   0  0  0  0  0  0  0  0  0  0  0  0
  151.1162  141.0469  157.0332 O   0  0  0  0  0  0  0  0  0  0  0  0
  150.6827  143.2657  157.4042 N   0  0  0  0  0  0  0  0  0  0  0  0
  151.3578  143.5142  158.5579 C   0  0  0  0  0  0  0  0  0  0  0  0
  152.6456  143.1902  158.8882 C   0  0  0  0  0  0  0  0  0  0  0  0
  152.7669  143.7159  160.2064 C   0  0  0  0  0  0  0  0  0  0  0  0
  151.6580  144.3061  160.6352 N   0  0  0  0  0  0  0  0  0  0  0  0
  150.7810  144.1842  159.6148 N   0  0  0  0  0  0  0  0  0  0  0  0
  149.4423  144.7272  159.7394 C   0  0  0  0  0  0  0  0  0  0  0  0
  147.1963  142.3275  154.2140 C   0  0  0  0  0  0  0  0  0  0  0  0
  146.8241  142.3652  155.6972 C   0  0  0  0  0  0  0  0  0  0  0  0
  147.1201  140.8650  155.7357 C   0  0  0  0  0  0  0  0  0  0  0  0
  147.6350  138.1027  152.9760 H   0  0  0  0  0  0  0  0  0  0  0  0
  147.6033  138.4080  154.7088 H   0  0  0  0  0  0  0  0  0  0  0  0
  149.1083  138.5956  153.7923 H   0  0  0  0  0  0  0  0  0  0  0  0
  149.9506  140.2645  155.0586 H   0  0  0  0  0  0  0  0  0  0  0  0
  150.0293  141.3915  153.7334 H   0  0  0  0  0  0  0  0  0  0  0  0
  149.4292  143.1698  155.4326 H   0  0  0  0  0  0  0  0  0  0  0  0
  150.1782  144.0524  157.0229 H   0  0  0  0  0  0  0  0  0  0  0  0
  153.3893  142.6703  158.3037 H   0  0  0  0  0  0  0  0  0  0  0  0
  153.6247  143.6883  160.8619 H   0  0  0  0  0  0  0  0  0  0  0  0
  148.7096  143.9379  159.5693 H   0  0  0  0  0  0  0  0  0  0  0  0
  149.2964  145.5142  158.9995 H   0  0  0  0  0  0  0  0  0  0  0  0
  149.2873  145.1438  160.7356 H   0  0  0  0  0  0  0  0  0  0  0  0
  147.7811  143.1831  153.8748 H   0  0  0  0  0  0  0  0  0  0  0  0
  146.3307  142.1570  153.5711 H   0  0  0  0  0  0  0  0  0  0  0  0
  147.5227  142.9521  156.2960 H   0  0  0  0  0  0  0  0  0  0  0  0
  145.7873  142.6329  155.9025 H   0  0  0  0  0  0  0  0  0  0  0  0
  146.2298  140.2622  155.5471 H   0  0  0  0  0  0  0  0  0  0  0  0
  147.6474  140.5316  156.6301 H   0  0  0  0  0  0  0  0  0  0  0  0
  1  2  1  0  0  0  0
  1 18  1  0  0  0  0
  1 19  1  0  0  0  0
  1 20  1  0  0  0  0
  2  3  1  0  0  0  0
  3 17  1  0  0  0  0
  3  4  1  0  0  0  0
  3 15  1  0  0  0  0
  4  5  1  0  0  0  0
  4 21  1  0  0  0  0
  4 22  1  0  0  0  0
  5  6  1  0  0  0  0
  5 23  1  0  0  0  0
  6  7  2  0  0  0  0
  6  8  1  0  0  0  0
  8  9  1  0  0  0  0
  8 24  1  0  0  0  0
  9 13  1  0  0  0  0
  9 10  2  0  0  0  0
 10 11  1  0  0  0  0
 10 25  1  0  0  0  0
 11 12  2  0  0  0  0
 11 26  1  0  0  0  0
 12 13  1  0  0  0  0
 13 14  1  0  0  0  0
 14 27  1  0  0  0  0
 14 28  1  0  0  0  0
 14 29  1  0  0  0  0
 15 16  1  0  0  0  0
 15 30  1  0  0  0  0
 15 31  1  0  0  0  0
 16 17  1  0  0  0  0
 16 32  1  0  0  0  0
 16 33  1  0  0  0  0
 17 34  1  0  0  0  0
 17 35  1  0  0  0  0
M  END
> <s_m_source_file>
AV-unprocessed.smi

> <i_m_source_file_index>
2791

> <i_lp_mmshare_version>
43012

> <i_f3d_flags>
0

> <s_epik_input>
W0NIMl0xW0NIMl1bQ0gyXUMxKE9bQ0gzXSlbQ0gyXVtOSF1DKD1PKVtOSF1jMltjSF1bY0hdbm4yW0NIM10=

> <s_epik_cmdline>
J2VwaWtfcHl0aG9uJywgJy1waCcsICc3LjAnLCAnLXRuJywgJzgnLCAnLW1hJywgJzIwMCcsICctbWV0YWxfYmluZGluZycsICctaW1hZScsICc8aW5maWxlLm1hZT4nLCAnLW9tYWUnLCAnPG91dGZpbGUubWFlPic=

> <r_lp_tautomer_probability>
1

> <r_epik_Ionization_Penalty>
4.34911e-05

> <r_epik_Ionization_Penalty_Charging>
0

> <r_epik_Ionization_Penalty_Neutral>
4.34911e-05

> <r_epik_State_Penalty>
-0

> <r_epik_Charging_Adjusted_Penalty>
0

> <i_epik_Tot_Q>
0

> <i_epik_Tot_abs_Q>
0

> <r_epik_Metal_State_Penalty>
-0

> <b_epik_Metal_Only>
0

> <s_lp_Force_Field>
OPLS_2005

> <r_lp_Energy>
18.0019

> <b_lp_Chiralities_Consistent>
1

> <s_lp_Variant>
AV-unprocessed.smi:2791-1

> <Gold.Version>
5.8.1

> <Gold.Id.Protein>
6NUR|6NUR_protein|mol2

> <Gold.PLP.Fitness>
36.8152

> <Gold.PLP.PLP>
-31.7149

> <Gold.PLP.part.hbond>
-2.0000

> <Gold.PLP.part.metal>
0.0000

> <Gold.PLP.part.buried>
-4.1300

> <Gold.PLP.part.nonpolar>
-25.6276

> <Gold.PLP.part.repulsive>
0.9003

> <Gold.PLP.ligand.clash>
0.0000

> <Gold.PLP.ligand.torsion>
0.5836

> <Gold.PLP.Chemscore.Hbond>
1.9920

> <Gold.PLP.Chemscore.CHOScore>
0.0000

> <Gold.PLP.Chemscore.Metal>
0.0000

> <Gold.Chemscore.Hbonds>
donor molecule, donor type, donor heavy atom, donor atom, acceptor molecule, acceptor atom, score
      L1  H     5    23       P1  8028  1.00
      L1  H     8    24       P1  8028  0.98

> <Gold.PLP.Chemscore.Internal.Correction>
0.2914

> <Gold.Rescore>
     Score         DG    S(hbond)    S(metal)    S(lipo)     H(rot)  DE(clash)    DE(int)     intcor
     13.71     -15.34       1.90        0.00      63.66       1.53       0.04       1.59       ----

> <Gold.Chemscore.Fitness>
13.7091

> <Gold.Chemscore.DG>
-15.3387

> <Gold.Chemscore.ZeroCoef>
-5.4800

> <Gold.Chemscore.Hbond>
1.8974

> <Gold.Chemscore.Metal>
0.0000

> <Gold.Chemscore.Lipo>
63.6596

> <Gold.Chemscore.Internal_Hbond>
0.0000

> <Gold.Chemscore.DEClash>
0.0354

> <Gold.Chemscore.DEInternal>
1.5943

> <Gold.Chemscore.Rot>
1.5339

> <Gold.Chemscore.Internal.Correction>
   9.000000E+99

> <Gold.Chemscore.Hbonds>
donor molecule, donor type, donor heavy atom, donor atom, acceptor molecule, acceptor atom, score
      L1  H     5    23       P1  8028  0.99
      L1  H     8    24       P1  8028  0.86

> <Gold.Chemscore.Hbond.Weighted>
-6.3373

> <Gold.Chemscore.Metal.Weighted>
-0.0000

> <Gold.Chemscore.Lipo.Weighted>
-7.4482

> <Gold.Chemscore.Internal_Hbond.Weighted>
0.0000

> <Gold.Chemscore.DEClash.Weighted>
0.0354

> <Gold.Chemscore.DEInternal.Weighted>
1.5943

> <Gold.Chemscore.Rot.Weighted>
3.9267

> <Gold.Chemscore.Internal.Correction.Weighted>
   9.000000E+99

> <Gold.Protein.RotatedTorsions>
[ 6907 6896 6895 6894 ] final  131.27 input  -60.11 | X-H torsion
[ 7974 7965 7964 7962 ] final  139.59 input  175.53 | X-H torsion
[ 8008 7997 7996 7995 ] final  108.69 input   59.86 | X-H torsion
[ 10167 10162 10161 10158 ] final   65.28 input  -65.29 | X-H torsion
[ 10718 10713 10712 10709 ] final  109.42 input   66.30 | X-H torsion
[ 10763 10752 10751 10750 ] final  164.37 input  -60.55 | X-H torsion
[ 11005 11000 10999 10996 ] final  117.08 input  -57.11 | X-H torsion

> <Gold.Protein.ActiveResidues>
 VAL166  LYS551  ARG553  GLY616  TRP617  ASP618  TYR619  PRO620  LYS621  CYS622 
 ASP623  PHE694  ASN695  SER759  ASP760  ASP761  ALA762  ILE779  LEU786  VAL792 
 PHE793  MET794  SER795  GLU796  ALA797  LYS798  CYS799  TRP800  GLU811  SER814 

> <Gold.Protein.RotatedAtoms>
  152.3443  133.6104  159.5898 H   0  0  0  0  0  0  0  0  0  0  0  0  # atno 6907 bound_to 6896
  150.7498  133.9673  159.3543 H   0  0  0  0  0  0  0  0  0  0  0  0  # atno 6908 bound_to 6896
  151.7533  135.0828  160.0385 H   0  0  0  0  0  0  0  0  0  0  0  0  # atno 6909 bound_to 6896
  144.9265  139.5101  143.5638 H   0  0  0  0  0  0  0  0  0  0  0  0  # atno 7974 bound_to 7965
  156.1923  140.3071  155.9356 H   0  0  0  0  0  0  0  0  0  0  0  0  # atno 8008 bound_to 7997
  155.3146  140.0453  157.3053 H   0  0  0  0  0  0  0  0  0  0  0  0  # atno 8009 bound_to 7997
  154.5467  140.2278  155.8561 H   0  0  0  0  0  0  0  0  0  0  0  0  # atno 8010 bound_to 7997
  140.1131  144.4800  150.6966 H   0  0  0  0  0  0  0  0  0  0  0  0  # atno 10167 bound_to 10162
  157.6542  131.0913  150.6450 H   0  0  0  0  0  0  0  0  0  0  0  0  # atno 10718 bound_to 10713
  154.3079  135.2758  155.2580 H   0  0  0  0  0  0  0  0  0  0  0  0  # atno 10763 bound_to 10752
  154.4988  135.5814  153.6518 H   0  0  0  0  0  0  0  0  0  0  0  0  # atno 10764 bound_to 10752
  152.9892  135.6152  154.3254 H   0  0  0  0  0  0  0  0  0  0  0  0  # atno 10765 bound_to 10752
  139.9062  134.9606  156.7296 H   0  0  0  0  0  0  0  0  0  0  0  0  # atno 11005 bound_to 11000
  146.3228  139.8183  142.8932 LP  0  0  0  0  0  0  0  0  0  0  0  0  # atno 17320 bound_to 7965
  145.3211  141.0244  143.3499 LP  0  0  0  0  0  0  0  0  0  0  0  0  # atno 17321 bound_to 7965
  140.6915  143.2378  151.5119 LP  0  0  0  0  0  0  0  0  0  0  0  0  # atno 17342 bound_to 10162
  139.5609  144.2160  152.1689 LP  0  0  0  0  0  0  0  0  0  0  0  0  # atno 17343 bound_to 10162
  156.6758  130.4553  149.5643 LP  0  0  0  0  0  0  0  0  0  0  0  0  # atno 17370 bound_to 10713
  156.1964  130.6592  151.1119 LP  0  0  0  0  0  0  0  0  0  0  0  0  # atno 17371 bound_to 10713
  140.6936  133.9368  155.7981 LP  0  0  0  0  0  0  0  0  0  0  0  0  # atno 17394 bound_to 11000
  141.0424  134.0603  157.3886 LP  0  0  0  0  0  0  0  0  0  0  0  0  # atno 17395 bound_to 11000

$$$$
