AV-unprocessed.smi:1676|AV-procd|sdf|6719|dock6
  -GOLD-   22720 7463D 1   1.00000     0.00000
 Structure written by MMmdl.
 42 43  0  0  0  0  0  0  0  0  2 V2000
  153.5580  140.4035  160.9428 C   0  0  0  0  0  0  0  0  0  0  0  0
  152.8718  141.7318  161.0845 C   0  0  0  0  0  0  0  0  0  0  0  0
  152.7508  142.2711  162.2859 N   0  0  0  0  0  0  0  0  0  0  0  0
  152.0958  143.4914  162.0941 O   0  0  0  0  0  0  0  0  0  0  0  0
  151.8463  143.6410  160.7684 C   0  0  0  0  0  0  0  0  0  0  0  0
  151.1564  144.8969  160.3563 C   0  0  0  0  0  0  0  0  0  0  0  0
  152.3061  142.5582  160.0706 C   0  0  0  0  0  0  0  0  0  0  0  0
  152.2414  142.3031  158.5836 C   0  0  0  0  0  0  0  0  0  0  0  0
  151.4091  141.0585  158.2487 C   0  0  0  0  0  0  0  0  0  0  0  0
  150.2752  140.9217  158.7087 O   0  0  0  0  0  0  0  0  0  0  0  0
  152.0285  140.1739  157.4444 N   0  0  0  0  0  0  0  0  0  0  0  0
  151.6183  138.8776  156.8718 C   0  0  0  0  0  0  0  0  0  0  0  0
  152.7494  137.8967  157.2848 C   0  0  0  0  0  0  0  0  0  0  0  0
  153.6837  138.3190  158.0026 O   0  0  0  0  0  0  0  0  0  0  0  0
  152.6836  136.7273  156.8405 O   0  5  0  0  0  0  0  0  0  0  0  0
  150.2282  138.3693  157.3820 C   0  0  0  0  0  0  0  0  0  0  0  0
  149.6483  137.1460  156.6458 C   0  0  0  0  0  0  0  0  0  0  0  0
  148.7325  137.5467  155.4776 C   0  0  0  0  0  0  0  0  0  0  0  0
  149.4584  138.1821  154.2822 C   0  0  0  0  0  0  0  0  0  0  0  0
  150.3282  139.4064  154.6245 C   0  0  0  0  0  0  0  0  0  0  0  0
  151.6523  139.0309  155.3175 C   0  0  0  0  0  0  0  0  0  0  0  0
  153.3508  139.9479  159.9749 H   0  0  0  0  0  0  0  0  0  0  0  0
  153.2293  139.7042  161.7120 H   0  0  0  0  0  0  0  0  0  0  0  0
  154.6390  140.5133  161.0307 H   0  0  0  0  0  0  0  0  0  0  0  0
  151.3716  145.1360  159.3146 H   0  0  0  0  0  0  0  0  0  0  0  0
  151.4828  145.7387  160.9675 H   0  0  0  0  0  0  0  0  0  0  0  0
  150.0768  144.7968  160.4651 H   0  0  0  0  0  0  0  0  0  0  0  0
  151.8127  143.1564  158.0574 H   0  0  0  0  0  0  0  0  0  0  0  0
  153.2413  142.1684  158.1691 H   0  0  0  0  0  0  0  0  0  0  0  0
  152.9682  140.4356  157.1838 H   0  0  0  0  0  0  0  0  0  0  0  0
  150.2880  138.1341  158.4458 H   0  0  0  0  0  0  0  0  0  0  0  0
  149.4884  139.1672  157.3255 H   0  0  0  0  0  0  0  0  0  0  0  0
  150.4337  136.4678  156.3115 H   0  0  0  0  0  0  0  0  0  0  0  0
  149.0482  136.5765  157.3562 H   0  0  0  0  0  0  0  0  0  0  0  0
  148.2042  136.6596  155.1268 H   0  0  0  0  0  0  0  0  0  0  0  0
  147.9586  138.2262  155.8363 H   0  0  0  0  0  0  0  0  0  0  0  0
  150.0661  137.4282  153.7802 H   0  0  0  0  0  0  0  0  0  0  0  0
  148.7062  138.4835  153.5526 H   0  0  0  0  0  0  0  0  0  0  0  0
  150.5778  139.8978  153.6835 H   0  0  0  0  0  0  0  0  0  0  0  0
  149.7721  140.1463  155.2008 H   0  0  0  0  0  0  0  0  0  0  0  0
  152.3950  139.7852  155.0508 H   0  0  0  0  0  0  0  0  0  0  0  0
  152.0203  138.1175  154.8464 H   0  0  0  0  0  0  0  0  0  0  0  0
  1  2  1  0  0  0  0
  1 22  1  0  0  0  0
  1 23  1  0  0  0  0
  1 24  1  0  0  0  0
  2  7  1  0  0  0  0
  2  3  2  0  0  0  0
  3  4  1  0  0  0  0
  4  5  1  0  0  0  0
  5  6  1  0  0  0  0
  5  7  2  0  0  0  0
  6 25  1  0  0  0  0
  6 26  1  0  0  0  0
  6 27  1  0  0  0  0
  7  8  1  0  0  0  0
  8  9  1  0  0  0  0
  8 28  1  0  0  0  0
  8 29  1  0  0  0  0
  9 10  2  0  0  0  0
  9 11  1  0  0  0  0
 11 12  1  0  0  0  0
 11 30  1  0  0  0  0
 12 21  1  0  0  0  0
 12 13  1  0  0  0  0
 12 16  1  0  0  0  0
 13 14  2  0  0  0  0
 13 15  1  0  0  0  0
 16 17  1  0  0  0  0
 16 31  1  0  0  0  0
 16 32  1  0  0  0  0
 17 18  1  0  0  0  0
 17 33  1  0  0  0  0
 17 34  1  0  0  0  0
 18 19  1  0  0  0  0
 18 35  1  0  0  0  0
 18 36  1  0  0  0  0
 19 20  1  0  0  0  0
 19 37  1  0  0  0  0
 19 38  1  0  0  0  0
 20 21  1  0  0  0  0
 20 39  1  0  0  0  0
 20 40  1  0  0  0  0
 21 41  1  0  0  0  0
 21 42  1  0  0  0  0
M  CHG  1  15  -1
M  END
> <s_m_source_file>
AV-unprocessed.smi

> <i_m_source_file_index>
1676

> <i_lp_mmshare_version>
43012

> <i_f3d_flags>
0

> <s_epik_input>
W0NIM11jMW5vYyhbQ0gzXSljMVtDSDJdQyg9TylbTkhdQzIoQyg9TylbT0hdKVtDSDJdW0NIMl1bQ0gyXVtDSDJdW0NIMl1bQ0gyXTI=

> <s_epik_cmdline>
J2VwaWtfcHl0aG9uJywgJy1waCcsICc3LjAnLCAnLXRuJywgJzgnLCAnLW1hJywgJzIwMCcsICctbWV0YWxfYmluZGluZycsICctaW1hZScsICc8aW5maWxlLm1hZT4nLCAnLW9tYWUnLCAnPG91dGZpbGUubWFlPic=

> <r_epik_Ionization_Penalty>
0.000392727

> <r_epik_Ionization_Penalty_Charging>
0.000392708

> <r_epik_Ionization_Penalty_Neutral>
1.90763e-08

> <r_epik_State_Penalty>
0.000240388

> <r_epik_Charging_Adjusted_Penalty>
0.000633096

> <i_epik_Tot_Q>
-1

> <i_epik_Tot_abs_Q>
1

> <r_epik_Metal_State_Penalty>
-0

> <b_epik_Metal_Only>
0

> <s_lp_Force_Field>
OPLS_2005

> <r_lp_Energy>
9.66029

> <b_lp_Chiralities_Consistent>
1

> <s_lp_Variant>
AV-unprocessed.smi:1676-1

> <Gold.Version>
5.8.1

> <Gold.Id.Protein>
6NUR|6NUR_protein|mol2

> <Gold.PLP.Fitness>
46.8972

> <Gold.PLP.PLP>
-36.2003

> <Gold.PLP.part.hbond>
-2.0000

> <Gold.PLP.part.metal>
0.0000

> <Gold.PLP.part.buried>
-5.4069

> <Gold.PLP.part.nonpolar>
-29.1850

> <Gold.PLP.part.repulsive>
1.3221

> <Gold.PLP.ligand.clash>
0.0000

> <Gold.PLP.ligand.torsion>
0.1349

> <Gold.PLP.Chemscore.Hbond>
3.6320

> <Gold.PLP.Chemscore.CHOScore>
0.0000

> <Gold.PLP.Chemscore.Metal>
0.0000

> <Gold.Chemscore.Hbonds>
donor molecule, donor type, donor heavy atom, donor atom, acceptor molecule, acceptor atom, score
      P1  H  7997  8009       L1    14  1.37
      P1  H 10752 10765       L1    15  0.83

> <Gold.PLP.Chemscore.Internal.Correction>
0.0705

> <Gold.Rescore>
     Score         DG    S(hbond)    S(metal)    S(lipo)     H(rot)  DE(clash)    DE(int)     intcor
     13.22     -14.97       0.88        0.00      97.39       1.89       0.01       1.74       ----

> <Gold.Chemscore.Fitness>
13.2189

> <Gold.Chemscore.DG>
-14.9732

> <Gold.Chemscore.ZeroCoef>
-5.4800

> <Gold.Chemscore.Hbond>
0.8813

> <Gold.Chemscore.Metal>
0.0000

> <Gold.Chemscore.Lipo>
97.3858

> <Gold.Chemscore.Internal_Hbond>
0.0000

> <Gold.Chemscore.DEClash>
0.0097

> <Gold.Chemscore.DEInternal>
1.7446

> <Gold.Chemscore.Rot>
1.8924

> <Gold.Chemscore.Internal.Correction>
   9.000000E+99

> <Gold.Chemscore.Hbonds>
donor molecule, donor type, donor heavy atom, donor atom, acceptor molecule, acceptor atom, score
      P1  H  7997  8009       L1    14  0.51
      P1  H 10752 10765       L1    15  0.39

> <Gold.Chemscore.Hbond.Weighted>
-2.9435

> <Gold.Chemscore.Metal.Weighted>
-0.0000

> <Gold.Chemscore.Lipo.Weighted>
-11.3941

> <Gold.Chemscore.Internal_Hbond.Weighted>
0.0000

> <Gold.Chemscore.DEClash.Weighted>
0.0097

> <Gold.Chemscore.DEInternal.Weighted>
1.7446

> <Gold.Chemscore.Rot.Weighted>
4.8445

> <Gold.Chemscore.Internal.Correction.Weighted>
   9.000000E+99

> <Gold.Protein.RotatedTorsions>
[ 6907 6896 6895 6894 ] final  129.08 input  -60.11 | X-H torsion
[ 7974 7965 7964 7962 ] final  116.28 input  175.53 | X-H torsion
[ 8008 7997 7996 7995 ] final  151.36 input   59.86 | X-H torsion
[ 10167 10162 10161 10158 ] final   66.86 input  -65.29 | X-H torsion
[ 10718 10713 10712 10709 ] final  -74.52 input   66.30 | X-H torsion
[ 10763 10752 10751 10750 ] final -110.63 input  -60.55 | X-H torsion
[ 11005 11000 10999 10996 ] final  179.11 input  -57.11 | X-H torsion

> <Gold.Protein.ActiveResidues>
 VAL166  LYS551  ARG553  GLY616  TRP617  ASP618  TYR619  PRO620  LYS621  CYS622 
 ASP623  PHE694  ASN695  SER759  ASP760  ASP761  ALA762  ILE779  LEU786  VAL792 
 PHE793  MET794  SER795  GLU796  ALA797  LYS798  CYS799  TRP800  GLU811  SER814 

> <Gold.Protein.RotatedAtoms>
  152.3658  133.6355  159.6049 H   0  0  0  0  0  0  0  0  0  0  0  0  # atno 6907 bound_to 6896
  150.7633  133.9350  159.3447 H   0  0  0  0  0  0  0  0  0  0  0  0  # atno 6908 bound_to 6896
  151.7181  135.0901  160.0330 H   0  0  0  0  0  0  0  0  0  0  0  0  # atno 6909 bound_to 6896
  145.1816  139.3047  143.4415 H   0  0  0  0  0  0  0  0  0  0  0  0  # atno 7974 bound_to 7965
  156.2677  140.2050  156.6164 H   0  0  0  0  0  0  0  0  0  0  0  0  # atno 8008 bound_to 7997
  154.6791  140.0542  157.0271 H   0  0  0  0  0  0  0  0  0  0  0  0  # atno 8009 bound_to 7997
  155.1026  140.3207  155.4546 H   0  0  0  0  0  0  0  0  0  0  0  0  # atno 8010 bound_to 7997
  140.0958  144.4948  150.7069 H   0  0  0  0  0  0  0  0  0  0  0  0  # atno 10167 bound_to 10162
  156.0240  130.4419  150.2905 H   0  0  0  0  0  0  0  0  0  0  0  0  # atno 10718 bound_to 10713
  154.8258  135.4557  154.0914 H   0  0  0  0  0  0  0  0  0  0  0  0  # atno 10763 bound_to 10752
  153.2230  135.6896  153.7985 H   0  0  0  0  0  0  0  0  0  0  0  0  # atno 10764 bound_to 10752
  153.7395  135.3314  155.3278 H   0  0  0  0  0  0  0  0  0  0  0  0  # atno 10765 bound_to 10752
  140.4025  134.6764  157.4570 H   0  0  0  0  0  0  0  0  0  0  0  0  # atno 11005 bound_to 11000
  146.3452  140.1997  142.8589 LP  0  0  0  0  0  0  0  0  0  0  0  0  # atno 17320 bound_to 7965
  145.0131  140.8730  143.5212 LP  0  0  0  0  0  0  0  0  0  0  0  0  # atno 17321 bound_to 7965
  140.7004  143.2431  151.4880 LP  0  0  0  0  0  0  0  0  0  0  0  0  # atno 17342 bound_to 10162
  139.5699  144.1954  152.1821 LP  0  0  0  0  0  0  0  0  0  0  0  0  # atno 17343 bound_to 10162
  157.1008  131.0195  151.3086 LP  0  0  0  0  0  0  0  0  0  0  0  0  # atno 17370 bound_to 10713
  157.4781  130.7748  149.7387 LP  0  0  0  0  0  0  0  0  0  0  0  0  # atno 17371 bound_to 10713
  140.0326  134.6384  155.9086 LP  0  0  0  0  0  0  0  0  0  0  0  0  # atno 17394 bound_to 11000
  141.1851  133.6554  156.5185 LP  0  0  0  0  0  0  0  0  0  0  0  0  # atno 17395 bound_to 11000

$$$$
