#       Name:                AV-unprocessed.smi:287
#       Creating user name   scv26
#       Creation time:       Thu Mar 26 22:00:46 2020


#       File generated by GOLD software.
#

@<TRIPOS>MOLECULE
AV-unprocessed.smi:287
    70    73     1
SMALL
NO_CHARGES


@<TRIPOS>ATOM
      1 ****         0.2512   4.6806  -4.6605 C.3            1 S1                 0.0000
      2 ****        -0.1647   4.6578  -3.2299 C.2            1 S1                 0.0000
      3 ****        -0.6949   3.6995  -2.4165 C.2            1 S1                 0.0000
      4 ****        -0.8685   4.2837  -1.1261 C.2            1 S1                 0.0000
      5 ****        -1.4344   3.5930   0.1073 C.3            1 S1                 0.0000
      6 ****        -2.9702   3.5924   0.0403 C.3            1 S1                 0.0000
      7 ****        -1.1091   4.2677   1.3075 O.3            1 S1                 0.0000
      8 ****        -0.9091   2.1484   0.2761 C.3            1 S1                 0.0000
      9 ****         0.5303   2.0403   0.0738 N.pl3          1 S1                 0.0000
     10 ****         1.1360   0.8358   0.0180 C.ar           1 S1                 0.0000
     11 ****         2.4513   0.8601  -0.3048 N.ar           1 S1                 0.0000
     12 ****         3.1448  -0.2785  -0.3876 C.ar           1 S1                 0.0000
     13 ****         2.7230  -1.5282  -0.1872 N.ar           1 S1                 0.0000
     14 ****         1.3986  -1.5610   0.1394 C.ar           1 S1                 0.0000
     15 ****         0.5358  -0.4349   0.2641 C.ar           1 S1                 0.0000
     16 ****        -0.7368  -0.8733   0.6151 N.2            1 S1                 0.0000
     17 ****        -0.6256  -2.1717   0.6898 C.2            1 S1                 0.0000
     18 ****         0.6313  -2.6699   0.4228 N.pl3          1 S1                 0.0000
     19 ****         1.1159  -4.0910   0.4209 C.3            1 S1                 0.0000
     20 ****         0.0324  -4.9063   0.0985 O.3            1 S1                 0.0000
     21 ****        -0.5091  -5.5507   1.2558 C.3            1 S1                 0.0000
     22 ****        -0.3442  -7.0671   1.0195 C.3            1 S1                 0.0000
     23 ****        -1.3193  -7.5163   0.1027 O.3            1 S1                 0.0000
     24 ****         0.2873  -4.9743   2.4471 C.3            1 S1                 0.0000
     25 ****         0.5171  -5.9054   3.4867 O.3            1 S1                 0.0000
     26 ****         1.5933  -4.5300   1.8124 C.3            1 S1                 0.0000
     27 ****         2.2059  -3.4987   2.5653 O.3            1 S1                 0.0000
     28 ****        -0.4406   5.5814  -1.2694 C.2            1 S1                 0.0000
     29 ****        -0.3624   6.7534  -0.3479 C.3            1 S1                 0.0000
     30 ****        -0.0066   5.8147  -2.5394 O.3            1 S1                 0.0000
     31 ****         1.8867  -4.1241  -0.3498 H              1 S1                 0.0000
     32 ****        -1.5660  -5.3059   1.3707 H              1 S1                 0.0000
     33 ****        -0.2459  -4.1128   2.8525 H              1 S1                 0.0000
     34 ****         2.2755  -5.3721   1.6870 H              1 S1                 0.0000
     35 ****         0.2117   3.6806  -5.0928 H              1 S1                 0.0000
     36 ****         1.2715   5.0515  -4.7613 H              1 S1                 0.0000
     37 ****        -0.4049   5.3272  -5.2432 H              1 S1                 0.0000
     38 ****        -0.9255   2.6865  -2.7117 H              1 S1                 0.0000
     39 ****        -3.3259   3.0611  -0.8434 H              1 S1                 0.0000
     40 ****        -3.3658   4.6081  -0.0067 H              1 S1                 0.0000
     41 ****        -3.4095   3.1069   0.9128 H              1 S1                 0.0000
     42 ****        -1.4921   3.7949   2.0304 H              1 S1                 0.0000
     43 ****        -1.1856   1.7476   1.2523 H              1 S1                 0.0000
     44 ****        -1.3895   1.5176  -0.4731 H              1 S1                 0.0000
     45 ****         1.0119   2.9105  -0.1022 H              1 S1                 0.0000
     46 ****         4.1868  -0.1728  -0.6509 H              1 S1                 0.0000
     47 ****        -1.4662  -2.7995   0.9451 H              1 S1                 0.0000
     48 ****         0.6561  -7.3103   0.6597 H              1 S1                 0.0000
     49 ****        -0.5062  -7.6305   1.9382 H              1 S1                 0.0000
     50 ****        -1.2132  -8.4476  -0.0164 H              1 S1                 0.0000
     51 ****         1.0278  -5.4792   4.1583 H              1 S1                 0.0000
     52 ****         2.9402  -3.1642   2.0729 H              1 S1                 0.0000
     53 ****        -1.3207   6.9225   0.1433 H              1 S1                 0.0000
     54 ****        -0.0975   7.6632  -0.8872 H              1 S1                 0.0000
     55 ****         0.3901   6.5884   0.4232 H              1 S1                 0.0000
     56 ****        -1.4749   5.1981   1.2812 LP             1 S1                 0.0000
     57 ****        -0.1157   4.3031   1.4160 LP             1 S1                 0.0000
     58 ****         2.9047   1.7336  -0.4818 LP             1 S1                 0.0000
     59 ****         3.3039  -2.3383  -0.2664 LP             1 S1                 0.0000
     60 ****        -1.5534  -0.3184   0.7744 LP             1 S1                 0.0000
     61 ****         0.3345  -5.6052  -0.5498 LP             1 S1                 0.0000
     62 ****        -0.6804  -4.3460  -0.3235 LP             1 S1                 0.0000
     63 ****        -1.1996  -7.0486  -0.7731 LP             1 S1                 0.0000
     64 ****        -2.2329  -7.3241   0.4610 LP             1 S1                 0.0000
     65 ****         1.0180  -6.6940   3.1300 LP             1 S1                 0.0000
     66 ****        -0.3561  -6.2096   3.8675 LP             1 S1                 0.0000
     67 ****         2.5243  -3.8633   3.4403 LP             1 S1                 0.0000
     68 ****         1.5474  -2.7643   2.7299 LP             1 S1                 0.0000
     69 ****        -0.5486   6.5425  -2.9596 LP             1 S1                 0.0000
     70 ****         0.9574   6.0802  -2.5298 LP             1 S1                 0.0000
@<TRIPOS>BOND
    1    1    2 1     
    2    1   35 1     
    3    1   36 1     
    4    1   37 1     
    5    2   30 1     
    6    2    3 2     
    7    3    4 1     
    8    3   38 1     
    9    4    5 1     
   10    4   28 2     
   11    5    6 1     
   12    5    7 1     
   13    5    8 1     
   14    6   39 1     
   15    6   40 1     
   16    6   41 1     
   17    7   42 1     
   18    8    9 1     
   19    8   43 1     
   20    8   44 1     
   21    9   10 1     
   22    9   45 1     
   23   10   15 ar    
   24   10   11 ar    
   25   11   12 ar    
   26   12   13 ar    
   27   12   46 1     
   28   13   14 ar    
   29   14   18 1     
   30   14   15 ar    
   31   15   16 1     
   32   16   17 2     
   33   17   18 1     
   34   17   47 1     
   35   18   19 1     
   36   19   31 1     
   37   19   26 1     
   38   19   20 1     
   39   20   21 1     
   40   21   32 1     
   41   21   22 1     
   42   21   24 1     
   43   22   23 1     
   44   22   48 1     
   45   22   49 1     
   46   23   50 1     
   47   24   33 1     
   48   24   25 1     
   49   24   26 1     
   50   25   51 1     
   51   26   34 1     
   52   26   27 1     
   53   27   52 1     
   54   28   29 1     
   55   28   30 1     
   56   29   53 1     
   57   29   54 1     
   58   29   55 1     
   59    7   56 1     
   60    7   57 1     
   61   11   58 1     
   62   13   59 1     
   63   16   60 1     
   64   20   61 1     
   65   20   62 1     
   66   23   63 1     
   67   23   64 1     
   68   25   65 1     
   69   25   66 1     
   70   27   67 1     
   71   27   68 1     
   72   30   69 1     
   73   30   70 1     
@<TRIPOS>SUBSTRUCTURE
      1 S1             1
@<TRIPOS>SET
LONE_PAIRS      STATIC     ATOMS    <user>   **** ""
15 56 57 58 59 60 61 62 63 64 65 66 67 68 69 70
DONOR_HYDROGENS      STATIC     ATOMS    <user>   **** ""
5 42 45 50 51 52
ATOM$BLUE        STATIC     ATOMS    COLORGROUP SYSTEM
15 56 57 58 59 60 61 62 63 64 65 66 67 68 69 70
ATOM$RED        STATIC     ATOMS    COLORGROUP SYSTEM
5 42 45 50 51 52
