AV-unprocessed.smi:212|AV-procd|sdf|1624|dock7
  -GOLD-   2262019563D 1   1.00000     0.00000
 Structure written by MMmdl.
 65 68  0  0  0  0  0  0  0  0  2 V2000
  146.5426  133.4935  156.1920 C   0  0  0  0  0  0  0  0  0  0  0  0
  147.2093  132.9246  154.9247 C   0  0  1  0  0  0  0  0  0  0  0  0
  146.5832  133.4476  153.6130 C   0  0  0  0  0  0  0  0  0  0  0  0
  147.2266  132.8235  152.4275 N   0  3  1  0  0  0  0  0  0  0  0  0
  146.6123  133.2402  151.1394 C   0  0  0  0  0  0  0  0  0  0  0  0
  145.4089  132.3522  150.7492 C   0  0  0  0  0  0  0  0  0  0  0  0
  144.0941  133.0149  151.1934 C   0  0  0  0  0  0  0  0  0  0  0  0
  145.3649  132.0429  149.2415 C   0  0  0  0  0  0  0  0  0  0  0  0
  145.5069  131.1291  151.4527 O   0  0  0  0  0  0  0  0  0  0  0  0
  148.7067  132.9540  152.4433 C   0  0  0  0  0  0  0  0  0  0  0  0
  149.2980  132.4082  153.7568 C   0  0  0  0  0  0  0  0  0  0  0  0
  148.6733  133.0461  154.9117 N   0  0  0  0  0  0  0  0  0  0  0  0
  149.2840  134.2069  155.2630 C   0  0  0  0  0  0  0  0  0  0  0  0
  150.5590  134.2069  155.7334 N   0  0  0  0  0  0  0  0  0  0  0  0
  151.1409  135.3524  156.1018 C   0  0  0  0  0  0  0  0  0  0  0  0
  150.6349  136.5871  156.0895 N   0  0  0  0  0  0  0  0  0  0  0  0
  149.3521  136.5902  155.6274 C   0  0  0  0  0  0  0  0  0  0  0  0
  148.6078  135.4553  155.2005 C   0  0  0  0  0  0  0  0  0  0  0  0
  147.3353  135.8434  154.8000 N   0  0  0  0  0  0  0  0  0  0  0  0
  147.3280  137.1368  154.9783 C   0  0  0  0  0  0  0  0  0  0  0  0
  148.5007  137.6681  155.4665 N   0  0  0  0  0  0  0  0  0  0  0  0
  148.7698  139.0659  155.7553 C   0  0  0  0  0  0  0  0  0  0  0  0
  149.1924  139.8808  154.5072 C   0  0  1  0  0  0  0  0  0  0  0  0
  148.7058  141.3497  154.5565 C   0  0  0  0  0  0  0  0  0  0  0  0
  149.2213  142.0275  155.6842 O   0  0  0  0  0  0  0  0  0  0  0  0
  150.7164  139.7728  154.2489 C   0  0  2  0  0  0  0  0  0  0  0  0
  151.2331  138.3605  154.0361 C   0  0  0  0  0  0  0  0  0  0  0  0
  152.7290  138.5242  154.2814 C   0  0  0  0  0  0  0  0  0  0  0  0
  152.8494  139.5589  155.2513 O   0  0  0  0  0  0  0  0  0  0  0  0
  151.5961  140.2125  155.4238 C   0  0  0  0  0  0  0  0  0  0  0  0
  145.4859  133.2267  156.2226 H   0  0  0  0  0  0  0  0  0  0  0  0
  146.5989  134.5802  156.2433 H   0  0  0  0  0  0  0  0  0  0  0  0
  147.0063  133.0907  157.0930 H   0  0  0  0  0  0  0  0  0  0  0  0
  147.0190  131.8507  154.9528 H   0  0  0  0  0  0  0  0  0  0  0  0
  145.5171  133.2171  153.6012 H   0  0  0  0  0  0  0  0  0  0  0  0
  146.6678  134.5324  153.5442 H   0  0  0  0  0  0  0  0  0  0  0  0
  146.2933  134.2827  151.1958 H   0  0  0  0  0  0  0  0  0  0  0  0
  147.3578  133.2125  150.3430 H   0  0  0  0  0  0  0  0  0  0  0  0
  143.9465  133.9713  150.6904 H   0  0  0  0  0  0  0  0  0  0  0  0
  144.0845  133.2045  152.2677 H   0  0  0  0  0  0  0  0  0  0  0  0
  143.2322  132.3874  150.9631 H   0  0  0  0  0  0  0  0  0  0  0  0
  145.3064  132.9597  148.6539 H   0  0  0  0  0  0  0  0  0  0  0  0
  144.4955  131.4354  148.9872 H   0  0  0  0  0  0  0  0  0  0  0  0
  146.2481  131.4948  148.9122 H   0  0  0  0  0  0  0  0  0  0  0  0
  145.4805  130.4193  150.8285 H   0  0  0  0  0  0  0  0  0  0  0  0
  149.1331  132.4116  151.5991 H   0  0  0  0  0  0  0  0  0  0  0  0
  148.9793  134.0030  152.3169 H   0  0  0  0  0  0  0  0  0  0  0  0
  149.1273  131.3329  153.8216 H   0  0  0  0  0  0  0  0  0  0  0  0
  150.3800  132.5458  153.7666 H   0  0  0  0  0  0  0  0  0  0  0  0
  152.1566  135.2675  156.4590 H   0  0  0  0  0  0  0  0  0  0  0  0
  146.4639  137.7441  154.7507 H   0  0  0  0  0  0  0  0  0  0  0  0
  147.8771  139.5023  156.2050 H   0  0  0  0  0  0  0  0  0  0  0  0
  149.5474  139.1013  156.5185 H   0  0  0  0  0  0  0  0  0  0  0  0
  148.6920  139.4261  153.6513 H   0  0  0  0  0  0  0  0  0  0  0  0
  149.0049  141.8884  153.6577 H   0  0  0  0  0  0  0  0  0  0  0  0
  147.6175  141.4010  154.5839 H   0  0  0  0  0  0  0  0  0  0  0  0
  148.9984  142.9432  155.6117 H   0  0  0  0  0  0  0  0  0  0  0  0
  150.9828  140.3723  153.3767 H   0  0  0  0  0  0  0  0  0  0  0  0
  150.8055  137.6821  154.7761 H   0  0  0  0  0  0  0  0  0  0  0  0
  151.0164  137.9659  153.0431 H   0  0  0  0  0  0  0  0  0  0  0  0
  153.1996  137.6009  154.6201 H   0  0  0  0  0  0  0  0  0  0  0  0
  153.2309  138.8455  153.3677 H   0  0  0  0  0  0  0  0  0  0  0  0
  151.7230  141.2944  155.4690 H   0  0  0  0  0  0  0  0  0  0  0  0
  151.1683  139.8837  156.3718 H   0  0  0  0  0  0  0  0  0  0  0  0
  147.0366  131.8346  152.5084 H   0  0  0  0  0  0  0  0  0  0  0  0
  1  2  1  0  0  0  0
  1 31  1  0  0  0  0
  1 32  1  0  0  0  0
  1 33  1  0  0  0  0
  2 12  1  0  0  0  0
  2  3  1  0  0  0  0
  2 34  1  0  0  0  0
  3  4  1  0  0  0  0
  3 35  1  0  0  0  0
  3 36  1  0  0  0  0
  4  5  1  0  0  0  0
  4 10  1  0  0  0  0
  4 65  1  0  0  0  0
  5  6  1  0  0  0  0
  5 37  1  0  0  0  0
  5 38  1  0  0  0  0
  6  7  1  0  0  0  0
  6  8  1  0  0  0  0
  6  9  1  0  0  0  0
  7 39  1  0  0  0  0
  7 40  1  0  0  0  0
  7 41  1  0  0  0  0
  8 42  1  0  0  0  0
  8 43  1  0  0  0  0
  8 44  1  0  0  0  0
  9 45  1  0  0  0  0
 10 11  1  0  0  0  0
 10 46  1  0  0  0  0
 10 47  1  0  0  0  0
 11 12  1  0  0  0  0
 11 48  1  0  0  0  0
 11 49  1  0  0  0  0
 12 13  1  0  0  0  0
 13 18  1  0  0  0  0
 13 14  2  0  0  0  0
 14 15  1  0  0  0  0
 15 16  2  0  0  0  0
 15 50  1  0  0  0  0
 16 17  1  0  0  0  0
 17 21  1  0  0  0  0
 17 18  2  0  0  0  0
 18 19  1  0  0  0  0
 19 20  2  0  0  0  0
 20 21  1  0  0  0  0
 20 51  1  0  0  0  0
 21 22  1  0  0  0  0
 22 23  1  0  0  0  0
 22 52  1  0  0  0  0
 22 53  1  0  0  0  0
 23 24  1  0  0  0  0
 23 26  1  0  0  0  0
 23 54  1  0  0  0  0
 24 25  1  0  0  0  0
 24 55  1  0  0  0  0
 24 56  1  0  0  0  0
 25 57  1  0  0  0  0
 26 30  1  0  0  0  0
 26 27  1  0  0  0  0
 26 58  1  0  0  0  0
 27 28  1  0  0  0  0
 27 59  1  0  0  0  0
 27 60  1  0  0  0  0
 28 29  1  0  0  0  0
 28 61  1  0  0  0  0
 28 62  1  0  0  0  0
 29 30  1  0  0  0  0
 30 63  1  0  0  0  0
 30 64  1  0  0  0  0
M  CHG  1   4   1
M  END
> <s_m_source_file>
AV-unprocessed.smi

> <i_m_source_file_index>
212

> <i_lp_mmshare_version>
43012

> <i_f3d_flags>
0

> <s_epik_input>
W0NIM11bQ0BASF0xW0NIMl1OKFtDSDJdQyhbQ0gzXSkoW0NIM10pW09IXSlbQ0gyXVtDSDJdTjFjKG5bY0hdbjIpYyhjMjMpbltjSF1uM1tDSDJdW0NASF0oW0NIMl1bT0hdKVtDQEBIXTRbQ0gyXVtDSDJdT1tDSDJdNA==

> <s_epik_cmdline>
J2VwaWtfcHl0aG9uJywgJy1waCcsICc3LjAnLCAnLXRuJywgJzgnLCAnLW1hJywgJzIwMCcsICctbWV0YWxfYmluZGluZycsICctaW1hZScsICc8aW5maWxlLm1hZT4nLCAnLW9tYWUnLCAnPG91dGZpbGUubWFlPic=

> <r_lp_tautomer_probability>
1

> <r_epik_Ionization_Penalty>
0.00182193

> <r_epik_Ionization_Penalty_Charging>
0.00173996

> <r_epik_Ionization_Penalty_Neutral>
8.19718e-05

> <r_epik_State_Penalty>
-0

> <r_epik_Charging_Adjusted_Penalty>
0.00173996

> <i_epik_Tot_Q>
1

> <i_epik_Tot_abs_Q>
1

> <r_epik_Metal_State_Penalty>
-0

> <b_epik_Metal_Only>
0

> <s_lp_Force_Field>
OPLS_2005

> <r_lp_Energy>
58.8905

> <b_lp_Chiralities_Consistent>
1

> <s_lp_Variant>
AV-unprocessed.smi:212-8

> <Gold.Version>
5.8.1

> <Gold.Id.Protein>
6NUR|6NUR_protein|mol2

> <Gold.PLP.Fitness>
45.5814

> <Gold.PLP.PLP>
-43.1185

> <Gold.PLP.part.hbond>
-2.0000

> <Gold.PLP.part.metal>
0.0000

> <Gold.PLP.part.buried>
-3.9407

> <Gold.PLP.part.nonpolar>
-36.7663

> <Gold.PLP.part.repulsive>
0.1215

> <Gold.PLP.ligand.clash>
0.0000

> <Gold.PLP.ligand.torsion>
2.3218

> <Gold.PLP.Chemscore.Hbond>
2.0000

> <Gold.PLP.Chemscore.CHOScore>
0.0000

> <Gold.PLP.Chemscore.Metal>
0.0000

> <Gold.Chemscore.Hbonds>
donor molecule, donor type, donor heavy atom, donor atom, acceptor molecule, acceptor atom, score
      L1  H    25    57       P1  8028  1.00
      P1  H  7997  8009       L1    29  1.00

> <Gold.PLP.Chemscore.Internal.Correction>
1.1065

> <Gold.Rescore>
     Score         DG    S(hbond)    S(metal)    S(lipo)     H(rot)  DE(clash)    DE(int)     intcor
      7.83     -13.44       1.89        0.00      94.68       3.68       0.18       5.43       ----

> <Gold.Chemscore.Fitness>
7.8273

> <Gold.Chemscore.DG>
-13.4364

> <Gold.Chemscore.ZeroCoef>
-5.4800

> <Gold.Chemscore.Hbond>
1.8872

> <Gold.Chemscore.Metal>
0.0000

> <Gold.Chemscore.Lipo>
94.6756

> <Gold.Chemscore.Internal_Hbond>
0.0000

> <Gold.Chemscore.DEClash>
0.1799

> <Gold.Chemscore.DEInternal>
5.4293

> <Gold.Chemscore.Rot>
3.6812

> <Gold.Chemscore.Internal.Correction>
   9.000000E+99

> <Gold.Chemscore.Hbonds>
donor molecule, donor type, donor heavy atom, donor atom, acceptor molecule, acceptor atom, score
      L1  H    25    57       P1  8028  1.00
      P1  H  7997  8009       L1    29  0.99

> <Gold.Chemscore.Hbond.Weighted>
-6.3033

> <Gold.Chemscore.Metal.Weighted>
-0.0000

> <Gold.Chemscore.Lipo.Weighted>
-11.0770

> <Gold.Chemscore.Internal_Hbond.Weighted>
0.0000

> <Gold.Chemscore.DEClash.Weighted>
0.1799

> <Gold.Chemscore.DEInternal.Weighted>
5.4293

> <Gold.Chemscore.Rot.Weighted>
9.4239

> <Gold.Chemscore.Internal.Correction.Weighted>
   9.000000E+99

> <Gold.Protein.RotatedTorsions>
[ 6907 6896 6895 6894 ] final  162.31 input  -60.11 | X-H torsion
[ 7974 7965 7964 7962 ] final   88.60 input  175.53 | X-H torsion
[ 8008 7997 7996 7995 ] final -146.08 input   59.86 | X-H torsion
[ 10167 10162 10161 10158 ] final   77.30 input  -65.29 | X-H torsion
[ 10718 10713 10712 10709 ] final  -80.32 input   66.30 | X-H torsion
[ 10763 10752 10751 10750 ] final   24.12 input  -60.55 | X-H torsion
[ 11005 11000 10999 10996 ] final  142.42 input  -57.11 | X-H torsion

> <Gold.Protein.ActiveResidues>
 VAL166  LYS551  ARG553  GLY616  TRP617  ASP618  TYR619  PRO620  LYS621  CYS622 
 ASP623  PHE694  ASN695  SER759  ASP760  ASP761  ALA762  ILE779  LEU786  VAL792 
 PHE793  MET794  SER795  GLU796  ALA797  LYS798  CYS799  TRP800  GLU811  SER814 

> <Gold.Protein.RotatedAtoms>
  151.9423  133.3641  159.3969 H   0  0  0  0  0  0  0  0  0  0  0  0  # atno 6907 bound_to 6896
  150.6996  134.4426  159.5308 H   0  0  0  0  0  0  0  0  0  0  0  0  # atno 6908 bound_to 6896
  152.2085  134.8523  160.0551 H   0  0  0  0  0  0  0  0  0  0  0  0  # atno 6909 bound_to 6896
  145.5436  139.2290  143.2552 H   0  0  0  0  0  0  0  0  0  0  0  0  # atno 7974 bound_to 7965
  155.5536  140.0619  157.2844 H   0  0  0  0  0  0  0  0  0  0  0  0  # atno 8008 bound_to 7997
  154.4412  140.1898  156.0756 H   0  0  0  0  0  0  0  0  0  0  0  0  # atno 8009 bound_to 7997
  156.0498  140.3285  155.7341 H   0  0  0  0  0  0  0  0  0  0  0  0  # atno 8010 bound_to 7997
  139.9830  144.5812  150.7884 H   0  0  0  0  0  0  0  0  0  0  0  0  # atno 10167 bound_to 10162
  156.0073  130.4571  150.3783 H   0  0  0  0  0  0  0  0  0  0  0  0  # atno 10718 bound_to 10713
  153.0787  135.6612  154.0090 H   0  0  0  0  0  0  0  0  0  0  0  0  # atno 10763 bound_to 10752
  153.9717  135.2964  155.3428 H   0  0  0  0  0  0  0  0  0  0  0  0  # atno 10764 bound_to 10752
  154.7182  135.5176  153.8842 H   0  0  0  0  0  0  0  0  0  0  0  0  # atno 10765 bound_to 10752
  140.0475  134.9273  157.0957 H   0  0  0  0  0  0  0  0  0  0  0  0  # atno 11005 bound_to 11000
  146.1965  140.6256  142.9122 LP  0  0  0  0  0  0  0  0  0  0  0  0  # atno 17320 bound_to 7965
  144.7565  140.5319  143.6765 LP  0  0  0  0  0  0  0  0  0  0  0  0  # atno 17321 bound_to 7965
  140.7482  143.2919  151.3308 LP  0  0  0  0  0  0  0  0  0  0  0  0  # atno 17342 bound_to 10162
  139.6396  144.0565  152.2543 LP  0  0  0  0  0  0  0  0  0  0  0  0  # atno 17343 bound_to 10162
  157.1864  131.0404  151.2722 LP  0  0  0  0  0  0  0  0  0  0  0  0  # atno 17370 bound_to 10713
  157.4100  130.7380  149.6832 LP  0  0  0  0  0  0  0  0  0  0  0  0  # atno 17371 bound_to 10713
  140.3970  134.2123  155.7164 LP  0  0  0  0  0  0  0  0  0  0  0  0  # atno 17394 bound_to 11000
  141.1914  133.8195  157.0880 LP  0  0  0  0  0  0  0  0  0  0  0  0  # atno 17395 bound_to 11000

$$$$
