AV-unprocessed.smi:1875|AV-procd|sdf|7614|dock5
  -GOLD-   22720 9333D 1   1.00000     0.00000
 Structure written by MMmdl.
 47 49  0  0  0  0  0  0  0  0  1 V2000
  151.5145  140.8743  158.0385 C   0  0  0  0  0  0  0  0  0  0  0  0
  151.5943  139.8437  156.9313 C   0  0  0  0  0  0  0  0  0  0  0  0
  152.7746  139.2445  156.7440 N   0  0  0  0  0  0  0  0  0  0  0  0
  152.8428  138.3257  155.7560 C   0  0  0  0  0  0  0  0  0  0  0  0
  151.7249  138.0090  154.9580 C   0  0  0  0  0  0  0  0  0  0  0  0
  150.5337  138.7070  155.2498 C   0  0  0  0  0  0  0  0  0  0  0  0
  149.2634  138.4618  154.4606 C   0  0  0  0  0  0  0  0  0  0  0  0
  148.9434  139.5757  153.5736 N   0  0  0  0  0  0  0  0  0  0  0  0
  147.5084  139.8111  153.4418 C   0  0  0  0  0  0  0  0  0  0  0  0
  146.8427  138.7404  152.5613 C   0  0  2  0  0  0  0  0  0  0  0  0
  146.0037  139.3899  151.6264 O   0  0  0  0  0  0  0  0  0  0  0  0
  145.9947  137.7638  153.3989 C   0  0  0  0  0  0  0  0  0  0  0  0
  145.3391  136.7548  152.5859 N   0  0  0  0  0  0  0  0  0  0  0  0
  144.2923  136.9302  151.7564 C   0  0  0  0  0  0  0  0  0  0  0  0
  143.8445  135.8596  151.1065 N   0  0  0  0  0  0  0  0  0  0  0  0
  144.7017  134.8751  151.5676 C   0  0  0  0  0  0  0  0  0  0  0  0
  144.7632  133.4972  151.2646 C   0  0  0  0  0  0  0  0  0  0  0  0
  145.7356  132.6658  151.8647 C   0  0  0  0  0  0  0  0  0  0  0  0
  145.7629  131.1889  151.5126 C   0  0  0  0  0  0  0  0  0  0  0  0
  146.6686  133.2117  152.7828 C   0  0  0  0  0  0  0  0  0  0  0  0
  147.7221  132.3375  153.4395 C   0  0  0  0  0  0  0  0  0  0  0  0
  146.6222  134.5865  153.0959 C   0  0  0  0  0  0  0  0  0  0  0  0
  145.6482  135.4027  152.4939 C   0  0  0  0  0  0  0  0  0  0  0  0
  150.4721  139.6256  156.2393 N   0  0  0  0  0  0  0  0  0  0  0  0
  152.4685  140.9799  158.5566 H   0  0  0  0  0  0  0  0  0  0  0  0
  150.7610  140.5847  158.7714 H   0  0  0  0  0  0  0  0  0  0  0  0
  151.2402  141.8475  157.6304 H   0  0  0  0  0  0  0  0  0  0  0  0
  153.7947  137.8393  155.6015 H   0  0  0  0  0  0  0  0  0  0  0  0
  151.7805  137.2738  154.1691 H   0  0  0  0  0  0  0  0  0  0  0  0
  149.3881  137.5448  153.8834 H   0  0  0  0  0  0  0  0  0  0  0  0
  148.4389  138.2854  155.1531 H   0  0  0  0  0  0  0  0  0  0  0  0
  149.3400  139.3982  152.6563 H   0  0  0  0  0  0  0  0  0  0  0  0
  147.0560  139.7812  154.4341 H   0  0  0  0  0  0  0  0  0  0  0  0
  147.3131  140.8084  153.0448 H   0  0  0  0  0  0  0  0  0  0  0  0
  147.6044  138.1763  152.0207 H   0  0  0  0  0  0  0  0  0  0  0  0
  145.5908  138.7305  151.0893 H   0  0  0  0  0  0  0  0  0  0  0  0
  146.6216  137.2525  154.1303 H   0  0  0  0  0  0  0  0  0  0  0  0
  145.2350  138.3050  153.9652 H   0  0  0  0  0  0  0  0  0  0  0  0
  143.8340  137.8991  151.6213 H   0  0  0  0  0  0  0  0  0  0  0  0
  144.0529  133.0824  150.5648 H   0  0  0  0  0  0  0  0  0  0  0  0
  145.6188  130.5805  152.4057 H   0  0  0  0  0  0  0  0  0  0  0  0
  146.7181  130.9208  151.0606 H   0  0  0  0  0  0  0  0  0  0  0  0
  144.9741  130.9337  150.8041 H   0  0  0  0  0  0  0  0  0  0  0  0
  148.3635  132.9178  154.1033 H   0  0  0  0  0  0  0  0  0  0  0  0
  148.3562  131.8712  152.6852 H   0  0  0  0  0  0  0  0  0  0  0  0
  147.2516  131.5519  154.0312 H   0  0  0  0  0  0  0  0  0  0  0  0
  147.3257  135.0159  153.7934 H   0  0  0  0  0  0  0  0  0  0  0  0
  1  2  1  0  0  0  0
  1 25  1  0  0  0  0
  1 26  1  0  0  0  0
  1 27  1  0  0  0  0
  2 24  1  0  0  0  0
  2  3  2  0  0  0  0
  3  4  1  0  0  0  0
  4  5  2  0  0  0  0
  4 28  1  0  0  0  0
  5  6  1  0  0  0  0
  5 29  1  0  0  0  0
  6  7  1  0  0  0  0
  6 24  2  0  0  0  0
  7  8  1  0  0  0  0
  7 30  1  0  0  0  0
  7 31  1  0  0  0  0
  8  9  1  0  0  0  0
  8 32  1  0  0  0  0
  9 10  1  0  0  0  0
  9 33  1  0  0  0  0
  9 34  1  0  0  0  0
 10 11  1  0  0  0  0
 10 12  1  0  0  0  0
 10 35  1  0  0  0  0
 11 36  1  0  0  0  0
 12 13  1  0  0  0  0
 12 37  1  0  0  0  0
 12 38  1  0  0  0  0
 13 23  1  0  0  0  0
 13 14  1  0  0  0  0
 14 15  2  0  0  0  0
 14 39  1  0  0  0  0
 15 16  1  0  0  0  0
 16 23  2  0  0  0  0
 16 17  1  0  0  0  0
 17 18  2  0  0  0  0
 17 40  1  0  0  0  0
 18 19  1  0  0  0  0
 18 20  1  0  0  0  0
 19 41  1  0  0  0  0
 19 42  1  0  0  0  0
 19 43  1  0  0  0  0
 20 21  1  0  0  0  0
 20 22  2  0  0  0  0
 21 44  1  0  0  0  0
 21 45  1  0  0  0  0
 21 46  1  0  0  0  0
 22 23  1  0  0  0  0
 22 47  1  0  0  0  0
M  END
> <s_m_source_file>
AV-unprocessed.smi

> <i_m_source_file_index>
1875

> <i_lp_mmshare_version>
43012

> <i_f3d_flags>
0

> <s_epik_input>
W0NIM11jMW5bY0hdW2NIXWMobjEpW0NIMl1bTkhdW0NIMl1bQ0BIXShbT0hdKVtDSDJdbihbY0hdbjIpYyhjMjMpW2NIXWMoW0NIM10pYyhbY0hdMylbQ0gzXQ==

> <s_epik_cmdline>
J2VwaWtfcHl0aG9uJywgJy1waCcsICc3LjAnLCAnLXRuJywgJzgnLCAnLW1hJywgJzIwMCcsICctbWV0YWxfYmluZGluZycsICctaW1hZScsICc8aW5maWxlLm1hZT4nLCAnLW9tYWUnLCAnPG91dGZpbGUubWFlPic=

> <r_lp_tautomer_probability>
1

> <r_epik_Ionization_Penalty>
1.21192

> <r_epik_Ionization_Penalty_Charging>
0

> <r_epik_Ionization_Penalty_Neutral>
1.21192

> <r_epik_State_Penalty>
1.26105

> <r_epik_Charging_Adjusted_Penalty>
1.26105

> <i_epik_Tot_Q>
0

> <i_epik_Tot_abs_Q>
0

> <r_epik_Metal_State_Penalty>
1.2224

> <b_epik_Metal_Only>
0

> <s_epik_Chemistry_Notes>
This compound contains an electron-poor aromatic ring that is susceptible to covalent hydrolysis at low pH, typically resulting in measured values for nitrogen ring protonation that are around two units higher than predicted values.

> <s_lp_Force_Field>
OPLS_2005

> <r_lp_Energy>
12.1971

> <b_lp_Chiralities_Consistent>
1

> <s_lp_Variant>
AV-unprocessed.smi:1875-3

> <Gold.Version>
5.8.1

> <Gold.Id.Protein>
6NUR|6NUR_protein|mol2

> <Gold.PLP.Fitness>
47.6589

> <Gold.PLP.PLP>
-39.0244

> <Gold.PLP.part.hbond>
-3.7048

> <Gold.PLP.part.metal>
0.0000

> <Gold.PLP.part.buried>
-0.9564

> <Gold.PLP.part.nonpolar>
-34.8983

> <Gold.PLP.part.repulsive>
0.2215

> <Gold.PLP.ligand.clash>
0.0226

> <Gold.PLP.ligand.torsion>
1.2253

> <Gold.PLP.Chemscore.Hbond>
2.5487

> <Gold.PLP.Chemscore.CHOScore>
1.1163

> <Gold.PLP.Chemscore.Metal>
0.0000

> <Gold.Chemscore.Hbonds>
donor molecule, donor type, donor heavy atom, donor atom, acceptor molecule, acceptor atom, score
      L1  H     8    32       P1  7957  0.91
      L1  H    11    36       P1 10171  0.55
      P1  H  7997  8009       L1     3  0.80
      L1  C    14    39       P1 10171  0.54
      L1  C    14    39       P1 10175  0.66

> <Gold.PLP.Chemscore.Internal.Correction>
0.1128

> <Gold.Rescore>
     Score         DG    S(hbond)    S(metal)    S(lipo)     H(rot)  DE(clash)    DE(int)     intcor
     14.73     -16.94       2.23        0.00      93.92       2.72       0.16       2.05       ----

> <Gold.Chemscore.Fitness>
14.7300

> <Gold.Chemscore.DG>
-16.9426

> <Gold.Chemscore.ZeroCoef>
-5.4800

> <Gold.Chemscore.Hbond>
2.2289

> <Gold.Chemscore.Metal>
0.0000

> <Gold.Chemscore.Lipo>
93.9169

> <Gold.Chemscore.Internal_Hbond>
0.0000

> <Gold.Chemscore.DEClash>
0.1635

> <Gold.Chemscore.DEInternal>
2.0490

> <Gold.Chemscore.Rot>
2.7228

> <Gold.Chemscore.Internal.Correction>
   9.000000E+99

> <Gold.Chemscore.Hbonds>
donor molecule, donor type, donor heavy atom, donor atom, acceptor molecule, acceptor atom, score
      L1  H     8    32       P1  7957  0.88
      L1  H    11    36       P1 10171  0.54
      P1  H  7997  8009       L1     3  0.12

> <Gold.Chemscore.Hbond.Weighted>
-7.4446

> <Gold.Chemscore.Metal.Weighted>
-0.0000

> <Gold.Chemscore.Lipo.Weighted>
-10.9883

> <Gold.Chemscore.Internal_Hbond.Weighted>
0.0000

> <Gold.Chemscore.DEClash.Weighted>
0.1635

> <Gold.Chemscore.DEInternal.Weighted>
2.0490

> <Gold.Chemscore.Rot.Weighted>
6.9702

> <Gold.Chemscore.Internal.Correction.Weighted>
   9.000000E+99

> <Gold.Protein.RotatedTorsions>
[ 6907 6896 6895 6894 ] final  176.74 input  -60.11 | X-H torsion
[ 7974 7965 7964 7962 ] final   77.31 input  175.53 | X-H torsion
[ 8008 7997 7996 7995 ] final -159.38 input   59.86 | X-H torsion
[ 10167 10162 10161 10158 ] final  -79.11 input  -65.29 | X-H torsion
[ 10718 10713 10712 10709 ] final   90.20 input   66.30 | X-H torsion
[ 10763 10752 10751 10750 ] final    9.21 input  -60.55 | X-H torsion
[ 11005 11000 10999 10996 ] final  130.19 input  -57.11 | X-H torsion

> <Gold.Protein.ActiveResidues>
 VAL166  LYS551  ARG553  GLY616  TRP617  ASP618  TYR619  PRO620  LYS621  CYS622 
 ASP623  PHE694  ASN695  SER759  ASP760  ASP761  ALA762  ILE779  LEU786  VAL792 
 PHE793  MET794  SER795  GLU796  ALA797  LYS798  CYS799  TRP800  GLU811  SER814 

> <Gold.Protein.RotatedAtoms>
  151.7152  133.3313  159.3300 H   0  0  0  0  0  0  0  0  0  0  0  0  # atno 6907 bound_to 6896
  150.7676  134.6497  159.6290 H   0  0  0  0  0  0  0  0  0  0  0  0  # atno 6908 bound_to 6896
  152.3686  134.6770  160.0235 H   0  0  0  0  0  0  0  0  0  0  0  0  # atno 6909 bound_to 6896
  145.6917  139.2554  143.1756 H   0  0  0  0  0  0  0  0  0  0  0  0  # atno 7974 bound_to 7965
  155.7617  140.0840  157.2152 H   0  0  0  0  0  0  0  0  0  0  0  0  # atno 8008 bound_to 7997
  154.4003  140.1541  156.2897 H   0  0  0  0  0  0  0  0  0  0  0  0  # atno 8009 bound_to 7997
  155.8832  140.3419  155.5906 H   0  0  0  0  0  0  0  0  0  0  0  0  # atno 8010 bound_to 7997
  140.4622  143.2450  151.8331 H   0  0  0  0  0  0  0  0  0  0  0  0  # atno 10167 bound_to 10162
  157.6958  131.0362  150.3541 H   0  0  0  0  0  0  0  0  0  0  0  0  # atno 10718 bound_to 10713
  153.2165  135.6875  153.8051 H   0  0  0  0  0  0  0  0  0  0  0  0  # atno 10763 bound_to 10752
  153.7265  135.3259  155.3278 H   0  0  0  0  0  0  0  0  0  0  0  0  # atno 10764 bound_to 10752
  154.8248  135.4625  154.0994 H   0  0  0  0  0  0  0  0  0  0  0  0  # atno 10765 bound_to 10752
  139.9658  134.9591  156.9257 H   0  0  0  0  0  0  0  0  0  0  0  0  # atno 11005 bound_to 11000
  146.0876  140.7693  142.9611 LP  0  0  0  0  0  0  0  0  0  0  0  0  # atno 17320 bound_to 7965
  144.6994  140.3586  143.7168 LP  0  0  0  0  0  0  0  0  0  0  0  0  # atno 17321 bound_to 7965
  139.4807  144.4993  151.9081 LP  0  0  0  0  0  0  0  0  0  0  0  0  # atno 17342 bound_to 10162
  140.4079  144.2408  150.5890 LP  0  0  0  0  0  0  0  0  0  0  0  0  # atno 17343 bound_to 10162
  156.3986  130.3911  149.6976 LP  0  0  0  0  0  0  0  0  0  0  0  0  # atno 17370 bound_to 10713
  156.4301  130.7811  151.2831 LP  0  0  0  0  0  0  0  0  0  0  0  0  # atno 17371 bound_to 10713
  140.5400  134.0729  155.7339 LP  0  0  0  0  0  0  0  0  0  0  0  0  # atno 17394 bound_to 11000
  141.1337  133.9258  157.2480 LP  0  0  0  0  0  0  0  0  0  0  0  0  # atno 17395 bound_to 11000

$$$$
