AV-unprocessed.smi:836|AV-procd|sdf|3890|dock1
  -GOLD-   22720 1343D 1   1.00000     0.00000
 Structure written by MMmdl.
 38 39  0  0  0  0  0  0  0  0  1 V2000
  153.2589  142.6394  160.8816 C   0  0  0  0  0  0  0  0  0  0  0  0
  152.1609  142.6486  159.8087 C   0  0  2  0  0  0  0  0  0  0  0  0
  151.9625  141.2503  159.1935 C   0  0  0  0  0  0  0  0  0  0  0  0
  150.8651  141.2547  158.1174 C   0  0  0  0  0  0  0  0  0  0  0  0
  151.1590  142.2930  157.0164 C   0  0  1  0  0  0  0  0  0  0  0  0
  150.0675  142.3397  156.0493 N   0  0  0  0  0  0  0  0  0  0  0  0
  149.7990  141.4000  155.1291 C   0  0  0  0  0  0  0  0  0  0  0  0
  150.4494  140.3622  155.0074 O   0  0  0  0  0  0  0  0  0  0  0  0
  148.6077  141.6683  154.2074 C   0  0  0  0  0  0  0  0  0  0  0  0
  147.3523  141.6177  154.9364 N   0  0  0  0  0  0  0  0  0  0  0  0
  146.7656  140.5369  155.5590 C   0  0  0  0  0  0  0  0  0  0  0  0
  145.5895  140.9703  156.0998 C   0  0  0  0  0  0  0  0  0  0  0  0
  145.5360  142.3519  155.7537 C   0  0  0  0  0  0  0  0  0  0  0  0
  144.4613  143.3559  156.0770 C   0  0  0  0  0  0  0  0  0  0  0  0
  143.4494  142.7631  156.7108 F   0  0  0  0  0  0  0  0  0  0  0  0
  144.9546  144.3155  156.8596 F   0  0  0  0  0  0  0  0  0  0  0  0
  144.0008  143.9049  154.9530 F   0  0  0  0  0  0  0  0  0  0  0  0
  146.5985  142.7318  155.0567 N   0  0  0  0  0  0  0  0  0  0  0  0
  151.3625  143.6910  157.6280 C   0  0  0  0  0  0  0  0  0  0  0  0
  152.4590  143.6816  158.7054 C   0  0  0  0  0  0  0  0  0  0  0  0
  154.2226  142.3515  160.4605 H   0  0  0  0  0  0  0  0  0  0  0  0
  153.0214  141.9366  161.6807 H   0  0  0  0  0  0  0  0  0  0  0  0
  153.3737  143.6249  161.3337 H   0  0  0  0  0  0  0  0  0  0  0  0
  151.2285  142.9370  160.2964 H   0  0  0  0  0  0  0  0  0  0  0  0
  152.8987  140.9044  158.7533 H   0  0  0  0  0  0  0  0  0  0  0  0
  151.7051  140.5324  159.9730 H   0  0  0  0  0  0  0  0  0  0  0  0
  150.7785  140.2585  157.6821 H   0  0  0  0  0  0  0  0  0  0  0  0
  149.9032  141.4726  158.5837 H   0  0  0  0  0  0  0  0  0  0  0  0
  152.0797  142.0116  156.5012 H   0  0  0  0  0  0  0  0  0  0  0  0
  149.4763  143.1584  156.0705 H   0  0  0  0  0  0  0  0  0  0  0  0
  148.7048  142.6526  153.7474 H   0  0  0  0  0  0  0  0  0  0  0  0
  148.5925  140.9359  153.3986 H   0  0  0  0  0  0  0  0  0  0  0  0
  147.2277  139.5607  155.5623 H   0  0  0  0  0  0  0  0  0  0  0  0
  144.8720  140.3874  156.6584 H   0  0  0  0  0  0  0  0  0  0  0  0
  151.6229  144.4057  156.8463 H   0  0  0  0  0  0  0  0  0  0  0  0
  150.4281  144.0421  158.0684 H   0  0  0  0  0  0  0  0  0  0  0  0
  152.5500  144.6771  159.1410 H   0  0  0  0  0  0  0  0  0  0  0  0
  153.4212  143.4592  158.2419 H   0  0  0  0  0  0  0  0  0  0  0  0
  1  2  1  0  0  0  0
  1 21  1  0  0  0  0
  1 22  1  0  0  0  0
  1 23  1  0  0  0  0
  2 20  1  0  0  0  0
  2  3  1  0  0  0  0
  2 24  1  0  0  0  0
  3  4  1  0  0  0  0
  3 25  1  0  0  0  0
  3 26  1  0  0  0  0
  4  5  1  0  0  0  0
  4 27  1  0  0  0  0
  4 28  1  0  0  0  0
  5  6  1  0  0  0  0
  5 19  1  0  0  0  0
  5 29  1  0  0  0  0
  6  7  1  0  0  0  0
  6 30  1  0  0  0  0
  7  8  2  0  0  0  0
  7  9  1  0  0  0  0
  9 10  1  0  0  0  0
  9 31  1  0  0  0  0
  9 32  1  0  0  0  0
 10 18  1  0  0  0  0
 10 11  1  0  0  0  0
 11 12  2  0  0  0  0
 11 33  1  0  0  0  0
 12 13  1  0  0  0  0
 12 34  1  0  0  0  0
 13 14  1  0  0  0  0
 13 18  2  0  0  0  0
 14 15  1  0  0  0  0
 14 16  1  0  0  0  0
 14 17  1  0  0  0  0
 19 20  1  0  0  0  0
 19 35  1  0  0  0  0
 19 36  1  0  0  0  0
 20 37  1  0  0  0  0
 20 38  1  0  0  0  0
M  END
> <s_m_source_file>
AV-unprocessed.smi

> <i_m_source_file_index>
836

> <i_lp_mmshare_version>
43012

> <i_f3d_flags>
0

> <s_epik_input>
W0NIM11bQ0BASF0xW0NIMl1bQ0gyXVtDQEhdKFtDSDJdW0NIMl0xKVtOSF1DKD1PKVtDSDJdbjJbY0hdW2NIXWMobjIpQyhGKShGKUY=

> <s_epik_cmdline>
J2VwaWtfcHl0aG9uJywgJy1waCcsICc3LjAnLCAnLXRuJywgJzgnLCAnLW1hJywgJzIwMCcsICctbWV0YWxfYmluZGluZycsICctaW1hZScsICc8aW5maWxlLm1hZT4nLCAnLW9tYWUnLCAnPG91dGZpbGUubWFlPic=

> <r_lp_tautomer_probability>
1

> <r_epik_Ionization_Penalty>
8.28749e-08

> <r_epik_Ionization_Penalty_Charging>
0

> <r_epik_Ionization_Penalty_Neutral>
8.28749e-08

> <r_epik_State_Penalty>
-0

> <r_epik_Charging_Adjusted_Penalty>
0

> <i_epik_Tot_Q>
0

> <i_epik_Tot_abs_Q>
0

> <r_epik_Metal_State_Penalty>
-0

> <b_epik_Metal_Only>
0

> <s_lp_Force_Field>
OPLS_2005

> <r_lp_Energy>
10.955

> <b_lp_Chiralities_Consistent>
1

> <s_lp_Variant>
AV-unprocessed.smi:836-1

> <Gold.Version>
5.8.1

> <Gold.Id.Protein>
6NUR|6NUR_protein|mol2

> <Gold.PLP.Fitness>
42.7913

> <Gold.PLP.PLP>
-37.3619

> <Gold.PLP.part.hbond>
-2.0000

> <Gold.PLP.part.metal>
0.0000

> <Gold.PLP.part.buried>
-4.7701

> <Gold.PLP.part.nonpolar>
-31.8372

> <Gold.PLP.part.repulsive>
0.7641

> <Gold.PLP.ligand.clash>
0.0000

> <Gold.PLP.ligand.torsion>
0.2991

> <Gold.PLP.Chemscore.Hbond>
2.0000

> <Gold.PLP.Chemscore.CHOScore>
0.0000

> <Gold.PLP.Chemscore.Metal>
0.0000

> <Gold.Chemscore.Hbonds>
donor molecule, donor type, donor heavy atom, donor atom, acceptor molecule, acceptor atom, score
      L1  H     6    30       P1  8028  1.00
      P1  H  7989  7998       L1     8  1.00

> <Gold.PLP.Chemscore.Internal.Correction>
0.0276

> <Gold.Rescore>
     Score         DG    S(hbond)    S(metal)    S(lipo)     H(rot)  DE(clash)    DE(int)     intcor
     16.64     -17.45       1.75        0.00      85.97       1.54       0.42       0.38       ----

> <Gold.Chemscore.Fitness>
16.6404

> <Gold.Chemscore.DG>
-17.4467

> <Gold.Chemscore.ZeroCoef>
-5.4800

> <Gold.Chemscore.Hbond>
1.7535

> <Gold.Chemscore.Metal>
0.0000

> <Gold.Chemscore.Lipo>
85.9664

> <Gold.Chemscore.Internal_Hbond>
0.0000

> <Gold.Chemscore.DEClash>
0.4214

> <Gold.Chemscore.DEInternal>
0.3848

> <Gold.Chemscore.Rot>
1.5422

> <Gold.Chemscore.Internal.Correction>
   9.000000E+99

> <Gold.Chemscore.Hbonds>
donor molecule, donor type, donor heavy atom, donor atom, acceptor molecule, acceptor atom, score
      L1  H     6    30       P1  8028  0.99
      P1  H  7989  7998       L1     8  0.24

> <Gold.Chemscore.Hbond.Weighted>
-5.8566

> <Gold.Chemscore.Metal.Weighted>
-0.0000

> <Gold.Chemscore.Lipo.Weighted>
-10.0581

> <Gold.Chemscore.Internal_Hbond.Weighted>
0.0000

> <Gold.Chemscore.DEClash.Weighted>
0.4214

> <Gold.Chemscore.DEInternal.Weighted>
0.3848

> <Gold.Chemscore.Rot.Weighted>
3.9479

> <Gold.Chemscore.Internal.Correction.Weighted>
   9.000000E+99

> <Gold.Protein.RotatedTorsions>
[ 6907 6896 6895 6894 ] final  126.05 input  -60.11 | X-H torsion
[ 7974 7965 7964 7962 ] final   24.24 input  175.53 | X-H torsion
[ 8008 7997 7996 7995 ] final  123.94 input   59.86 | X-H torsion
[ 10167 10162 10161 10158 ] final  -84.42 input  -65.29 | X-H torsion
[ 10718 10713 10712 10709 ] final   -9.04 input   66.30 | X-H torsion
[ 10763 10752 10751 10750 ] final    8.46 input  -60.55 | X-H torsion
[ 11005 11000 10999 10996 ] final   25.16 input  -57.11 | X-H torsion

> <Gold.Protein.ActiveResidues>
 VAL166  LYS551  ARG553  GLY616  TRP617  ASP618  TYR619  PRO620  LYS621  CYS622 
 ASP623  PHE694  ASN695  SER759  ASP760  ASP761  ALA762  ILE779  LEU786  VAL792 
 PHE793  MET794  SER795  GLU796  ALA797  LYS798  CYS799  TRP800  GLU811  SER814 

> <Gold.Protein.RotatedAtoms>
  152.3938  133.6717  159.6258 H   0  0  0  0  0  0  0  0  0  0  0  0  # atno 6907 bound_to 6896
  150.7841  133.8909  159.3322 H   0  0  0  0  0  0  0  0  0  0  0  0  # atno 6908 bound_to 6896
  151.6690  135.0980  160.0245 H   0  0  0  0  0  0  0  0  0  0  0  0  # atno 6909 bound_to 6896
  146.1947  139.7632  142.8806 H   0  0  0  0  0  0  0  0  0  0  0  0  # atno 7974 bound_to 7965
  156.2784  140.2751  156.1708 H   0  0  0  0  0  0  0  0  0  0  0  0  # atno 8008 bound_to 7997
  155.0657  140.0387  157.2609 H   0  0  0  0  0  0  0  0  0  0  0  0  # atno 8009 bound_to 7997
  154.7081  140.2663  155.6661 H   0  0  0  0  0  0  0  0  0  0  0  0  # atno 8010 bound_to 7997
  140.4134  143.2613  151.8987 H   0  0  0  0  0  0  0  0  0  0  0  0  # atno 10167 bound_to 10162
  156.6938  130.5073  149.5936 H   0  0  0  0  0  0  0  0  0  0  0  0  # atno 10718 bound_to 10713
  153.2248  135.6885  153.7958 H   0  0  0  0  0  0  0  0  0  0  0  0  # atno 10763 bound_to 10752
  153.7144  135.3277  155.3254 H   0  0  0  0  0  0  0  0  0  0  0  0  # atno 10764 bound_to 10752
  154.8286  135.4598  154.1110 H   0  0  0  0  0  0  0  0  0  0  0  0  # atno 10765 bound_to 10752
  140.3509  134.2230  155.7680 H   0  0  0  0  0  0  0  0  0  0  0  0  # atno 11005 bound_to 11000
  145.3682  141.0338  143.3246 LP  0  0  0  0  0  0  0  0  0  0  0  0  # atno 17320 bound_to 7965
  144.8556  139.5255  143.6836 LP  0  0  0  0  0  0  0  0  0  0  0  0  # atno 17321 bound_to 7965
  139.4782  144.5513  151.8381 LP  0  0  0  0  0  0  0  0  0  0  0  0  # atno 17342 bound_to 10162
  140.4613  144.1718  150.5906 LP  0  0  0  0  0  0  0  0  0  0  0  0  # atno 17343 bound_to 10162
  156.1778  130.6479  151.0915 LP  0  0  0  0  0  0  0  0  0  0  0  0  # atno 17370 bound_to 10713
  157.6999  131.0780  150.6854 LP  0  0  0  0  0  0  0  0  0  0  0  0  # atno 17371 bound_to 10713
  141.2012  133.7968  157.0451 LP  0  0  0  0  0  0  0  0  0  0  0  0  # atno 17394 bound_to 11000
  140.0704  134.9705  157.1457 LP  0  0  0  0  0  0  0  0  0  0  0  0  # atno 17395 bound_to 11000

$$$$
