AV-unprocessed.smi:1244|AV-procd|sdf|5237|dock10
  -GOLD-   22720 4343D 1   1.00000     0.00000
 Structure written by MMmdl.
 55 57  0  0  0  0  0  0  0  0  4 V2000
  152.3265  138.9741  155.6484 C   0  0  0  0  0  0  0  0  0  0  0  0
  150.8123  138.9596  155.4121 C   0  0  2  0  0  0  0  0  0  0  0  0
  150.3988  137.9080  154.3634 C   0  0  0  0  0  0  0  0  0  0  0  0
  148.9390  137.9587  154.1038 N   0  3  1  0  0  0  0  0  0  0  0  0
  148.1154  137.3201  155.1683 C   0  0  0  0  0  0  0  0  0  0  0  0
  148.5522  135.8666  155.4438 C   0  0  0  0  0  0  0  0  0  0  0  0
  148.6629  135.6337  156.8831 N   0  5  0  0  0  0  0  0  0  0  0  0
  148.8953  134.4239  157.4589 C   0  0  0  0  0  0  0  0  0  0  0  0
  149.8468  133.6598  157.2579 O   0  0  0  0  0  0  0  0  0  0  0  0
  147.9409  134.0954  158.3456 N   0  0  0  0  0  0  0  0  0  0  0  0
  147.9050  132.9728  159.2164 C   0  0  0  0  0  0  0  0  0  0  0  0
  148.3443  131.7008  158.7718 C   0  0  0  0  0  0  0  0  0  0  0  0
  148.2292  130.5829  159.6195 C   0  0  0  0  0  0  0  0  0  0  0  0
  147.6597  130.7526  160.8932 C   0  0  0  0  0  0  0  0  0  0  0  0
  147.2391  131.9744  161.2816 N   0  3  0  0  0  0  0  0  0  0  0  0
  147.3367  133.0916  160.5174 C   0  0  0  0  0  0  0  0  0  0  0  0
  146.8630  134.3073  161.0622 N   0  0  0  0  0  0  0  0  0  0  0  0
  146.0631  134.3102  162.2813 C   0  0  0  0  0  0  0  0  0  0  0  0
  146.0313  135.7689  162.7295 C   0  0  0  0  0  0  0  0  0  0  0  0
  147.4146  136.2685  162.3233 C   0  0  0  0  0  0  0  0  0  0  0  0
  147.7220  135.4875  161.0413 C   0  0  0  0  0  0  0  0  0  0  0  0
  148.5297  139.3420  153.7381 C   0  0  0  0  0  0  0  0  0  0  0  0
  149.0166  140.3743  154.7784 C   0  0  2  0  0  0  0  0  0  0  0  0
  148.7169  141.8126  154.3423 C   0  0  0  0  0  0  0  0  0  0  0  0
  150.4251  140.2475  154.9450 O   0  0  0  0  0  0  0  0  0  0  0  0
  152.6756  138.0090  156.0167 H   0  0  0  0  0  0  0  0  0  0  0  0
  152.5978  139.7287  156.3872 H   0  0  0  0  0  0  0  0  0  0  0  0
  152.8681  139.1983  154.7290 H   0  0  0  0  0  0  0  0  0  0  0  0
  150.3172  138.7552  156.3631 H   0  0  0  0  0  0  0  0  0  0  0  0
  150.9197  138.1038  153.4249 H   0  0  0  0  0  0  0  0  0  0  0  0
  150.6972  136.9055  154.6729 H   0  0  0  0  0  0  0  0  0  0  0  0
  148.2197  137.8817  156.0980 H   0  0  0  0  0  0  0  0  0  0  0  0
  147.0570  137.3656  154.9113 H   0  0  0  0  0  0  0  0  0  0  0  0
  147.8468  135.1813  154.9718 H   0  0  0  0  0  0  0  0  0  0  0  0
  149.5051  135.6872  154.9452 H   0  0  0  0  0  0  0  0  0  0  0  0
  147.2493  134.8098  158.5206 H   0  0  0  0  0  0  0  0  0  0  0  0
  148.7494  131.5674  157.7796 H   0  0  0  0  0  0  0  0  0  0  0  0
  148.5607  129.6087  159.2914 H   0  0  0  0  0  0  0  0  0  0  0  0
  147.5239  129.9535  161.6074 H   0  0  0  0  0  0  0  0  0  0  0  0
  145.0609  133.9196  162.1025 H   0  0  0  0  0  0  0  0  0  0  0  0
  146.5406  133.7003  163.0496 H   0  0  0  0  0  0  0  0  0  0  0  0
  145.2631  136.3126  162.1778 H   0  0  0  0  0  0  0  0  0  0  0  0
  145.8298  135.8826  163.7950 H   0  0  0  0  0  0  0  0  0  0  0  0
  147.4524  137.3487  162.1795 H   0  0  0  0  0  0  0  0  0  0  0  0
  148.1396  136.0064  163.0948 H   0  0  0  0  0  0  0  0  0  0  0  0
  148.7794  135.2264  160.9811 H   0  0  0  0  0  0  0  0  0  0  0  0
  147.4707  136.0904  160.1680 H   0  0  0  0  0  0  0  0  0  0  0  0
  148.9650  139.5744  152.7653 H   0  0  0  0  0  0  0  0  0  0  0  0
  147.4482  139.4057  153.6108 H   0  0  0  0  0  0  0  0  0  0  0  0
  148.5287  140.2039  155.7389 H   0  0  0  0  0  0  0  0  0  0  0  0
  147.6458  141.9677  154.2116 H   0  0  0  0  0  0  0  0  0  0  0  0
  149.2077  142.0506  153.3981 H   0  0  0  0  0  0  0  0  0  0  0  0
  149.0670  142.5265  155.0883 H   0  0  0  0  0  0  0  0  0  0  0  0
  148.7854  137.3846  153.2868 H   0  0  0  0  0  0  0  0  0  0  0  0
  146.8291  132.0647  162.2109 H   0  0  0  0  0  0  0  0  0  0  0  0
  1  2  1  0  0  0  0
  1 26  1  0  0  0  0
  1 27  1  0  0  0  0
  1 28  1  0  0  0  0
  2 25  1  0  0  0  0
  2  3  1  0  0  0  0
  2 29  1  0  0  0  0
  3  4  1  0  0  0  0
  3 30  1  0  0  0  0
  3 31  1  0  0  0  0
  4  5  1  0  0  0  0
  4 22  1  0  0  0  0
  4 54  1  0  0  0  0
  5  6  1  0  0  0  0
  5 32  1  0  0  0  0
  5 33  1  0  0  0  0
  6  7  1  0  0  0  0
  6 34  1  0  0  0  0
  6 35  1  0  0  0  0
  7  8  1  0  0  0  0
  8  9  2  0  0  0  0
  8 10  1  0  0  0  0
 10 11  1  0  0  0  0
 10 36  1  0  0  0  0
 11 16  1  0  0  0  0
 11 12  2  0  0  0  0
 12 13  1  0  0  0  0
 12 37  1  0  0  0  0
 13 14  2  0  0  0  0
 13 38  1  0  0  0  0
 14 15  1  0  0  0  0
 14 39  1  0  0  0  0
 15 16  2  0  0  0  0
 15 55  1  0  0  0  0
 16 17  1  0  0  0  0
 17 21  1  0  0  0  0
 17 18  1  0  0  0  0
 18 19  1  0  0  0  0
 18 40  1  0  0  0  0
 18 41  1  0  0  0  0
 19 20  1  0  0  0  0
 19 42  1  0  0  0  0
 19 43  1  0  0  0  0
 20 21  1  0  0  0  0
 20 44  1  0  0  0  0
 20 45  1  0  0  0  0
 21 46  1  0  0  0  0
 21 47  1  0  0  0  0
 22 23  1  0  0  0  0
 22 48  1  0  0  0  0
 22 49  1  0  0  0  0
 23 24  1  0  0  0  0
 23 25  1  0  0  0  0
 23 50  1  0  0  0  0
 24 51  1  0  0  0  0
 24 52  1  0  0  0  0
 24 53  1  0  0  0  0
M  CHG  1   4   1
M  CHG  1   7  -1
M  CHG  1  15   1
M  END
> <s_m_source_file>
AV-unprocessed.smi

> <i_m_source_file_index>
1244

> <i_lp_mmshare_version>
43012

> <i_f3d_flags>
0

> <s_epik_input>
W0NIM11bQ0BASF0xW0NIMl1OKFtDSDJdW0NASF0oTzEpW0NIM10pW0NIMl1bQ0gyXVtOSF1DKD1PKVtOSF1jMltjSF1bY0hdW2NIXW5jMk4zW0NIMl1bQ0gyXVtDSDJdW0NIMl0z

> <s_epik_cmdline>
J2VwaWtfcHl0aG9uJywgJy1waCcsICc3LjAnLCAnLXRuJywgJzgnLCAnLW1hJywgJzIwMCcsICctbWV0YWxfYmluZGluZycsICctaW1hZScsICc8aW5maWxlLm1hZT4nLCAnLW9tYWUnLCAnPG91dGZpbGUubWFlPic=

> <r_lp_tautomer_probability>
0.999994

> <r_epik_Ionization_Penalty>
8.60539

> <r_epik_Ionization_Penalty_Charging>
8.60539

> <r_epik_Ionization_Penalty_Neutral>
3.60441e-06

> <r_epik_State_Penalty>
8.59967

> <r_epik_Charging_Adjusted_Penalty>
17.2051

> <i_epik_Tot_Q>
1

> <i_epik_Tot_abs_Q>
3

> <r_epik_Metal_State_Penalty>
4.59489

> <b_epik_Metal_Only>
1

> <s_lp_Force_Field>
OPLS_2005

> <r_lp_Energy>
45.4407

> <b_lp_Chiralities_Consistent>
1

> <s_lp_Variant>
AV-unprocessed.smi:1244-17

> <Gold.Version>
5.8.1

> <Gold.Id.Protein>
6NUR|6NUR_protein|mol2

> <Gold.PLP.Fitness>
45.7560

> <Gold.PLP.PLP>
-36.0118

> <Gold.PLP.part.hbond>
-3.0000

> <Gold.PLP.part.metal>
0.0000

> <Gold.PLP.part.buried>
-1.6932

> <Gold.PLP.part.nonpolar>
-31.8542

> <Gold.PLP.part.repulsive>
0.2080

> <Gold.PLP.ligand.clash>
0.0000

> <Gold.PLP.ligand.torsion>
1.3737

> <Gold.PLP.Chemscore.Hbond>
3.9360

> <Gold.PLP.Chemscore.CHOScore>
0.0000

> <Gold.PLP.Chemscore.Metal>
0.0000

> <Gold.Chemscore.Hbonds>
donor molecule, donor type, donor heavy atom, donor atom, acceptor molecule, acceptor atom, score
      L1  H     4    54       P1  7948  2.00
      P1  H  6896  6908       L1     9  0.52
      P1  H  7989  7998       L1    25  1.00

> <Gold.PLP.Chemscore.Internal.Correction>
0.6837

> <Gold.Rescore>
     Score         DG    S(hbond)    S(metal)    S(lipo)     H(rot)  DE(clash)    DE(int)     intcor
     16.95     -20.29       2.55        0.00      88.63       1.60       0.62       2.72       ----

> <Gold.Chemscore.Fitness>
16.9479

> <Gold.Chemscore.DG>
-20.2853

> <Gold.Chemscore.ZeroCoef>
-5.4800

> <Gold.Chemscore.Hbond>
2.5526

> <Gold.Chemscore.Metal>
0.0000

> <Gold.Chemscore.Lipo>
88.6337

> <Gold.Chemscore.Internal_Hbond>
0.0000

> <Gold.Chemscore.DEClash>
0.6175

> <Gold.Chemscore.DEInternal>
2.7200

> <Gold.Chemscore.Rot>
1.5978

> <Gold.Chemscore.Internal.Correction>
   9.000000E+99

> <Gold.Chemscore.Hbonds>
donor molecule, donor type, donor heavy atom, donor atom, acceptor molecule, acceptor atom, score
      L1  H     4    54       P1  7948  1.00
      P1  H  6896  6908       L1     9  0.11
      P1  H  7989  7998       L1    25  0.73

> <Gold.Chemscore.Hbond.Weighted>
-8.5257

> <Gold.Chemscore.Metal.Weighted>
-0.0000

> <Gold.Chemscore.Lipo.Weighted>
-10.3701

> <Gold.Chemscore.Internal_Hbond.Weighted>
0.0000

> <Gold.Chemscore.DEClash.Weighted>
0.6175

> <Gold.Chemscore.DEInternal.Weighted>
2.7200

> <Gold.Chemscore.Rot.Weighted>
4.0905

> <Gold.Chemscore.Internal.Correction.Weighted>
   9.000000E+99

> <Gold.Protein.RotatedTorsions>
[ 6907 6896 6895 6894 ] final  119.75 input  -60.11 | X-H torsion
[ 7974 7965 7964 7962 ] final  -39.91 input  175.53 | X-H torsion
[ 8008 7997 7996 7995 ] final  -95.45 input   59.86 | X-H torsion
[ 10167 10162 10161 10158 ] final  -52.75 input  -65.29 | X-H torsion
[ 10718 10713 10712 10709 ] final   12.74 input   66.30 | X-H torsion
[ 10763 10752 10751 10750 ] final  114.54 input  -60.55 | X-H torsion
[ 11005 11000 10999 10996 ] final  -41.30 input  -57.11 | X-H torsion

> <Gold.Protein.ActiveResidues>
 VAL166  LYS551  ARG553  GLY616  TRP617  ASP618  TYR619  PRO620  LYS621  CYS622 
 ASP623  PHE694  ASN695  SER759  ASP760  ASP761  ALA762  ILE779  LEU786  VAL792 
 PHE793  MET794  SER795  GLU796  ALA797  LYS798  CYS799  TRP800  GLU811  SER814 

> <Gold.Protein.RotatedAtoms>
  152.4449  133.7517  159.6697 H   0  0  0  0  0  0  0  0  0  0  0  0  # atno 6907 bound_to 6896
  150.8346  133.8023  159.3091 H   0  0  0  0  0  0  0  0  0  0  0  0  # atno 6908 bound_to 6896
  151.5667  135.1066  160.0037 H   0  0  0  0  0  0  0  0  0  0  0  0  # atno 6909 bound_to 6896
  146.0353  140.6679  142.9113 H   0  0  0  0  0  0  0  0  0  0  0  0  # atno 7974 bound_to 7965
  154.7616  140.0480  157.0978 H   0  0  0  0  0  0  0  0  0  0  0  0  # atno 8008 bound_to 7997
  154.9931  140.3115  155.4878 H   0  0  0  0  0  0  0  0  0  0  0  0  # atno 8009 bound_to 7997
  156.2905  140.2215  156.5037 H   0  0  0  0  0  0  0  0  0  0  0  0  # atno 8010 bound_to 7997
  140.6521  143.2573  151.4693 H   0  0  0  0  0  0  0  0  0  0  0  0  # atno 10167 bound_to 10162
  157.0145  130.6130  149.5712 H   0  0  0  0  0  0  0  0  0  0  0  0  # atno 10718 bound_to 10713
  153.5088  135.3622  155.2576 H   0  0  0  0  0  0  0  0  0  0  0  0  # atno 10763 bound_to 10752
  154.8743  135.4018  154.3392 H   0  0  0  0  0  0  0  0  0  0  0  0  # atno 10764 bound_to 10752
  153.4042  135.7076  153.6471 H   0  0  0  0  0  0  0  0  0  0  0  0  # atno 10765 bound_to 10752
  141.0236  133.6851  156.2438 H   0  0  0  0  0  0  0  0  0  0  0  0  # atno 11005 bound_to 11000
  144.7049  140.3810  143.7126 LP  0  0  0  0  0  0  0  0  0  0  0  0  # atno 17320 bound_to 7965
  145.6974  139.1653  143.2612 LP  0  0  0  0  0  0  0  0  0  0  0  0  # atno 17321 bound_to 7965
  139.5737  144.1868  152.1873 LP  0  0  0  0  0  0  0  0  0  0  0  0  # atno 17342 bound_to 10162
  140.1172  144.5405  150.6886 LP  0  0  0  0  0  0  0  0  0  0  0  0  # atno 17343 bound_to 10162
  156.0124  130.5216  150.8030 LP  0  0  0  0  0  0  0  0  0  0  0  0  # atno 17370 bound_to 10713
  157.5296  131.0936  150.9973 LP  0  0  0  0  0  0  0  0  0  0  0  0  # atno 17371 bound_to 10713
  140.6530  134.5047  157.5579 LP  0  0  0  0  0  0  0  0  0  0  0  0  # atno 17394 bound_to 11000
  139.9161  134.8242  156.1360 LP  0  0  0  0  0  0  0  0  0  0  0  0  # atno 17395 bound_to 11000

$$$$
