AV-unprocessed.smi:287|AV-procd|sdf|2197|dock4
  -GOLD-   2262022 03D 1   1.00000     0.00000
 Structure written by MMmdl.
 55 58  0  0  0  0  0  0  0  0  1 V2000
  153.4683  142.0876  160.9603 C   0  0  0  0  0  0  0  0  0  0  0  0
  152.6014  141.6670  159.8235 C   0  0  0  0  0  0  0  0  0  0  0  0
  152.7616  140.7945  158.7869 C   0  0  0  0  0  0  0  0  0  0  0  0
  151.5643  140.8288  158.0114 C   0  0  0  0  0  0  0  0  0  0  0  0
  151.2954  140.0171  156.7510 C   0  0  1  0  0  0  0  0  0  0  0  0
  150.8075  140.9441  155.6251 C   0  0  0  0  0  0  0  0  0  0  0  0
  152.4559  139.3900  156.2404 O   0  0  0  0  0  0  0  0  0  0  0  0
  150.2693  138.8867  156.9908 C   0  0  0  0  0  0  0  0  0  0  0  0
  149.0524  139.3553  157.6414 N   0  0  0  0  0  0  0  0  0  0  0  0
  147.8399  138.9039  157.2583 C   0  0  0  0  0  0  0  0  0  0  0  0
  146.8066  139.2635  158.0567 N   0  0  0  0  0  0  0  0  0  0  0  0
  145.5634  138.8717  157.7655 C   0  0  0  0  0  0  0  0  0  0  0  0
  145.1419  138.1277  156.7414 N   0  0  0  0  0  0  0  0  0  0  0  0
  146.1779  137.7592  155.9332 C   0  0  0  0  0  0  0  0  0  0  0  0
  147.5483  138.1015  156.1150 C   0  0  0  0  0  0  0  0  0  0  0  0
  148.2978  137.5419  155.0855 N   0  0  0  0  0  0  0  0  0  0  0  0
  147.4221  136.9152  154.3478 C   0  0  0  0  0  0  0  0  0  0  0  0
  146.1178  136.9985  154.7855 N   0  0  0  0  0  0  0  0  0  0  0  0
  144.8708  136.4077  154.1930 C   0  0  2  0  0  0  0  0  0  0  0  0
  145.1018  135.0488  153.9874 O   0  0  0  0  0  0  0  0  0  0  0  0
  145.3821  134.7598  152.6138 C   0  0  1  0  0  0  0  0  0  0  0  0
  144.2776  133.7898  152.1431 C   0  0  0  0  0  0  0  0  0  0  0  0
  143.1065  133.9942  152.9045 O   0  0  0  0  0  0  0  0  0  0  0  0
  145.4038  136.1342  151.9090 C   0  0  1  0  0  0  0  0  0  0  0  0
  144.8850  136.1115  150.5932 O   0  0  0  0  0  0  0  0  0  0  0  0
  144.5549  137.0081  152.8159 C   0  0  2  0  0  0  0  0  0  0  0  0
  144.9052  138.3742  152.6862 O   0  0  0  0  0  0  0  0  0  0  0  0
  150.7535  141.7306  158.6584 C   0  0  0  0  0  0  0  0  0  0  0  0
  149.3750  142.2502  158.4135 C   0  0  0  0  0  0  0  0  0  0  0  0
  151.3755  142.2439  159.7565 O   0  0  0  0  0  0  0  0  0  0  0  0
  144.0984  136.5746  154.9445 H   0  0  0  0  0  0  0  0  0  0  0  0
  146.3590  134.2845  152.5145 H   0  0  0  0  0  0  0  0  0  0  0  0
  146.4291  136.5069  151.8814 H   0  0  0  0  0  0  0  0  0  0  0  0
  143.4916  136.8629  152.6189 H   0  0  0  0  0  0  0  0  0  0  0  0
  154.5069  141.8104  160.7797 H   0  0  0  0  0  0  0  0  0  0  0  0
  153.1467  141.6117  161.8867 H   0  0  0  0  0  0  0  0  0  0  0  0
  153.4276  143.1680  161.1015 H   0  0  0  0  0  0  0  0  0  0  0  0
  153.6438  140.2001  158.6004 H   0  0  0  0  0  0  0  0  0  0  0  0
  149.8862  141.4564  155.9047 H   0  0  0  0  0  0  0  0  0  0  0  0
  150.6056  140.3880  154.7086 H   0  0  0  0  0  0  0  0  0  0  0  0
  151.5497  141.7087  155.3914 H   0  0  0  0  0  0  0  0  0  0  0  0
  152.5632  138.5585  156.6761 H   0  0  0  0  0  0  0  0  0  0  0  0
  149.9775  138.4756  156.0234 H   0  0  0  0  0  0  0  0  0  0  0  0
  150.7171  138.0713  157.5607 H   0  0  0  0  0  0  0  0  0  0  0  0
  149.1814  140.0676  158.3460 H   0  0  0  0  0  0  0  0  0  0  0  0
  144.7971  139.2025  158.4508 H   0  0  0  0  0  0  0  0  0  0  0  0
  147.7125  136.3730  153.4603 H   0  0  0  0  0  0  0  0  0  0  0  0
  144.0659  133.9091  151.0801 H   0  0  0  0  0  0  0  0  0  0  0  0
  144.5681  132.7517  152.3032 H   0  0  0  0  0  0  0  0  0  0  0  0
  143.0897  133.3608  153.6056 H   0  0  0  0  0  0  0  0  0  0  0  0
  144.7670  137.0044  150.3059 H   0  0  0  0  0  0  0  0  0  0  0  0
  144.5263  138.7057  151.8860 H   0  0  0  0  0  0  0  0  0  0  0  0
  148.6546  141.4330  158.3774 H   0  0  0  0  0  0  0  0  0  0  0  0
  149.3280  142.7866  157.4658 H   0  0  0  0  0  0  0  0  0  0  0  0
  149.0648  142.9360  159.2025 H   0  0  0  0  0  0  0  0  0  0  0  0
  1  2  1  0  0  0  0
  1 35  1  0  0  0  0
  1 36  1  0  0  0  0
  1 37  1  0  0  0  0
  2 30  1  0  0  0  0
  2  3  2  0  0  0  0
  3  4  1  0  0  0  0
  3 38  1  0  0  0  0
  4  5  1  0  0  0  0
  4 28  2  0  0  0  0
  5  6  1  0  0  0  0
  5  7  1  0  0  0  0
  5  8  1  0  0  0  0
  6 39  1  0  0  0  0
  6 40  1  0  0  0  0
  6 41  1  0  0  0  0
  7 42  1  0  0  0  0
  8  9  1  0  0  0  0
  8 43  1  0  0  0  0
  8 44  1  0  0  0  0
  9 10  1  0  0  0  0
  9 45  1  0  0  0  0
 10 15  1  0  0  0  0
 10 11  2  0  0  0  0
 11 12  1  0  0  0  0
 12 13  2  0  0  0  0
 12 46  1  0  0  0  0
 13 14  1  0  0  0  0
 14 18  1  0  0  0  0
 14 15  2  0  0  0  0
 15 16  1  0  0  0  0
 16 17  2  0  0  0  0
 17 18  1  0  0  0  0
 17 47  1  0  0  0  0
 18 19  1  0  0  0  0
 19 31  1  0  0  0  0
 19 26  1  0  0  0  0
 19 20  1  0  0  0  0
 20 21  1  0  0  0  0
 21 32  1  0  0  0  0
 21 22  1  0  0  0  0
 21 24  1  0  0  0  0
 22 23  1  0  0  0  0
 22 48  1  0  0  0  0
 22 49  1  0  0  0  0
 23 50  1  0  0  0  0
 24 33  1  0  0  0  0
 24 25  1  0  0  0  0
 24 26  1  0  0  0  0
 25 51  1  0  0  0  0
 26 34  1  0  0  0  0
 26 27  1  0  0  0  0
 27 52  1  0  0  0  0
 28 29  1  0  0  0  0
 28 30  1  0  0  0  0
 29 53  1  0  0  0  0
 29 54  1  0  0  0  0
 29 55  1  0  0  0  0
M  END
> <s_m_source_file>
AV-unprocessed.smi

> <i_m_source_file_index>
287

> <i_lp_mmshare_version>
43012

> <i_f3d_flags>
0

> <s_epik_input>
W0NIM11jMVtjSF1jKGMobzEpW0NIM10pW0NAQF0oW0NIM10pKFtPSF0pW0NIMl1bTkhdYyhuW2NIXW4yKWMoYzIzKW5bY0hdbjNbQ0BASF00T1tDQEhdKFtDSDJdW09IXSlbQ0BASF0oW09IXSlbQ0BIXTRbT0hd

> <s_epik_cmdline>
J2VwaWtfcHl0aG9uJywgJy1waCcsICc3LjAnLCAnLXRuJywgJzgnLCAnLW1hJywgJzIwMCcsICctbWV0YWxfYmluZGluZycsICctaW1hZScsICc8aW5maWxlLm1hZT4nLCAnLW9tYWUnLCAnPG91dGZpbGUubWFlPic=

> <r_lp_tautomer_probability>
1

> <r_epik_Ionization_Penalty>
0.000992612

> <r_epik_Ionization_Penalty_Charging>
0

> <r_epik_Ionization_Penalty_Neutral>
0.000992612

> <r_epik_State_Penalty>
-0

> <r_epik_Charging_Adjusted_Penalty>
0

> <i_epik_Tot_Q>
0

> <i_epik_Tot_abs_Q>
0

> <r_epik_Metal_State_Penalty>
-0

> <b_epik_Metal_Only>
0

> <s_epik_Chemistry_Notes>
This compound contains an acetal/aminal-like group ( X-CH(R)-Y where X, Y are N, S, or O) that may be acid/base labile, releasing an aldehyde.

> <s_lp_Force_Field>
OPLS_2005

> <r_lp_Energy>
44.9714

> <b_lp_Chiralities_Consistent>
1

> <s_lp_Variant>
AV-unprocessed.smi:287-21

> <Gold.Version>
5.8.1

> <Gold.Id.Protein>
6NUR|6NUR_protein|mol2

> <Gold.PLP.Fitness>
45.5506

> <Gold.PLP.PLP>
-32.9954

> <Gold.PLP.part.hbond>
-6.0294

> <Gold.PLP.part.metal>
0.0000

> <Gold.PLP.part.buried>
-4.5437

> <Gold.PLP.part.nonpolar>
-22.2771

> <Gold.PLP.part.repulsive>
0.2623

> <Gold.PLP.ligand.clash>
0.0000

> <Gold.PLP.ligand.torsion>
1.0181

> <Gold.PLP.Chemscore.Hbond>
3.8363

> <Gold.PLP.Chemscore.CHOScore>
1.0000

> <Gold.PLP.Chemscore.Metal>
0.0000

> <Gold.Chemscore.Hbonds>
donor molecule, donor type, donor heavy atom, donor atom, acceptor molecule, acceptor atom, score
      L1  H    23    50       P1 10957  1.00
      L1  H    25    51       P1 10171  1.00
      L1  H    27    52       P1 10171  0.67
      P1  H  7997  8010       L1     7  0.95
      L1  C    17    47       P1  7948  0.99

> <Gold.PLP.Chemscore.Internal.Correction>
0.0827

> <Gold.Rescore>
     Score         DG    S(hbond)    S(metal)    S(lipo)     H(rot)  DE(clash)    DE(int)     intcor
     10.76     -13.06       3.73        0.00      73.48       5.27       0.28       2.01       ----

> <Gold.Chemscore.Fitness>
10.7600

> <Gold.Chemscore.DG>
-13.0581

> <Gold.Chemscore.ZeroCoef>
-5.4800

> <Gold.Chemscore.Hbond>
3.7320

> <Gold.Chemscore.Metal>
0.0000

> <Gold.Chemscore.Lipo>
73.4805

> <Gold.Chemscore.Internal_Hbond>
0.0000

> <Gold.Chemscore.DEClash>
0.2836

> <Gold.Chemscore.DEInternal>
2.0145

> <Gold.Chemscore.Rot>
5.2672

> <Gold.Chemscore.Internal.Correction>
   9.000000E+99

> <Gold.Chemscore.Hbonds>
donor molecule, donor type, donor heavy atom, donor atom, acceptor molecule, acceptor atom, score
      L1  H    23    50       P1 10957  0.93
      L1  H    25    51       P1 10171  0.99
      L1  H    27    52       P1 10171  0.66
      P1  H  7997  8010       L1     7  0.20

> <Gold.Chemscore.Hbond.Weighted>
-12.4648

> <Gold.Chemscore.Metal.Weighted>
-0.0000

> <Gold.Chemscore.Lipo.Weighted>
-8.5972

> <Gold.Chemscore.Internal_Hbond.Weighted>
0.0000

> <Gold.Chemscore.DEClash.Weighted>
0.2836

> <Gold.Chemscore.DEInternal.Weighted>
2.0145

> <Gold.Chemscore.Rot.Weighted>
13.4839

> <Gold.Chemscore.Internal.Correction.Weighted>
   9.000000E+99

> <Gold.Protein.RotatedTorsions>
[ 6907 6896 6895 6894 ] final  138.69 input  -60.11 | X-H torsion
[ 7974 7965 7964 7962 ] final -174.63 input  175.53 | X-H torsion
[ 8008 7997 7996 7995 ] final   71.98 input   59.86 | X-H torsion
[ 10167 10162 10161 10158 ] final   -4.11 input  -65.29 | X-H torsion
[ 10718 10713 10712 10709 ] final  114.54 input   66.30 | X-H torsion
[ 10763 10752 10751 10750 ] final -169.24 input  -60.55 | X-H torsion
[ 11005 11000 10999 10996 ] final   35.30 input  -57.11 | X-H torsion

> <Gold.Protein.ActiveResidues>
 VAL166  LYS551  ARG553  GLY616  TRP617  ASP618  TYR619  PRO620  LYS621  CYS622 
 ASP623  PHE694  ASN695  SER759  ASP760  ASP761  ALA762  ILE779  LEU786  VAL792 
 PHE793  MET794  SER795  GLU796  ALA797  LYS798  CYS799  TRP800  GLU811  SER814 

> <Gold.Protein.RotatedAtoms>
  152.2637  133.5320  159.5396 H   0  0  0  0  0  0  0  0  0  0  0  0  # atno 6907 bound_to 6896
  150.7134  134.0794  159.3901 H   0  0  0  0  0  0  0  0  0  0  0  0  # atno 6908 bound_to 6896
  151.8711  135.0489  160.0530 H   0  0  0  0  0  0  0  0  0  0  0  0  # atno 6909 bound_to 6896
  144.7131  140.1442  143.6389 H   0  0  0  0  0  0  0  0  0  0  0  0  # atno 7974 bound_to 7965
  155.7619  140.3486  155.5202 H   0  0  0  0  0  0  0  0  0  0  0  0  # atno 8008 bound_to 7997
  155.8905  140.1017  157.1443 H   0  0  0  0  0  0  0  0  0  0  0  0  # atno 8009 bound_to 7997
  154.4033  140.1305  156.4297 H   0  0  0  0  0  0  0  0  0  0  0  0  # atno 8010 bound_to 7997
  140.6915  143.6461  150.8391 H   0  0  0  0  0  0  0  0  0  0  0  0  # atno 10167 bound_to 10162
  157.6275  131.1000  150.7200 H   0  0  0  0  0  0  0  0  0  0  0  0  # atno 10718 bound_to 10713
  154.6544  135.2916  154.9946 H   0  0  0  0  0  0  0  0  0  0  0  0  # atno 10763 bound_to 10752
  154.1028  135.6574  153.4875 H   0  0  0  0  0  0  0  0  0  0  0  0  # atno 10764 bound_to 10752
  153.0394  135.5246  154.7466 H   0  0  0  0  0  0  0  0  0  0  0  0  # atno 10765 bound_to 10752
  140.2441  134.3380  155.7914 H   0  0  0  0  0  0  0  0  0  0  0  0  # atno 11005 bound_to 11000
  145.9174  139.2524  143.1401 LP  0  0  0  0  0  0  0  0  0  0  0  0  # atno 17320 bound_to 7965
  145.9654  140.8802  143.0189 LP  0  0  0  0  0  0  0  0  0  0  0  0  # atno 17321 bound_to 7965
  140.0175  143.5578  152.2814 LP  0  0  0  0  0  0  0  0  0  0  0  0  # atno 17342 bound_to 10162
  139.6324  144.7646  151.2509 LP  0  0  0  0  0  0  0  0  0  0  0  0  # atno 17343 bound_to 10162
  156.7546  130.4779  149.5449 LP  0  0  0  0  0  0  0  0  0  0  0  0  # atno 17370 bound_to 10713
  156.1456  130.6275  151.0527 LP  0  0  0  0  0  0  0  0  0  0  0  0  # atno 17371 bound_to 10713
  141.2208  133.7316  156.8932 LP  0  0  0  0  0  0  0  0  0  0  0  0  # atno 17394 bound_to 11000
  140.1623  134.9157  157.2731 LP  0  0  0  0  0  0  0  0  0  0  0  0  # atno 17395 bound_to 11000

$$$$
