AV-unprocessed.smi:548|AV-procd|sdf|2890|dock6
  -GOLD-   2262023383D 1   1.00000     0.00000
 Structure written by MMmdl.
 25 25  0  0  0  0  0  0  0  0  3 V2000
  150.0983  139.8353  157.3377 C   0  0  0  0  0  0  0  0  0  0  0  0
  150.5517  140.2079  155.9044 C   0  0  0  0  0  0  0  0  0  0  0  0
  151.0025  141.6895  155.8935 C   0  0  0  0  0  0  0  0  0  0  0  0
  151.7596  139.3122  155.5113 C   0  0  0  0  0  0  0  0  0  0  0  0
  152.7609  139.8676  155.0061 O   0  0  0  0  0  0  0  0  0  0  0  0
  151.6497  138.0761  155.6754 O   0  5  0  0  0  0  0  0  0  0  0  0
  149.3846  140.0040  154.9114 C   0  0  0  0  0  0  0  0  0  0  0  0
  148.3232  140.9426  154.8991 C   0  0  0  0  0  0  0  0  0  0  0  0
  147.2427  140.7888  154.0072 C   0  0  0  0  0  0  0  0  0  0  0  0
  147.2319  139.6897  153.1276 C   0  0  0  0  0  0  0  0  0  0  0  0
  146.1965  139.4752  152.2205 N   0  0  0  0  0  0  0  0  0  0  0  0
  148.2515  138.8077  153.1544 N   0  3  0  0  0  0  0  0  0  0  0  0
  149.3039  138.9210  153.9941 C   0  0  0  0  0  0  0  0  0  0  0  0
  149.6934  138.8234  157.3846 H   0  0  0  0  0  0  0  0  0  0  0  0
  149.3220  140.5070  157.7043 H   0  0  0  0  0  0  0  0  0  0  0  0
  150.9264  139.8936  158.0455 H   0  0  0  0  0  0  0  0  0  0  0  0
  151.2578  142.0282  154.8883 H   0  0  0  0  0  0  0  0  0  0  0  0
  151.8767  141.8450  156.5276 H   0  0  0  0  0  0  0  0  0  0  0  0
  150.2213  142.3529  156.2648 H   0  0  0  0  0  0  0  0  0  0  0  0
  148.3301  141.7863  155.5725 H   0  0  0  0  0  0  0  0  0  0  0  0
  146.4371  141.5085  154.0038 H   0  0  0  0  0  0  0  0  0  0  0  0
  145.4092  140.1048  152.1596 H   0  0  0  0  0  0  0  0  0  0  0  0
  146.1983  138.6827  151.5945 H   0  0  0  0  0  0  0  0  0  0  0  0
  150.0361  138.1337  153.8909 H   0  0  0  0  0  0  0  0  0  0  0  0
  148.2315  138.0158  152.5119 H   0  0  0  0  0  0  0  0  0  0  0  0
  1  2  1  0  0  0  0
  1 14  1  0  0  0  0
  1 15  1  0  0  0  0
  1 16  1  0  0  0  0
  2  3  1  0  0  0  0
  2  4  1  0  0  0  0
  2  7  1  0  0  0  0
  3 17  1  0  0  0  0
  3 18  1  0  0  0  0
  3 19  1  0  0  0  0
  4  5  2  0  0  0  0
  4  6  1  0  0  0  0
  7 13  1  0  0  0  0
  7  8  2  0  0  0  0
  8  9  1  0  0  0  0
  8 20  1  0  0  0  0
  9 10  2  0  0  0  0
  9 21  1  0  0  0  0
 10 11  1  0  0  0  0
 10 12  1  0  0  0  0
 11 22  1  0  0  0  0
 11 23  1  0  0  0  0
 12 13  2  0  0  0  0
 12 25  1  0  0  0  0
 13 24  1  0  0  0  0
M  CHG  1   6  -1
M  CHG  1  12   1
M  END
> <s_m_source_file>
AV-unprocessed.smi

> <i_m_source_file_index>
548

> <i_lp_mmshare_version>
43012

> <i_f3d_flags>
0

> <s_epik_input>
Tz1DKFtPSF0pQyhbQ0gzXSkoW0NIM10pYzFbY0hdW2NIXWMoW05IMl0pbltjSF0x

> <s_epik_cmdline>
J2VwaWtfcHl0aG9uJywgJy1waCcsICc3LjAnLCAnLXRuJywgJzgnLCAnLW1hJywgJzIwMCcsICctbWV0YWxfYmluZGluZycsICctaW1hZScsICc8aW5maWxlLm1hZT4nLCAnLW9tYWUnLCAnPG91dGZpbGUubWFlPic=

> <r_lp_tautomer_probability>
0.999994

> <r_epik_Ionization_Penalty>
0.0472787

> <r_epik_Ionization_Penalty_Charging>
0.0472785

> <r_epik_Ionization_Penalty_Neutral>
2.36651e-07

> <r_epik_State_Penalty>
0.0398874

> <r_epik_Charging_Adjusted_Penalty>
0.0871658

> <i_epik_Tot_Q>
0

> <i_epik_Tot_abs_Q>
2

> <r_epik_Metal_State_Penalty>
2.52256

> <b_epik_Metal_Only>
0

> <s_lp_Force_Field>
OPLS_2005

> <r_lp_Energy>
11.9737

> <b_lp_Chiralities_Consistent>
1

> <s_lp_Variant>
AV-unprocessed.smi:548-1

> <Gold.Version>
5.8.1

> <Gold.Id.Protein>
6NUR|6NUR_protein|mol2

> <Gold.PLP.Fitness>
40.2969

> <Gold.PLP.PLP>
-23.1488

> <Gold.PLP.part.hbond>
-5.0000

> <Gold.PLP.part.metal>
0.0000

> <Gold.PLP.part.buried>
-0.8690

> <Gold.PLP.part.nonpolar>
-15.9061

> <Gold.PLP.part.repulsive>
0.1232

> <Gold.PLP.ligand.clash>
0.0000

> <Gold.PLP.ligand.torsion>
0.9286

> <Gold.PLP.Chemscore.Hbond>
6.3307

> <Gold.PLP.Chemscore.CHOScore>
0.0000

> <Gold.PLP.Chemscore.Metal>
0.0000

> <Gold.Chemscore.Hbonds>
donor molecule, donor type, donor heavy atom, donor atom, acceptor molecule, acceptor atom, score
      L1  H    11    22       P1 10175  2.00
      L1  H    12    25       P1  7948  2.00
      P1  H  7989  7998       L1     5  0.32
      P1  H  7997  8009       L1     5  2.00

> <Gold.PLP.Chemscore.Internal.Correction>
0.0130

> <Gold.Rescore>
     Score         DG    S(hbond)    S(metal)    S(lipo)     H(rot)  DE(clash)    DE(int)     intcor
     14.40     -16.27       2.98        0.00      39.82       1.50       0.06       1.80       ----

> <Gold.Chemscore.Fitness>
14.3996

> <Gold.Chemscore.DG>
-16.2681

> <Gold.Chemscore.ZeroCoef>
-5.4800

> <Gold.Chemscore.Hbond>
2.9818

> <Gold.Chemscore.Metal>
0.0000

> <Gold.Chemscore.Lipo>
39.8203

> <Gold.Chemscore.Internal_Hbond>
0.0000

> <Gold.Chemscore.DEClash>
0.0641

> <Gold.Chemscore.DEInternal>
1.8043

> <Gold.Chemscore.Rot>
1.4961

> <Gold.Chemscore.Internal.Correction>
   9.000000E+99

> <Gold.Chemscore.Hbonds>
donor molecule, donor type, donor heavy atom, donor atom, acceptor molecule, acceptor atom, score
      L1  H    11    22       P1 10175  0.62
      L1  H    12    25       P1  7948  0.91
      P1  H  7989  7998       L1     5  0.05
      P1  H  7997  8009       L1     5  0.90

> <Gold.Chemscore.Hbond.Weighted>
-9.9591

> <Gold.Chemscore.Metal.Weighted>
-0.0000

> <Gold.Chemscore.Lipo.Weighted>
-4.6590

> <Gold.Chemscore.Internal_Hbond.Weighted>
0.0000

> <Gold.Chemscore.DEClash.Weighted>
0.0641

> <Gold.Chemscore.DEInternal.Weighted>
1.8043

> <Gold.Chemscore.Rot.Weighted>
3.8299

> <Gold.Chemscore.Internal.Correction.Weighted>
   9.000000E+99

> <Gold.Protein.RotatedTorsions>
[ 6907 6896 6895 6894 ] final   93.26 input  -60.11 | X-H torsion
[ 7974 7965 7964 7962 ] final   76.89 input  175.53 | X-H torsion
[ 8008 7997 7996 7995 ] final -154.57 input   59.86 | X-H torsion
[ 10167 10162 10161 10158 ] final  -37.03 input  -65.29 | X-H torsion
[ 10718 10713 10712 10709 ] final  -61.05 input   66.30 | X-H torsion
[ 10763 10752 10751 10750 ] final   40.62 input  -60.55 | X-H torsion
[ 11005 11000 10999 10996 ] final   76.06 input  -57.11 | X-H torsion

> <Gold.Protein.ActiveResidues>
 VAL166  LYS551  ARG553  GLY616  TRP617  ASP618  TYR619  PRO620  LYS621  CYS622 
 ASP623  PHE694  ASN695  SER759  ASP760  ASP761  ALA762  ILE779  LEU786  VAL792 
 PHE793  MET794  SER795  GLU796  ALA797  LYS798  CYS799  TRP800  GLU811  SER814 

> <Gold.Protein.RotatedAtoms>
  152.5452  134.1375  159.8464 H   0  0  0  0  0  0  0  0  0  0  0  0  # atno 6907 bound_to 6896
  151.1414  133.4961  159.2604 H   0  0  0  0  0  0  0  0  0  0  0  0  # atno 6908 bound_to 6896
  151.1568  135.0264  159.8747 H   0  0  0  0  0  0  0  0  0  0  0  0  # atno 6909 bound_to 6896
  145.6970  139.2570  143.1727 H   0  0  0  0  0  0  0  0  0  0  0  0  # atno 7974 bound_to 7965
  155.6885  140.0752  157.2457 H   0  0  0  0  0  0  0  0  0  0  0  0  # atno 8008 bound_to 7997
  154.4093  140.1669  156.2112 H   0  0  0  0  0  0  0  0  0  0  0  0  # atno 8009 bound_to 7997
  155.9473  140.3380  155.6381 H   0  0  0  0  0  0  0  0  0  0  0  0  # atno 8010 bound_to 7997
  140.7128  143.3369  151.2444 H   0  0  0  0  0  0  0  0  0  0  0  0  # atno 10167 bound_to 10162
  156.0948  130.4194  150.0940 H   0  0  0  0  0  0  0  0  0  0  0  0  # atno 10718 bound_to 10713
  152.9931  135.6186  154.2656 H   0  0  0  0  0  0  0  0  0  0  0  0  # atno 10763 bound_to 10752
  154.2391  135.2789  155.2862 H   0  0  0  0  0  0  0  0  0  0  0  0  # atno 10764 bound_to 10752
  154.5385  135.5768  153.6876 H   0  0  0  0  0  0  0  0  0  0  0  0  # atno 10765 bound_to 10752
  139.9315  134.7570  156.1349 H   0  0  0  0  0  0  0  0  0  0  0  0  # atno 11005 bound_to 11000
  146.0831  140.7741  142.9632 LP  0  0  0  0  0  0  0  0  0  0  0  0  # atno 17320 bound_to 7965
  144.6979  140.3520  143.7180 LP  0  0  0  0  0  0  0  0  0  0  0  0  # atno 17321 bound_to 7965
  139.6866  143.9763  152.2837 LP  0  0  0  0  0  0  0  0  0  0  0  0  # atno 17342 bound_to 10162
  139.9411  144.6681  150.8265 LP  0  0  0  0  0  0  0  0  0  0  0  0  # atno 17343 bound_to 10162
  156.8942  130.9598  151.3584 LP  0  0  0  0  0  0  0  0  0  0  0  0  # atno 17370 bound_to 10713
  157.6106  130.8580  149.8946 LP  0  0  0  0  0  0  0  0  0  0  0  0  # atno 17371 bound_to 10713
  141.0906  133.6716  156.2533 LP  0  0  0  0  0  0  0  0  0  0  0  0  # atno 17394 bound_to 11000
  140.6189  134.5382  157.5544 LP  0  0  0  0  0  0  0  0  0  0  0  0  # atno 17395 bound_to 11000

$$$$
