AV-unprocessed.smi:1099|AV-procd|sdf|4757|dock7
  -GOLD-   22720 3293D 1   1.00000     0.00000
 Structure written by MMmdl.
 41 43  0  0  0  0  0  0  0  0  1 V2000
  153.9680  141.5183  161.2772 C   0  0  0  0  0  0  0  0  0  0  0  0
  153.2368  142.6511  162.0052 C   0  0  0  0  0  0  0  0  0  0  0  0
  152.2792  143.3769  161.1205 C   0  0  0  0  0  0  0  0  0  0  0  0
  151.4919  142.7687  160.2290 N   0  0  0  0  0  0  0  0  0  0  0  0
  150.7087  143.6689  159.4997 C   0  0  0  0  0  0  0  0  0  0  0  0
  149.7526  143.1627  158.4625 C   0  0  0  0  0  0  0  0  0  0  0  0
  150.4595  142.3610  157.3609 C   0  0  0  0  0  0  0  0  0  0  0  0
  149.5779  142.1724  156.2167 N   0  0  0  0  0  0  0  0  0  0  0  0
  149.8028  141.3034  155.2207 C   0  0  0  0  0  0  0  0  0  0  0  0
  150.7962  140.5767  155.1794 O   0  0  0  0  0  0  0  0  0  0  0  0
  148.7208  141.2334  154.1279 C   0  0  2  0  0  0  0  0  0  0  0  0
  147.5069  142.1676  154.3580 C   0  0  0  0  0  0  0  0  0  0  0  0
  146.3059  141.2105  154.2380 C   0  0  2  0  0  0  0  0  0  0  0  0
  146.2344  140.3156  155.4893 C   0  0  0  0  0  0  0  0  0  0  0  0
  147.4001  139.3339  155.2702 C   0  0  0  0  0  0  0  0  0  0  0  0
  148.0386  139.8494  153.9615 C   0  0  1  0  0  0  0  0  0  0  0  0
  146.7894  140.2324  153.1732 C   0  0  0  0  0  0  0  0  0  0  0  0
  150.9248  144.9790  159.8474 C   0  0  0  0  0  0  0  0  0  0  0  0
  152.1240  145.1297  161.1016 S   0  0  0  0  0  0  0  0  0  0  0  0
  154.6623  141.0111  161.9472 H   0  0  0  0  0  0  0  0  0  0  0  0
  154.5401  141.8995  160.4306 H   0  0  0  0  0  0  0  0  0  0  0  0
  153.2649  140.7751  160.9001 H   0  0  0  0  0  0  0  0  0  0  0  0
  152.6933  142.2531  162.8630 H   0  0  0  0  0  0  0  0  0  0  0  0
  153.9595  143.3668  162.3982 H   0  0  0  0  0  0  0  0  0  0  0  0
  148.9935  142.5380  158.9351 H   0  0  0  0  0  0  0  0  0  0  0  0
  149.2145  143.9996  158.0151 H   0  0  0  0  0  0  0  0  0  0  0  0
  151.3654  142.8781  157.0404 H   0  0  0  0  0  0  0  0  0  0  0  0
  150.7626  141.3861  157.7461 H   0  0  0  0  0  0  0  0  0  0  0  0
  148.7381  142.7319  156.1837 H   0  0  0  0  0  0  0  0  0  0  0  0
  149.1823  141.5073  153.1770 H   0  0  0  0  0  0  0  0  0  0  0  0
  147.5150  142.6910  155.3148 H   0  0  0  0  0  0  0  0  0  0  0  0
  147.4664  142.9277  153.5769 H   0  0  0  0  0  0  0  0  0  0  0  0
  145.3670  141.7156  154.0095 H   0  0  0  0  0  0  0  0  0  0  0  0
  146.3420  140.8882  156.4113 H   0  0  0  0  0  0  0  0  0  0  0  0
  145.2852  139.7803  155.5356 H   0  0  0  0  0  0  0  0  0  0  0  0
  148.0874  139.2943  156.1143 H   0  0  0  0  0  0  0  0  0  0  0  0
  147.0156  138.3231  155.1273 H   0  0  0  0  0  0  0  0  0  0  0  0
  148.6702  139.1120  153.4649 H   0  0  0  0  0  0  0  0  0  0  0  0
  146.1051  139.3979  153.0089 H   0  0  0  0  0  0  0  0  0  0  0  0
  147.0077  140.7079  152.2151 H   0  0  0  0  0  0  0  0  0  0  0  0
  150.4542  145.8620  159.4414 H   0  0  0  0  0  0  0  0  0  0  0  0
  1  2  1  0  0  0  0
  1 20  1  0  0  0  0
  1 21  1  0  0  0  0
  1 22  1  0  0  0  0
  2  3  1  0  0  0  0
  2 23  1  0  0  0  0
  2 24  1  0  0  0  0
  3 19  1  0  0  0  0
  3  4  2  0  0  0  0
  4  5  1  0  0  0  0
  5  6  1  0  0  0  0
  5 18  2  0  0  0  0
  6  7  1  0  0  0  0
  6 25  1  0  0  0  0
  6 26  1  0  0  0  0
  7  8  1  0  0  0  0
  7 27  1  0  0  0  0
  7 28  1  0  0  0  0
  8  9  1  0  0  0  0
  8 29  1  0  0  0  0
  9 10  2  0  0  0  0
  9 11  1  0  0  0  0
 11 16  1  0  0  0  0
 11 12  1  0  0  0  0
 11 30  1  0  0  0  0
 12 13  1  0  0  0  0
 12 31  1  0  0  0  0
 12 32  1  0  0  0  0
 13 17  1  0  0  0  0
 13 14  1  0  0  0  0
 13 33  1  0  0  0  0
 14 15  1  0  0  0  0
 14 34  1  0  0  0  0
 14 35  1  0  0  0  0
 15 16  1  0  0  0  0
 15 36  1  0  0  0  0
 15 37  1  0  0  0  0
 16 17  1  0  0  0  0
 16 38  1  0  0  0  0
 17 39  1  0  0  0  0
 17 40  1  0  0  0  0
 18 19  1  0  0  0  0
 18 41  1  0  0  0  0
M  END
> <s_m_source_file>
AV-unprocessed.smi

> <i_m_source_file_index>
1099

> <i_lp_mmshare_version>
43012

> <i_f3d_flags>
0

> <s_epik_input>
W0NIM11bQ0gyXWMxbmMoW2NIXXMxKVtDSDJdW0NIMl1bTkhdQyg9TylbQ0BIXShbQ0gyXVtDQEBIXTIzKVtDQEBIXShbQ0gyXTMpW0NIMl1bQ0gyXTI=

> <s_epik_cmdline>
J2VwaWtfcHl0aG9uJywgJy1waCcsICc3LjAnLCAnLXRuJywgJzgnLCAnLW1hJywgJzIwMCcsICctbWV0YWxfYmluZGluZycsICctaW1hZScsICc8aW5maWxlLm1hZT4nLCAnLW9tYWUnLCAnPG91dGZpbGUubWFlPic=

> <r_epik_Ionization_Penalty>
0.00110131

> <r_epik_Ionization_Penalty_Charging>
0

> <r_epik_Ionization_Penalty_Neutral>
0.00110131

> <r_epik_State_Penalty>
0.00072257

> <r_epik_Charging_Adjusted_Penalty>
0.00072257

> <i_epik_Tot_Q>
0

> <i_epik_Tot_abs_Q>
0

> <r_epik_Metal_State_Penalty>
-0

> <b_epik_Metal_Only>
0

> <s_lp_Force_Field>
OPLS_2005

> <r_lp_Energy>
38.6178

> <b_lp_Chiralities_Consistent>
1

> <s_lp_Variant>
AV-unprocessed.smi:1099-3

> <Gold.Version>
5.8.1

> <Gold.Id.Protein>
6NUR|6NUR_protein|mol2

> <Gold.PLP.Fitness>
42.8582

> <Gold.PLP.PLP>
-38.8429

> <Gold.PLP.part.hbond>
-3.0000

> <Gold.PLP.part.metal>
0.0000

> <Gold.PLP.part.buried>
0.0020

> <Gold.PLP.part.nonpolar>
-36.3864

> <Gold.PLP.part.repulsive>
0.1781

> <Gold.PLP.ligand.clash>
0.0000

> <Gold.PLP.ligand.torsion>
0.3820

> <Gold.PLP.Chemscore.Hbond>
1.5760

> <Gold.PLP.Chemscore.CHOScore>
0.0000

> <Gold.PLP.Chemscore.Metal>
0.0000

> <Gold.Chemscore.Hbonds>
donor molecule, donor type, donor heavy atom, donor atom, acceptor molecule, acceptor atom, score
      L1  H     8    29       P1  8028  0.38
      P1  H  7989  7998       L1    10  0.96

> <Gold.PLP.Chemscore.Internal.Correction>
0.0514

> <Gold.Rescore>
     Score         DG    S(hbond)    S(metal)    S(lipo)     H(rot)  DE(clash)    DE(int)     intcor
     17.30     -18.57       0.94        0.00     116.09       1.42       0.87       0.41       ----

> <Gold.Chemscore.Fitness>
17.2991

> <Gold.Chemscore.DG>
-18.5746

> <Gold.Chemscore.ZeroCoef>
-5.4800

> <Gold.Chemscore.Hbond>
0.9395

> <Gold.Chemscore.Metal>
0.0000

> <Gold.Chemscore.Lipo>
116.0925

> <Gold.Chemscore.Internal_Hbond>
0.0000

> <Gold.Chemscore.DEClash>
0.8686

> <Gold.Chemscore.DEInternal>
0.4069

> <Gold.Chemscore.Rot>
1.4165

> <Gold.Chemscore.Internal.Correction>
   9.000000E+99

> <Gold.Chemscore.Hbonds>
donor molecule, donor type, donor heavy atom, donor atom, acceptor molecule, acceptor atom, score
      L1  H     8    29       P1  8028  0.36
      P1  H  7989  7998       L1    10  0.56

> <Gold.Chemscore.Hbond.Weighted>
-3.1380

> <Gold.Chemscore.Metal.Weighted>
-0.0000

> <Gold.Chemscore.Lipo.Weighted>
-13.5828

> <Gold.Chemscore.Internal_Hbond.Weighted>
0.0000

> <Gold.Chemscore.DEClash.Weighted>
0.8686

> <Gold.Chemscore.DEInternal.Weighted>
0.4069

> <Gold.Chemscore.Rot.Weighted>
3.6262

> <Gold.Chemscore.Internal.Correction.Weighted>
   9.000000E+99

> <Gold.Protein.RotatedTorsions>
[ 6907 6896 6895 6894 ] final -121.81 input  -60.11 | X-H torsion
[ 7974 7965 7964 7962 ] final  124.34 input  175.53 | X-H torsion
[ 8008 7997 7996 7995 ] final   86.69 input   59.86 | X-H torsion
[ 10167 10162 10161 10158 ] final  -78.25 input  -65.29 | X-H torsion
[ 10718 10713 10712 10709 ] final  104.63 input   66.30 | X-H torsion
[ 10763 10752 10751 10750 ] final  153.52 input  -60.55 | X-H torsion
[ 11005 11000 10999 10996 ] final  -30.83 input  -57.11 | X-H torsion

> <Gold.Protein.ActiveResidues>
 VAL166  LYS551  ARG553  GLY616  TRP617  ASP618  TYR619  PRO620  LYS621  CYS622 
 ASP623  PHE694  ASN695  SER759  ASP760  ASP761  ALA762  ILE779  LEU786  VAL792 
 PHE793  MET794  SER795  GLU796  ALA797  LYS798  CYS799  TRP800  GLU811  SER814 

> <Gold.Protein.RotatedAtoms>
  150.8517  133.7777  159.3022 H   0  0  0  0  0  0  0  0  0  0  0  0  # atno 6907 bound_to 6896
  151.5446  135.1066  159.9944 H   0  0  0  0  0  0  0  0  0  0  0  0  # atno 6908 bound_to 6896
  152.4558  133.7677  159.6837 H   0  0  0  0  0  0  0  0  0  0  0  0  # atno 6909 bound_to 6896
  145.0855  139.3625  143.4887 H   0  0  0  0  0  0  0  0  0  0  0  0  # atno 7974 bound_to 7965
  155.9659  140.3389  155.6532 H   0  0  0  0  0  0  0  0  0  0  0  0  # atno 8008 bound_to 7997
  155.6737  140.0730  157.2528 H   0  0  0  0  0  0  0  0  0  0  0  0  # atno 8009 bound_to 7997
  154.4154  140.1687  156.1895 H   0  0  0  0  0  0  0  0  0  0  0  0  # atno 8010 bound_to 7997
  140.4698  143.2430  151.8222 H   0  0  0  0  0  0  0  0  0  0  0  0  # atno 10167 bound_to 10162
  157.6734  131.0808  150.5734 H   0  0  0  0  0  0  0  0  0  0  0  0  # atno 10718 bound_to 10713
  154.1375  135.2823  155.3169 H   0  0  0  0  0  0  0  0  0  0  0  0  # atno 10763 bound_to 10752
  154.6311  135.5435  153.7685 H   0  0  0  0  0  0  0  0  0  0  0  0  # atno 10764 bound_to 10752
  153.0261  135.6463  154.1523 H   0  0  0  0  0  0  0  0  0  0  0  0  # atno 10765 bound_to 10752
  140.9416  133.7275  156.1085 H   0  0  0  0  0  0  0  0  0  0  0  0  # atno 11005 bound_to 11000
  146.3531  140.0665  142.8626 LP  0  0  0  0  0  0  0  0  0  0  0  0  # atno 17320 bound_to 7965
  145.1127  140.9415  143.4647 LP  0  0  0  0  0  0  0  0  0  0  0  0  # atno 17321 bound_to 7965
  139.4817  144.4905  151.9191 LP  0  0  0  0  0  0  0  0  0  0  0  0  # atno 17342 bound_to 10162
  140.3990  144.2517  150.5894 LP  0  0  0  0  0  0  0  0  0  0  0  0  # atno 17343 bound_to 10162
  156.6036  130.4361  149.5887 LP  0  0  0  0  0  0  0  0  0  0  0  0  # atno 17370 bound_to 10713
  156.2487  130.6894  151.1624 LP  0  0  0  0  0  0  0  0  0  0  0  0  # atno 17371 bound_to 10713
  140.7726  134.3816  157.5504 LP  0  0  0  0  0  0  0  0  0  0  0  0  # atno 17394 bound_to 11000
  139.8822  134.9031  156.2848 LP  0  0  0  0  0  0  0  0  0  0  0  0  # atno 17395 bound_to 11000

$$$$
