#       Name:                AV-unprocessed.smi:1106
#       Creating user name   scv26
#       Creation time:       Fri Mar 27 03:32:17 2020


#       File generated by GOLD software.
#

@<TRIPOS>MOLECULE
AV-unprocessed.smi:1106
    55    56     1
SMALL
NO_CHARGES


@<TRIPOS>ATOM
      1 ****        -5.4375   3.0115   2.5469 C.3            1 S1                 0.0000
      2 ****        -3.9618   3.4180   2.4201 C.3            1 S1                 0.0000
      3 ****        -3.3417   2.9134   1.2227 N.am           1 S1                 0.0000
      4 ****        -3.2010   3.6958   0.0930 C.2            1 S1                 0.0000
      5 ****        -2.6262   3.2455  -1.0431 C.2            1 S1                 0.0000
      6 ****        -2.4863   4.0757  -2.1934 C.1            1 S1                 0.0000
      7 ****        -2.3776   4.7679  -3.1146 N.1            1 S1                 0.0000
      8 ****        -2.1173   1.8792  -1.1422 C.2            1 S1                 0.0000
      9 ****        -1.5577   1.4280  -2.1437 O.2            1 S1                 0.0000
     10 ****        -2.3014   1.0968   0.0259 N.am           1 S1                 0.0000
     11 ****        -1.8133  -0.2731   0.0028 C.3            1 S1                 0.0000
     12 ****        -0.3017  -0.3860   0.2985 C.3            1 S1                 0.0000
     13 ****        -0.1185  -0.4276   1.7003 O.3            1 S1                 0.0000
     14 ****         0.2884  -1.6903  -0.2733 C.3            1 S1                 0.0000
     15 ****         1.7669  -1.7401  -0.1433 N.4            1 S1                 1.0000
     16 ****         2.4723  -0.9844  -1.2120 C.3            1 S1                 0.0000
     17 ****         3.9890  -0.9429  -0.9543 C.3            1 S1                 0.0000
     18 ****         4.5924  -2.3507  -0.7968 C.3            1 S1                 0.0000
     19 ****         4.7042  -3.1051  -2.1332 C.3            1 S1                 0.0000
     20 ****         3.7958  -3.1341   0.2628 C.3            1 S1                 0.0000
     21 ****         2.2827  -3.1272  -0.0215 C.3            1 S1                 0.0000
     22 ****        -2.8897   1.5731   1.2220 C.2            1 S1                 0.0000
     23 ****        -2.9987   0.8586   2.2222 O.2            1 S1                 0.0000
     24 ****        -5.8793   3.4413   3.4458 H              1 S1                 0.0000
     25 ****        -5.5531   1.9292   2.6081 H              1 S1                 0.0000
     26 ****        -6.0163   3.3625   1.6921 H              1 S1                 0.0000
     27 ****        -3.8644   4.5034   2.3734 H              1 S1                 0.0000
     28 ****        -3.3603   3.0872   3.2689 H              1 S1                 0.0000
     29 ****        -3.5641   4.7134   0.1189 H              1 S1                 0.0000
     30 ****        -2.4214  -0.8821   0.6740 H              1 S1                 0.0000
     31 ****        -2.0497  -0.6602  -0.9901 H              1 S1                 0.0000
     32 ****         0.2241   0.4785  -0.1063 H              1 S1                 0.0000
     33 ****        -0.5319   0.3323   2.0827 H              1 S1                 0.0000
     34 ****        -0.1658  -2.5348   0.2483 H              1 S1                 0.0000
     35 ****         0.0200  -1.8082  -1.3244 H              1 S1                 0.0000
     36 ****         2.2646  -1.4392  -2.1815 H              1 S1                 0.0000
     37 ****         2.0957   0.0367  -1.2634 H              1 S1                 0.0000
     38 ****         4.4911  -0.4037  -1.7584 H              1 S1                 0.0000
     39 ****         4.1763  -0.3702  -0.0448 H              1 S1                 0.0000
     40 ****         5.6107  -2.2324  -0.4237 H              1 S1                 0.0000
     41 ****         3.7306  -3.2836  -2.5889 H              1 S1                 0.0000
     42 ****         5.1850  -4.0737  -1.9941 H              1 S1                 0.0000
     43 ****         5.3052  -2.5437  -2.8492 H              1 S1                 0.0000
     44 ****         4.1605  -4.1598   0.3291 H              1 S1                 0.0000
     45 ****         3.9722  -2.6875   1.2423 H              1 S1                 0.0000
     46 ****         1.7688  -3.6376   0.7940 H              1 S1                 0.0000
     47 ****         2.0580  -3.6845  -0.9319 H              1 S1                 0.0000
     48 ****         1.9832  -1.2866   0.7333 H              1 S1                 0.0000
     49 ****        -2.2837   5.3660  -3.9105 LP             1 S1                 0.0000
     50 ****        -1.4309   2.0070  -2.9491 LP             1 S1                 0.0000
     51 ****        -1.2306   0.4831  -2.1507 LP             1 S1                 0.0000
     52 ****         0.8587  -0.4215   1.9123 LP             1 S1                 0.0000
     53 ****        -0.5345  -1.2586   2.0696 LP             1 S1                 0.0000
     54 ****        -3.4135   1.2246   3.0553 LP             1 S1                 0.0000
     55 ****        -2.6723  -0.0863   2.1996 LP             1 S1                 0.0000
@<TRIPOS>BOND
    1    1    2 1     
    2    1   24 1     
    3    1   25 1     
    4    1   26 1     
    5    2    3 1     
    6    2   27 1     
    7    2   28 1     
    8    3   22 am    
    9    3    4 1     
   10    4    5 2     
   11    4   29 1     
   12    5    6 1     
   13    5    8 1     
   14    6    7 3     
   15    8    9 2     
   16    8   10 am    
   17   10   11 1     
   18   10   22 am    
   19   11   12 1     
   20   11   30 1     
   21   11   31 1     
   22   12   13 1     
   23   12   14 1     
   24   12   32 1     
   25   13   33 1     
   26   14   15 1     
   27   14   34 1     
   28   14   35 1     
   29   15   21 1     
   30   15   16 1     
   31   15   48 1     
   32   16   17 1     
   33   16   36 1     
   34   16   37 1     
   35   17   18 1     
   36   17   38 1     
   37   17   39 1     
   38   18   19 1     
   39   18   20 1     
   40   18   40 1     
   41   19   41 1     
   42   19   42 1     
   43   19   43 1     
   44   20   21 1     
   45   20   44 1     
   46   20   45 1     
   47   21   46 1     
   48   21   47 1     
   49   22   23 2     
   50    7   49 1     
   51    9   50 1     
   52    9   51 1     
   53   13   52 1     
   54   13   53 1     
   55   23   54 1     
   56   23   55 1     
@<TRIPOS>SUBSTRUCTURE
      1 S1             1
@<TRIPOS>SET
LONE_PAIRS      STATIC     ATOMS    <user>   **** ""
7 49 50 51 52 53 54 55
DONOR_HYDROGENS      STATIC     ATOMS    <user>   **** ""
2 33 48
ATOM$BLUE        STATIC     ATOMS    COLORGROUP SYSTEM
7 49 50 51 52 53 54 55
ATOM$RED        STATIC     ATOMS    COLORGROUP SYSTEM
2 33 48
