#       Name:                AV-unprocessed.smi:1191
#       Creating user name   scv26
#       Creation time:       Fri Mar 27 03:58:14 2020


#       File generated by GOLD software.
#

@<TRIPOS>MOLECULE
AV-unprocessed.smi:1191
    50    51     1
SMALL
NO_CHARGES


@<TRIPOS>ATOM
      1 ****        -2.2645   5.7558  -3.2566 C.3            1 S1                 0.0000
      2 ****        -2.4566   4.3749  -2.7023 C.2            1 S1                 0.0000
      3 ****        -3.0262   3.9964  -1.4547 C.2            1 S1                 0.0000
      4 ****        -2.9591   2.6316  -1.4530 C.2            1 S1                 0.0000
      5 ****        -3.3969   1.6492  -0.4169 C.3            1 S1                 0.0000
      6 ****        -2.3748   2.2568  -2.6506 N.pl3          1 S1                 0.0000
      7 ****        -2.0694   0.9241  -3.1484 C.3            1 S1                 0.0000
      8 ****        -0.7994   0.3676  -2.5013 C.2            1 S1                 0.0000
      9 ****         0.2794   0.9385  -2.6621 O.2            1 S1                 0.0000
     10 ****        -0.9404  -0.7405  -1.7578 N.am           1 S1                 0.0000
     11 ****         0.1398  -1.3976  -1.0325 C.3            1 S1                 0.0000
     12 ****         0.4298  -0.6865   0.3037 C.3            1 S1                 0.0000
     13 ****         1.5734  -1.2901   1.0334 N.4            1 S1                 1.0000
     14 ****         2.1722  -0.3458   2.0119 C.3            1 S1                 0.0000
     15 ****         3.4395  -0.9369   2.6492 C.3            1 S1                 0.0000
     16 ****         3.1423  -2.2888   3.3097 C.3            1 S1                 0.0000
     17 ****         2.4965  -3.2468   2.2947 C.3            1 S1                 0.0000
     18 ****         2.1644  -4.6019   2.9355 C.3            1 S1                 0.0000
     19 ****         1.2472  -2.5970   1.6661 C.3            1 S1                 0.0000
     20 ****        -2.0698   3.3290  -3.4133 N.2            1 S1                 0.0000
     21 ****        -2.5356   6.5161  -2.5239 H              1 S1                 0.0000
     22 ****        -2.8823   5.9121  -4.1413 H              1 S1                 0.0000
     23 ****        -1.2252   5.9248  -3.5398 H              1 S1                 0.0000
     24 ****        -3.4246   4.6323  -0.6781 H              1 S1                 0.0000
     25 ****        -3.9262   2.1502   0.3937 H              1 S1                 0.0000
     26 ****        -2.5399   1.1308   0.0132 H              1 S1                 0.0000
     27 ****        -4.0681   0.9039  -0.8435 H              1 S1                 0.0000
     28 ****        -2.9234   0.2726  -2.9585 H              1 S1                 0.0000
     29 ****        -1.9352   0.9611  -4.2306 H              1 S1                 0.0000
     30 ****        -1.8608  -1.1497  -1.6827 H              1 S1                 0.0000
     31 ****        -0.1659  -2.4298  -0.8677 H              1 S1                 0.0000
     32 ****         1.0386  -1.4338  -1.6508 H              1 S1                 0.0000
     33 ****         0.6606   0.3586   0.0917 H              1 S1                 0.0000
     34 ****        -0.4562  -0.6809   0.9406 H              1 S1                 0.0000
     35 ****         2.4282   0.5906   1.5144 H              1 S1                 0.0000
     36 ****         1.4387  -0.1051   2.7831 H              1 S1                 0.0000
     37 ****         4.2101  -1.0615   1.8873 H              1 S1                 0.0000
     38 ****         3.8436  -0.2432   3.3871 H              1 S1                 0.0000
     39 ****         4.0636  -2.7190   3.7045 H              1 S1                 0.0000
     40 ****         2.4763  -2.1424   4.1613 H              1 S1                 0.0000
     41 ****         3.2183  -3.4302   1.4970 H              1 S1                 0.0000
     42 ****         1.4428  -4.4923   3.7457 H              1 S1                 0.0000
     43 ****         3.0585  -5.0703   3.3478 H              1 S1                 0.0000
     44 ****         1.7414  -5.2903   2.2033 H              1 S1                 0.0000
     45 ****         0.4753  -2.4505   2.4237 H              1 S1                 0.0000
     46 ****         0.8333  -3.2793   0.9248 H              1 S1                 0.0000
     47 ****         2.2890  -1.4669   0.3427 H              1 S1                 0.0000
     48 ****         0.3278   1.7689  -3.2172 LP             1 S1                 0.0000
     49 ****         1.1072   0.5719  -2.2376 LP             1 S1                 0.0000
     50 ****        -1.6443   3.3314  -4.3182 LP             1 S1                 0.0000
@<TRIPOS>BOND
    1    1    2 1     
    2    1   21 1     
    3    1   22 1     
    4    1   23 1     
    5    2   20 2     
    6    2    3 1     
    7    3    4 2     
    8    3   24 1     
    9    4    5 1     
   10    4    6 1     
   11    5   25 1     
   12    5   26 1     
   13    5   27 1     
   14    6    7 1     
   15    6   20 1     
   16    7    8 1     
   17    7   28 1     
   18    7   29 1     
   19    8    9 2     
   20    8   10 am    
   21   10   11 1     
   22   10   30 1     
   23   11   12 1     
   24   11   31 1     
   25   11   32 1     
   26   12   13 1     
   27   12   33 1     
   28   12   34 1     
   29   13   19 1     
   30   13   14 1     
   31   13   47 1     
   32   14   15 1     
   33   14   35 1     
   34   14   36 1     
   35   15   16 1     
   36   15   37 1     
   37   15   38 1     
   38   16   17 1     
   39   16   39 1     
   40   16   40 1     
   41   17   18 1     
   42   17   19 1     
   43   17   41 1     
   44   18   42 1     
   45   18   43 1     
   46   18   44 1     
   47   19   45 1     
   48   19   46 1     
   49    9   48 1     
   50    9   49 1     
   51   20   50 1     
@<TRIPOS>SUBSTRUCTURE
      1 S1             1
@<TRIPOS>SET
LONE_PAIRS      STATIC     ATOMS    <user>   **** ""
3 48 49 50
DONOR_HYDROGENS      STATIC     ATOMS    <user>   **** ""
2 30 47
ATOM$BLUE        STATIC     ATOMS    COLORGROUP SYSTEM
3 48 49 50
ATOM$RED        STATIC     ATOMS    COLORGROUP SYSTEM
2 30 47
