AV-unprocessed.smi:182|AV-procd|sdf|1456|dock6
  -GOLD-   2262019263D 1   1.00000     0.00000
 Structure written by MMmdl.
 56 59  0  0  0  0  0  0  0  0  1 V2000
  147.3694  145.9443  160.0617 N   0  0  0  0  0  0  0  0  0  0  0  0
  148.2535  145.2318  160.7638 C   0  0  0  0  0  0  0  0  0  0  0  0
  148.2586  145.2279  161.9934 O   0  0  0  0  0  0  0  0  0  0  0  0
  149.2719  144.4173  159.9590 C   0  0  0  0  0  0  0  0  0  0  0  0
  150.7382  144.7485  160.3064 C   0  0  0  0  0  0  0  0  0  0  0  0
  151.7518  143.7274  159.7527 C   0  0  1  0  0  0  0  0  0  0  0  0
  152.4481  142.9587  160.8932 C   0  0  0  0  0  0  0  0  0  0  0  0
  153.4518  141.9409  160.3295 C   0  0  0  0  0  0  0  0  0  0  0  0
  152.7753  140.9952  159.3249 C   0  0  0  0  0  0  0  0  0  0  0  0
  152.0829  141.7555  158.2836 N   0  0  0  0  0  0  0  0  0  0  0  0
  151.7223  141.1018  157.1492 C   0  0  0  0  0  0  0  0  0  0  0  0
  152.6440  140.3730  156.4640 N   0  0  0  0  0  0  0  0  0  0  0  0
  152.2976  139.7176  155.3525 C   0  0  0  0  0  0  0  0  0  0  0  0
  151.1042  139.6534  154.7598 N   0  0  0  0  0  0  0  0  0  0  0  0
  150.1748  140.3855  155.4377 C   0  0  0  0  0  0  0  0  0  0  0  0
  150.3986  141.1393  156.6248 C   0  0  0  0  0  0  0  0  0  0  0  0
  149.2240  141.7788  157.0047 N   0  0  0  0  0  0  0  0  0  0  0  0
  148.3559  141.4172  156.1000 C   0  0  0  0  0  0  0  0  0  0  0  0
  148.8338  140.5551  155.1393 N   0  0  0  0  0  0  0  0  0  0  0  0
  148.1092  140.0360  154.0163 C   0  0  0  0  0  0  0  0  0  0  0  0
  146.5821  139.9311  154.0379 C   0  0  0  0  0  0  0  0  0  0  0  0
  146.6636  138.6677  153.1509 C   0  0  0  0  0  0  0  0  0  0  0  0
  145.7103  137.5233  153.5341 C   0  0  0  0  0  0  0  0  0  0  0  0
  144.3627  137.8822  153.3064 O   0  0  0  0  0  0  0  0  0  0  0  0
  146.5654  138.9208  151.6329 C   0  0  0  0  0  0  0  0  0  0  0  0
  146.8263  137.7438  150.8957 O   0  0  0  0  0  0  0  0  0  0  0  0
  148.1001  138.5381  153.7033 C   0  0  0  0  0  0  0  0  0  0  0  0
  151.1035  142.7249  158.7744 C   0  0  0  0  0  0  0  0  0  0  0  0
  146.6772  146.4992  160.5443 H   0  0  0  0  0  0  0  0  0  0  0  0
  147.3949  145.9276  159.0525 H   0  0  0  0  0  0  0  0  0  0  0  0
  149.0750  143.3593  160.1317 H   0  0  0  0  0  0  0  0  0  0  0  0
  149.0927  144.6010  158.8991 H   0  0  0  0  0  0  0  0  0  0  0  0
  150.9815  145.7314  159.8997 H   0  0  0  0  0  0  0  0  0  0  0  0
  150.8557  144.8309  161.3880 H   0  0  0  0  0  0  0  0  0  0  0  0
  152.5208  144.2809  159.2113 H   0  0  0  0  0  0  0  0  0  0  0  0
  152.9641  143.6525  161.5579 H   0  0  0  0  0  0  0  0  0  0  0  0
  151.7043  142.4409  161.5003 H   0  0  0  0  0  0  0  0  0  0  0  0
  154.2688  142.4701  159.8374 H   0  0  0  0  0  0  0  0  0  0  0  0
  153.8988  141.3657  161.1407 H   0  0  0  0  0  0  0  0  0  0  0  0
  153.5282  140.3436  158.8789 H   0  0  0  0  0  0  0  0  0  0  0  0
  152.0575  140.3553  159.8402 H   0  0  0  0  0  0  0  0  0  0  0  0
  153.0892  139.1626  154.8711 H   0  0  0  0  0  0  0  0  0  0  0  0
  147.3346  141.7691  156.1133 H   0  0  0  0  0  0  0  0  0  0  0  0
  148.4447  140.6094  153.1505 H   0  0  0  0  0  0  0  0  0  0  0  0
  146.1934  139.7250  155.0370 H   0  0  0  0  0  0  0  0  0  0  0  0
  146.0681  140.7815  153.5892 H   0  0  0  0  0  0  0  0  0  0  0  0
  145.9197  136.6312  152.9434 H   0  0  0  0  0  0  0  0  0  0  0  0
  145.8290  137.2322  154.5780 H   0  0  0  0  0  0  0  0  0  0  0  0
  144.3434  138.7354  152.9006 H   0  0  0  0  0  0  0  0  0  0  0  0
  145.5722  139.2735  151.3545 H   0  0  0  0  0  0  0  0  0  0  0  0
  147.2606  139.6967  151.3115 H   0  0  0  0  0  0  0  0  0  0  0  0
  147.1728  137.0912  151.4848 H   0  0  0  0  0  0  0  0  0  0  0  0
  148.8458  138.2246  152.9720 H   0  0  0  0  0  0  0  0  0  0  0  0
  148.1565  137.9244  154.6045 H   0  0  0  0  0  0  0  0  0  0  0  0
  150.2999  142.1827  159.2748 H   0  0  0  0  0  0  0  0  0  0  0  0
  150.6428  143.2608  157.9475 H   0  0  0  0  0  0  0  0  0  0  0  0
  1  2  1  0  0  0  0
  1 29  1  0  0  0  0
  1 30  1  0  0  0  0
  2  3  2  0  0  0  0
  2  4  1  0  0  0  0
  4  5  1  0  0  0  0
  4 31  1  0  0  0  0
  4 32  1  0  0  0  0
  5  6  1  0  0  0  0
  5 33  1  0  0  0  0
  5 34  1  0  0  0  0
  6 28  1  0  0  0  0
  6  7  1  0  0  0  0
  6 35  1  0  0  0  0
  7  8  1  0  0  0  0
  7 36  1  0  0  0  0
  7 37  1  0  0  0  0
  8  9  1  0  0  0  0
  8 38  1  0  0  0  0
  8 39  1  0  0  0  0
  9 10  1  0  0  0  0
  9 40  1  0  0  0  0
  9 41  1  0  0  0  0
 10 11  1  0  0  0  0
 10 28  1  0  0  0  0
 11 16  1  0  0  0  0
 11 12  2  0  0  0  0
 12 13  1  0  0  0  0
 13 14  2  0  0  0  0
 13 42  1  0  0  0  0
 14 15  1  0  0  0  0
 15 19  1  0  0  0  0
 15 16  2  0  0  0  0
 16 17  1  0  0  0  0
 17 18  2  0  0  0  0
 18 19  1  0  0  0  0
 18 43  1  0  0  0  0
 19 20  1  0  0  0  0
 20 27  1  0  0  0  0
 20 21  1  0  0  0  0
 20 44  1  0  0  0  0
 21 22  1  0  0  0  0
 21 45  1  0  0  0  0
 21 46  1  0  0  0  0
 22 23  1  0  0  0  0
 22 25  1  0  0  0  0
 22 27  1  0  0  0  0
 23 24  1  0  0  0  0
 23 47  1  0  0  0  0
 23 48  1  0  0  0  0
 24 49  1  0  0  0  0
 25 26  1  0  0  0  0
 25 50  1  0  0  0  0
 25 51  1  0  0  0  0
 26 52  1  0  0  0  0
 27 53  1  0  0  0  0
 27 54  1  0  0  0  0
 28 55  1  0  0  0  0
 28 56  1  0  0  0  0
M  END
> <s_m_source_file>
AV-unprocessed.smi

> <i_m_source_file_index>
182

> <i_lp_mmshare_version>
43012

> <i_f3d_flags>
0

> <s_epik_input>
W05IMl1DKD1PKVtDSDJdW0NIMl1bQ0BASF0xW0NIMl1bQ0gyXVtDSDJdTihbQ0gyXTEpYyhuW2NIXW4yKWMoYzIzKW5bY0hdbjNbQ0hdKFtDSDJdNClbQ0gyXUM0KFtDSDJdW09IXSlbQ0gyXVtPSF0=

> <s_epik_cmdline>
J2VwaWtfcHl0aG9uJywgJy1waCcsICc3LjAnLCAnLXRuJywgJzgnLCAnLW1hJywgJzIwMCcsICctbWV0YWxfYmluZGluZycsICctaW1hZScsICc8aW5maWxlLm1hZT4nLCAnLW9tYWUnLCAnPG91dGZpbGUubWFlPic=

> <r_lp_tautomer_probability>
1

> <r_epik_Ionization_Penalty>
0.00186057

> <r_epik_Ionization_Penalty_Charging>
0

> <r_epik_Ionization_Penalty_Neutral>
0.00186057

> <r_epik_State_Penalty>
0.00110736

> <r_epik_Charging_Adjusted_Penalty>
0.00110736

> <i_epik_Tot_Q>
0

> <i_epik_Tot_abs_Q>
0

> <r_epik_Metal_State_Penalty>
-0

> <b_epik_Metal_Only>
0

> <s_lp_Force_Field>
OPLS_2005

> <r_lp_Energy>
37.6951

> <b_lp_Chiralities_Consistent>
1

> <s_lp_Variant>
AV-unprocessed.smi:182-2

> <Gold.Version>
5.8.1

> <Gold.Id.Protein>
6NUR|6NUR_protein|mol2

> <Gold.PLP.Fitness>
63.4277

> <Gold.PLP.PLP>
-49.6849

> <Gold.PLP.part.hbond>
-6.5168

> <Gold.PLP.part.metal>
0.0000

> <Gold.PLP.part.buried>
-3.6877

> <Gold.PLP.part.nonpolar>
-42.3133

> <Gold.PLP.part.repulsive>
2.2829

> <Gold.PLP.ligand.clash>
0.0196

> <Gold.PLP.ligand.torsion>
1.5113

> <Gold.PLP.Chemscore.Hbond>
5.2600

> <Gold.PLP.Chemscore.CHOScore>
0.0000

> <Gold.PLP.Chemscore.Metal>
0.0000

> <Gold.Chemscore.Hbonds>
donor molecule, donor type, donor heavy atom, donor atom, acceptor molecule, acceptor atom, score
      L1  H     1    30       P1  8029  1.00
      L1  H    24    49       P1 10175  1.00
      L1  H    26    52       P1  7948  0.72
      P1  H  7954  7966       L1    26  0.90
      P1  H  7989  7998       L1    14  0.55
      P1  H  7997  8008       L1    12  0.98

> <Gold.PLP.Chemscore.Internal.Correction>
1.0050

> <Gold.Rescore>
     Score         DG    S(hbond)    S(metal)    S(lipo)     H(rot)  DE(clash)    DE(int)     intcor
     12.09     -16.74       3.41        0.00     103.75       4.79       1.70       2.96       ----

> <Gold.Chemscore.Fitness>
12.0871

> <Gold.Chemscore.DG>
-16.7442

> <Gold.Chemscore.ZeroCoef>
-5.4800

> <Gold.Chemscore.Hbond>
3.4113

> <Gold.Chemscore.Metal>
0.0000

> <Gold.Chemscore.Lipo>
103.7478

> <Gold.Chemscore.Internal_Hbond>
0.0000

> <Gold.Chemscore.DEClash>
1.6957

> <Gold.Chemscore.DEInternal>
2.9613

> <Gold.Chemscore.Rot>
4.7922

> <Gold.Chemscore.Internal.Correction>
   9.000000E+99

> <Gold.Chemscore.Hbonds>
donor molecule, donor type, donor heavy atom, donor atom, acceptor molecule, acceptor atom, score
      L1  H     1    30       P1  8029  1.00
      L1  H    24    49       P1 10175  0.99
      L1  H    26    52       P1  7948  0.70
      P1  H  7954  7966       L1    26  0.16
      P1  H  7989  7998       L1    14  0.01
      P1  H  7997  8008       L1    12  0.28

> <Gold.Chemscore.Hbond.Weighted>
-11.3937

> <Gold.Chemscore.Metal.Weighted>
-0.0000

> <Gold.Chemscore.Lipo.Weighted>
-12.1385

> <Gold.Chemscore.Internal_Hbond.Weighted>
0.0000

> <Gold.Chemscore.DEClash.Weighted>
1.6957

> <Gold.Chemscore.DEInternal.Weighted>
2.9613

> <Gold.Chemscore.Rot.Weighted>
12.2680

> <Gold.Chemscore.Internal.Correction.Weighted>
   9.000000E+99

> <Gold.Protein.RotatedTorsions>
[ 6907 6896 6895 6894 ] final  130.99 input  -60.11 | X-H torsion
[ 7974 7965 7964 7962 ] final  124.94 input  175.53 | X-H torsion
[ 8008 7997 7996 7995 ] final  -49.80 input   59.86 | X-H torsion
[ 10167 10162 10161 10158 ] final  124.99 input  -65.29 | X-H torsion
[ 10718 10713 10712 10709 ] final   77.57 input   66.30 | X-H torsion
[ 10763 10752 10751 10750 ] final   53.19 input  -60.55 | X-H torsion
[ 11005 11000 10999 10996 ] final  109.05 input  -57.11 | X-H torsion

> <Gold.Protein.ActiveResidues>
 VAL166  LYS551  ARG553  GLY616  TRP617  ASP618  TYR619  PRO620  LYS621  CYS622 
 ASP623  PHE694  ASN695  SER759  ASP760  ASP761  ALA762  ILE779  LEU786  VAL792 
 PHE793  MET794  SER795  GLU796  ALA797  LYS798  CYS799  TRP800  GLU811  SER814 

> <Gold.Protein.RotatedAtoms>
  152.3471  133.6135  159.5917 H   0  0  0  0  0  0  0  0  0  0  0  0  # atno 6907 bound_to 6896
  150.7514  133.9633  159.3531 H   0  0  0  0  0  0  0  0  0  0  0  0  # atno 6908 bound_to 6896
  151.7489  135.0838  160.0379 H   0  0  0  0  0  0  0  0  0  0  0  0  # atno 6909 bound_to 6896
  145.0787  139.3674  143.4920 H   0  0  0  0  0  0  0  0  0  0  0  0  # atno 7974 bound_to 7965
  154.4050  140.1288  156.4561 H   0  0  0  0  0  0  0  0  0  0  0  0  # atno 8008 bound_to 7997
  155.7318  140.3491  155.5043 H   0  0  0  0  0  0  0  0  0  0  0  0  # atno 8009 bound_to 7997
  155.9120  140.1037  157.1262 H   0  0  0  0  0  0  0  0  0  0  0  0  # atno 8010 bound_to 7997
  139.5710  144.6939  151.3778 H   0  0  0  0  0  0  0  0  0  0  0  0  # atno 10167 bound_to 10162
  157.6715  130.9828  150.1660 H   0  0  0  0  0  0  0  0  0  0  0  0  # atno 10718 bound_to 10713
  152.9793  135.5787  154.4701 H   0  0  0  0  0  0  0  0  0  0  0  0  # atno 10763 bound_to 10752
  154.4265  135.2772  155.1943 H   0  0  0  0  0  0  0  0  0  0  0  0  # atno 10764 bound_to 10752
  154.3669  135.6176  153.5773 H   0  0  0  0  0  0  0  0  0  0  0  0  # atno 10765 bound_to 10752
  139.8855  134.9447  156.6066 H   0  0  0  0  0  0  0  0  0  0  0  0  # atno 11005 bound_to 11000
  146.3530  140.0566  142.8632 LP  0  0  0  0  0  0  0  0  0  0  0  0  # atno 17320 bound_to 7965
  145.1205  140.9459  143.4603 LP  0  0  0  0  0  0  0  0  0  0  0  0  # atno 17321 bound_to 7965
  140.6994  143.7668  150.7379 LP  0  0  0  0  0  0  0  0  0  0  0  0  # atno 17342 bound_to 10162
  140.1174  143.4643  152.2334 LP  0  0  0  0  0  0  0  0  0  0  0  0  # atno 17343 bound_to 10162
  156.2425  130.3692  149.8321 LP  0  0  0  0  0  0  0  0  0  0  0  0  # atno 17370 bound_to 10713
  156.6117  130.8589  151.3455 LP  0  0  0  0  0  0  0  0  0  0  0  0  # atno 17371 bound_to 10713
  140.7843  133.8634  155.8593 LP  0  0  0  0  0  0  0  0  0  0  0  0  # atno 17394 bound_to 11000
  140.9733  134.1502  157.4558 LP  0  0  0  0  0  0  0  0  0  0  0  0  # atno 17395 bound_to 11000

$$$$
