AV-unprocessed.smi:1428|AV-procd|sdf|5817|dock2
  -GOLD-   22720 5473D 1   1.00000     0.00000
 Structure written by MMmdl.
 43 44  0  0  0  0  0  0  0  0  3 V2000
  151.9650  138.3393  154.3338 C   0  0  0  0  0  0  0  0  0  0  0  0
  150.5601  138.1969  154.1544 O   0  0  0  0  0  0  0  0  0  0  0  0
  149.7557  139.3049  154.3428 C   0  0  0  0  0  0  0  0  0  0  0  0
  150.3407  140.4714  154.7140 N   0  0  0  0  0  0  0  0  0  0  0  0
  149.5573  141.5540  154.8959 C   0  0  0  0  0  0  0  0  0  0  0  0
  148.1625  141.5346  154.7136 C   0  0  0  0  0  0  0  0  0  0  0  0
  147.5531  140.3263  154.3282 C   0  0  0  0  0  0  0  0  0  0  0  0
  148.3606  139.1769  154.1475 C   0  0  0  0  0  0  0  0  0  0  0  0
  147.8530  137.9111  153.7432 N   0  0  0  0  0  0  0  0  0  0  0  0
  146.7148  137.3050  154.1206 C   0  0  0  0  0  0  0  0  0  0  0  0
  145.8841  137.7692  154.9009 O   0  0  0  0  0  0  0  0  0  0  0  0
  146.5986  136.0973  153.5502 N   0  0  0  0  0  0  0  0  0  0  0  0
  145.4867  135.1690  153.7528 C   0  0  2  0  0  0  0  0  0  0  0  0
  145.9420  133.6984  153.6673 C   0  0  0  0  0  0  0  0  0  0  0  0
  146.3210  133.2952  152.2316 C   0  0  0  0  0  0  0  0  0  0  0  0
  145.2003  133.5478  151.2913 N   0  3  2  0  0  0  0  0  0  0  0  0
  145.4821  133.0324  149.9280 C   0  0  0  0  0  0  0  0  0  0  0  0
  144.1737  132.6901  149.2063 C   0  0  0  0  0  0  0  0  0  0  0  0
  143.9668  133.4615  148.1222 N   0  5  0  0  0  0  0  0  0  0  0  0
  143.4493  131.8009  149.6495 O   0  0  0  0  0  0  0  0  0  0  0  0
  144.7858  134.9767  151.3044 C   0  0  0  0  0  0  0  0  0  0  0  0
  144.3761  135.4260  152.7192 C   0  0  0  0  0  0  0  0  0  0  0  0
  152.4510  137.3805  154.1541 H   0  0  0  0  0  0  0  0  0  0  0  0
  152.2077  138.6466  155.3520 H   0  0  0  0  0  0  0  0  0  0  0  0
  152.3861  139.0603  153.6317 H   0  0  0  0  0  0  0  0  0  0  0  0
  150.0582  142.4647  155.1894 H   0  0  0  0  0  0  0  0  0  0  0  0
  147.5737  142.4279  154.8611 H   0  0  0  0  0  0  0  0  0  0  0  0
  146.4867  140.3105  154.1660 H   0  0  0  0  0  0  0  0  0  0  0  0
  148.4706  137.3703  153.1554 H   0  0  0  0  0  0  0  0  0  0  0  0
  147.3304  135.8002  152.9211 H   0  0  0  0  0  0  0  0  0  0  0  0
  145.0742  135.3533  154.7465 H   0  0  0  0  0  0  0  0  0  0  0  0
  146.7789  133.5123  154.3413 H   0  0  0  0  0  0  0  0  0  0  0  0
  145.1321  133.0550  154.0130 H   0  0  0  0  0  0  0  0  0  0  0  0
  147.2058  133.8423  151.9022 H   0  0  0  0  0  0  0  0  0  0  0  0
  146.5815  132.2363  152.2176 H   0  0  0  0  0  0  0  0  0  0  0  0
  146.0984  133.7447  149.3748 H   0  0  0  0  0  0  0  0  0  0  0  0
  146.0562  132.1069  149.9913 H   0  0  0  0  0  0  0  0  0  0  0  0
  144.7750  133.8873  147.6529 H   0  0  0  0  0  0  0  0  0  0  0  0
  145.6024  135.5965  150.9312 H   0  0  0  0  0  0  0  0  0  0  0  0
  143.9442  135.1313  150.6284 H   0  0  0  0  0  0  0  0  0  0  0  0
  143.4786  134.8818  153.0167 H   0  0  0  0  0  0  0  0  0  0  0  0
  144.1010  136.4815  152.7130 H   0  0  0  0  0  0  0  0  0  0  0  0
  144.4153  133.0099  151.6306 H   0  0  0  0  0  0  0  0  0  0  0  0
  1  2  1  0  0  0  0
  1 23  1  0  0  0  0
  1 24  1  0  0  0  0
  1 25  1  0  0  0  0
  2  3  1  0  0  0  0
  3  8  1  0  0  0  0
  3  4  2  0  0  0  0
  4  5  1  0  0  0  0
  5  6  2  0  0  0  0
  5 26  1  0  0  0  0
  6  7  1  0  0  0  0
  6 27  1  0  0  0  0
  7  8  2  0  0  0  0
  7 28  1  0  0  0  0
  8  9  1  0  0  0  0
  9 10  1  0  0  0  0
  9 29  1  0  0  0  0
 10 11  2  0  0  0  0
 10 12  1  0  0  0  0
 12 13  1  0  0  0  0
 12 30  1  0  0  0  0
 13 22  1  0  0  0  0
 13 14  1  0  0  0  0
 13 31  1  0  0  0  0
 14 15  1  0  0  0  0
 14 32  1  0  0  0  0
 14 33  1  0  0  0  0
 15 16  1  0  0  0  0
 15 34  1  0  0  0  0
 15 35  1  0  0  0  0
 16 17  1  0  0  0  0
 16 21  1  0  0  0  0
 16 43  1  0  0  0  0
 17 18  1  0  0  0  0
 17 36  1  0  0  0  0
 17 37  1  0  0  0  0
 18 19  1  0  0  0  0
 18 20  2  0  0  0  0
 19 38  1  0  0  0  0
 21 22  1  0  0  0  0
 21 39  1  0  0  0  0
 21 40  1  0  0  0  0
 22 41  1  0  0  0  0
 22 42  1  0  0  0  0
M  CHG  1  16   1
M  CHG  1  19  -1
M  END
> <s_m_source_file>
AV-unprocessed.smi

> <i_m_source_file_index>
1428

> <i_lp_mmshare_version>
43012

> <i_f3d_flags>
0

> <s_epik_input>
W0NIM11PYzFuW2NIXVtjSF1bY0hdYzFbTkhdQyg9TylbTkhdW0NIXTJbQ0gyXVtDSDJdTihbQ0gyXVtDSDJdMilbQ0gyXUMoPU8pW05IMl0=

> <s_epik_cmdline>
J2VwaWtfcHl0aG9uJywgJy1waCcsICc3LjAnLCAnLXRuJywgJzgnLCAnLW1hJywgJzIwMCcsICctbWV0YWxfYmluZGluZycsICctaW1hZScsICc8aW5maWxlLm1hZT4nLCAnLW9tYWUnLCAnPG91dGZpbGUubWFlPic=

> <r_lp_tautomer_probability>
1

> <r_epik_Ionization_Penalty>
5.72888

> <r_epik_Ionization_Penalty_Charging>
5.7288

> <r_epik_Ionization_Penalty_Neutral>
7.84403e-05

> <r_epik_State_Penalty>
6.54882

> <r_epik_Charging_Adjusted_Penalty>
12.2776

> <i_epik_Tot_Q>
0

> <i_epik_Tot_abs_Q>
2

> <r_epik_Metal_State_Penalty>
2.51301

> <b_epik_Metal_Only>
1

> <s_lp_Force_Field>
OPLS_2005

> <r_lp_Energy>
10.1368

> <b_lp_Chiralities_Consistent>
1

> <s_lp_Variant>
AV-unprocessed.smi:1428-5

> <Gold.Version>
5.8.1

> <Gold.Id.Protein>
6NUR|6NUR_protein|mol2

> <Gold.PLP.Fitness>
50.0849

> <Gold.PLP.PLP>
-34.3399

> <Gold.PLP.part.hbond>
-5.8694

> <Gold.PLP.part.metal>
0.0000

> <Gold.PLP.part.buried>
-4.5003

> <Gold.PLP.part.nonpolar>
-24.6311

> <Gold.PLP.part.repulsive>
1.2910

> <Gold.PLP.ligand.clash>
0.0000

> <Gold.PLP.ligand.torsion>
0.9335

> <Gold.PLP.Chemscore.Hbond>
4.9360

> <Gold.PLP.Chemscore.CHOScore>
0.9143

> <Gold.PLP.Chemscore.Metal>
0.0000

> <Gold.Chemscore.Hbonds>
donor molecule, donor type, donor heavy atom, donor atom, acceptor molecule, acceptor atom, score
      L1  H     9    29       P1  7948  1.00
      L1  H    12    30       P1  7948  1.00
      L1  H    19    38       P1  7921  1.00
      P1  H  7989  7998       L1     4  0.99
      P1  H 10785 10796       L1    20  1.00
      L1  C     5    26       P1  8028  0.79

> <Gold.PLP.Chemscore.Internal.Correction>
0.0611

> <Gold.Rescore>
     Score         DG    S(hbond)    S(metal)    S(lipo)     H(rot)  DE(clash)    DE(int)     intcor
     18.67     -20.38       4.17        0.00      58.53       2.29       0.09       1.62       ----

> <Gold.Chemscore.Fitness>
18.6727

> <Gold.Chemscore.DG>
-20.3803

> <Gold.Chemscore.ZeroCoef>
-5.4800

> <Gold.Chemscore.Hbond>
4.1657

> <Gold.Chemscore.Metal>
0.0000

> <Gold.Chemscore.Lipo>
58.5271

> <Gold.Chemscore.Internal_Hbond>
0.0000

> <Gold.Chemscore.DEClash>
0.0915

> <Gold.Chemscore.DEInternal>
1.6162

> <Gold.Chemscore.Rot>
2.2894

> <Gold.Chemscore.Internal.Correction>
   9.000000E+99

> <Gold.Chemscore.Hbonds>
donor molecule, donor type, donor heavy atom, donor atom, acceptor molecule, acceptor atom, score
      L1  H     9    29       P1  7948  0.99
      L1  H    12    30       P1  7948  0.92
      L1  H    19    38       P1  7921  0.95
      P1  H  7989  7998       L1     4  0.40
      P1  H 10785 10796       L1    20  0.95

> <Gold.Chemscore.Hbond.Weighted>
-13.9134

> <Gold.Chemscore.Metal.Weighted>
-0.0000

> <Gold.Chemscore.Lipo.Weighted>
-6.8477

> <Gold.Chemscore.Internal_Hbond.Weighted>
0.0000

> <Gold.Chemscore.DEClash.Weighted>
0.0915

> <Gold.Chemscore.DEInternal.Weighted>
1.6162

> <Gold.Chemscore.Rot.Weighted>
5.8608

> <Gold.Chemscore.Internal.Correction.Weighted>
   9.000000E+99

> <Gold.Protein.RotatedTorsions>
[ 6907 6896 6895 6894 ] final   -7.81 input  -60.11 | X-H torsion
[ 7974 7965 7964 7962 ] final  -64.02 input  175.53 | X-H torsion
[ 8008 7997 7996 7995 ] final   59.76 input   59.86 | X-H torsion
[ 10167 10162 10161 10158 ] final  -47.02 input  -65.29 | X-H torsion
[ 10718 10713 10712 10709 ] final  138.98 input   66.30 | X-H torsion
[ 10763 10752 10751 10750 ] final   46.17 input  -60.55 | X-H torsion
[ 11005 11000 10999 10996 ] final  -74.05 input  -57.11 | X-H torsion

> <Gold.Protein.ActiveResidues>
 VAL166  LYS551  ARG553  GLY616  TRP617  ASP618  TYR619  PRO620  LYS621  CYS622 
 ASP623  PHE694  ASN695  SER759  ASP760  ASP761  ALA762  ILE779  LEU786  VAL792 
 PHE793  MET794  SER795  GLU796  ALA797  LYS798  CYS799  TRP800  GLU811  SER814 

> <Gold.Protein.RotatedAtoms>
  151.4436  135.1023  159.9676 H   0  0  0  0  0  0  0  0  0  0  0  0  # atno 6907 bound_to 6896
  152.4914  133.8506  159.7210 H   0  0  0  0  0  0  0  0  0  0  0  0  # atno 6908 bound_to 6896
  150.9071  133.6985  159.2891 H   0  0  0  0  0  0  0  0  0  0  0  0  # atno 6909 bound_to 6896
  145.7719  140.8808  143.0375 H   0  0  0  0  0  0  0  0  0  0  0  0  # atno 7974 bound_to 7965
  155.5714  140.3490  155.4516 H   0  0  0  0  0  0  0  0  0  0  0  0  # atno 8008 bound_to 7997
  156.0441  140.1302  157.0149 H   0  0  0  0  0  0  0  0  0  0  0  0  # atno 8009 bound_to 7997
  154.4405  140.1018  156.6265 H   0  0  0  0  0  0  0  0  0  0  0  0  # atno 8010 bound_to 7997
  140.6793  143.2803  151.3867 H   0  0  0  0  0  0  0  0  0  0  0  0  # atno 10167 bound_to 10162
  157.4194  131.1037  151.0370 H   0  0  0  0  0  0  0  0  0  0  0  0  # atno 10718 bound_to 10713
  152.9814  135.6016  154.3556 H   0  0  0  0  0  0  0  0  0  0  0  0  # atno 10763 bound_to 10752
  154.3242  135.2769  155.2506 H   0  0  0  0  0  0  0  0  0  0  0  0  # atno 10764 bound_to 10752
  154.4659  135.5954  153.6343 H   0  0  0  0  0  0  0  0  0  0  0  0  # atno 10765 bound_to 10752
  141.1630  133.6898  156.7305 H   0  0  0  0  0  0  0  0  0  0  0  0  # atno 11005 bound_to 11000
  144.6811  139.9868  143.7484 LP  0  0  0  0  0  0  0  0  0  0  0  0  # atno 17320 bound_to 7965
  146.0161  139.3211  143.0841 LP  0  0  0  0  0  0  0  0  0  0  0  0  # atno 17321 bound_to 7965
  139.6104  144.1109  152.2293 LP  0  0  0  0  0  0  0  0  0  0  0  0  # atno 17342 bound_to 10162
  140.0522  144.5924  150.7327 LP  0  0  0  0  0  0  0  0  0  0  0  0  # atno 17343 bound_to 10162
  157.1306  130.6100  149.5528 LP  0  0  0  0  0  0  0  0  0  0  0  0  # atno 17370 bound_to 10713
  155.9875  130.4915  150.7130 LP  0  0  0  0  0  0  0  0  0  0  0  0  # atno 17371 bound_to 10713
  140.2749  134.8363  157.3881 LP  0  0  0  0  0  0  0  0  0  0  0  0  # atno 17394 bound_to 11000
  140.1487  134.4878  155.7977 LP  0  0  0  0  0  0  0  0  0  0  0  0  # atno 17395 bound_to 11000

$$$$
