AV-unprocessed.smi:2149|AV-procd|sdf|8753|dock5
  -GOLD-   2272011533D 1   1.00000     0.00000
 Structure written by MMmdl.
 42 43  0  0  0  0  0  0  0  0  1 V2000
  146.9231  138.0635  158.1519 C   0  0  0  0  0  0  0  0  0  0  0  0
  146.1626  139.6458  157.5998 S   0  0  0  0  0  0  0  0  0  0  0  0
  145.0167  139.3114  156.7399 O   0  0  0  0  0  0  0  0  0  0  0  0
  145.9753  140.5240  158.7646 O   0  0  0  0  0  0  0  0  0  0  0  0
  147.3918  140.3494  156.5980 N   0  0  0  0  0  0  0  0  0  0  0  0
  147.5906  139.7691  155.2542 C   0  0  0  0  0  0  0  0  0  0  0  0
  148.3912  140.7143  154.3442 C   0  0  0  0  0  0  0  0  0  0  0  0
  149.7191  141.1138  154.9933 C   0  0  0  0  0  0  0  0  0  0  0  0
  149.4405  141.7589  156.3601 C   0  0  2  0  0  0  0  0  0  0  0  0
  150.7460  142.1895  157.0424 C   0  0  0  0  0  0  0  0  0  0  0  0
  151.5570  141.3448  157.4230 O   0  0  0  0  0  0  0  0  0  0  0  0
  150.9342  143.5101  157.1911 N   0  0  0  0  0  0  0  0  0  0  0  0
  152.0992  144.1292  157.8121 C   0  0  0  0  0  0  0  0  0  0  0  0
  151.8414  144.4672  159.2898 C   0  0  0  0  0  0  0  0  0  0  0  0
  152.4582  143.4463  160.2276 C   0  0  0  0  0  0  0  0  0  0  0  0
  152.3373  143.5886  161.6267 C   0  0  0  0  0  0  0  0  0  0  0  0
  152.9353  142.6181  162.4540 C   0  0  0  0  0  0  0  0  0  0  0  0
  153.6287  141.5494  161.8538 C   0  0  0  0  0  0  0  0  0  0  0  0
  153.6932  141.4982  160.4468 C   0  0  0  0  0  0  0  0  0  0  0  0
  153.1236  142.4236  159.6448 N   0  0  0  0  0  0  0  0  0  0  0  0
  148.6402  140.7893  157.2558 C   0  0  0  0  0  0  0  0  0  0  0  0
  146.1892  137.4922  158.7197 H   0  0  0  0  0  0  0  0  0  0  0  0
  147.7854  138.2625  158.7864 H   0  0  0  0  0  0  0  0  0  0  0  0
  147.2341  137.4862  157.2816 H   0  0  0  0  0  0  0  0  0  0  0  0
  148.1082  138.8141  155.3552 H   0  0  0  0  0  0  0  0  0  0  0  0
  146.6265  139.5562  154.7949 H   0  0  0  0  0  0  0  0  0  0  0  0
  148.5769  140.2345  153.3830 H   0  0  0  0  0  0  0  0  0  0  0  0
  147.8011  141.6074  154.1341 H   0  0  0  0  0  0  0  0  0  0  0  0
  150.3529  140.2326  155.1062 H   0  0  0  0  0  0  0  0  0  0  0  0
  150.2555  141.8072  154.3441 H   0  0  0  0  0  0  0  0  0  0  0  0
  148.8300  142.6496  156.1983 H   0  0  0  0  0  0  0  0  0  0  0  0
  150.2160  144.1319  156.8488 H   0  0  0  0  0  0  0  0  0  0  0  0
  152.9698  143.4786  157.7116 H   0  0  0  0  0  0  0  0  0  0  0  0
  152.3278  145.0410  157.2596 H   0  0  0  0  0  0  0  0  0  0  0  0
  152.2432  145.4546  159.5218 H   0  0  0  0  0  0  0  0  0  0  0  0
  150.7691  144.5204  159.4839 H   0  0  0  0  0  0  0  0  0  0  0  0
  151.8011  144.4213  162.0577 H   0  0  0  0  0  0  0  0  0  0  0  0
  152.8644  142.6931  163.5291 H   0  0  0  0  0  0  0  0  0  0  0  0
  154.1000  140.7874  162.4566 H   0  0  0  0  0  0  0  0  0  0  0  0
  154.2170  140.6933  159.9526 H   0  0  0  0  0  0  0  0  0  0  0  0
  148.4028  141.2859  158.1967 H   0  0  0  0  0  0  0  0  0  0  0  0
  149.2318  139.9070  157.5059 H   0  0  0  0  0  0  0  0  0  0  0  0
  1  2  1  0  0  0  0
  1 22  1  0  0  0  0
  1 23  1  0  0  0  0
  1 24  1  0  0  0  0
  2  3  2  0  0  0  0
  2  4  2  0  0  0  0
  2  5  1  0  0  0  0
  5 21  1  0  0  0  0
  5  6  1  0  0  0  0
  6  7  1  0  0  0  0
  6 25  1  0  0  0  0
  6 26  1  0  0  0  0
  7  8  1  0  0  0  0
  7 27  1  0  0  0  0
  7 28  1  0  0  0  0
  8  9  1  0  0  0  0
  8 29  1  0  0  0  0
  8 30  1  0  0  0  0
  9 10  1  0  0  0  0
  9 21  1  0  0  0  0
  9 31  1  0  0  0  0
 10 11  2  0  0  0  0
 10 12  1  0  0  0  0
 12 13  1  0  0  0  0
 12 32  1  0  0  0  0
 13 14  1  0  0  0  0
 13 33  1  0  0  0  0
 13 34  1  0  0  0  0
 14 15  1  0  0  0  0
 14 35  1  0  0  0  0
 14 36  1  0  0  0  0
 15 20  1  0  0  0  0
 15 16  2  0  0  0  0
 16 17  1  0  0  0  0
 16 37  1  0  0  0  0
 17 18  2  0  0  0  0
 17 38  1  0  0  0  0
 18 19  1  0  0  0  0
 18 39  1  0  0  0  0
 19 20  2  0  0  0  0
 19 40  1  0  0  0  0
 21 41  1  0  0  0  0
 21 42  1  0  0  0  0
M  END
> <s_m_source_file>
AV-unprocessed.smi

> <i_m_source_file_index>
2149

> <i_lp_mmshare_version>
43012

> <i_f3d_flags>
0

> <s_epik_input>
W0NIM11TKD1PKSg9TylOMVtDSDJdW0NIMl1bQ0gyXVtDQEhdKFtDSDJdMSlDKD1PKVtOSF1bQ0gyXVtDSDJdYzJbY0hdW2NIXVtjSF1bY0hdbjI=

> <s_epik_cmdline>
J2VwaWtfcHl0aG9uJywgJy1waCcsICc3LjAnLCAnLXRuJywgJzgnLCAnLW1hJywgJzIwMCcsICctbWV0YWxfYmluZGluZycsICctaW1hZScsICc8aW5maWxlLm1hZT4nLCAnLW9tYWUnLCAnPG91dGZpbGUubWFlPic=

> <r_epik_Ionization_Penalty>
0.0273806

> <r_epik_Ionization_Penalty_Charging>
0

> <r_epik_Ionization_Penalty_Neutral>
0.0273806

> <r_epik_State_Penalty>
0.0224071

> <r_epik_Charging_Adjusted_Penalty>
0.0224071

> <i_epik_Tot_Q>
0

> <i_epik_Tot_abs_Q>
0

> <r_epik_Metal_State_Penalty>
0.0214134

> <b_epik_Metal_Only>
0

> <s_lp_Force_Field>
OPLS_2005

> <r_lp_Energy>
5.16122

> <b_lp_Chiralities_Consistent>
1

> <s_lp_Variant>
AV-unprocessed.smi:2149-2

> <Gold.Version>
5.8.1

> <Gold.Id.Protein>
6NUR|6NUR_protein|mol2

> <Gold.PLP.Fitness>
47.3051

> <Gold.PLP.PLP>
-44.3843

> <Gold.PLP.part.hbond>
-2.0000

> <Gold.PLP.part.metal>
0.0000

> <Gold.PLP.part.buried>
-4.4895

> <Gold.PLP.part.nonpolar>
-37.4921

> <Gold.PLP.part.repulsive>
0.0437

> <Gold.PLP.ligand.clash>
0.0000

> <Gold.PLP.ligand.torsion>
0.9015

> <Gold.PLP.Chemscore.Hbond>
1.3120

> <Gold.PLP.Chemscore.CHOScore>
0.0000

> <Gold.PLP.Chemscore.Metal>
0.0000

> <Gold.Chemscore.Hbonds>
donor molecule, donor type, donor heavy atom, donor atom, acceptor molecule, acceptor atom, score
      L1  H    12    32       P1  8028  1.00
      P1  H  6934  6946       L1     4  0.22

> <Gold.PLP.Chemscore.Internal.Correction>
0.7878

> <Gold.Rescore>
     Score         DG    S(hbond)    S(metal)    S(lipo)     H(rot)  DE(clash)    DE(int)     intcor
     17.57     -18.69       1.52        0.00     109.90       1.84       0.14       0.98       ----

> <Gold.Chemscore.Fitness>
17.5710

> <Gold.Chemscore.DG>
-18.6935

> <Gold.Chemscore.ZeroCoef>
-5.4800

> <Gold.Chemscore.Hbond>
1.5181

> <Gold.Chemscore.Metal>
0.0000

> <Gold.Chemscore.Lipo>
109.9021

> <Gold.Chemscore.Internal_Hbond>
0.0000

> <Gold.Chemscore.DEClash>
0.1409

> <Gold.Chemscore.DEInternal>
0.9816

> <Gold.Chemscore.Rot>
1.8419

> <Gold.Chemscore.Internal.Correction>
   9.000000E+99

> <Gold.Chemscore.Hbonds>
donor molecule, donor type, donor heavy atom, donor atom, acceptor molecule, acceptor atom, score
      L1  H    12    32       P1  8028  0.97
      P1  H  6934  6946       L1     4  0.23

> <Gold.Chemscore.Hbond.Weighted>
-5.0703

> <Gold.Chemscore.Metal.Weighted>
-0.0000

> <Gold.Chemscore.Lipo.Weighted>
-12.8585

> <Gold.Chemscore.Internal_Hbond.Weighted>
0.0000

> <Gold.Chemscore.DEClash.Weighted>
0.1409

> <Gold.Chemscore.DEInternal.Weighted>
0.9816

> <Gold.Chemscore.Rot.Weighted>
4.7153

> <Gold.Chemscore.Internal.Correction.Weighted>
   9.000000E+99

> <Gold.Protein.RotatedTorsions>
[ 6907 6896 6895 6894 ] final  -43.54 input  -60.11 | X-H torsion
[ 7974 7965 7964 7962 ] final  125.87 input  175.53 | X-H torsion
[ 8008 7997 7996 7995 ] final  171.61 input   59.86 | X-H torsion
[ 10167 10162 10161 10158 ] final  -15.44 input  -65.29 | X-H torsion
[ 10718 10713 10712 10709 ] final -128.01 input   66.30 | X-H torsion
[ 10763 10752 10751 10750 ] final -149.41 input  -60.55 | X-H torsion
[ 11005 11000 10999 10996 ] final   83.15 input  -57.11 | X-H torsion

> <Gold.Protein.ActiveResidues>
 VAL166  LYS551  ARG553  GLY616  TRP617  ASP618  TYR619  PRO620  LYS621  CYS622 
 ASP623  PHE694  ASN695  SER759  ASP760  ASP761  ALA762  ILE779  LEU786  VAL792 
 PHE793  MET794  SER795  GLU796  ALA797  LYS798  CYS799  TRP800  GLU811  SER814 

> <Gold.Protein.RotatedAtoms>
  150.9427  134.8835  159.7622 H   0  0  0  0  0  0  0  0  0  0  0  0  # atno 6907 bound_to 6896
  152.5087  134.3918  159.9396 H   0  0  0  0  0  0  0  0  0  0  0  0  # atno 6908 bound_to 6896
  151.3938  133.3740  159.2759 H   0  0  0  0  0  0  0  0  0  0  0  0  # atno 6909 bound_to 6896
  145.0682  139.3751  143.4971 H   0  0  0  0  0  0  0  0  0  0  0  0  # atno 7974 bound_to 7965
  156.1254  140.1507  156.9144 H   0  0  0  0  0  0  0  0  0  0  0  0  # atno 8008 bound_to 7997
  154.4867  140.0863  156.7544 H   0  0  0  0  0  0  0  0  0  0  0  0  # atno 8009 bound_to 7997
  155.4353  140.3429  155.4286 H   0  0  0  0  0  0  0  0  0  0  0  0  # atno 8010 bound_to 7997
  140.7218  143.5217  150.9625 H   0  0  0  0  0  0  0  0  0  0  0  0  # atno 10167 bound_to 10162
  156.1910  130.6795  151.0424 H   0  0  0  0  0  0  0  0  0  0  0  0  # atno 10718 bound_to 10713
  154.8178  135.3310  154.7125 H   0  0  0  0  0  0  0  0  0  0  0  0  # atno 10763 bound_to 10752
  153.7763  135.6922  153.4901 H   0  0  0  0  0  0  0  0  0  0  0  0  # atno 10764 bound_to 10752
  153.2011  135.4516  155.0215 H   0  0  0  0  0  0  0  0  0  0  0  0  # atno 10765 bound_to 10752
  139.9040  134.8124  156.2270 H   0  0  0  0  0  0  0  0  0  0  0  0  # atno 11005 bound_to 11000
  146.3527  140.0413  142.8643 LP  0  0  0  0  0  0  0  0  0  0  0  0  # atno 17320 bound_to 7965
  145.1325  140.9526  143.4536 LP  0  0  0  0  0  0  0  0  0  0  0  0  # atno 17321 bound_to 7965
  139.8935  143.6924  152.3142 LP  0  0  0  0  0  0  0  0  0  0  0  0  # atno 17342 bound_to 10162
  139.7248  144.7595  151.0897 LP  0  0  0  0  0  0  0  0  0  0  0  0  # atno 17343 bound_to 10162
  157.6929  131.0804  150.7055 LP  0  0  0  0  0  0  0  0  0  0  0  0  # atno 17370 bound_to 10713
  156.7111  130.4652  149.5547 LP  0  0  0  0  0  0  0  0  0  0  0  0  # atno 17371 bound_to 10713
  141.0369  133.6958  156.1529 LP  0  0  0  0  0  0  0  0  0  0  0  0  # atno 17394 bound_to 11000
  140.7013  134.4561  157.5586 LP  0  0  0  0  0  0  0  0  0  0  0  0  # atno 17395 bound_to 11000

$$$$
