#       Name:                AV-unprocessed.smi:1050
#       Creating user name   scv26
#       Creation time:       Fri Mar 27 03:11:05 2020


#       File generated by GOLD software.
#

@<TRIPOS>MOLECULE
AV-unprocessed.smi:1050
    58    59     1
SMALL
NO_CHARGES


@<TRIPOS>ATOM
      1 ****        -5.2228  -0.5802   0.3420 C.3            1 S1                 0.0000
      2 ****        -4.5827  -1.8102   0.0196 O.3            1 S1                 0.0000
      3 ****        -3.2069  -1.8228  -0.0865 C.ar           1 S1                 0.0000
      4 ****        -2.5648  -3.0302  -0.4146 C.ar           1 S1                 0.0000
      5 ****        -1.1626  -3.0438  -0.5233 C.ar           1 S1                 0.0000
      6 ****        -0.4392  -1.8449  -0.3121 C.ar           1 S1                 0.0000
      7 ****         0.9835  -1.7768  -0.3638 N.am           1 S1                 0.0000
      8 ****         1.8503  -2.5776  -1.0101 C.2            1 S1                 0.0000
      9 ****         1.5303  -3.5544  -1.6870 O.2            1 S1                 0.0000
     10 ****         3.3341  -2.1965  -0.8708 C.3            1 S1                 0.0000
     11 ****         4.0608  -2.2470  -2.2237 C.3            1 S1                 0.0000
     12 ****         3.9998  -3.0970   0.0110 O.3            1 S1                 0.0000
     13 ****         3.6669  -2.9583   1.3867 C.3            1 S1                 0.0000
     14 ****        -1.1726  -0.6776   0.0289 C.ar           1 S1                 0.0000
     15 ****        -0.5083   0.5435   0.2559 N.3            1 S1                 0.0000
     16 ****        -1.0604   1.4073   1.3014 C.3            1 S1                 0.0000
     17 ****        -0.1129   2.5884   1.5794 C.3            1 S1                 0.0000
     18 ****         0.1351   3.2977   0.3172 N.am           1 S1                 0.0000
     19 ****        -0.3070   4.5412   0.0135 C.2            1 S1                 0.0000
     20 ****        -1.0692   5.3427   1.0709 C.3            1 S1                 0.0000
     21 ****        -0.1231   5.0620  -1.0865 O.2            1 S1                 0.0000
     22 ****         0.8074   2.4287  -0.6578 C.3            1 S1                 0.0000
     23 ****        -0.1049   1.2271  -0.9734 C.3            1 S1                 0.0000
     24 ****        -2.5230  -0.6750   0.1334 N.ar           1 S1                 0.0000
     25 ****        -6.3007  -0.7348   0.3852 H              1 S1                 0.0000
     26 ****        -5.0278   0.1812  -0.4147 H              1 S1                 0.0000
     27 ****        -4.9026  -0.2070   1.3161 H              1 S1                 0.0000
     28 ****        -3.1364  -3.9327  -0.5735 H              1 S1                 0.0000
     29 ****        -0.6730  -3.9779  -0.7487 H              1 S1                 0.0000
     30 ****         1.3885  -0.9703   0.0895 H              1 S1                 0.0000
     31 ****         3.4179  -1.1801  -0.4806 H              1 S1                 0.0000
     32 ****         3.5883  -1.5864  -2.9517 H              1 S1                 0.0000
     33 ****         4.0686  -3.2553  -2.6399 H              1 S1                 0.0000
     34 ****         5.0982  -1.9294  -2.1164 H              1 S1                 0.0000
     35 ****         4.2848  -3.6349   1.9769 H              1 S1                 0.0000
     36 ****         2.6244  -3.2087   1.5853 H              1 S1                 0.0000
     37 ****         3.8563  -1.9430   1.7372 H              1 S1                 0.0000
     38 ****        -2.0362   1.7848   0.9920 H              1 S1                 0.0000
     39 ****        -1.2117   0.8278   2.2129 H              1 S1                 0.0000
     40 ****        -0.5287   3.2181   2.3644 H              1 S1                 0.0000
     41 ****         0.8360   2.2199   1.9726 H              1 S1                 0.0000
     42 ****        -1.9654   4.8095   1.3900 H              1 S1                 0.0000
     43 ****        -1.3822   6.3077   0.6707 H              1 S1                 0.0000
     44 ****        -0.4391   5.5317   1.9403 H              1 S1                 0.0000
     45 ****         1.0664   2.9471  -1.5818 H              1 S1                 0.0000
     46 ****         1.7518   2.0812  -0.2362 H              1 S1                 0.0000
     47 ****         0.4122   0.5398  -1.6431 H              1 S1                 0.0000
     48 ****        -0.9986   1.5663  -1.4991 H              1 S1                 0.0000
     49 ****        -4.9503  -2.1140  -0.8593 LP             1 S1                 0.0000
     50 ****        -4.8310  -2.4685   0.7303 LP             1 S1                 0.0000
     51 ****         0.5660  -3.8001  -1.7857 LP             1 S1                 0.0000
     52 ****         2.2347  -4.1024  -2.1382 LP             1 S1                 0.0000
     53 ****         4.9846  -2.9517  -0.0846 LP             1 S1                 0.0000
     54 ****         3.7717  -4.0293  -0.2695 LP             1 S1                 0.0000
     55 ****         0.3488   0.2591   0.6855 LP             1 S1                 0.0000
     56 ****         0.3706   4.5638  -1.7993 LP             1 S1                 0.0000
     57 ****        -0.4673   5.9833  -1.2673 LP             1 S1                 0.0000
     58 ****        -3.0097   0.1657   0.3705 LP             1 S1                 0.0000
@<TRIPOS>BOND
    1    1    2 1     
    2    1   25 1     
    3    1   26 1     
    4    1   27 1     
    5    2    3 1     
    6    3   24 ar    
    7    3    4 ar    
    8    4    5 ar    
    9    4   28 1     
   10    5    6 ar    
   11    5   29 1     
   12    6    7 1     
   13    6   14 ar    
   14    7    8 am    
   15    7   30 1     
   16    8    9 2     
   17    8   10 1     
   18   10   11 1     
   19   10   12 1     
   20   10   31 1     
   21   11   32 1     
   22   11   33 1     
   23   11   34 1     
   24   12   13 1     
   25   13   35 1     
   26   13   36 1     
   27   13   37 1     
   28   14   15 1     
   29   14   24 ar    
   30   15   23 1     
   31   15   16 1     
   32   16   17 1     
   33   16   38 1     
   34   16   39 1     
   35   17   18 1     
   36   17   40 1     
   37   17   41 1     
   38   18   19 am    
   39   18   22 1     
   40   19   20 1     
   41   19   21 2     
   42   20   42 1     
   43   20   43 1     
   44   20   44 1     
   45   22   23 1     
   46   22   45 1     
   47   22   46 1     
   48   23   47 1     
   49   23   48 1     
   50    2   49 1     
   51    2   50 1     
   52    9   51 1     
   53    9   52 1     
   54   12   53 1     
   55   12   54 1     
   56   15   55 1     
   57   21   56 1     
   58   21   57 1     
   59   24   58 1     
@<TRIPOS>SUBSTRUCTURE
      1 S1             1
@<TRIPOS>SET
LONE_PAIRS      STATIC     ATOMS    <user>   **** ""
10 49 50 51 52 53 54 55 56 57 58
DONOR_HYDROGENS      STATIC     ATOMS    <user>   **** ""
1 30
ATOM$BLUE        STATIC     ATOMS    COLORGROUP SYSTEM
10 49 50 51 52 53 54 55 56 57 58
ATOM$RED        STATIC     ATOMS    COLORGROUP SYSTEM
1 30
