AV-unprocessed.smi:1578|AV-procd|sdf|6353|dock9
  -GOLD-   22720 6573D 1   1.00000     0.00000
 Structure written by MMmdl.
 45 46  0  0  0  0  0  0  0  0  2 V2000
  146.4496  142.5298  154.5164 C   0  0  0  0  0  0  0  0  0  0  0  0
  147.2758  141.2440  154.3789 C   0  0  1  0  0  0  0  0  0  0  0  0
  147.0854  140.5960  152.9870 C   0  0  0  0  0  0  0  0  0  0  0  0
  146.2176  139.3902  153.0140 N   0  3  0  0  0  0  0  0  0  0  0  0
  146.4663  138.4562  151.8896 C   0  0  0  0  0  0  0  0  0  0  0  0
  145.4709  137.2863  151.9460 C   0  0  0  0  0  0  0  0  0  0  0  0
  145.6007  136.6175  153.1945 O   0  0  0  0  0  0  0  0  0  0  0  0
  145.2976  137.4713  154.2910 C   0  0  0  0  0  0  0  0  0  0  0  0
  146.2666  138.6673  154.3068 C   0  0  0  0  0  0  0  0  0  0  0  0
  148.6857  141.5486  154.6219 N   0  0  0  0  0  0  0  0  0  0  0  0
  149.3263  141.4301  155.7956 C   0  0  0  0  0  0  0  0  0  0  0  0
  148.7682  141.1102  156.8450 O   0  0  0  0  0  0  0  0  0  0  0  0
  150.8370  141.6913  155.7733 C   0  0  0  0  0  0  0  0  0  0  0  0
  151.4037  141.7880  157.1293 N   0  0  0  0  0  0  0  0  0  0  0  0
  151.1411  142.9644  157.8580 C   0  0  0  0  0  0  0  0  0  0  0  0
  151.6030  143.1717  159.1056 C   0  0  0  0  0  0  0  0  0  0  0  0
  151.2804  144.4515  159.8603 C   0  0  0  0  0  0  0  0  0  0  0  0
  149.9652  144.6340  159.9773 F   0  0  0  0  0  0  0  0  0  0  0  0
  151.8080  144.4067  161.0831 F   0  0  0  0  0  0  0  0  0  0  0  0
  151.7964  145.5054  159.2279 F   0  0  0  0  0  0  0  0  0  0  0  0
  152.3928  142.1042  159.6892 C   0  0  0  0  0  0  0  0  0  0  0  0
  152.6490  140.9706  159.0077 C   0  0  0  0  0  0  0  0  0  0  0  0
  152.1462  140.7633  157.6483 C   0  0  0  0  0  0  0  0  0  0  0  0
  152.3716  139.7302  157.0164 O   0  0  0  0  0  0  0  0  0  0  0  0
  145.3884  142.3307  154.3645 H   0  0  0  0  0  0  0  0  0  0  0  0
  146.7549  143.2802  153.7861 H   0  0  0  0  0  0  0  0  0  0  0  0
  146.5631  142.9660  155.5094 H   0  0  0  0  0  0  0  0  0  0  0  0
  146.9154  140.5551  155.1439 H   0  0  0  0  0  0  0  0  0  0  0  0
  146.6887  141.3202  152.2736 H   0  0  0  0  0  0  0  0  0  0  0  0
  148.0694  140.3094  152.6123 H   0  0  0  0  0  0  0  0  0  0  0  0
  146.3673  138.9710  150.9347 H   0  0  0  0  0  0  0  0  0  0  0  0
  147.4890  138.0796  151.9428 H   0  0  0  0  0  0  0  0  0  0  0  0
  144.4468  137.6384  151.8090 H   0  0  0  0  0  0  0  0  0  0  0  0
  145.6760  136.5788  151.1425 H   0  0  0  0  0  0  0  0  0  0  0  0
  144.2618  137.8059  154.2251 H   0  0  0  0  0  0  0  0  0  0  0  0
  145.3883  136.9030  155.2168 H   0  0  0  0  0  0  0  0  0  0  0  0
  147.2847  138.3231  154.4953 H   0  0  0  0  0  0  0  0  0  0  0  0
  145.9981  139.3423  155.1202 H   0  0  0  0  0  0  0  0  0  0  0  0
  149.2301  141.8318  153.8196 H   0  0  0  0  0  0  0  0  0  0  0  0
  151.3481  140.9009  155.2194 H   0  0  0  0  0  0  0  0  0  0  0  0
  151.0145  142.6046  155.2042 H   0  0  0  0  0  0  0  0  0  0  0  0
  150.5329  143.6927  157.3413 H   0  0  0  0  0  0  0  0  0  0  0  0
  152.7875  142.2119  160.6886 H   0  0  0  0  0  0  0  0  0  0  0  0
  153.2405  140.1960  159.4732 H   0  0  0  0  0  0  0  0  0  0  0  0
  145.2684  139.7224  152.9159 H   0  0  0  0  0  0  0  0  0  0  0  0
  1  2  1  0  0  0  0
  1 25  1  0  0  0  0
  1 26  1  0  0  0  0
  1 27  1  0  0  0  0
  2  3  1  0  0  0  0
  2 10  1  0  0  0  0
  2 28  1  0  0  0  0
  3  4  1  0  0  0  0
  3 29  1  0  0  0  0
  3 30  1  0  0  0  0
  4  9  1  0  0  0  0
  4  5  1  0  0  0  0
  4 45  1  0  0  0  0
  5  6  1  0  0  0  0
  5 31  1  0  0  0  0
  5 32  1  0  0  0  0
  6  7  1  0  0  0  0
  6 33  1  0  0  0  0
  6 34  1  0  0  0  0
  7  8  1  0  0  0  0
  8  9  1  0  0  0  0
  8 35  1  0  0  0  0
  8 36  1  0  0  0  0
  9 37  1  0  0  0  0
  9 38  1  0  0  0  0
 10 11  1  0  0  0  0
 10 39  1  0  0  0  0
 11 12  2  0  0  0  0
 11 13  1  0  0  0  0
 13 14  1  0  0  0  0
 13 40  1  0  0  0  0
 13 41  1  0  0  0  0
 14 23  1  0  0  0  0
 14 15  1  0  0  0  0
 15 16  2  0  0  0  0
 15 42  1  0  0  0  0
 16 17  1  0  0  0  0
 16 21  1  0  0  0  0
 17 18  1  0  0  0  0
 17 19  1  0  0  0  0
 17 20  1  0  0  0  0
 21 22  2  0  0  0  0
 21 43  1  0  0  0  0
 22 23  1  0  0  0  0
 22 44  1  0  0  0  0
 23 24  2  0  0  0  0
M  CHG  1   4   1
M  END
> <s_m_source_file>
AV-unprocessed.smi

> <i_m_source_file_index>
1578

> <i_lp_mmshare_version>
43012

> <i_f3d_flags>
0

> <s_epik_input>
W0NIMl0xW0NIMl1PW0NIMl1bQ0gyXU4xW0NIMl1bQ0BASF0oW0NIM10pW05IXUMoPU8pW0NIMl1uMltjSF1jKEMoRikoRilGKVtjSF1bY0hdYzI9Tw==

> <s_epik_cmdline>
J2VwaWtfcHl0aG9uJywgJy1waCcsICc3LjAnLCAnLXRuJywgJzgnLCAnLW1hJywgJzIwMCcsICctbWV0YWxfYmluZGluZycsICctaW1hZScsICc8aW5maWxlLm1hZT4nLCAnLW9tYWUnLCAnPG91dGZpbGUubWFlPic=

> <r_lp_tautomer_probability>
1

> <r_epik_Ionization_Penalty>
0.656654

> <r_epik_Ionization_Penalty_Charging>
0.656653

> <r_epik_Ionization_Penalty_Neutral>
9.12373e-08

> <r_epik_State_Penalty>
0.675641

> <r_epik_Charging_Adjusted_Penalty>
1.33229

> <i_epik_Tot_Q>
1

> <i_epik_Tot_abs_Q>
1

> <r_epik_Metal_State_Penalty>
0.675695

> <b_epik_Metal_Only>
0

> <s_lp_Force_Field>
OPLS_2005

> <r_lp_Energy>
32.4409

> <b_lp_Chiralities_Consistent>
1

> <s_lp_Variant>
AV-unprocessed.smi:1578-4

> <Gold.Version>
5.8.1

> <Gold.Id.Protein>
6NUR|6NUR_protein|mol2

> <Gold.PLP.Fitness>
55.3702

> <Gold.PLP.PLP>
-46.9292

> <Gold.PLP.part.hbond>
-2.0940

> <Gold.PLP.part.metal>
0.0000

> <Gold.PLP.part.buried>
-4.2247

> <Gold.PLP.part.nonpolar>
-39.9698

> <Gold.PLP.part.repulsive>
0.3711

> <Gold.PLP.ligand.clash>
0.0000

> <Gold.PLP.ligand.torsion>
1.6290

> <Gold.PLP.Chemscore.Hbond>
3.0000

> <Gold.PLP.Chemscore.CHOScore>
0.8372

> <Gold.PLP.Chemscore.Metal>
0.0000

> <Gold.Chemscore.Hbonds>
donor molecule, donor type, donor heavy atom, donor atom, acceptor molecule, acceptor atom, score
      L1  H     4    45       P1 10175  2.00
      P1  H  7997  8010       L1    24  0.82
      L1  C    15    42       P1  8028  0.95

> <Gold.PLP.Chemscore.Internal.Correction>
0.1875

> <Gold.Rescore>
     Score         DG    S(hbond)    S(metal)    S(lipo)     H(rot)  DE(clash)    DE(int)     intcor
     15.24     -17.05       1.78        0.00      95.73       2.17       0.31       1.51       ----

> <Gold.Chemscore.Fitness>
15.2376

> <Gold.Chemscore.DG>
-17.0534

> <Gold.Chemscore.ZeroCoef>
-5.4800

> <Gold.Chemscore.Hbond>
1.7760

> <Gold.Chemscore.Metal>
0.0000

> <Gold.Chemscore.Lipo>
95.7337

> <Gold.Chemscore.Internal_Hbond>
0.0000

> <Gold.Chemscore.DEClash>
0.3073

> <Gold.Chemscore.DEInternal>
1.5086

> <Gold.Chemscore.Rot>
2.1716

> <Gold.Chemscore.Internal.Correction>
   9.000000E+99

> <Gold.Chemscore.Hbonds>
donor molecule, donor type, donor heavy atom, donor atom, acceptor molecule, acceptor atom, score
      L1  H     4    45       P1 10175  1.00
      P1  H  7997  8010       L1    24  0.16

> <Gold.Chemscore.Hbond.Weighted>
-5.9318

> <Gold.Chemscore.Metal.Weighted>
-0.0000

> <Gold.Chemscore.Lipo.Weighted>
-11.2008

> <Gold.Chemscore.Internal_Hbond.Weighted>
0.0000

> <Gold.Chemscore.DEClash.Weighted>
0.3073

> <Gold.Chemscore.DEInternal.Weighted>
1.5086

> <Gold.Chemscore.Rot.Weighted>
5.5592

> <Gold.Chemscore.Internal.Correction.Weighted>
   9.000000E+99

> <Gold.Protein.RotatedTorsions>
[ 6907 6896 6895 6894 ] final   94.41 input  -60.11 | X-H torsion
[ 7974 7965 7964 7962 ] final -102.50 input  175.53 | X-H torsion
[ 8008 7997 7996 7995 ] final   64.75 input   59.86 | X-H torsion
[ 10167 10162 10161 10158 ] final   97.03 input  -65.29 | X-H torsion
[ 10718 10713 10712 10709 ] final   79.41 input   66.30 | X-H torsion
[ 10763 10752 10751 10750 ] final  162.14 input  -60.55 | X-H torsion
[ 11005 11000 10999 10996 ] final  149.85 input  -57.11 | X-H torsion

> <Gold.Protein.ActiveResidues>
 VAL166  LYS551  ARG553  GLY616  TRP617  ASP618  TYR619  PRO620  LYS621  CYS622 
 ASP623  PHE694  ASN695  SER759  ASP760  ASP761  ALA762  ILE779  LEU786  VAL792 
 PHE793  MET794  SER795  GLU796  ALA797  LYS798  CYS799  TRP800  GLU811  SER814 

> <Gold.Protein.RotatedAtoms>
  152.5449  134.1197  159.8393 H   0  0  0  0  0  0  0  0  0  0  0  0  # atno 6907 bound_to 6896
  151.1255  133.5067  159.2608 H   0  0  0  0  0  0  0  0  0  0  0  0  # atno 6908 bound_to 6896
  151.1733  135.0337  159.8815 H   0  0  0  0  0  0  0  0  0  0  0  0  # atno 6909 bound_to 6896
  145.2679  140.9289  143.3003 H   0  0  0  0  0  0  0  0  0  0  0  0  # atno 7974 bound_to 7965
  155.6509  140.3497  155.4748 H   0  0  0  0  0  0  0  0  0  0  0  0  # atno 8008 bound_to 7997
  155.9849  140.1182  157.0716 H   0  0  0  0  0  0  0  0  0  0  0  0  # atno 8009 bound_to 7997
  154.4202  140.1131  156.5472 H   0  0  0  0  0  0  0  0  0  0  0  0  # atno 8010 bound_to 7997
  139.7839  144.6878  150.9984 H   0  0  0  0  0  0  0  0  0  0  0  0  # atno 10167 bound_to 10162
  157.6776  130.9913  150.1929 H   0  0  0  0  0  0  0  0  0  0  0  0  # atno 10718 bound_to 10713
  154.2738  135.2765  155.2727 H   0  0  0  0  0  0  0  0  0  0  0  0  # atno 10763 bound_to 10752
  154.5278  135.5738  153.6737 H   0  0  0  0  0  0  0  0  0  0  0  0  # atno 10764 bound_to 10752
  152.9940  135.6220  154.2894 H   0  0  0  0  0  0  0  0  0  0  0  0  # atno 10765 bound_to 10752
  140.1080  134.8942  157.1894 H   0  0  0  0  0  0  0  0  0  0  0  0  # atno 11005 bound_to 11000
  144.9361  139.4242  143.6471 LP  0  0  0  0  0  0  0  0  0  0  0  0  # atno 17320 bound_to 7965
  146.3255  139.8297  142.8911 LP  0  0  0  0  0  0  0  0  0  0  0  0  # atno 17321 bound_to 7965
  140.7819  143.4453  151.0492 LP  0  0  0  0  0  0  0  0  0  0  0  0  # atno 17342 bound_to 10162
  139.8132  143.7922  152.3172 LP  0  0  0  0  0  0  0  0  0  0  0  0  # atno 17343 bound_to 10162
  156.2636  130.3713  149.8104 LP  0  0  0  0  0  0  0  0  0  0  0  0  # atno 17370 bound_to 10713
  156.5842  130.8479  151.3391 LP  0  0  0  0  0  0  0  0  0  0  0  0  # atno 17371 bound_to 10713
  140.3130  134.3003  155.7262 LP  0  0  0  0  0  0  0  0  0  0  0  0  # atno 17394 bound_to 11000
  141.2123  133.7662  156.9803 LP  0  0  0  0  0  0  0  0  0  0  0  0  # atno 17395 bound_to 11000

$$$$
