#       Name:                AV-unprocessed.smi:2627
#       Creating user name   scv26
#       Creation time:       Fri Mar 27 14:24:45 2020


#       File generated by GOLD software.
#

@<TRIPOS>MOLECULE
AV-unprocessed.smi:2627
    44    46     1
SMALL
NO_CHARGES


@<TRIPOS>ATOM
      1 ****        -0.9809   2.9693   2.7356 C.3            1 S1                 0.0000
      2 ****        -1.2166   2.4572   1.3086 C.3            1 S1                 0.0000
      3 ****        -2.0348   3.3927   0.6349 O.3            1 S1                 0.0000
      4 ****        -1.8041   1.0718   1.3010 C.2            1 S1                 0.0000
      5 ****        -3.1173   0.8550   1.4070 N.2            1 S1                 0.0000
      6 ****        -3.2062  -0.5222   1.3656 C.ar           1 S1                 0.0000
      7 ****        -4.3340  -1.3718   1.4227 C.ar           1 S1                 0.0000
      8 ****        -4.1769  -2.7718   1.3575 C.ar           1 S1                 0.0000
      9 ****        -2.8927  -3.3408   1.2350 C.ar           1 S1                 0.0000
     10 ****        -1.7557  -2.5119   1.1783 C.ar           1 S1                 0.0000
     11 ****        -1.9183  -1.1151   1.2441 C.ar           1 S1                 0.0000
     12 ****        -1.0325  -0.0427   1.2173 N.pl3          1 S1                 0.0000
     13 ****         0.4152  -0.1347   1.1114 C.3            1 S1                 0.0000
     14 ****         0.8739  -0.1164  -0.3515 C.3            1 S1                 0.0000
     15 ****         2.2933  -0.1533  -0.3808 O.3            1 S1                 0.0000
     16 ****         2.9198  -0.1344  -1.6085 C.ar           1 S1                 0.0000
     17 ****         4.3302  -0.1307  -1.6067 C.ar           1 S1                 0.0000
     18 ****         5.0530  -0.1112  -2.8150 C.ar           1 S1                 0.0000
     19 ****         4.3681  -0.0965  -4.0439 C.ar           1 S1                 0.0000
     20 ****         2.9609  -0.1014  -4.0611 C.ar           1 S1                 0.0000
     21 ****         2.2380  -0.1200  -2.8522 C.ar           1 S1                 0.0000
     22 ****        -0.3103   2.3068   3.2834 H              1 S1                 0.0000
     23 ****        -1.9158   3.0311   3.2940 H              1 S1                 0.0000
     24 ****        -0.5302   3.9622   2.7289 H              1 S1                 0.0000
     25 ****        -0.2685   2.4501   0.7723 H              1 S1                 0.0000
     26 ****        -2.1390   3.1082  -0.2601 H              1 S1                 0.0000
     27 ****        -5.3218  -0.9453   1.5149 H              1 S1                 0.0000
     28 ****        -5.0459  -3.4119   1.4005 H              1 S1                 0.0000
     29 ****        -2.7811  -4.4141   1.1842 H              1 S1                 0.0000
     30 ****        -0.7709  -2.9450   1.0837 H              1 S1                 0.0000
     31 ****         0.8728   0.6798   1.6726 H              1 S1                 0.0000
     32 ****         0.7432  -1.0556   1.5942 H              1 S1                 0.0000
     33 ****         0.4608  -0.9796  -0.8757 H              1 S1                 0.0000
     34 ****         0.5123   0.7871  -0.8449 H              1 S1                 0.0000
     35 ****         4.8648  -0.1416  -0.6680 H              1 S1                 0.0000
     36 ****         6.1329  -0.1075  -2.7980 H              1 S1                 0.0000
     37 ****         4.9209  -0.0817  -4.9715 H              1 S1                 0.0000
     38 ****         2.4338  -0.0910  -5.0038 H              1 S1                 0.0000
     39 ****         1.1600  -0.1238  -2.9068 H              1 S1                 0.0000
     40 ****        -1.6032   4.2946   0.6545 LP             1 S1                 0.0000
     41 ****        -2.9290   3.4414   1.0800 LP             1 S1                 0.0000
     42 ****        -3.8546   1.5249   1.4948 LP             1 S1                 0.0000
     43 ****         2.5778  -0.9914   0.0845 LP             1 S1                 0.0000
     44 ****         2.6212   0.6403   0.1318 LP             1 S1                 0.0000
@<TRIPOS>BOND
    1    1    2 1     
    2    1   22 1     
    3    1   23 1     
    4    1   24 1     
    5    2    3 1     
    6    2    4 1     
    7    2   25 1     
    8    3   26 1     
    9    4   12 1     
   10    4    5 2     
   11    5    6 1     
   12    6   11 ar    
   13    6    7 ar    
   14    7    8 ar    
   15    7   27 1     
   16    8    9 ar    
   17    8   28 1     
   18    9   10 ar    
   19    9   29 1     
   20   10   11 ar    
   21   10   30 1     
   22   11   12 1     
   23   12   13 1     
   24   13   14 1     
   25   13   31 1     
   26   13   32 1     
   27   14   15 1     
   28   14   33 1     
   29   14   34 1     
   30   15   16 1     
   31   16   21 ar    
   32   16   17 ar    
   33   17   18 ar    
   34   17   35 1     
   35   18   19 ar    
   36   18   36 1     
   37   19   20 ar    
   38   19   37 1     
   39   20   21 ar    
   40   20   38 1     
   41   21   39 1     
   42    3   40 1     
   43    3   41 1     
   44    5   42 1     
   45   15   43 1     
   46   15   44 1     
@<TRIPOS>SUBSTRUCTURE
      1 S1             1
@<TRIPOS>SET
LONE_PAIRS      STATIC     ATOMS    <user>   **** ""
5 40 41 42 43 44
DONOR_HYDROGENS      STATIC     ATOMS    <user>   **** ""
1 26
ATOM$BLUE        STATIC     ATOMS    COLORGROUP SYSTEM
5 40 41 42 43 44
ATOM$RED        STATIC     ATOMS    COLORGROUP SYSTEM
1 26
