#       Name:                AV-unprocessed.smi:1677
#       Creating user name   scv26
#       Creation time:       Fri Mar 27 07:46:44 2020


#       File generated by GOLD software.
#

@<TRIPOS>MOLECULE
AV-unprocessed.smi:1677
    39    40     1
SMALL
NO_CHARGES


@<TRIPOS>ATOM
      1 ****         0.3028  -2.9510   2.3146 C.3            1 S1                 0.0000
      2 ****         0.5268  -2.2182   0.9850 C.3            1 S1                 0.0000
      3 ****         2.0298  -2.1194   0.6465 C.3            1 S1                 0.0000
      4 ****         2.2776  -1.6339  -0.7155 N.pl3          1 S1                 0.0000
      5 ****         2.1404  -2.3384  -1.8841 C.2            1 S1                 0.0000
      6 ****         2.4664  -1.4772  -2.8999 C.2            1 S1                 0.0000
      7 ****         2.7933  -0.2861  -2.3089 N.pl3          1 S1                 1.0000
      8 ****         2.6823  -0.3846  -0.9803 C.2            1 S1                 0.0000
      9 ****        -0.0796  -0.8904   1.0705 N.am           1 S1                 0.0000
     10 ****        -0.7083  -0.2479   0.0732 C.2            1 S1                 0.0000
     11 ****        -0.8506  -0.7240  -1.0537 O.2            1 S1                 0.0000
     12 ****        -1.2402   1.1547   0.3924 C.3            1 S1                 0.0000
     13 ****        -0.4828   2.2317  -0.4182 C.3            1 S1                 0.0000
     14 ****        -1.1479   3.5935  -0.3226 C.2            1 S1                 0.0000
     15 ****        -2.4052   3.7727   0.1171 C.2            1 S1                 0.0000
     16 ****        -3.3048   2.6339   0.5639 C.3            1 S1                 0.0000
     17 ****        -2.7576   1.2577   0.1401 C.3            1 S1                 0.0000
     18 ****         0.7097  -3.9620   2.2785 H              1 S1                 0.0000
     19 ****        -0.7603  -3.0343   2.5434 H              1 S1                 0.0000
     20 ****         0.7828  -2.4290   3.1433 H              1 S1                 0.0000
     21 ****         0.0269  -2.8018   0.2095 H              1 S1                 0.0000
     22 ****         2.5480  -1.4671   1.3517 H              1 S1                 0.0000
     23 ****         2.4990  -3.1009   0.7230 H              1 S1                 0.0000
     24 ****         1.8222  -3.3706  -1.9055 H              1 S1                 0.0000
     25 ****         2.4887  -1.6187  -3.9706 H              1 S1                 0.0000
     26 ****         2.8703   0.3956  -0.2645 H              1 S1                 0.0000
     27 ****        -0.0168  -0.4216   1.9628 H              1 S1                 0.0000
     28 ****        -1.0711   1.3492   1.4535 H              1 S1                 0.0000
     29 ****         0.5404   2.3182  -0.0506 H              1 S1                 0.0000
     30 ****        -0.4188   1.9634  -1.4737 H              1 S1                 0.0000
     31 ****        -0.5647   4.4448  -0.6418 H              1 S1                 0.0000
     32 ****        -2.8168   4.7697   0.1745 H              1 S1                 0.0000
     33 ****        -3.3993   2.6844   1.6490 H              1 S1                 0.0000
     34 ****        -4.3032   2.7794   0.1510 H              1 S1                 0.0000
     35 ****        -2.9615   1.1060  -0.9212 H              1 S1                 0.0000
     36 ****        -3.2942   0.4707   0.6718 H              1 S1                 0.0000
     37 ****         3.0765   0.5502  -2.8040 H              1 S1                 0.0000
     38 ****        -0.4890  -1.6327  -1.2619 LP             1 S1                 0.0000
     39 ****        -1.3278  -0.2018  -1.7605 LP             1 S1                 0.0000
@<TRIPOS>BOND
    1    1    2 1     
    2    1   18 1     
    3    1   19 1     
    4    1   20 1     
    5    2    3 1     
    6    2    9 1     
    7    2   21 1     
    8    3    4 1     
    9    3   22 1     
   10    3   23 1     
   11    4    8 1     
   12    4    5 1     
   13    5    6 2     
   14    5   24 1     
   15    6    7 1     
   16    6   25 1     
   17    7    8 2     
   18    7   37 1     
   19    8   26 1     
   20    9   10 am    
   21    9   27 1     
   22   10   11 2     
   23   10   12 1     
   24   12   17 1     
   25   12   13 1     
   26   12   28 1     
   27   13   14 1     
   28   13   29 1     
   29   13   30 1     
   30   14   15 2     
   31   14   31 1     
   32   15   16 1     
   33   15   32 1     
   34   16   17 1     
   35   16   33 1     
   36   16   34 1     
   37   17   35 1     
   38   17   36 1     
   39   11   38 1     
   40   11   39 1     
@<TRIPOS>SUBSTRUCTURE
      1 S1             1
@<TRIPOS>SET
LONE_PAIRS      STATIC     ATOMS    <user>   **** ""
2 38 39
DONOR_HYDROGENS      STATIC     ATOMS    <user>   **** ""
2 37 27
ATOM$BLUE        STATIC     ATOMS    COLORGROUP SYSTEM
2 38 39
ATOM$RED        STATIC     ATOMS    COLORGROUP SYSTEM
2 37 27
