AV-unprocessed.smi:17|AV-procd|sdf|102|dock10
  -GOLD-   2262015253D 1   1.00000     0.00000
 Structure written by MMmdl.
 57 59  0  0  0  0  0  0  0  0  1 V2000
  136.6024  137.5228  154.9854 C   0  0  0  0  0  0  0  0  0  0  0  0
  137.9571  137.0660  154.4256 C   0  0  0  0  0  0  0  0  0  0  0  0
  138.9483  138.1459  154.4080 N   0  0  0  0  0  0  0  0  0  0  0  0
  140.2301  137.8438  154.0643 C   0  0  0  0  0  0  0  0  0  0  0  0
  141.1356  138.8569  154.0216 N   0  0  0  0  0  0  0  0  0  0  0  0
  142.4095  138.6188  153.6999 C   0  0  0  0  0  0  0  0  0  0  0  0
  142.9847  137.4599  153.3789 N   0  0  0  0  0  0  0  0  0  0  0  0
  142.0824  136.4387  153.3998 C   0  0  0  0  0  0  0  0  0  0  0  0
  140.6988  136.5384  153.7271 C   0  0  0  0  0  0  0  0  0  0  0  0
  140.1041  135.2855  153.6145 N   0  0  0  0  0  0  0  0  0  0  0  0
  141.0776  134.4936  153.2590 C   0  0  0  0  0  0  0  0  0  0  0  0
  142.2987  135.1051  153.0995 N   0  0  0  0  0  0  0  0  0  0  0  0
  143.5397  134.4640  152.7000 C   0  0  0  0  0  0  0  0  0  0  0  0
  144.0601  134.9516  151.3252 C   0  0  1  0  0  0  0  0  0  0  0  0
  145.4133  135.6971  151.4291 C   0  0  0  0  0  0  0  0  0  0  0  0
  145.2392  137.0215  151.8893 O   0  0  0  0  0  0  0  0  0  0  0  0
  144.1036  133.8012  150.2875 C   0  0  1  0  0  0  0  0  0  0  0  0
  145.3115  132.8871  150.3956 C   0  0  0  0  0  0  0  0  0  0  0  0
  144.8509  131.6616  149.6163 C   0  0  0  0  0  0  0  0  0  0  0  0
  143.4550  131.5572  149.8690 O   0  0  0  0  0  0  0  0  0  0  0  0
  142.9667  132.7801  150.4130 C   0  0  0  0  0  0  0  0  0  0  0  0
  138.6071  139.5004  154.8577 C   0  0  2  0  0  0  0  0  0  0  0  0
  138.9341  140.5468  153.7791 C   0  0  0  0  0  0  0  0  0  0  0  0
  139.2556  139.8609  156.2120 C   0  0  0  0  0  0  0  0  0  0  0  0
  138.4580  139.0145  157.6534 S   0  0  0  0  0  0  0  0  0  0  0  0
  138.8296  137.2395  157.3381 C   0  0  0  0  0  0  0  0  0  0  0  0
  139.1861  139.4085  158.8688 O   0  0  0  0  0  0  0  0  0  0  0  0
  137.0004  139.1995  157.5819 O   0  0  0  0  0  0  0  0  0  0  0  0
  135.8808  136.7062  154.9602 H   0  0  0  0  0  0  0  0  0  0  0  0
  136.1896  138.3472  154.4041 H   0  0  0  0  0  0  0  0  0  0  0  0
  136.6891  137.8538  156.0206 H   0  0  0  0  0  0  0  0  0  0  0  0
  138.3302  136.2166  154.9981 H   0  0  0  0  0  0  0  0  0  0  0  0
  137.8066  136.6932  153.4133 H   0  0  0  0  0  0  0  0  0  0  0  0
  143.0609  139.4802  153.6995 H   0  0  0  0  0  0  0  0  0  0  0  0
  140.9296  133.4365  153.0931 H   0  0  0  0  0  0  0  0  0  0  0  0
  144.2897  134.6371  153.4727 H   0  0  0  0  0  0  0  0  0  0  0  0
  143.3601  133.3890  152.6835 H   0  0  0  0  0  0  0  0  0  0  0  0
  143.3380  135.6833  150.9597 H   0  0  0  0  0  0  0  0  0  0  0  0
  146.0902  135.1794  152.1083 H   0  0  0  0  0  0  0  0  0  0  0  0
  145.9223  135.7251  150.4656 H   0  0  0  0  0  0  0  0  0  0  0  0
  144.5429  137.4241  151.3929 H   0  0  0  0  0  0  0  0  0  0  0  0
  144.0837  134.2179  149.2789 H   0  0  0  0  0  0  0  0  0  0  0  0
  146.2220  133.3226  149.9829 H   0  0  0  0  0  0  0  0  0  0  0  0
  145.4993  132.6208  151.4368 H   0  0  0  0  0  0  0  0  0  0  0  0
  145.0005  131.8138  148.5465 H   0  0  0  0  0  0  0  0  0  0  0  0
  145.3812  130.7546  149.9076 H   0  0  0  0  0  0  0  0  0  0  0  0
  142.7129  132.6074  151.4599 H   0  0  0  0  0  0  0  0  0  0  0  0
  142.0621  133.1027  149.8971 H   0  0  0  0  0  0  0  0  0  0  0  0
  137.5342  139.5610  155.0288 H   0  0  0  0  0  0  0  0  0  0  0  0
  138.5882  141.5365  154.0777 H   0  0  0  0  0  0  0  0  0  0  0  0
  138.4490  140.3030  152.8337 H   0  0  0  0  0  0  0  0  0  0  0  0
  140.0067  140.6143  153.5957 H   0  0  0  0  0  0  0  0  0  0  0  0
  140.3274  139.6676  156.2351 H   0  0  0  0  0  0  0  0  0  0  0  0
  139.1321  140.9301  156.3853 H   0  0  0  0  0  0  0  0  0  0  0  0
  138.4852  136.6456  158.1844 H   0  0  0  0  0  0  0  0  0  0  0  0
  139.9042  137.1049  157.2181 H   0  0  0  0  0  0  0  0  0  0  0  0
  138.3170  136.9022  156.4401 H   0  0  0  0  0  0  0  0  0  0  0  0
  1  2  1  0  0  0  0
  1 29  1  0  0  0  0
  1 30  1  0  0  0  0
  1 31  1  0  0  0  0
  2  3  1  0  0  0  0
  2 32  1  0  0  0  0
  2 33  1  0  0  0  0
  3  4  1  0  0  0  0
  3 22  1  0  0  0  0
  4  9  1  0  0  0  0
  4  5  2  0  0  0  0
  5  6  1  0  0  0  0
  6  7  2  0  0  0  0
  6 34  1  0  0  0  0
  7  8  1  0  0  0  0
  8 12  1  0  0  0  0
  8  9  2  0  0  0  0
  9 10  1  0  0  0  0
 10 11  2  0  0  0  0
 11 12  1  0  0  0  0
 11 35  1  0  0  0  0
 12 13  1  0  0  0  0
 13 14  1  0  0  0  0
 13 36  1  0  0  0  0
 13 37  1  0  0  0  0
 14 15  1  0  0  0  0
 14 17  1  0  0  0  0
 14 38  1  0  0  0  0
 15 16  1  0  0  0  0
 15 39  1  0  0  0  0
 15 40  1  0  0  0  0
 16 41  1  0  0  0  0
 17 21  1  0  0  0  0
 17 18  1  0  0  0  0
 17 42  1  0  0  0  0
 18 19  1  0  0  0  0
 18 43  1  0  0  0  0
 18 44  1  0  0  0  0
 19 20  1  0  0  0  0
 19 45  1  0  0  0  0
 19 46  1  0  0  0  0
 20 21  1  0  0  0  0
 21 47  1  0  0  0  0
 21 48  1  0  0  0  0
 22 23  1  0  0  0  0
 22 24  1  0  0  0  0
 22 49  1  0  0  0  0
 23 50  1  0  0  0  0
 23 51  1  0  0  0  0
 23 52  1  0  0  0  0
 24 25  1  0  0  0  0
 24 53  1  0  0  0  0
 24 54  1  0  0  0  0
 25 26  1  0  0  0  0
 25 27  2  0  0  0  0
 25 28  2  0  0  0  0
 26 55  1  0  0  0  0
 26 56  1  0  0  0  0
 26 57  1  0  0  0  0
M  END
> <s_m_source_file>
AV-unprocessed.smi

> <i_m_source_file_index>
17

> <i_lp_mmshare_version>
43012

> <i_f3d_flags>
0

> <s_epik_input>
W0NIM11TKD1PKSg9TylbQ0gyXVtDQEBIXShbQ0gzXSlOKFtDSDJdW0NIM10pYyhuW2NIXW4xKWMoYzEyKW5bY0hdbjJbQ0gyXVtDQEhdKFtDSDJdW09IXSlbQ0BASF0zW0NIMl1bQ0gyXU9bQ0gyXTM=

> <s_epik_cmdline>
J2VwaWtfcHl0aG9uJywgJy1waCcsICc3LjAnLCAnLXRuJywgJzgnLCAnLW1hJywgJzIwMCcsICctbWV0YWxfYmluZGluZycsICctaW1hZScsICc8aW5maWxlLm1hZT4nLCAnLW9tYWUnLCAnPG91dGZpbGUubWFlPic=

> <r_lp_tautomer_probability>
1

> <r_epik_Ionization_Penalty>
0.00119955

> <r_epik_Ionization_Penalty_Charging>
0

> <r_epik_Ionization_Penalty_Neutral>
0.00119955

> <r_epik_State_Penalty>
0.000665399

> <r_epik_Charging_Adjusted_Penalty>
0.000665399

> <i_epik_Tot_Q>
0

> <i_epik_Tot_abs_Q>
0

> <r_epik_Metal_State_Penalty>
-0

> <b_epik_Metal_Only>
0

> <s_lp_Force_Field>
OPLS_2005

> <r_lp_Energy>
33.4806

> <b_lp_Chiralities_Consistent>
1

> <s_lp_Variant>
AV-unprocessed.smi:17-4

> <Gold.Version>
5.8.1

> <Gold.Id.Protein>
6NUR|6NUR_protein|mol2

> <Gold.PLP.Fitness>
46.7869

> <Gold.PLP.PLP>
-40.3330

> <Gold.PLP.part.hbond>
-3.8236

> <Gold.PLP.part.metal>
0.0000

> <Gold.PLP.part.buried>
-3.2675

> <Gold.PLP.part.nonpolar>
-36.4464

> <Gold.PLP.part.repulsive>
1.5963

> <Gold.PLP.ligand.clash>
0.0000

> <Gold.PLP.ligand.torsion>
1.6701

> <Gold.PLP.Chemscore.Hbond>
2.1174

> <Gold.PLP.Chemscore.CHOScore>
0.9320

> <Gold.PLP.Chemscore.Metal>
0.0000

> <Gold.Chemscore.Hbonds>
donor molecule, donor type, donor heavy atom, donor atom, acceptor molecule, acceptor atom, score
      L1  H    16    41       P1 10171  0.89
      P1  H 10785 10796       L1    20  0.75
      P1  H 11000 11005       L1    10  0.18
      L1  C     6    34       P1 10175  0.04
      L1  C    11    35       P1 10957  0.05

> <Gold.PLP.Chemscore.Internal.Correction>
0.6459

> <Gold.Rescore>
     Score         DG    S(hbond)    S(metal)    S(lipo)     H(rot)  DE(clash)    DE(int)     intcor
      2.44     -10.38       1.19        0.00      84.69       3.51       2.23       5.71       ----

> <Gold.Chemscore.Fitness>
2.4360

> <Gold.Chemscore.DG>
-10.3759

> <Gold.Chemscore.ZeroCoef>
-5.4800

> <Gold.Chemscore.Hbond>
1.1861

> <Gold.Chemscore.Metal>
0.0000

> <Gold.Chemscore.Lipo>
84.6945

> <Gold.Chemscore.Internal_Hbond>
0.0000

> <Gold.Chemscore.DEClash>
2.2315

> <Gold.Chemscore.DEInternal>
5.7083

> <Gold.Chemscore.Rot>
3.5059

> <Gold.Chemscore.Internal.Correction>
   9.000000E+99

> <Gold.Chemscore.Hbonds>
donor molecule, donor type, donor heavy atom, donor atom, acceptor molecule, acceptor atom, score
      L1  H    16    41       P1 10171  0.82
      P1  H 10785 10796       L1    20  0.09
      P1  H 11000 11005       L1    10  0.01

> <Gold.Chemscore.Hbond.Weighted>
-3.9616

> <Gold.Chemscore.Metal.Weighted>
-0.0000

> <Gold.Chemscore.Lipo.Weighted>
-9.9093

> <Gold.Chemscore.Internal_Hbond.Weighted>
0.0000

> <Gold.Chemscore.DEClash.Weighted>
2.2315

> <Gold.Chemscore.DEInternal.Weighted>
5.7083

> <Gold.Chemscore.Rot.Weighted>
8.9750

> <Gold.Chemscore.Internal.Correction.Weighted>
   9.000000E+99

> <Gold.Protein.RotatedTorsions>
[ 6907 6896 6895 6894 ] final -145.17 input  -60.11 | X-H torsion
[ 7974 7965 7964 7962 ] final  -28.91 input  175.53 | X-H torsion
[ 8008 7997 7996 7995 ] final   78.42 input   59.86 | X-H torsion
[ 10167 10162 10161 10158 ] final   93.80 input  -65.29 | X-H torsion
[ 10718 10713 10712 10709 ] final    4.07 input   66.30 | X-H torsion
[ 10763 10752 10751 10750 ] final  126.76 input  -60.55 | X-H torsion
[ 11005 11000 10999 10996 ] final   52.36 input  -57.11 | X-H torsion

> <Gold.Protein.ActiveResidues>
 VAL166  LYS551  ARG553  GLY616  TRP617  ASP618  TYR619  PRO620  LYS621  CYS622 
 ASP623  PHE694  ASN695  SER759  ASP760  ASP761  ALA762  ILE779  LEU786  VAL792 
 PHE793  MET794  SER795  GLU796  ALA797  LYS798  CYS799  TRP800  GLU811  SER814 

> <Gold.Protein.RotatedAtoms>
  151.1240  133.5083  159.2600 H   0  0  0  0  0  0  0  0  0  0  0  0  # atno 6907 bound_to 6896
  151.1830  135.0369  159.8810 H   0  0  0  0  0  0  0  0  0  0  0  0  # atno 6908 bound_to 6896
  152.5457  134.1090  159.8403 H   0  0  0  0  0  0  0  0  0  0  0  0  # atno 6909 bound_to 6896
  146.1254  140.5344  142.8716 H   0  0  0  0  0  0  0  0  0  0  0  0  # atno 7974 bound_to 7965
  155.8555  140.3456  155.5721 H   0  0  0  0  0  0  0  0  0  0  0  0  # atno 8008 bound_to 7997
  155.7991  140.0882  157.1986 H   0  0  0  0  0  0  0  0  0  0  0  0  # atno 8009 bound_to 7997
  154.4009  140.1469  156.3240 H   0  0  0  0  0  0  0  0  0  0  0  0  # atno 8010 bound_to 7997
  139.8145  144.6759  150.9597 H   0  0  0  0  0  0  0  0  0  0  0  0  # atno 10167 bound_to 10162
  156.8872  130.5674  149.5651 H   0  0  0  0  0  0  0  0  0  0  0  0  # atno 10718 bound_to 10713
  153.6984  135.3287  155.3219 H   0  0  0  0  0  0  0  0  0  0  0  0  # atno 10763 bound_to 10752
  154.8420  135.4448  154.1436 H   0  0  0  0  0  0  0  0  0  0  0  0  # atno 10764 bound_to 10752
  153.2497  135.6980  153.7771 H   0  0  0  0  0  0  0  0  0  0  0  0  # atno 10765 bound_to 10752
  140.0855  134.5280  155.8903 H   0  0  0  0  0  0  0  0  0  0  0  0  # atno 11005 bound_to 11000
  144.7638  140.5483  143.6717 LP  0  0  0  0  0  0  0  0  0  0  0  0  # atno 17320 bound_to 7965
  145.5375  139.1475  143.3465 LP  0  0  0  0  0  0  0  0  0  0  0  0  # atno 17321 bound_to 7965
  140.7816  143.4152  151.0929 LP  0  0  0  0  0  0  0  0  0  0  0  0  # atno 17342 bound_to 10162
  139.7816  143.8347  152.3138 LP  0  0  0  0  0  0  0  0  0  0  0  0  # atno 17343 bound_to 10162
  156.0647  130.5693  150.9264 LP  0  0  0  0  0  0  0  0  0  0  0  0  # atno 17370 bound_to 10713
  157.6105  131.0936  150.8803 LP  0  0  0  0  0  0  0  0  0  0  0  0  # atno 17371 bound_to 10713
  141.2061  133.6652  156.6222 LP  0  0  0  0  0  0  0  0  0  0  0  0  # atno 17394 bound_to 11000
  140.3426  134.7836  157.4409 LP  0  0  0  0  0  0  0  0  0  0  0  0  # atno 17395 bound_to 11000

$$$$
