#       Name:                AV-unprocessed.smi:692
#       Creating user name   scv26
#       Creation time:       Fri Mar 27 00:34:53 2020


#       File generated by GOLD software.
#

@<TRIPOS>MOLECULE
AV-unprocessed.smi:692
    42    43     1
SMALL
NO_CHARGES


@<TRIPOS>ATOM
      1 ****        -5.6725   1.0125  -1.5212 C.3            1 S1                 0.0000
      2 ****        -5.6972   0.2416  -0.1966 C.3            1 S1                 0.0000
      3 ****        -4.6744  -0.8529  -0.1545 C.2            1 S1                 0.0000
      4 ****        -4.9013  -2.2007  -0.2927 C.2            1 S1                 0.0000
      5 ****        -3.4296  -3.1278  -0.1724 S.3            1 S1                 0.0000
      6 ****        -2.5486  -1.6260   0.0585 C.2            1 S1                 0.0000
      7 ****        -1.1429  -1.5998   0.2538 N.am           1 S1                 0.0000
      8 ****        -0.3431  -0.5255   0.3731 C.2            1 S1                 0.0000
      9 ****        -0.7060   0.6465   0.2680 O.2            1 S1                 0.0000
     10 ****         0.9250  -0.8867   0.6170 N.am           1 S1                 0.0000
     11 ****         2.0374   0.0391   0.8081 C.3            1 S1                 0.0000
     12 ****         3.1144  -0.6085   1.6796 C.3            1 S1                 0.0000
     13 ****         4.2591   0.3809   1.9293 C.3            1 S1                 0.0000
     14 ****         4.7544   1.0837   0.6555 C.2            1 S1                 0.0000
     15 ****         5.8664   1.6121   0.6797 O.2            1 S1                 0.0000
     16 ****         3.9501   1.1285  -0.4346 N.am           1 S1                 0.0000
     17 ****         4.3869   1.8218  -1.6476 C.3            1 S1                 0.0000
     18 ****         2.6462   0.4555  -0.5444 C.3            1 S1                 0.0000
     19 ****        -3.3270  -0.5383   0.0472 N.2            1 S1                 0.0000
     20 ****        -6.4273   1.7988  -1.5269 H              1 S1                 0.0000
     21 ****        -5.8723   0.3512  -2.3646 H              1 S1                 0.0000
     22 ****        -4.7022   1.4823  -1.6856 H              1 S1                 0.0000
     23 ****        -5.5330   0.9368   0.6275 H              1 S1                 0.0000
     24 ****        -6.6940  -0.1725  -0.0429 H              1 S1                 0.0000
     25 ****        -5.8433  -2.7029  -0.4559 H              1 S1                 0.0000
     26 ****        -0.6981  -2.5029   0.3255 H              1 S1                 0.0000
     27 ****         1.1357  -1.8717   0.6840 H              1 S1                 0.0000
     28 ****         1.6771   0.9304   1.3264 H              1 S1                 0.0000
     29 ****         2.6899  -0.9236   2.6338 H              1 S1                 0.0000
     30 ****         3.5005  -1.5080   1.1975 H              1 S1                 0.0000
     31 ****         3.9254   1.1540   2.6226 H              1 S1                 0.0000
     32 ****         5.0935  -0.1300   2.4109 H              1 S1                 0.0000
     33 ****         4.4763   2.8929  -1.4622 H              1 S1                 0.0000
     34 ****         3.6876   1.6861  -2.4737 H              1 S1                 0.0000
     35 ****         5.3572   1.4499  -1.9806 H              1 S1                 0.0000
     36 ****         2.7884  -0.4266  -1.1709 H              1 S1                 0.0000
     37 ****         1.9412   1.1003  -1.0718 H              1 S1                 0.0000
     38 ****        -1.6649   0.8579   0.0789 LP             1 S1                 0.0000
     39 ****        -0.0418   1.3868   0.3718 LP             1 S1                 0.0000
     40 ****         6.4191   1.5761   1.5124 LP             1 S1                 0.0000
     41 ****         6.2168   2.0772  -0.1332 LP             1 S1                 0.0000
     42 ****        -2.9845   0.3933   0.1691 LP             1 S1                 0.0000
@<TRIPOS>BOND
    1    1    2 1     
    2    1   20 1     
    3    1   21 1     
    4    1   22 1     
    5    2    3 1     
    6    2   23 1     
    7    2   24 1     
    8    3   19 1     
    9    3    4 2     
   10    4    5 1     
   11    4   25 1     
   12    5    6 1     
   13    6    7 1     
   14    6   19 2     
   15    7    8 am    
   16    7   26 1     
   17    8    9 2     
   18    8   10 am    
   19   10   11 1     
   20   10   27 1     
   21   11   18 1     
   22   11   12 1     
   23   11   28 1     
   24   12   13 1     
   25   12   29 1     
   26   12   30 1     
   27   13   14 1     
   28   13   31 1     
   29   13   32 1     
   30   14   15 2     
   31   14   16 am    
   32   16   17 1     
   33   16   18 1     
   34   17   33 1     
   35   17   34 1     
   36   17   35 1     
   37   18   36 1     
   38   18   37 1     
   39    9   38 1     
   40    9   39 1     
   41   15   40 1     
   42   15   41 1     
   43   19   42 1     
@<TRIPOS>SUBSTRUCTURE
      1 S1             1
@<TRIPOS>SET
LONE_PAIRS      STATIC     ATOMS    <user>   **** ""
5 38 39 40 41 42
DONOR_HYDROGENS      STATIC     ATOMS    <user>   **** ""
2 26 27
ATOM$BLUE        STATIC     ATOMS    COLORGROUP SYSTEM
5 38 39 40 41 42
ATOM$RED        STATIC     ATOMS    COLORGROUP SYSTEM
2 26 27
