AV-unprocessed.smi:794|AV-procd|sdf|3759|dock7
  -GOLD-   22720 1193D 1   1.00000     0.00000
 Structure written by MMmdl.
 41 43  0  0  0  0  0  0  0  0  1 V2000
  146.9160  140.6879  156.7412 C   0  0  0  0  0  0  0  0  0  0  0  0
  146.8893  140.2561  155.3070 C   0  0  0  0  0  0  0  0  0  0  0  0
  146.8941  138.8932  154.9955 N   0  0  0  0  0  0  0  0  0  0  0  0
  146.8672  138.6752  153.6768 C   0  0  0  0  0  0  0  0  0  0  0  0
  146.8678  137.3892  153.0764 N   0  0  0  0  0  0  0  0  0  0  0  0
  145.8602  136.5016  153.0109 C   0  0  0  0  0  0  0  0  0  0  0  0
  144.7291  136.6729  153.4661 O   0  0  0  0  0  0  0  0  0  0  0  0
  146.2451  135.3790  152.3867 N   0  0  0  0  0  0  0  0  0  0  0  0
  145.3983  134.2100  152.1453 C   0  0  1  0  0  0  0  0  0  0  0  0
  145.2976  133.9284  150.6304 C   0  0  2  0  0  0  0  0  0  0  0  0
  144.1208  132.9694  150.3740 C   0  0  0  0  0  0  0  0  0  0  0  0
  144.6511  131.6340  150.9299 C   0  0  0  0  0  0  0  0  0  0  0  0
  146.0627  132.0051  151.4271 C   0  0  1  0  0  0  0  0  0  0  0  0
  146.4956  133.0211  150.3777 C   0  0  0  0  0  0  0  0  0  0  0  0
  145.9472  132.8641  152.7107 C   0  0  1  0  0  0  0  0  0  0  0  0
  147.2666  132.9478  153.5121 C   0  0  0  0  0  0  0  0  0  0  0  0
  148.2813  133.5459  152.7332 O   0  0  0  0  0  0  0  0  0  0  0  0
  146.8327  140.1463  152.7204 S   0  0  0  0  0  0  0  0  0  0  0  0
  146.8603  141.0729  154.2002 C   0  0  0  0  0  0  0  0  0  0  0  0
  146.8495  142.5651  154.1696 C   0  0  0  0  0  0  0  0  0  0  0  0
  146.0433  141.2940  156.9847 H   0  0  0  0  0  0  0  0  0  0  0  0
  147.8031  141.2847  156.9543 H   0  0  0  0  0  0  0  0  0  0  0  0
  146.9232  139.8348  157.4204 H   0  0  0  0  0  0  0  0  0  0  0  0
  147.7417  137.1077  152.6575 H   0  0  0  0  0  0  0  0  0  0  0  0
  147.1944  135.3261  152.0477 H   0  0  0  0  0  0  0  0  0  0  0  0
  144.4016  134.4096  152.5443 H   0  0  0  0  0  0  0  0  0  0  0  0
  145.2604  134.8265  150.0125 H   0  0  0  0  0  0  0  0  0  0  0  0
  143.2027  133.2926  150.8659 H   0  0  0  0  0  0  0  0  0  0  0  0
  143.9149  132.8842  149.3063 H   0  0  0  0  0  0  0  0  0  0  0  0
  144.0217  131.2329  151.7251 H   0  0  0  0  0  0  0  0  0  0  0  0
  144.7040  130.8854  150.1385 H   0  0  0  0  0  0  0  0  0  0  0  0
  146.7196  131.1404  151.5249 H   0  0  0  0  0  0  0  0  0  0  0  0
  146.5230  132.6132  149.3658 H   0  0  0  0  0  0  0  0  0  0  0  0
  147.4543  133.4940  150.5953 H   0  0  0  0  0  0  0  0  0  0  0  0
  145.1959  132.4297  153.3724 H   0  0  0  0  0  0  0  0  0  0  0  0
  147.1421  133.5163  154.4339 H   0  0  0  0  0  0  0  0  0  0  0  0
  147.6095  131.9505  153.7879 H   0  0  0  0  0  0  0  0  0  0  0  0
  148.1533  134.4824  152.7408 H   0  0  0  0  0  0  0  0  0  0  0  0
  147.6567  142.9707  154.7798 H   0  0  0  0  0  0  0  0  0  0  0  0
  145.9065  142.9518  154.5562 H   0  0  0  0  0  0  0  0  0  0  0  0
  146.9767  142.9410  153.1540 H   0  0  0  0  0  0  0  0  0  0  0  0
  1  2  1  0  0  0  0
  1 21  1  0  0  0  0
  1 22  1  0  0  0  0
  1 23  1  0  0  0  0
  2 19  2  0  0  0  0
  2  3  1  0  0  0  0
  3  4  2  0  0  0  0
  4  5  1  0  0  0  0
  4 18  1  0  0  0  0
  5  6  1  0  0  0  0
  5 24  1  0  0  0  0
  6  7  2  0  0  0  0
  6  8  1  0  0  0  0
  8  9  1  0  0  0  0
  8 25  1  0  0  0  0
  9 15  1  0  0  0  0
  9 10  1  0  0  0  0
  9 26  1  0  0  0  0
 10 14  1  0  0  0  0
 10 11  1  0  0  0  0
 10 27  1  0  0  0  0
 11 12  1  0  0  0  0
 11 28  1  0  0  0  0
 11 29  1  0  0  0  0
 12 13  1  0  0  0  0
 12 30  1  0  0  0  0
 12 31  1  0  0  0  0
 13 14  1  0  0  0  0
 13 15  1  0  0  0  0
 13 32  1  0  0  0  0
 14 33  1  0  0  0  0
 14 34  1  0  0  0  0
 15 16  1  0  0  0  0
 15 35  1  0  0  0  0
 16 17  1  0  0  0  0
 16 36  1  0  0  0  0
 16 37  1  0  0  0  0
 17 38  1  0  0  0  0
 18 19  1  0  0  0  0
 19 20  1  0  0  0  0
 20 39  1  0  0  0  0
 20 40  1  0  0  0  0
 20 41  1  0  0  0  0
M  END
> <s_m_source_file>
AV-unprocessed.smi

> <i_m_source_file_index>
794

> <i_lp_mmshare_version>
43012

> <i_f3d_flags>
0

> <s_epik_input>
W0NIM11jMW5jKHNjMVtDSDNdKVtOSF1DKD1PKVtOSF1bQ0BIXShbQ0BASF0yMylbQ0BIXShbQ0gyXVtPSF0pW0NAQEhdKFtDSDJdMylbQ0gyXVtDSDJdMg==

> <s_epik_cmdline>
J2VwaWtfcHl0aG9uJywgJy1waCcsICc3LjAnLCAnLXRuJywgJzgnLCAnLW1hJywgJzIwMCcsICctbWV0YWxfYmluZGluZycsICctaW1hZScsICc8aW5maWxlLm1hZT4nLCAnLW9tYWUnLCAnPG91dGZpbGUubWFlPic=

> <r_lp_tautomer_probability>
0.999

> <r_epik_Ionization_Penalty>
0.000713029

> <r_epik_Ionization_Penalty_Charging>
0

> <r_epik_Ionization_Penalty_Neutral>
0.000713029

> <r_epik_State_Penalty>
0.000177984

> <r_epik_Charging_Adjusted_Penalty>
0.000177984

> <i_epik_Tot_Q>
0

> <i_epik_Tot_abs_Q>
0

> <r_epik_Metal_State_Penalty>
-0

> <b_epik_Metal_Only>
0

> <s_lp_Force_Field>
OPLS_2005

> <r_lp_Energy>
48.0104

> <b_lp_Chiralities_Consistent>
1

> <s_lp_Variant>
AV-unprocessed.smi:794-4

> <Gold.Version>
5.8.1

> <Gold.Id.Protein>
6NUR|6NUR_protein|mol2

> <Gold.PLP.Fitness>
37.0467

> <Gold.PLP.PLP>
-30.2085

> <Gold.PLP.part.hbond>
-3.0000

> <Gold.PLP.part.metal>
0.0000

> <Gold.PLP.part.buried>
-1.8498

> <Gold.PLP.part.nonpolar>
-24.8461

> <Gold.PLP.part.repulsive>
0.2109

> <Gold.PLP.ligand.clash>
0.0000

> <Gold.PLP.ligand.torsion>
0.7034

> <Gold.PLP.Chemscore.Hbond>
2.7440

> <Gold.PLP.Chemscore.CHOScore>
0.0000

> <Gold.PLP.Chemscore.Metal>
0.0000

> <Gold.Chemscore.Hbonds>
donor molecule, donor type, donor heavy atom, donor atom, acceptor molecule, acceptor atom, score
      L1  H     5    24       P1  7948  1.00
      L1  H     8    25       P1  7948  0.98
      L1  H    17    38       P1  7948  0.69

> <Gold.PLP.Chemscore.Internal.Correction>
0.0131

> <Gold.Rescore>
     Score         DG    S(hbond)    S(metal)    S(lipo)     H(rot)  DE(clash)    DE(int)     intcor
     14.57     -17.96       2.31        0.00      79.75       1.78       0.22       3.17       ----

> <Gold.Chemscore.Fitness>
14.5718

> <Gold.Chemscore.DG>
-17.9609

> <Gold.Chemscore.ZeroCoef>
-5.4800

> <Gold.Chemscore.Hbond>
2.3073

> <Gold.Chemscore.Metal>
0.0000

> <Gold.Chemscore.Lipo>
79.7482

> <Gold.Chemscore.Internal_Hbond>
0.0000

> <Gold.Chemscore.DEClash>
0.2207

> <Gold.Chemscore.DEInternal>
3.1684

> <Gold.Chemscore.Rot>
1.7798

> <Gold.Chemscore.Internal.Correction>
   9.000000E+99

> <Gold.Chemscore.Hbonds>
donor molecule, donor type, donor heavy atom, donor atom, acceptor molecule, acceptor atom, score
      L1  H     5    24       P1  7948  1.00
      L1  H     8    25       P1  7948  0.92
      L1  H    17    38       P1  7948  0.30

> <Gold.Chemscore.Hbond.Weighted>
-7.7065

> <Gold.Chemscore.Metal.Weighted>
-0.0000

> <Gold.Chemscore.Lipo.Weighted>
-9.3305

> <Gold.Chemscore.Internal_Hbond.Weighted>
0.0000

> <Gold.Chemscore.DEClash.Weighted>
0.2207

> <Gold.Chemscore.DEInternal.Weighted>
3.1684

> <Gold.Chemscore.Rot.Weighted>
4.5562

> <Gold.Chemscore.Internal.Correction.Weighted>
   9.000000E+99

> <Gold.Protein.RotatedTorsions>
[ 6907 6896 6895 6894 ] final  -39.73 input  -60.11 | X-H torsion
[ 7974 7965 7964 7962 ] final    4.01 input  175.53 | X-H torsion
[ 8008 7997 7996 7995 ] final  -64.11 input   59.86 | X-H torsion
[ 10167 10162 10161 10158 ] final -144.17 input  -65.29 | X-H torsion
[ 10718 10713 10712 10709 ] final  117.72 input   66.30 | X-H torsion
[ 10763 10752 10751 10750 ] final  129.08 input  -60.55 | X-H torsion
[ 11005 11000 10999 10996 ] final -112.43 input  -57.11 | X-H torsion

> <Gold.Protein.ActiveResidues>
 VAL166  LYS551  ARG553  GLY616  TRP617  ASP618  TYR619  PRO620  LYS621  CYS622 
 ASP623  PHE694  ASN695  SER759  ASP760  ASP761  ALA762  ILE779  LEU786  VAL792 
 PHE793  MET794  SER795  GLU796  ALA797  LYS798  CYS799  TRP800  GLU811  SER814 

> <Gold.Protein.RotatedAtoms>
  150.9868  134.9212  159.7876 H   0  0  0  0  0  0  0  0  0  0  0  0  # atno 6907 bound_to 6896
  152.5239  134.3335  159.9201 H   0  0  0  0  0  0  0  0  0  0  0  0  # atno 6908 bound_to 6896
  151.3341  133.3947  159.2699 H   0  0  0  0  0  0  0  0  0  0  0  0  # atno 6909 bound_to 6896
  146.2444  140.0599  142.8369 H   0  0  0  0  0  0  0  0  0  0  0  0  # atno 7974 bound_to 7965
  154.4593  140.0960  156.6847 H   0  0  0  0  0  0  0  0  0  0  0  0  # atno 8008 bound_to 7997
  155.5043  140.3474  155.4358 H   0  0  0  0  0  0  0  0  0  0  0  0  # atno 8009 bound_to 7997
  156.0839  140.1380  156.9666 H   0  0  0  0  0  0  0  0  0  0  0  0  # atno 8010 bound_to 7997
  139.7924  143.7947  152.2651 H   0  0  0  0  0  0  0  0  0  0  0  0  # atno 10167 bound_to 10162
  157.6078  131.1040  150.7654 H   0  0  0  0  0  0  0  0  0  0  0  0  # atno 10718 bound_to 10713
  153.7359  135.3231  155.3295 H   0  0  0  0  0  0  0  0  0  0  0  0  # atno 10763 bound_to 10752
  154.8311  135.4533  154.1075 H   0  0  0  0  0  0  0  0  0  0  0  0  # atno 10764 bound_to 10752
  153.2236  135.6951  153.8053 H   0  0  0  0  0  0  0  0  0  0  0  0  # atno 10765 bound_to 10752
  141.0675  133.9434  157.2550 H   0  0  0  0  0  0  0  0  0  0  0  0  # atno 11005 bound_to 11000
  145.0909  140.9284  143.4769 LP  0  0  0  0  0  0  0  0  0  0  0  0  # atno 17320 bound_to 7965
  145.0771  139.2987  143.5802 LP  0  0  0  0  0  0  0  0  0  0  0  0  # atno 17321 bound_to 7965
  139.8043  144.7362  150.9783 LP  0  0  0  0  0  0  0  0  0  0  0  0  # atno 17342 bound_to 10162
  140.7820  143.4314  151.0689 LP  0  0  0  0  0  0  0  0  0  0  0  0  # atno 17343 bound_to 10162
  156.8039  130.4930  149.5366 LP  0  0  0  0  0  0  0  0  0  0  0  0  # atno 17370 bound_to 10713
  156.1170  130.6082  151.0136 LP  0  0  0  0  0  0  0  0  0  0  0  0  # atno 17371 bound_to 10713
  139.9491  135.0179  156.8940 LP  0  0  0  0  0  0  0  0  0  0  0  0  # atno 17394 bound_to 11000
  140.5742  134.0414  155.7441 LP  0  0  0  0  0  0  0  0  0  0  0  0  # atno 17395 bound_to 11000

$$$$
