AV-unprocessed.smi:240|AV-procd|sdf|1832|dock7
  -GOLD-   2262020433D 1   1.00000     0.00000
 Structure written by MMmdl.
 55 59  0  0  0  0  0  0  0  0  1 V2000
  143.4094  138.4416  153.6513 O   0  0  0  0  0  0  0  0  0  0  0  0
  142.4356  137.5534  153.1435 C   0  0  2  0  0  0  0  0  0  0  0  0
  141.0836  137.7526  153.8282 C   0  0  0  0  0  0  0  0  0  0  0  0
  140.3380  136.4330  153.6003 C   0  0  0  0  0  0  0  0  0  0  0  0
  141.4135  135.3657  153.3399 C   0  0  0  0  0  0  0  0  0  0  0  0
  142.7715  136.0853  153.4423 C   0  0  1  0  0  0  0  0  0  0  0  0
  143.9395  135.4651  152.6160 C   0  0  2  0  0  0  0  0  0  0  0  0
  143.5124  134.2553  151.7451 C   0  0  0  0  0  0  0  0  0  0  0  0
  144.6252  133.7499  151.0160 O   0  0  0  0  0  0  0  0  0  0  0  0
  145.6561  133.2840  151.8757 C   0  0  0  0  0  0  0  0  0  0  0  0
  146.1758  134.4614  152.7100 C   0  0  0  0  0  0  0  0  0  0  0  0
  145.0829  135.0765  153.4542 N   0  0  0  0  0  0  0  0  0  0  0  0
  145.5592  135.9985  154.3213 C   0  0  0  0  0  0  0  0  0  0  0  0
  145.3996  135.7386  155.6421 N   0  0  0  0  0  0  0  0  0  0  0  0
  145.8454  136.6086  156.5531 C   0  0  0  0  0  0  0  0  0  0  0  0
  146.4733  137.7708  156.3612 N   0  0  0  0  0  0  0  0  0  0  0  0
  146.6481  138.0271  155.0327 C   0  0  0  0  0  0  0  0  0  0  0  0
  146.2258  137.2018  153.9527 C   0  0  0  0  0  0  0  0  0  0  0  0
  146.5807  137.7870  152.7434 N   0  0  0  0  0  0  0  0  0  0  0  0
  147.1763  138.8956  153.0886 C   0  0  0  0  0  0  0  0  0  0  0  0
  147.2690  139.1155  154.4446 N   0  0  0  0  0  0  0  0  0  0  0  0
  147.8788  140.2611  155.1034 C   0  0  0  0  0  0  0  0  0  0  0  0
  149.3203  140.5723  154.6259 C   0  0  2  0  0  0  0  0  0  0  0  0
  149.2656  141.1696  153.3433 O   0  0  0  0  0  0  0  0  0  0  0  0
  150.2401  139.3519  154.5713 C   0  0  0  0  0  0  0  0  0  0  0  0
  150.9608  139.4162  155.9088 C   0  0  0  0  0  0  0  0  0  0  0  0
  151.2073  140.8039  156.0517 O   0  0  0  0  0  0  0  0  0  0  0  0
  150.0529  141.5089  155.6091 C   0  0  0  0  0  0  0  0  0  0  0  0
  143.3791  139.2411  153.1485 H   0  0  0  0  0  0  0  0  0  0  0  0
  142.3119  137.7244  152.0750 H   0  0  0  0  0  0  0  0  0  0  0  0
  141.2254  137.9042  154.8994 H   0  0  0  0  0  0  0  0  0  0  0  0
  140.5392  138.6149  153.4417 H   0  0  0  0  0  0  0  0  0  0  0  0
  139.7103  136.1785  154.4546 H   0  0  0  0  0  0  0  0  0  0  0  0
  139.6857  136.5169  152.7304 H   0  0  0  0  0  0  0  0  0  0  0  0
  141.3476  134.5479  154.0577 H   0  0  0  0  0  0  0  0  0  0  0  0
  141.2583  134.9330  152.3529 H   0  0  0  0  0  0  0  0  0  0  0  0
  143.0505  136.0598  154.4968 H   0  0  0  0  0  0  0  0  0  0  0  0
  144.2900  136.2311  151.9241 H   0  0  0  0  0  0  0  0  0  0  0  0
  143.0812  133.4530  152.3436 H   0  0  0  0  0  0  0  0  0  0  0  0
  142.7589  134.5480  151.0155 H   0  0  0  0  0  0  0  0  0  0  0  0
  145.2844  132.4825  152.5162 H   0  0  0  0  0  0  0  0  0  0  0  0
  146.4616  132.8657  151.2721 H   0  0  0  0  0  0  0  0  0  0  0  0
  146.9485  134.1124  153.3968 H   0  0  0  0  0  0  0  0  0  0  0  0
  146.6370  135.2037  152.0567 H   0  0  0  0  0  0  0  0  0  0  0  0
  145.6760  136.3333  157.5836 H   0  0  0  0  0  0  0  0  0  0  0  0
  147.5726  139.5863  152.3583 H   0  0  0  0  0  0  0  0  0  0  0  0
  147.2349  141.1266  154.9408 H   0  0  0  0  0  0  0  0  0  0  0  0
  147.8721  140.0779  156.1787 H   0  0  0  0  0  0  0  0  0  0  0  0
  149.0930  140.4930  152.7064 H   0  0  0  0  0  0  0  0  0  0  0  0
  149.7299  138.4035  154.4111 H   0  0  0  0  0  0  0  0  0  0  0  0
  150.9779  139.4603  153.7746 H   0  0  0  0  0  0  0  0  0  0  0  0
  150.3204  139.0655  156.7198 H   0  0  0  0  0  0  0  0  0  0  0  0
  151.8853  138.8385  155.9197 H   0  0  0  0  0  0  0  0  0  0  0  0
  150.3505  142.4561  155.1571 H   0  0  0  0  0  0  0  0  0  0  0  0
  149.4317  141.7434  156.4745 H   0  0  0  0  0  0  0  0  0  0  0  0
  1  2  1  0  0  0  0
  1 29  1  0  0  0  0
  2  6  1  0  0  0  0
  2  3  1  0  0  0  0
  2 30  1  0  0  0  0
  3  4  1  0  0  0  0
  3 31  1  0  0  0  0
  3 32  1  0  0  0  0
  4  5  1  0  0  0  0
  4 33  1  0  0  0  0
  4 34  1  0  0  0  0
  5  6  1  0  0  0  0
  5 35  1  0  0  0  0
  5 36  1  0  0  0  0
  6  7  1  0  0  0  0
  6 37  1  0  0  0  0
  7 12  1  0  0  0  0
  7  8  1  0  0  0  0
  7 38  1  0  0  0  0
  8  9  1  0  0  0  0
  8 39  1  0  0  0  0
  8 40  1  0  0  0  0
  9 10  1  0  0  0  0
 10 11  1  0  0  0  0
 10 41  1  0  0  0  0
 10 42  1  0  0  0  0
 11 12  1  0  0  0  0
 11 43  1  0  0  0  0
 11 44  1  0  0  0  0
 12 13  1  0  0  0  0
 13 18  1  0  0  0  0
 13 14  2  0  0  0  0
 14 15  1  0  0  0  0
 15 16  2  0  0  0  0
 15 45  1  0  0  0  0
 16 17  1  0  0  0  0
 17 21  1  0  0  0  0
 17 18  2  0  0  0  0
 18 19  1  0  0  0  0
 19 20  2  0  0  0  0
 20 21  1  0  0  0  0
 20 46  1  0  0  0  0
 21 22  1  0  0  0  0
 22 23  1  0  0  0  0
 22 47  1  0  0  0  0
 22 48  1  0  0  0  0
 23 28  1  0  0  0  0
 23 24  1  0  0  0  0
 23 25  1  0  0  0  0
 24 49  1  0  0  0  0
 25 26  1  0  0  0  0
 25 50  1  0  0  0  0
 25 51  1  0  0  0  0
 26 27  1  0  0  0  0
 26 52  1  0  0  0  0
 26 53  1  0  0  0  0
 27 28  1  0  0  0  0
 28 54  1  0  0  0  0
 28 55  1  0  0  0  0
M  END
> <s_m_source_file>
AV-unprocessed.smi

> <i_m_source_file_index>
240

> <i_lp_mmshare_version>
43012

> <i_f3d_flags>
0

> <s_epik_input>
W09IXVtDQEBIXTFbQ0gyXVtDSDJdW0NIMl1bQ0BIXTFbQ0BASF0yW0NIMl1PW0NIMl1bQ0gyXU4yYyhuW2NIXW4zKWMoYzM0KW5bY0hdbjRbQ0gyXVtDQEBdNShbT0hdKVtDSDJdW0NIMl1PW0NIMl01

> <s_epik_cmdline>
J2VwaWtfcHl0aG9uJywgJy1waCcsICc3LjAnLCAnLXRuJywgJzgnLCAnLW1hJywgJzIwMCcsICctbWV0YWxfYmluZGluZycsICctaW1hZScsICc8aW5maWxlLm1hZT4nLCAnLW9tYWUnLCAnPG91dGZpbGUubWFlPic=

> <r_lp_tautomer_probability>
1

> <r_epik_Ionization_Penalty>
0.000130618

> <r_epik_Ionization_Penalty_Charging>
0

> <r_epik_Ionization_Penalty_Neutral>
0.000130618

> <r_epik_State_Penalty>
-0

> <r_epik_Charging_Adjusted_Penalty>
0

> <i_epik_Tot_Q>
0

> <i_epik_Tot_abs_Q>
0

> <r_epik_Metal_State_Penalty>
-0

> <b_epik_Metal_Only>
0

> <s_lp_Force_Field>
OPLS_2005

> <r_lp_Energy>
62.3789

> <b_lp_Chiralities_Consistent>
1

> <s_lp_Variant>
AV-unprocessed.smi:240-9

> <Gold.Version>
5.8.1

> <Gold.Id.Protein>
6NUR|6NUR_protein|mol2

> <Gold.PLP.Fitness>
45.9315

> <Gold.PLP.PLP>
-38.0204

> <Gold.PLP.part.hbond>
-4.0274

> <Gold.PLP.part.metal>
0.0000

> <Gold.PLP.part.buried>
-7.4583

> <Gold.PLP.part.nonpolar>
-28.4302

> <Gold.PLP.part.repulsive>
1.2107

> <Gold.PLP.ligand.clash>
0.0000

> <Gold.PLP.ligand.torsion>
1.8016

> <Gold.PLP.Chemscore.Hbond>
2.7707

> <Gold.PLP.Chemscore.CHOScore>
1.0000

> <Gold.PLP.Chemscore.Metal>
0.0000

> <Gold.Chemscore.Hbonds>
donor molecule, donor type, donor heavy atom, donor atom, acceptor molecule, acceptor atom, score
      L1  H     1    29       P1 10175  0.67
      L1  H    24    49       P1  7957  0.77
      P1  H  8011  8017       L1    24  1.00
      L1  C    20    46       P1  7957  1.00

> <Gold.PLP.Chemscore.Internal.Correction>
0.2019

> <Gold.Rescore>
     Score         DG    S(hbond)    S(metal)    S(lipo)     H(rot)  DE(clash)    DE(int)     intcor
     11.04     -14.28       2.11        0.00      80.77       3.00       1.45       1.79       ----

> <Gold.Chemscore.Fitness>
11.0421

> <Gold.Chemscore.DG>
-14.2826

> <Gold.Chemscore.ZeroCoef>
-5.4800

> <Gold.Chemscore.Hbond>
2.1086

> <Gold.Chemscore.Metal>
0.0000

> <Gold.Chemscore.Lipo>
80.7682

> <Gold.Chemscore.Internal_Hbond>
0.0000

> <Gold.Chemscore.DEClash>
1.4490

> <Gold.Chemscore.DEInternal>
1.7915

> <Gold.Chemscore.Rot>
3.0039

> <Gold.Chemscore.Internal.Correction>
   9.000000E+99

> <Gold.Chemscore.Hbonds>
donor molecule, donor type, donor heavy atom, donor atom, acceptor molecule, acceptor atom, score
      L1  H     1    29       P1 10175  0.67
      L1  H    24    49       P1  7957  0.76
      P1  H  8011  8017       L1    24  0.25

> <Gold.Chemscore.Hbond.Weighted>
-7.0427

> <Gold.Chemscore.Metal.Weighted>
-0.0000

> <Gold.Chemscore.Lipo.Weighted>
-9.4499

> <Gold.Chemscore.Internal_Hbond.Weighted>
0.0000

> <Gold.Chemscore.DEClash.Weighted>
1.4490

> <Gold.Chemscore.DEInternal.Weighted>
1.7915

> <Gold.Chemscore.Rot.Weighted>
7.6899

> <Gold.Chemscore.Internal.Correction.Weighted>
   9.000000E+99

> <Gold.Protein.RotatedTorsions>
[ 6907 6896 6895 6894 ] final  -53.06 input  -60.11 | X-H torsion
[ 7974 7965 7964 7962 ] final   96.16 input  175.53 | X-H torsion
[ 8008 7997 7996 7995 ] final   91.20 input   59.86 | X-H torsion
[ 10167 10162 10161 10158 ] final   11.71 input  -65.29 | X-H torsion
[ 10718 10713 10712 10709 ] final   29.90 input   66.30 | X-H torsion
[ 10763 10752 10751 10750 ] final   79.29 input  -60.55 | X-H torsion
[ 11005 11000 10999 10996 ] final   -8.39 input  -57.11 | X-H torsion

> <Gold.Protein.ActiveResidues>
 VAL166  LYS551  ARG553  GLY616  TRP617  ASP618  TYR619  PRO620  LYS621  CYS622 
 ASP623  PHE694  ASN695  SER759  ASP760  ASP761  ALA762  ILE779  LEU786  VAL792 
 PHE793  MET794  SER795  GLU796  ALA797  LYS798  CYS799  TRP800  GLU811  SER814 

> <Gold.Protein.RotatedAtoms>
  150.8461  134.7770  159.6970 H   0  0  0  0  0  0  0  0  0  0  0  0  # atno 6907 bound_to 6896
  152.4537  134.5335  159.9828 H   0  0  0  0  0  0  0  0  0  0  0  0  # atno 6908 bound_to 6896
  151.5465  133.3386  159.2981 H   0  0  0  0  0  0  0  0  0  0  0  0  # atno 6909 bound_to 6896
  145.4425  139.2300  143.3084 H   0  0  0  0  0  0  0  0  0  0  0  0  # atno 7974 bound_to 7965
  156.0209  140.3340  155.7038 H   0  0  0  0  0  0  0  0  0  0  0  0  # atno 8008 bound_to 7997
  155.6023  140.0657  157.2747 H   0  0  0  0  0  0  0  0  0  0  0  0  # atno 8009 bound_to 7997
  154.4316  140.1808  156.1174 H   0  0  0  0  0  0  0  0  0  0  0  0  # atno 8010 bound_to 7997
  140.6114  143.8399  150.7070 H   0  0  0  0  0  0  0  0  0  0  0  0  # atno 10167 bound_to 10162
  157.2525  130.7122  149.6413 H   0  0  0  0  0  0  0  0  0  0  0  0  # atno 10718 bound_to 10713
  153.0941  135.4845  154.8745 H   0  0  0  0  0  0  0  0  0  0  0  0  # atno 10763 bound_to 10752
  154.7303  135.3059  154.8904 H   0  0  0  0  0  0  0  0  0  0  0  0  # atno 10764 bound_to 10752
  153.9541  135.6820  153.4797 H   0  0  0  0  0  0  0  0  0  0  0  0  # atno 10765 bound_to 10752
  140.7229  133.8813  155.8834 H   0  0  0  0  0  0  0  0  0  0  0  0  # atno 11005 bound_to 11000
  146.2548  140.5175  142.8878 LP  0  0  0  0  0  0  0  0  0  0  0  0  # atno 17320 bound_to 7965
  144.8112  140.6389  143.6414 LP  0  0  0  0  0  0  0  0  0  0  0  0  # atno 17321 bound_to 7965
  140.1968  143.3991  152.1822 LP  0  0  0  0  0  0  0  0  0  0  0  0  # atno 17342 bound_to 10162
  139.5364  144.7214  151.4878 LP  0  0  0  0  0  0  0  0  0  0  0  0  # atno 17343 bound_to 10162
  155.9666  130.4423  150.5375 LP  0  0  0  0  0  0  0  0  0  0  0  0  # atno 17370 bound_to 10713
  157.3262  131.0691  151.1895 LP  0  0  0  0  0  0  0  0  0  0  0  0  # atno 17371 bound_to 10713
  140.9987  134.1179  157.4338 LP  0  0  0  0  0  0  0  0  0  0  0  0  # atno 17394 bound_to 11000
  139.8844  135.0062  156.6365 LP  0  0  0  0  0  0  0  0  0  0  0  0  # atno 17395 bound_to 11000

$$$$
