AV-unprocessed.smi:1041|AV-procd|sdf|4531|dock8
  -GOLD-   22720 2553D 1   1.00000     0.00000
 Structure written by MMmdl.
 53 54  0  0  0  0  0  0  0  0  2 V2000
  151.1084  144.3821  159.8816 C   0  0  0  0  0  0  0  0  0  0  0  0
  149.9716  143.5540  159.7077 O   0  0  0  0  0  0  0  0  0  0  0  0
  149.8464  143.0735  158.3796 C   0  0  0  0  0  0  0  0  0  0  0  0
  148.4507  142.4557  158.2031 C   0  0  0  0  0  0  0  0  0  0  0  0
  148.0604  142.3202  156.7765 N   0  3  2  0  0  0  0  0  0  0  0  0
  146.6592  141.8487  156.6246 C   0  0  0  0  0  0  0  0  0  0  0  0
  146.2281  141.8203  155.1457 C   0  0  0  0  0  0  0  0  0  0  0  0
  147.1797  140.9778  154.2764 C   0  0  2  0  0  0  0  0  0  0  0  0
  146.9919  139.4601  154.5104 C   0  0  0  0  0  0  0  0  0  0  0  0
  146.1202  138.8617  153.5055 N   0  0  0  0  0  0  0  0  0  0  0  0
  145.9944  137.5472  153.2657 C   0  0  0  0  0  0  0  0  0  0  0  0
  146.5530  136.6752  153.9307 O   0  0  0  0  0  0  0  0  0  0  0  0
  145.1427  137.1616  152.0573 C   0  0  0  0  0  0  0  0  0  0  0  0
  145.2022  135.6802  151.6917 C   0  0  0  0  0  0  0  0  0  0  0  0
  144.3842  134.7458  152.2398 C   0  0  0  0  0  0  0  0  0  0  0  0
  143.3032  135.0442  153.2639 C   0  0  0  0  0  0  0  0  0  0  0  0
  144.4878  133.4109  151.8899 N   0  0  0  0  0  0  0  0  0  0  0  0
  145.4607  133.0543  150.9709 C   0  0  0  0  0  0  0  0  0  0  0  0
  145.4932  131.5729  150.6628 C   0  0  0  0  0  0  0  0  0  0  0  0
  146.2903  133.8713  150.3967 N   0  0  0  0  0  0  0  0  0  0  0  0
  146.2225  135.2377  150.7120 C   0  0  0  0  0  0  0  0  0  0  0  0
  147.0007  136.0356  150.1906 O   0  0  0  0  0  0  0  0  0  0  0  0
  148.6204  141.4860  154.4945 C   0  0  0  0  0  0  0  0  0  0  0  0
  149.0081  141.4940  155.9824 C   0  0  0  0  0  0  0  0  0  0  0  0
  143.8546  132.7493  152.3158 H   0  0  0  0  0  0  0  0  0  0  0  0
  151.1627  144.7170  160.9174 H   0  0  0  0  0  0  0  0  0  0  0  0
  151.0535  145.2660  159.2447 H   0  0  0  0  0  0  0  0  0  0  0  0
  152.0287  143.8428  159.6540 H   0  0  0  0  0  0  0  0  0  0  0  0
  150.0290  143.8719  157.6603 H   0  0  0  0  0  0  0  0  0  0  0  0
  150.6022  142.3072  158.2003 H   0  0  0  0  0  0  0  0  0  0  0  0
  148.4013  141.4802  158.6890 H   0  0  0  0  0  0  0  0  0  0  0  0
  147.7337  143.0931  158.7226 H   0  0  0  0  0  0  0  0  0  0  0  0
  146.5547  140.8613  157.0756 H   0  0  0  0  0  0  0  0  0  0  0  0
  145.9905  142.5132  157.1731 H   0  0  0  0  0  0  0  0  0  0  0  0
  145.2068  141.4474  155.0606 H   0  0  0  0  0  0  0  0  0  0  0  0
  146.2074  142.8425  154.7650 H   0  0  0  0  0  0  0  0  0  0  0  0
  146.9230  141.1662  153.2328 H   0  0  0  0  0  0  0  0  0  0  0  0
  147.9526  138.9460  154.5488 H   0  0  0  0  0  0  0  0  0  0  0  0
  146.5288  139.2965  155.4840 H   0  0  0  0  0  0  0  0  0  0  0  0
  145.6196  139.4991  152.9027 H   0  0  0  0  0  0  0  0  0  0  0  0
  144.1124  137.4468  152.2695 H   0  0  0  0  0  0  0  0  0  0  0  0
  145.4239  137.7705  151.1966 H   0  0  0  0  0  0  0  0  0  0  0  0
  142.5534  135.7139  152.8422 H   0  0  0  0  0  0  0  0  0  0  0  0
  143.7326  135.5172  154.1469 H   0  0  0  0  0  0  0  0  0  0  0  0
  142.7943  134.1352  153.5873 H   0  0  0  0  0  0  0  0  0  0  0  0
  146.3991  131.3087  150.1160 H   0  0  0  0  0  0  0  0  0  0  0  0
  144.6328  131.2950  150.0536 H   0  0  0  0  0  0  0  0  0  0  0  0
  145.4704  130.9880  151.5831 H   0  0  0  0  0  0  0  0  0  0  0  0
  149.3379  140.8983  153.9220 H   0  0  0  0  0  0  0  0  0  0  0  0
  148.7012  142.5018  154.1050 H   0  0  0  0  0  0  0  0  0  0  0  0
  150.0203  141.8847  156.0733 H   0  0  0  0  0  0  0  0  0  0  0  0
  149.0305  140.4772  156.3763 H   0  0  0  0  0  0  0  0  0  0  0  0
  148.0848  143.2520  156.3866 H   0  0  0  0  0  0  0  0  0  0  0  0
  1  2  1  0  0  0  0
  1 26  1  0  0  0  0
  1 27  1  0  0  0  0
  1 28  1  0  0  0  0
  2  3  1  0  0  0  0
  3  4  1  0  0  0  0
  3 29  1  0  0  0  0
  3 30  1  0  0  0  0
  4  5  1  0  0  0  0
  4 31  1  0  0  0  0
  4 32  1  0  0  0  0
  5 24  1  0  0  0  0
  5  6  1  0  0  0  0
  5 53  1  0  0  0  0
  6  7  1  0  0  0  0
  6 33  1  0  0  0  0
  6 34  1  0  0  0  0
  7  8  1  0  0  0  0
  7 35  1  0  0  0  0
  7 36  1  0  0  0  0
  8  9  1  0  0  0  0
  8 23  1  0  0  0  0
  8 37  1  0  0  0  0
  9 10  1  0  0  0  0
  9 38  1  0  0  0  0
  9 39  1  0  0  0  0
 10 11  1  0  0  0  0
 10 40  1  0  0  0  0
 11 12  2  0  0  0  0
 11 13  1  0  0  0  0
 13 41  1  0  0  0  0
 13 42  1  0  0  0  0
 13 14  1  0  0  0  0
 14 21  1  0  0  0  0
 14 15  2  0  0  0  0
 15 16  1  0  0  0  0
 15 17  1  0  0  0  0
 16 43  1  0  0  0  0
 16 44  1  0  0  0  0
 16 45  1  0  0  0  0
 17 25  1  0  0  0  0
 17 18  1  0  0  0  0
 18 19  1  0  0  0  0
 18 20  2  0  0  0  0
 19 46  1  0  0  0  0
 19 47  1  0  0  0  0
 19 48  1  0  0  0  0
 20 21  1  0  0  0  0
 21 22  2  0  0  0  0
 23 24  1  0  0  0  0
 23 49  1  0  0  0  0
 23 50  1  0  0  0  0
 24 51  1  0  0  0  0
 24 52  1  0  0  0  0
M  CHG  1   5   1
M  END
> <s_m_source_file>
AV-unprocessed.smi

> <i_m_source_file_index>
1041

> <i_lp_mmshare_version>
43012

> <i_f3d_flags>
0

> <s_epik_input>
W0NIM11PW0NIMl1bQ0gyXU4xW0NIMl1bQ0gyXVtDSF0oW0NIMl1bQ0gyXTEpW0NIMl1bTkhdQyg9TylbQ0gyXWMyYyhbQ0gzXSluYyhbQ0gzXSlbbkhdYzI9Tw==

> <s_epik_cmdline>
J2VwaWtfcHl0aG9uJywgJy1waCcsICc3LjAnLCAnLXRuJywgJzgnLCAnLW1hJywgJzIwMCcsICctbWV0YWxfYmluZGluZycsICctaW1hZScsICc8aW5maWxlLm1hZT4nLCAnLW9tYWUnLCAnPG91dGZpbGUubWFlPic=

> <r_lp_tautomer_probability>
0.156392

> <r_epik_Ionization_Penalty>
0.0240251

> <r_epik_Ionization_Penalty_Charging>
0.0239146

> <r_epik_Ionization_Penalty_Neutral>
0.000110474

> <r_epik_State_Penalty>
1.15942

> <r_epik_Charging_Adjusted_Penalty>
1.18333

> <i_epik_Tot_Q>
1

> <i_epik_Tot_abs_Q>
1

> <r_epik_Metal_State_Penalty>
1.33297

> <b_epik_Metal_Only>
0

> <s_lp_Force_Field>
OPLS_2005

> <r_lp_Energy>
25.6342

> <b_lp_Chiralities_Consistent>
1

> <s_lp_Variant>
AV-unprocessed.smi:1041-4

> <Gold.Version>
5.8.1

> <Gold.Id.Protein>
6NUR|6NUR_protein|mol2

> <Gold.PLP.Fitness>
46.9869

> <Gold.PLP.PLP>
-37.2858

> <Gold.PLP.part.hbond>
-3.0000

> <Gold.PLP.part.metal>
0.0000

> <Gold.PLP.part.buried>
-5.1538

> <Gold.PLP.part.nonpolar>
-31.3158

> <Gold.PLP.part.repulsive>
2.0310

> <Gold.PLP.ligand.clash>
0.0000

> <Gold.PLP.ligand.torsion>
1.2000

> <Gold.PLP.Chemscore.Hbond>
3.9913

> <Gold.PLP.Chemscore.CHOScore>
0.0000

> <Gold.PLP.Chemscore.Metal>
0.0000

> <Gold.Chemscore.Hbonds>
donor molecule, donor type, donor heavy atom, donor atom, acceptor molecule, acceptor atom, score
      L1  H     5    53       P1  8028  2.00
      L1  H    10    40       P1 10175  0.51
      P1  H  7954  7966       L1    22  0.30

> <Gold.PLP.Chemscore.Internal.Correction>
0.1275

> <Gold.Rescore>
     Score         DG    S(hbond)    S(metal)    S(lipo)     H(rot)  DE(clash)    DE(int)     intcor
     14.84     -17.39       2.74        0.00      76.75       2.43       1.89       0.67       ----

> <Gold.Chemscore.Fitness>
14.8392

> <Gold.Chemscore.DG>
-17.3922

> <Gold.Chemscore.ZeroCoef>
-5.4800

> <Gold.Chemscore.Hbond>
2.7398

> <Gold.Chemscore.Metal>
0.0000

> <Gold.Chemscore.Lipo>
76.7510

> <Gold.Chemscore.Internal_Hbond>
0.0000

> <Gold.Chemscore.DEClash>
1.8871

> <Gold.Chemscore.DEInternal>
0.6658

> <Gold.Chemscore.Rot>
2.4291

> <Gold.Chemscore.Internal.Correction>
   9.000000E+99

> <Gold.Chemscore.Hbonds>
donor molecule, donor type, donor heavy atom, donor atom, acceptor molecule, acceptor atom, score
      L1  H     5    53       P1  8028  0.30
      L1  H    10    40       P1 10175  0.50
      P1  H  7954  7966       L1    22  0.29

> <Gold.Chemscore.Hbond.Weighted>
-9.1509

> <Gold.Chemscore.Metal.Weighted>
-0.0000

> <Gold.Chemscore.Lipo.Weighted>
-8.9799

> <Gold.Chemscore.Internal_Hbond.Weighted>
0.0000

> <Gold.Chemscore.DEClash.Weighted>
1.8871

> <Gold.Chemscore.DEInternal.Weighted>
0.6658

> <Gold.Chemscore.Rot.Weighted>
6.2186

> <Gold.Chemscore.Internal.Correction.Weighted>
   9.000000E+99

> <Gold.Protein.RotatedTorsions>
[ 6907 6896 6895 6894 ] final  -22.40 input  -60.11 | X-H torsion
[ 7974 7965 7964 7962 ] final -102.38 input  175.53 | X-H torsion
[ 8008 7997 7996 7995 ] final  -85.99 input   59.86 | X-H torsion
[ 10167 10162 10161 10158 ] final   59.59 input  -65.29 | X-H torsion
[ 10718 10713 10712 10709 ] final   71.57 input   66.30 | X-H torsion
[ 10763 10752 10751 10750 ] final  145.36 input  -60.55 | X-H torsion
[ 11005 11000 10999 10996 ] final   51.74 input  -57.11 | X-H torsion

> <Gold.Protein.ActiveResidues>
 VAL166  LYS551  ARG553  GLY616  TRP617  ASP618  TYR619  PRO620  LYS621  CYS622 
 ASP623  PHE694  ASN695  SER759  ASP760  ASP761  ALA762  ILE779  LEU786  VAL792 
 PHE793  MET794  SER795  GLU796  ALA797  LYS798  CYS799  TRP800  GLU811  SER814 

> <Gold.Protein.RotatedAtoms>
  151.2191  135.0511  159.8942 H   0  0  0  0  0  0  0  0  0  0  0  0  # atno 6907 bound_to 6896
  152.5417  134.0660  159.8183 H   0  0  0  0  0  0  0  0  0  0  0  0  # atno 6908 bound_to 6896
  151.0824  133.5331  159.2651 H   0  0  0  0  0  0  0  0  0  0  0  0  # atno 6909 bound_to 6896
  145.2695  140.9294  143.2994 H   0  0  0  0  0  0  0  0  0  0  0  0  # atno 7974 bound_to 7965
  154.6469  140.0584  156.9910 H   0  0  0  0  0  0  0  0  0  0  0  0  # atno 8008 bound_to 7997
  155.1431  140.3267  155.4429 H   0  0  0  0  0  0  0  0  0  0  0  0  # atno 8009 bound_to 7997
  156.2557  140.1960  156.6546 H   0  0  0  0  0  0  0  0  0  0  0  0  # atno 8010 bound_to 7997
  140.1747  144.4241  150.6644 H   0  0  0  0  0  0  0  0  0  0  0  0  # atno 10167 bound_to 10162
  157.6458  130.9535  150.0807 H   0  0  0  0  0  0  0  0  0  0  0  0  # atno 10718 bound_to 10713
  154.0042  135.2920  155.3399 H   0  0  0  0  0  0  0  0  0  0  0  0  # atno 10763 bound_to 10752
  154.7141  135.5137  153.8715 H   0  0  0  0  0  0  0  0  0  0  0  0  # atno 10764 bound_to 10752
  153.0752  135.6661  154.0280 H   0  0  0  0  0  0  0  0  0  0  0  0  # atno 10765 bound_to 10752
  140.0907  134.5213  155.8855 H   0  0  0  0  0  0  0  0  0  0  0  0  # atno 11005 bound_to 11000
  144.9348  139.4257  143.6478 LP  0  0  0  0  0  0  0  0  0  0  0  0  # atno 17320 bound_to 7965
  146.3251  139.8277  142.8914 LP  0  0  0  0  0  0  0  0  0  0  0  0  # atno 17321 bound_to 7965
  140.6559  143.2237  151.5970 LP  0  0  0  0  0  0  0  0  0  0  0  0  # atno 17342 bound_to 10162
  139.5322  144.2883  152.1173 LP  0  0  0  0  0  0  0  0  0  0  0  0  # atno 17343 bound_to 10162
  156.1784  130.3649  149.9068 LP  0  0  0  0  0  0  0  0  0  0  0  0  # atno 17370 bound_to 10713
  156.7026  130.8939  151.3601 LP  0  0  0  0  0  0  0  0  0  0  0  0  # atno 17371 bound_to 10713
  141.2077  133.6666  156.6321 LP  0  0  0  0  0  0  0  0  0  0  0  0  # atno 17394 bound_to 11000
  140.3356  134.7892  157.4359 LP  0  0  0  0  0  0  0  0  0  0  0  0  # atno 17395 bound_to 11000

$$$$
