AV-unprocessed.smi:114|AV-procd|sdf|1114|dock5
  -GOLD-   2262018233D 1   1.00000     0.00000
 Structure written by MMmdl.
 32 34  0  0  0  0  0  0  0  0  1 V2000
  143.2433  145.0657  155.8375 N   0  0  0  0  0  0  0  0  0  0  0  0
  144.1128  144.6231  154.9182 C   0  0  0  0  0  0  0  0  0  0  0  0
  144.2401  145.3189  153.7644 N   0  0  0  0  0  0  0  0  0  0  0  0
  145.0959  144.9103  152.8195 C   0  0  0  0  0  0  0  0  0  0  0  0
  145.1592  145.6647  151.6974 F   0  0  0  0  0  0  0  0  0  0  0  0
  145.8974  143.8407  152.8597 N   0  0  0  0  0  0  0  0  0  0  0  0
  145.7735  143.1368  154.0219 C   0  0  0  0  0  0  0  0  0  0  0  0
  144.9038  143.4620  155.0971 C   0  0  0  0  0  0  0  0  0  0  0  0
  145.0378  142.5268  156.1143 N   0  0  0  0  0  0  0  0  0  0  0  0
  145.9375  141.6956  155.6599 C   0  0  0  0  0  0  0  0  0  0  0  0
  146.4369  141.9901  154.4099 N   0  0  0  0  0  0  0  0  0  0  0  0
  147.4641  141.2296  153.6354 C   0  0  1  0  0  0  0  0  0  0  0  0
  148.6547  141.2553  154.3599 O   0  0  0  0  0  0  0  0  0  0  0  0
  149.2758  139.9766  154.3087 C   0  0  1  0  0  0  0  0  0  0  0  0
  150.2050  139.8038  155.5197 C   0  0  0  0  0  0  0  0  0  0  0  0
  151.4156  140.4974  155.3047 O   0  0  0  0  0  0  0  0  0  0  0  0
  148.0772  139.0260  154.3170 C   0  0  2  0  0  0  0  0  0  0  0  0
  148.3982  137.7352  153.8319 O   0  0  0  0  0  0  0  0  0  0  0  0
  147.0472  139.7596  153.4593 C   0  0  2  0  0  0  0  0  0  0  0  0
  147.1135  139.3770  152.0973 O   0  0  0  0  0  0  0  0  0  0  0  0
  147.5676  141.7746  152.6958 H   0  0  0  0  0  0  0  0  0  0  0  0
  149.8208  139.8754  153.3678 H   0  0  0  0  0  0  0  0  0  0  0  0
  147.6941  138.9274  155.3327 H   0  0  0  0  0  0  0  0  0  0  0  0
  146.0310  139.5915  153.8191 H   0  0  0  0  0  0  0  0  0  0  0  0
  143.1307  144.5629  156.7062 H   0  0  0  0  0  0  0  0  0  0  0  0
  142.7009  145.8985  155.6591 H   0  0  0  0  0  0  0  0  0  0  0  0
  146.2658  140.8392  156.2309 H   0  0  0  0  0  0  0  0  0  0  0  0
  149.7271  140.1450  156.4388 H   0  0  0  0  0  0  0  0  0  0  0  0
  150.4523  138.7507  155.6560 H   0  0  0  0  0  0  0  0  0  0  0  0
  151.3337  141.3646  155.6713 H   0  0  0  0  0  0  0  0  0  0  0  0
  148.5891  137.8015  152.9087 H   0  0  0  0  0  0  0  0  0  0  0  0
  147.9836  139.5613  151.7777 H   0  0  0  0  0  0  0  0  0  0  0  0
  1  2  1  0  0  0  0
  1 25  1  0  0  0  0
  1 26  1  0  0  0  0
  2  8  1  0  0  0  0
  2  3  2  0  0  0  0
  3  4  1  0  0  0  0
  4  5  1  0  0  0  0
  4  6  2  0  0  0  0
  6  7  1  0  0  0  0
  7 11  1  0  0  0  0
  7  8  2  0  0  0  0
  8  9  1  0  0  0  0
  9 10  2  0  0  0  0
 10 11  1  0  0  0  0
 10 27  1  0  0  0  0
 11 12  1  0  0  0  0
 12 21  1  0  0  0  0
 12 19  1  0  0  0  0
 12 13  1  0  0  0  0
 13 14  1  0  0  0  0
 14 22  1  0  0  0  0
 14 15  1  0  0  0  0
 14 17  1  0  0  0  0
 15 16  1  0  0  0  0
 15 28  1  0  0  0  0
 15 29  1  0  0  0  0
 16 30  1  0  0  0  0
 17 23  1  0  0  0  0
 17 18  1  0  0  0  0
 17 19  1  0  0  0  0
 18 31  1  0  0  0  0
 19 24  1  0  0  0  0
 19 20  1  0  0  0  0
 20 32  1  0  0  0  0
M  END
> <s_m_source_file>
AV-unprocessed.smi

> <i_m_source_file_index>
114

> <i_lp_mmshare_version>
43012

> <i_f3d_flags>
0

> <s_epik_input>
RmMobjEpbmMoW05IMl0pYyhjMTIpbltjSF1uMltDQEBIXTNPW0NASF0oW0NIMl1bT0hdKVtDQEBIXShbT0hdKVtDQEBIXTNbT0hd

> <s_epik_cmdline>
J2VwaWtfcHl0aG9uJywgJy1waCcsICc3LjAnLCAnLXRuJywgJzgnLCAnLW1hJywgJzIwMCcsICctbWV0YWxfYmluZGluZycsICctaW1hZScsICc8aW5maWxlLm1hZT4nLCAnLW9tYWUnLCAnPG91dGZpbGUubWFlPic=

> <r_lp_tautomer_probability>
1

> <r_epik_Ionization_Penalty>
1.13199e-05

> <r_epik_Ionization_Penalty_Charging>
0

> <r_epik_Ionization_Penalty_Neutral>
1.13199e-05

> <r_epik_State_Penalty>
-0

> <r_epik_Charging_Adjusted_Penalty>
0

> <i_epik_Tot_Q>
0

> <i_epik_Tot_abs_Q>
0

> <r_epik_Metal_State_Penalty>
-0

> <b_epik_Metal_Only>
0

> <s_epik_Chemistry_Notes>
This compound contains an acetal/aminal-like group ( X-CH(R)-Y where X, Y are N, S, or O) that may be acid/base labile, releasing an aldehyde.

> <s_lp_Force_Field>
OPLS_2005

> <r_lp_Energy>
39.1669

> <b_lp_Chiralities_Consistent>
1

> <s_lp_Variant>
AV-unprocessed.smi:114-8

> <Gold.Version>
5.8.1

> <Gold.Id.Protein>
6NUR|6NUR_protein|mol2

> <Gold.PLP.Fitness>
39.3925

> <Gold.PLP.PLP>
-32.6803

> <Gold.PLP.part.hbond>
-3.9985

> <Gold.PLP.part.metal>
0.0000

> <Gold.PLP.part.buried>
-2.8777

> <Gold.PLP.part.nonpolar>
-27.6465

> <Gold.PLP.part.repulsive>
0.5424

> <Gold.PLP.ligand.clash>
0.0000

> <Gold.PLP.ligand.torsion>
0.1424

> <Gold.PLP.Chemscore.Hbond>
2.3280

> <Gold.PLP.Chemscore.CHOScore>
0.0000

> <Gold.PLP.Chemscore.Metal>
0.0000

> <Gold.Chemscore.Hbonds>
donor molecule, donor type, donor heavy atom, donor atom, acceptor molecule, acceptor atom, score
      L1  H    18    31       P1  7948  0.45
      L1  H    20    32       P1  7957  1.00
      P1  H  7989  7998       L1    16  0.88

> <Gold.PLP.Chemscore.Internal.Correction>
0.0130

> <Gold.Rescore>
     Score         DG    S(hbond)    S(metal)    S(lipo)     H(rot)  DE(clash)    DE(int)     intcor
      4.77      -5.25       2.12        0.00      25.63       4.03       0.42       0.06       ----

> <Gold.Chemscore.Fitness>
4.7733

> <Gold.Chemscore.DG>
-5.2539

> <Gold.Chemscore.ZeroCoef>
-5.4800

> <Gold.Chemscore.Hbond>
2.1217

> <Gold.Chemscore.Metal>
0.0000

> <Gold.Chemscore.Lipo>
25.6267

> <Gold.Chemscore.Internal_Hbond>
0.0000

> <Gold.Chemscore.DEClash>
0.4245

> <Gold.Chemscore.DEInternal>
0.0561

> <Gold.Chemscore.Rot>
4.0277

> <Gold.Chemscore.Internal.Correction>
   9.000000E+99

> <Gold.Chemscore.Hbonds>
donor molecule, donor type, donor heavy atom, donor atom, acceptor molecule, acceptor atom, score
      L1  H    18    31       P1  7948  0.44
      L1  H    20    32       P1  7957  1.00
      P1  H  7989  7998       L1    16  0.20

> <Gold.Chemscore.Hbond.Weighted>
-7.0866

> <Gold.Chemscore.Metal.Weighted>
-0.0000

> <Gold.Chemscore.Lipo.Weighted>
-2.9983

> <Gold.Chemscore.Internal_Hbond.Weighted>
0.0000

> <Gold.Chemscore.DEClash.Weighted>
0.4245

> <Gold.Chemscore.DEInternal.Weighted>
0.0561

> <Gold.Chemscore.Rot.Weighted>
10.3110

> <Gold.Chemscore.Internal.Correction.Weighted>
   9.000000E+99

> <Gold.Protein.RotatedTorsions>
[ 6907 6896 6895 6894 ] final -112.82 input  -60.11 | X-H torsion
[ 7974 7965 7964 7962 ] final  142.66 input  175.53 | X-H torsion
[ 8008 7997 7996 7995 ] final -130.54 input   59.86 | X-H torsion
[ 10167 10162 10161 10158 ] final -126.40 input  -65.29 | X-H torsion
[ 10718 10713 10712 10709 ] final   18.33 input   66.30 | X-H torsion
[ 10763 10752 10751 10750 ] final  166.38 input  -60.55 | X-H torsion
[ 11005 11000 10999 10996 ] final  -14.31 input  -57.11 | X-H torsion

> <Gold.Protein.ActiveResidues>
 VAL166  LYS551  ARG553  GLY616  TRP617  ASP618  TYR619  PRO620  LYS621  CYS622 
 ASP623  PHE694  ASN695  SER759  ASP760  ASP761  ALA762  ILE779  LEU786  VAL792 
 PHE793  MET794  SER795  GLU796  ALA797  LYS798  CYS799  TRP800  GLU811  SER814 

> <Gold.Protein.RotatedAtoms>
  150.7785  133.9035  159.3347 H   0  0  0  0  0  0  0  0  0  0  0  0  # atno 6907 bound_to 6896
  151.6903  135.0945  160.0242 H   0  0  0  0  0  0  0  0  0  0  0  0  # atno 6908 bound_to 6896
  152.3829  133.6532  159.6211 H   0  0  0  0  0  0  0  0  0  0  0  0  # atno 6909 bound_to 6896
  144.8988  139.5452  143.5763 H   0  0  0  0  0  0  0  0  0  0  0  0  # atno 7974 bound_to 7965
  155.2974  140.0451  157.3027 H   0  0  0  0  0  0  0  0  0  0  0  0  # atno 8008 bound_to 7997
  154.5506  140.2316  155.8458 H   0  0  0  0  0  0  0  0  0  0  0  0  # atno 8009 bound_to 7997
  156.1963  140.3037  155.9441 H   0  0  0  0  0  0  0  0  0  0  0  0  # atno 8010 bound_to 7997
  139.9719  143.5836  152.2410 H   0  0  0  0  0  0  0  0  0  0  0  0  # atno 10167 bound_to 10162
  157.0947  130.6443  149.5857 H   0  0  0  0  0  0  0  0  0  0  0  0  # atno 10718 bound_to 10713
  154.3381  135.2754  155.2437 H   0  0  0  0  0  0  0  0  0  0  0  0  # atno 10763 bound_to 10752
  154.4720  135.5880  153.6331 H   0  0  0  0  0  0  0  0  0  0  0  0  # atno 10764 bound_to 10752
  152.9860  135.6090  154.3579 H   0  0  0  0  0  0  0  0  0  0  0  0  # atno 10765 bound_to 10752
  140.7851  133.8332  155.9328 H   0  0  0  0  0  0  0  0  0  0  0  0  # atno 11005 bound_to 11000
  146.3097  139.7702  142.9029 LP  0  0  0  0  0  0  0  0  0  0  0  0  # atno 17320 bound_to 7965
  145.3652  141.0333  143.3262 LP  0  0  0  0  0  0  0  0  0  0  0  0  # atno 17321 bound_to 7965
  139.6475  144.7659  151.2215 LP  0  0  0  0  0  0  0  0  0  0  0  0  # atno 17342 bound_to 10162
  140.7519  143.6215  150.8508 LP  0  0  0  0  0  0  0  0  0  0  0  0  # atno 17343 bound_to 10162
  155.9889  130.4934  150.7189 LP  0  0  0  0  0  0  0  0  0  0  0  0  # atno 17370 bound_to 10713
  157.4691  131.0891  151.0662 LP  0  0  0  0  0  0  0  0  0  0  0  0  # atno 17371 bound_to 10713
  140.9444  134.1859  157.4774 LP  0  0  0  0  0  0  0  0  0  0  0  0  # atno 17394 bound_to 11000
  139.8737  134.9885  156.5413 LP  0  0  0  0  0  0  0  0  0  0  0  0  # atno 17395 bound_to 11000

$$$$
