AV-unprocessed.smi:1561|AV-procd|sdf|6286|dock10
  -GOLD-   22720 6483D 1   1.00000     0.00000
 Structure written by MMmdl.
 33 34  0  0  0  0  0  0  0  0  1 V2000
  153.2808  141.9905  161.6300 C   0  0  0  0  0  0  0  0  0  0  0  0
  153.5204  142.0875  160.1094 C   0  0  1  0  0  0  0  0  0  0  0  0
  153.3690  140.7333  159.3989 C   0  0  0  0  0  0  0  0  0  0  0  0
  154.3530  140.0274  159.1754 O   0  0  0  0  0  0  0  0  0  0  0  0
  152.1208  140.3857  159.0466 N   0  0  0  0  0  0  0  0  0  0  0  0
  151.7407  139.1470  158.3749 C   0  0  0  0  0  0  0  0  0  0  0  0
  152.1820  139.1323  156.8993 C   0  0  1  0  0  0  0  0  0  0  0  0
  151.7479  137.9145  156.1054 C   0  0  0  0  0  0  0  0  0  0  0  0
  151.8735  138.4062  154.6659 C   0  0  0  0  0  0  0  0  0  0  0  0
  151.6644  139.8153  154.7101 O   0  0  0  0  0  0  0  0  0  0  0  0
  151.5654  140.2512  156.0619 C   0  0  0  0  0  0  0  0  0  0  0  0
  152.6693  143.0887  159.4766 N   0  0  0  0  0  0  0  0  0  0  0  0
  152.4755  144.4007  159.8593 C   0  0  0  0  0  0  0  0  0  0  0  0
  151.6288  144.9731  158.9538 C   0  0  0  0  0  0  0  0  0  0  0  0
  151.3616  143.9236  158.0317 C   0  0  0  0  0  0  0  0  0  0  0  0
  151.9909  142.8022  158.3408 N   0  0  0  0  0  0  0  0  0  0  0  0
  153.9694  141.2810  162.0904 H   0  0  0  0  0  0  0  0  0  0  0  0
  152.2667  141.6665  161.8674 H   0  0  0  0  0  0  0  0  0  0  0  0
  153.4395  142.9566  162.1099 H   0  0  0  0  0  0  0  0  0  0  0  0
  154.5526  142.4138  159.9715 H   0  0  0  0  0  0  0  0  0  0  0  0
  151.3735  141.0269  159.2696 H   0  0  0  0  0  0  0  0  0  0  0  0
  152.1363  138.2793  158.9061 H   0  0  0  0  0  0  0  0  0  0  0  0
  150.6549  139.0654  158.4286 H   0  0  0  0  0  0  0  0  0  0  0  0
  153.2687  139.2182  156.8433 H   0  0  0  0  0  0  0  0  0  0  0  0
  152.3546  137.0306  156.3043 H   0  0  0  0  0  0  0  0  0  0  0  0
  150.7075  137.6699  156.3254 H   0  0  0  0  0  0  0  0  0  0  0  0
  152.8777  138.2182  154.2844 H   0  0  0  0  0  0  0  0  0  0  0  0
  151.1612  137.9189  153.9997 H   0  0  0  0  0  0  0  0  0  0  0  0
  150.5099  140.3796  156.3059 H   0  0  0  0  0  0  0  0  0  0  0  0
  152.0649  141.2091  156.2090 H   0  0  0  0  0  0  0  0  0  0  0  0
  152.9517  144.8143  160.7361 H   0  0  0  0  0  0  0  0  0  0  0  0
  151.2601  145.9881  158.9481 H   0  0  0  0  0  0  0  0  0  0  0  0
  150.7373  143.9444  157.1508 H   0  0  0  0  0  0  0  0  0  0  0  0
  1  2  1  0  0  0  0
  1 17  1  0  0  0  0
  1 18  1  0  0  0  0
  1 19  1  0  0  0  0
  2  3  1  0  0  0  0
  2 12  1  0  0  0  0
  2 20  1  0  0  0  0
  3  4  2  0  0  0  0
  3  5  1  0  0  0  0
  5  6  1  0  0  0  0
  5 21  1  0  0  0  0
  6  7  1  0  0  0  0
  6 22  1  0  0  0  0
  6 23  1  0  0  0  0
  7 11  1  0  0  0  0
  7  8  1  0  0  0  0
  7 24  1  0  0  0  0
  8  9  1  0  0  0  0
  8 25  1  0  0  0  0
  8 26  1  0  0  0  0
  9 10  1  0  0  0  0
  9 27  1  0  0  0  0
  9 28  1  0  0  0  0
 10 11  1  0  0  0  0
 11 29  1  0  0  0  0
 11 30  1  0  0  0  0
 12 16  1  0  0  0  0
 12 13  1  0  0  0  0
 13 14  2  0  0  0  0
 13 31  1  0  0  0  0
 14 15  1  0  0  0  0
 14 32  1  0  0  0  0
 15 16  2  0  0  0  0
 15 33  1  0  0  0  0
M  END
> <s_m_source_file>
AV-unprocessed.smi

> <i_m_source_file_index>
1561

> <i_lp_mmshare_version>
43012

> <i_f3d_flags>
0

> <s_epik_input>
bjFbY0hdW2NIXVtjSF1uMVtDQEhdKFtDSDNdKUMoPU8pW05IXVtDSDJdW0NAQEhdMltDSDJdW0NIMl1PW0NIMl0y

> <s_epik_cmdline>
J2VwaWtfcHl0aG9uJywgJy1waCcsICc3LjAnLCAnLXRuJywgJzgnLCAnLW1hJywgJzIwMCcsICctbWV0YWxfYmluZGluZycsICctaW1hZScsICc8aW5maWxlLm1hZT4nLCAnLW9tYWUnLCAnPG91dGZpbGUubWFlPic=

> <r_lp_tautomer_probability>
1

> <r_epik_Ionization_Penalty>
3.82077e-05

> <r_epik_Ionization_Penalty_Charging>
0

> <r_epik_Ionization_Penalty_Neutral>
3.82077e-05

> <r_epik_State_Penalty>
-0

> <r_epik_Charging_Adjusted_Penalty>
0

> <i_epik_Tot_Q>
0

> <i_epik_Tot_abs_Q>
0

> <r_epik_Metal_State_Penalty>
-0

> <b_epik_Metal_Only>
0

> <s_lp_Force_Field>
OPLS_2005

> <r_lp_Energy>
22.4357

> <b_lp_Chiralities_Consistent>
1

> <s_lp_Variant>
AV-unprocessed.smi:1561-4

> <Gold.Version>
5.8.1

> <Gold.Id.Protein>
6NUR|6NUR_protein|mol2

> <Gold.PLP.Fitness>
46.0804

> <Gold.PLP.PLP>
-38.6255

> <Gold.PLP.part.hbond>
-2.0000

> <Gold.PLP.part.metal>
0.0000

> <Gold.PLP.part.buried>
-5.4206

> <Gold.PLP.part.nonpolar>
-31.5603

> <Gold.PLP.part.repulsive>
0.2277

> <Gold.PLP.ligand.clash>
0.0000

> <Gold.PLP.ligand.torsion>
0.8250

> <Gold.PLP.Chemscore.Hbond>
2.0000

> <Gold.PLP.Chemscore.CHOScore>
1.0000

> <Gold.PLP.Chemscore.Metal>
0.0000

> <Gold.Chemscore.Hbonds>
donor molecule, donor type, donor heavy atom, donor atom, acceptor molecule, acceptor atom, score
      P1  H  7989  7998       L1    10  1.00
      P1  H  7997  8010       L1     4  0.99
      L1  C    15    33       P1  8028  1.00

> <Gold.PLP.Chemscore.Internal.Correction>
0.1049

> <Gold.Rescore>
     Score         DG    S(hbond)    S(metal)    S(lipo)     H(rot)  DE(clash)    DE(int)     intcor
     16.14     -18.34       1.91        0.00      90.67       1.61       0.02       2.18       ----

> <Gold.Chemscore.Fitness>
16.1399

> <Gold.Chemscore.DG>
-18.3395

> <Gold.Chemscore.ZeroCoef>
-5.4800

> <Gold.Chemscore.Hbond>
1.9075

> <Gold.Chemscore.Metal>
0.0000

> <Gold.Chemscore.Lipo>
90.6713

> <Gold.Chemscore.Internal_Hbond>
0.0000

> <Gold.Chemscore.DEClash>
0.0198

> <Gold.Chemscore.DEInternal>
2.1799

> <Gold.Chemscore.Rot>
1.6094

> <Gold.Chemscore.Internal.Correction>
   9.000000E+99

> <Gold.Chemscore.Hbonds>
donor molecule, donor type, donor heavy atom, donor atom, acceptor molecule, acceptor atom, score
      P1  H  7989  7998       L1    10  0.95
      P1  H  7997  8010       L1     4  0.78

> <Gold.Chemscore.Hbond.Weighted>
-6.3710

> <Gold.Chemscore.Metal.Weighted>
-0.0000

> <Gold.Chemscore.Lipo.Weighted>
-10.6085

> <Gold.Chemscore.Internal_Hbond.Weighted>
0.0000

> <Gold.Chemscore.DEClash.Weighted>
0.0198

> <Gold.Chemscore.DEInternal.Weighted>
2.1799

> <Gold.Chemscore.Rot.Weighted>
4.1201

> <Gold.Chemscore.Internal.Correction.Weighted>
   9.000000E+99

> <Gold.Protein.RotatedTorsions>
[ 6907 6896 6895 6894 ] final  -87.98 input  -60.11 | X-H torsion
[ 7974 7965 7964 7962 ] final   87.51 input  175.53 | X-H torsion
[ 8008 7997 7996 7995 ] final   13.24 input   59.86 | X-H torsion
[ 10167 10162 10161 10158 ] final -115.05 input  -65.29 | X-H torsion
[ 10718 10713 10712 10709 ] final   13.15 input   66.30 | X-H torsion
[ 10763 10752 10751 10750 ] final -166.57 input  -60.55 | X-H torsion
[ 11005 11000 10999 10996 ] final  128.68 input  -57.11 | X-H torsion

> <Gold.Protein.ActiveResidues>
 VAL166  LYS551  ARG553  GLY616  TRP617  ASP618  TYR619  PRO620  LYS621  CYS622 
 ASP623  PHE694  ASN695  SER759  ASP760  ASP761  ALA762  ILE779  LEU786  VAL792 
 PHE793  MET794  SER795  GLU796  ALA797  LYS798  CYS799  TRP800  GLU811  SER814 

> <Gold.Protein.RotatedAtoms>
  150.6867  134.2812  159.4627 H   0  0  0  0  0  0  0  0  0  0  0  0  # atno 6907 bound_to 6896
  152.0726  134.9521  160.0583 H   0  0  0  0  0  0  0  0  0  0  0  0  # atno 6908 bound_to 6896
  152.0905  133.4163  159.4578 H   0  0  0  0  0  0  0  0  0  0  0  0  # atno 6909 bound_to 6896
  145.5581  139.2301  143.2475 H   0  0  0  0  0  0  0  0  0  0  0  0  # atno 7974 bound_to 7965
  154.8318  140.2900  155.5717 H   0  0  0  0  0  0  0  0  0  0  0  0  # atno 8008 bound_to 7997
  156.3006  140.2530  156.3175 H   0  0  0  0  0  0  0  0  0  0  0  0  # atno 8009 bound_to 7997
  154.9223  140.0385  157.1994 H   0  0  0  0  0  0  0  0  0  0  0  0  # atno 8010 bound_to 7997
  140.0943  143.4671  152.1851 H   0  0  0  0  0  0  0  0  0  0  0  0  # atno 10167 bound_to 10162
  157.0204  130.6152  149.5720 H   0  0  0  0  0  0  0  0  0  0  0  0  # atno 10718 bound_to 10713
  154.6819  135.2956  154.9600 H   0  0  0  0  0  0  0  0  0  0  0  0  # atno 10763 bound_to 10752
  154.0592  135.6633  153.4813 H   0  0  0  0  0  0  0  0  0  0  0  0  # atno 10764 bound_to 10752
  153.0553  135.5148  154.7867 H   0  0  0  0  0  0  0  0  0  0  0  0  # atno 10765 bound_to 10752
  139.9574  134.9610  156.9037 H   0  0  0  0  0  0  0  0  0  0  0  0  # atno 11005 bound_to 11000
  146.1870  140.6405  142.9163 LP  0  0  0  0  0  0  0  0  0  0  0  0  # atno 17320 bound_to 7965
  144.7496  140.5158  143.6811 LP  0  0  0  0  0  0  0  0  0  0  0  0  # atno 17321 bound_to 7965
  139.5707  144.7461  151.3899 LP  0  0  0  0  0  0  0  0  0  0  0  0  # atno 17342 bound_to 10162
  140.7012  143.7627  150.7406 LP  0  0  0  0  0  0  0  0  0  0  0  0  # atno 17343 bound_to 10162
  156.0104  130.5195  150.7970 LP  0  0  0  0  0  0  0  0  0  0  0  0  # atno 17370 bound_to 10713
  157.5254  131.0934  151.0025 LP  0  0  0  0  0  0  0  0  0  0  0  0  # atno 17371 bound_to 10713
  140.5578  134.0564  155.7389 LP  0  0  0  0  0  0  0  0  0  0  0  0  # atno 17394 bound_to 11000
  141.1247  133.9403  157.2660 LP  0  0  0  0  0  0  0  0  0  0  0  0  # atno 17395 bound_to 11000

$$$$
