AV-unprocessed.smi:386|AV-procd|sdf|2473|dock6
  -GOLD-   2262022413D 1   1.00000     0.00000
 Structure written by MMmdl.
 27 28  0  0  0  0  0  0  0  0  1 V2000
  150.3630  140.4185  154.8350 N   0  0  0  0  0  0  0  0  0  0  0  0
  150.8049  140.8023  155.8335 C   0  0  0  0  0  0  0  0  0  0  0  0
  151.3743  141.2846  157.0480 C   0  0  0  0  0  0  0  0  0  0  0  0
  151.2636  142.5759  157.4216 C   0  0  0  0  0  0  0  0  0  0  0  0
  151.8007  143.0569  158.5957 N   0  0  0  0  0  0  0  0  0  0  0  0
  151.8094  144.4614  158.8948 C   0  0  0  0  0  0  0  0  0  0  0  0
  151.5603  144.9455  160.3100 C   0  0  0  0  0  0  0  0  0  0  0  0
  150.5064  145.1445  159.2482 C   0  0  0  0  0  0  0  0  0  0  0  0
  152.5683  142.2094  159.4242 C   0  0  0  0  0  0  0  0  0  0  0  0
  153.1399  142.6440  160.4273 O   0  0  0  0  0  0  0  0  0  0  0  0
  152.6733  140.8448  159.0607 N   0  0  0  0  0  0  0  0  0  0  0  0
  153.4589  139.9385  159.9273 C   0  0  0  0  0  0  0  0  0  0  0  0
  154.9712  139.9876  159.6579 C   0  0  0  0  0  0  0  0  0  0  0  0
  155.7170  140.6140  160.5705 N   0  0  0  0  0  0  0  0  0  0  0  0
  155.4637  139.4766  158.6529 O   0  0  0  0  0  0  0  0  0  0  0  0
  152.0939  140.3203  157.8769 C   0  0  0  0  0  0  0  0  0  0  0  0
  152.2151  139.1294  157.5841 O   0  0  0  0  0  0  0  0  0  0  0  0
  150.7294  143.2615  156.7793 H   0  0  0  0  0  0  0  0  0  0  0  0
  152.5110  145.0543  158.3104 H   0  0  0  0  0  0  0  0  0  0  0  0
  151.3546  144.2044  161.0802 H   0  0  0  0  0  0  0  0  0  0  0  0
  152.1121  145.8220  160.6434 H   0  0  0  0  0  0  0  0  0  0  0  0
  150.3528  146.1554  158.8764 H   0  0  0  0  0  0  0  0  0  0  0  0
  149.6089  144.5328  159.3176 H   0  0  0  0  0  0  0  0  0  0  0  0
  153.2886  140.1632  160.9815 H   0  0  0  0  0  0  0  0  0  0  0  0
  153.1201  138.9068  159.8205 H   0  0  0  0  0  0  0  0  0  0  0  0
  156.7170  140.6797  160.4475 H   0  0  0  0  0  0  0  0  0  0  0  0
  155.2763  141.0221  161.3823 H   0  0  0  0  0  0  0  0  0  0  0  0
  1  2  3  0  0  0  0
  2  3  1  0  0  0  0
  3 16  1  0  0  0  0
  3  4  2  0  0  0  0
  4  5  1  0  0  0  0
  4 18  1  0  0  0  0
  5  6  1  0  0  0  0
  5  9  1  0  0  0  0
  6  8  1  0  0  0  0
  6  7  1  0  0  0  0
  6 19  1  0  0  0  0
  7  8  1  0  0  0  0
  7 20  1  0  0  0  0
  7 21  1  0  0  0  0
  8 22  1  0  0  0  0
  8 23  1  0  0  0  0
  9 10  2  0  0  0  0
  9 11  1  0  0  0  0
 11 12  1  0  0  0  0
 11 16  1  0  0  0  0
 12 13  1  0  0  0  0
 12 24  1  0  0  0  0
 12 25  1  0  0  0  0
 13 14  1  0  0  0  0
 13 15  2  0  0  0  0
 14 26  1  0  0  0  0
 14 27  1  0  0  0  0
 16 17  2  0  0  0  0
M  END
> <s_m_source_file>
AV-unprocessed.smi

> <i_m_source_file_index>
386

> <i_lp_mmshare_version>
43012

> <i_f3d_flags>
0

> <s_epik_input>
TiNDYzFbY0hdbihbQ0hdMltDSDJdW0NIMl0yKWMoPU8pbihjMT1PKVtDSDJdQyg9TylbTkgyXQ==

> <s_epik_cmdline>
J2VwaWtfcHl0aG9uJywgJy1waCcsICc3LjAnLCAnLXRuJywgJzgnLCAnLW1hJywgJzIwMCcsICctbWV0YWxfYmluZGluZycsICctaW1hZScsICc8aW5maWxlLm1hZT4nLCAnLW9tYWUnLCAnPG91dGZpbGUubWFlPic=

> <r_lp_tautomer_probability>
1

> <r_epik_Ionization_Penalty>
3.46323e-08

> <r_epik_Ionization_Penalty_Charging>
7.2855e-11

> <r_epik_Ionization_Penalty_Neutral>
3.45594e-08

> <r_epik_State_Penalty>
-0

> <r_epik_Charging_Adjusted_Penalty>
7.2855e-11

> <i_epik_Tot_Q>
0

> <i_epik_Tot_abs_Q>
0

> <r_epik_Metal_State_Penalty>
-0

> <b_epik_Metal_Only>
0

> <s_lp_Force_Field>
OPLS_2005

> <r_lp_Energy>
26.3068

> <b_lp_Chiralities_Consistent>
1

> <s_lp_Variant>
AV-unprocessed.smi:386-1

> <Gold.Version>
5.8.1

> <Gold.Id.Protein>
6NUR|6NUR_protein|mol2

> <Gold.PLP.Fitness>
44.9855

> <Gold.PLP.PLP>
-37.9927

> <Gold.PLP.part.hbond>
-3.0000

> <Gold.PLP.part.metal>
0.0000

> <Gold.PLP.part.buried>
-6.1562

> <Gold.PLP.part.nonpolar>
-29.9026

> <Gold.PLP.part.repulsive>
0.1115

> <Gold.PLP.ligand.clash>
0.0000

> <Gold.PLP.ligand.torsion>
0.7667

> <Gold.PLP.Chemscore.Hbond>
2.0000

> <Gold.PLP.Chemscore.CHOScore>
0.7724

> <Gold.PLP.Chemscore.Metal>
0.0000

> <Gold.Chemscore.Hbonds>
donor molecule, donor type, donor heavy atom, donor atom, acceptor molecule, acceptor atom, score
      P1  H  7989  7998       L1     1  1.00
      P1  H  7997  8008       L1    15  0.68
      L1  C     4    18       P1  8028  0.84

> <Gold.PLP.Chemscore.Internal.Correction>
0.2091

> <Gold.Rescore>
     Score         DG    S(hbond)    S(metal)    S(lipo)     H(rot)  DE(clash)    DE(int)     intcor
     13.12     -13.73       1.97        0.00      58.74       2.03       0.02       0.59       ----

> <Gold.Chemscore.Fitness>
13.1223

> <Gold.Chemscore.DG>
-13.7305

> <Gold.Chemscore.ZeroCoef>
-5.4800

> <Gold.Chemscore.Hbond>
1.9694

> <Gold.Chemscore.Metal>
0.0000

> <Gold.Chemscore.Lipo>
58.7429

> <Gold.Chemscore.Internal_Hbond>
0.0000

> <Gold.Chemscore.DEClash>
0.0174

> <Gold.Chemscore.DEInternal>
0.5908

> <Gold.Chemscore.Rot>
2.0313

> <Gold.Chemscore.Internal.Correction>
   9.000000E+99

> <Gold.Chemscore.Hbonds>
donor molecule, donor type, donor heavy atom, donor atom, acceptor molecule, acceptor atom, score
      P1  H  7989  7998       L1     1  0.53
      P1  H  7997  8008       L1    15  0.69

> <Gold.Chemscore.Hbond.Weighted>
-6.5777

> <Gold.Chemscore.Metal.Weighted>
-0.0000

> <Gold.Chemscore.Lipo.Weighted>
-6.8729

> <Gold.Chemscore.Internal_Hbond.Weighted>
0.0000

> <Gold.Chemscore.DEClash.Weighted>
0.0174

> <Gold.Chemscore.DEInternal.Weighted>
0.5908

> <Gold.Chemscore.Rot.Weighted>
5.2001

> <Gold.Chemscore.Internal.Correction.Weighted>
   9.000000E+99

> <Gold.Protein.RotatedTorsions>
[ 6907 6896 6895 6894 ] final -106.27 input  -60.11 | X-H torsion
[ 7974 7965 7964 7962 ] final   91.18 input  175.53 | X-H torsion
[ 8008 7997 7996 7995 ] final -141.26 input   59.86 | X-H torsion
[ 10167 10162 10161 10158 ] final  -41.70 input  -65.29 | X-H torsion
[ 10718 10713 10712 10709 ] final -174.08 input   66.30 | X-H torsion
[ 10763 10752 10751 10750 ] final  -23.06 input  -60.55 | X-H torsion
[ 11005 11000 10999 10996 ] final  -43.69 input  -57.11 | X-H torsion

> <Gold.Protein.ActiveResidues>
 VAL166  LYS551  ARG553  GLY616  TRP617  ASP618  TYR619  PRO620  LYS621  CYS622 
 ASP623  PHE694  ASN695  SER759  ASP760  ASP761  ALA762  ILE779  LEU786  VAL792 
 PHE793  MET794  SER795  GLU796  ALA797  LYS798  CYS799  TRP800  GLU811  SER814 

> <Gold.Protein.RotatedAtoms>
  150.7380  134.0001  159.3635 H   0  0  0  0  0  0  0  0  0  0  0  0  # atno 6907 bound_to 6896
  151.7955  135.0721  160.0402 H   0  0  0  0  0  0  0  0  0  0  0  0  # atno 6908 bound_to 6896
  152.3178  133.5784  159.5760 H   0  0  0  0  0  0  0  0  0  0  0  0  # atno 6909 bound_to 6896
  145.5090  139.2276  143.2735 H   0  0  0  0  0  0  0  0  0  0  0  0  # atno 7974 bound_to 7965
  155.4749  140.0556  157.2975 H   0  0  0  0  0  0  0  0  0  0  0  0  # atno 8008 bound_to 7997
  154.4683  140.2029  156.0013 H   0  0  0  0  0  0  0  0  0  0  0  0  # atno 8009 bound_to 7997
  156.1013  140.3218  155.7950 H   0  0  0  0  0  0  0  0  0  0  0  0  # atno 8010 bound_to 7997
  140.6994  143.3079  151.3104 H   0  0  0  0  0  0  0  0  0  0  0  0  # atno 10167 bound_to 10162
  156.7798  130.9479  151.3120 H   0  0  0  0  0  0  0  0  0  0  0  0  # atno 10718 bound_to 10713
  153.6618  135.6976  153.5175 H   0  0  0  0  0  0  0  0  0  0  0  0  # atno 10763 bound_to 10752
  153.2625  135.4240  155.0908 H   0  0  0  0  0  0  0  0  0  0  0  0  # atno 10764 bound_to 10752
  154.8450  135.3558  154.6163 H   0  0  0  0  0  0  0  0  0  0  0  0  # atno 10765 bound_to 10752
  141.0400  133.6784  156.2767 H   0  0  0  0  0  0  0  0  0  0  0  0  # atno 11005 bound_to 11000
  146.2178  140.5896  142.9030 LP  0  0  0  0  0  0  0  0  0  0  0  0  # atno 17320 bound_to 7965
  144.7738  140.5694  143.6652 LP  0  0  0  0  0  0  0  0  0  0  0  0  # atno 17321 bound_to 7965
  139.6491  144.0395  152.2613 LP  0  0  0  0  0  0  0  0  0  0  0  0  # atno 17342 bound_to 10162
  139.9925  144.6351  150.7801 LP  0  0  0  0  0  0  0  0  0  0  0  0  # atno 17343 bound_to 10162
  157.6651  130.9001  149.9915 LP  0  0  0  0  0  0  0  0  0  0  0  0  # atno 17370 bound_to 10713
  156.1225  130.3645  149.9864 LP  0  0  0  0  0  0  0  0  0  0  0  0  # atno 17371 bound_to 10713
  140.6251  134.5321  157.5552 LP  0  0  0  0  0  0  0  0  0  0  0  0  # atno 17394 bound_to 11000
  139.9269  134.8039  156.1043 LP  0  0  0  0  0  0  0  0  0  0  0  0  # atno 17395 bound_to 11000

$$$$
