#       Name:                AV-unprocessed.smi:1718
#       Creating user name   scv26
#       Creation time:       Fri Mar 27 08:12:48 2020


#       File generated by GOLD software.
#

@<TRIPOS>MOLECULE
AV-unprocessed.smi:1718
    48    49     1
SMALL
NO_CHARGES


@<TRIPOS>ATOM
      1 ****        -0.6479  -2.4128   2.2325 C.3            1 S1                 0.0000
      2 ****        -0.3921  -1.7599   0.8658 C.3            1 S1                 0.0000
      3 ****         1.0189  -1.6599   0.6976 O.3            1 S1                 0.0000
      4 ****         1.4609  -1.3685  -0.6245 C.3            1 S1                 0.0000
      5 ****         2.9954  -1.3555  -0.6579 C.3            1 S1                 0.0000
      6 ****         3.6587  -2.6239  -0.0994 C.3            1 S1                 0.0000
      7 ****         4.3591  -2.1351   1.1534 C.3            1 S1                 0.0000
      8 ****         4.6475  -0.6795   0.8128 C.3            1 S1                 0.0000
      9 ****         3.4760  -0.2672   0.1269 O.3            1 S1                 0.0000
     10 ****        -1.0380  -0.3676   0.7752 C.2            1 S1                 0.0000
     11 ****        -0.8494   0.4472   1.6781 O.2            1 S1                 0.0000
     12 ****        -1.7846  -0.1486  -0.3255 N.am           1 S1                 0.0000
     13 ****        -2.4546   1.0164  -0.7355 C.2            1 S1                 0.0000
     14 ****        -2.2338   2.2594  -0.2328 C.2            1 S1                 0.0000
     15 ****        -2.9517   3.4263  -0.7165 C.2            1 S1                 0.0000
     16 ****        -2.7457   4.7965  -0.0897 C.3            1 S1                 0.0000
     17 ****        -3.8046   5.5848  -0.2800 F              1 S1                 0.0000
     18 ****        -2.5332   4.6899   1.2220 F              1 S1                 0.0000
     19 ****        -1.6832   5.3878  -0.6339 F              1 S1                 0.0000
     20 ****        -3.8571   3.2139  -1.6894 C.2            1 S1                 0.0000
     21 ****        -4.0751   1.9431  -2.2265 N.am           1 S1                 0.0000
     22 ****        -3.4335   0.8252  -1.8187 C.2            1 S1                 0.0000
     23 ****        -3.6812  -0.2595  -2.3443 O.2            1 S1                 0.0000
     24 ****        -4.7597   1.8685  -2.9652 H              1 S1                 0.0000
     25 ****        -1.7156  -2.5046   2.4351 H              1 S1                 0.0000
     26 ****        -0.2000  -1.8372   3.0437 H              1 S1                 0.0000
     27 ****        -0.2192  -3.4145   2.2669 H              1 S1                 0.0000
     28 ****        -0.8043  -2.4132   0.0941 H              1 S1                 0.0000
     29 ****         1.0860  -2.1297  -1.3102 H              1 S1                 0.0000
     30 ****         1.0826  -0.4054  -0.9686 H              1 S1                 0.0000
     31 ****         3.3292  -1.2007  -1.6848 H              1 S1                 0.0000
     32 ****         2.9534  -3.4299   0.1068 H              1 S1                 0.0000
     33 ****         4.3930  -3.0010  -0.8122 H              1 S1                 0.0000
     34 ****         3.6804  -2.1897   2.0055 H              1 S1                 0.0000
     35 ****         5.2574  -2.7047   1.3927 H              1 S1                 0.0000
     36 ****         4.8335  -0.0670   1.6951 H              1 S1                 0.0000
     37 ****         5.5077  -0.5984   0.1466 H              1 S1                 0.0000
     38 ****        -1.9026  -0.9378  -0.9448 H              1 S1                 0.0000
     39 ****        -1.4955   2.4284   0.5336 H              1 S1                 0.0000
     40 ****        -4.4785   3.9837  -2.1227 H              1 S1                 0.0000
     41 ****         1.4243  -2.5317   0.9725 LP             1 S1                 0.0000
     42 ****         1.3501  -0.9336   1.3000 LP             1 S1                 0.0000
     43 ****         2.7772   0.0042   0.7887 LP             1 S1                 0.0000
     44 ****         3.6902   0.5074  -0.4683 LP             1 S1                 0.0000
     45 ****        -0.2799   0.2014   2.4625 LP             1 S1                 0.0000
     46 ****        -1.2656   1.3551   1.6273 LP             1 S1                 0.0000
     47 ****        -3.2041  -1.0836  -2.0390 LP             1 S1                 0.0000
     48 ****        -4.3596  -0.3169  -3.0768 LP             1 S1                 0.0000
@<TRIPOS>BOND
    1    1    2 1     
    2    1   25 1     
    3    1   26 1     
    4    1   27 1     
    5    2    3 1     
    6    2   10 1     
    7    2   28 1     
    8    3    4 1     
    9    4    5 1     
   10    4   29 1     
   11    4   30 1     
   12    5    9 1     
   13    5    6 1     
   14    5   31 1     
   15    6    7 1     
   16    6   32 1     
   17    6   33 1     
   18    7    8 1     
   19    7   34 1     
   20    7   35 1     
   21    8    9 1     
   22    8   36 1     
   23    8   37 1     
   24   10   11 2     
   25   10   12 am    
   26   12   13 1     
   27   12   38 1     
   28   13   22 1     
   29   13   14 2     
   30   14   15 1     
   31   14   39 1     
   32   15   16 1     
   33   15   20 2     
   34   16   17 1     
   35   16   18 1     
   36   16   19 1     
   37   20   21 1     
   38   20   40 1     
   39   21   24 1     
   40   21   22 am    
   41   22   23 2     
   42    3   41 1     
   43    3   42 1     
   44    9   43 1     
   45    9   44 1     
   46   11   45 1     
   47   11   46 1     
   48   23   47 1     
   49   23   48 1     
@<TRIPOS>SUBSTRUCTURE
      1 S1             1
@<TRIPOS>SET
LONE_PAIRS      STATIC     ATOMS    <user>   **** ""
8 41 42 43 44 45 46 47 48
DONOR_HYDROGENS      STATIC     ATOMS    <user>   **** ""
2 38 24
ATOM$BLUE        STATIC     ATOMS    COLORGROUP SYSTEM
8 41 42 43 44 45 46 47 48
ATOM$RED        STATIC     ATOMS    COLORGROUP SYSTEM
2 38 24
