AV-unprocessed.smi:2363|AV-procd|sdf|9415|dock4
  -GOLD-   2272013 53D 1   1.00000     0.00000
 Structure written by MMmdl.
 44 45  0  0  0  0  0  0  0  0  1 V2000
  152.5011  139.0847  155.8874 C   0  0  0  0  0  0  0  0  0  0  0  0
  151.5975  137.9279  155.4480 C   0  0  0  0  0  0  0  0  0  0  0  0
  150.9113  138.1977  154.1010 C   0  0  0  0  0  0  0  0  0  0  0  0
  149.9623  139.2935  154.1937 N   0  0  0  0  0  0  0  0  0  0  0  0
  150.3602  140.4854  154.6908 N   0  0  0  0  0  0  0  0  0  0  0  0
  149.2797  141.2542  154.6474 C   0  0  0  0  0  0  0  0  0  0  0  0
  148.1382  140.5834  154.1230 C   0  0  0  0  0  0  0  0  0  0  0  0
  148.6272  139.3347  153.8510 C   0  0  0  0  0  0  0  0  0  0  0  0
  147.9754  138.2559  153.3407 N   0  0  0  0  0  0  0  0  0  0  0  0
  146.6547  138.0060  153.3151 C   0  0  0  0  0  0  0  0  0  0  0  0
  145.7770  138.7562  153.7422 O   0  0  0  0  0  0  0  0  0  0  0  0
  146.4009  136.8155  152.7525 N   0  0  0  0  0  0  0  0  0  0  0  0
  145.0739  136.2364  152.5447 C   0  0  2  0  0  0  0  0  0  0  0  0
  144.4281  135.9608  153.9161 C   0  0  0  0  0  0  0  0  0  0  0  0
  145.1817  134.9725  151.6514 C   0  0  0  0  0  0  0  0  0  0  0  0
  143.8292  134.2432  151.4997 C   0  0  0  0  0  0  0  0  0  0  0  0
  143.9768  132.9583  150.6694 C   0  0  0  0  0  0  0  0  0  0  0  0
  144.9428  132.1019  151.2655 O   0  0  0  0  0  0  0  0  0  0  0  0
  146.2386  132.6857  151.3108 C   0  0  0  0  0  0  0  0  0  0  0  0
  146.2157  133.9559  152.1765 C   0  0  0  0  0  0  0  0  0  0  0  0
  152.9764  138.8654  156.8437 H   0  0  0  0  0  0  0  0  0  0  0  0
  151.9303  140.0063  156.0040 H   0  0  0  0  0  0  0  0  0  0  0  0
  153.2898  139.2683  155.1574 H   0  0  0  0  0  0  0  0  0  0  0  0
  152.1899  137.0145  155.3815 H   0  0  0  0  0  0  0  0  0  0  0  0
  150.8425  137.7512  156.2152 H   0  0  0  0  0  0  0  0  0  0  0  0
  151.6540  138.4381  153.3385 H   0  0  0  0  0  0  0  0  0  0  0  0
  150.3843  137.3077  153.7552 H   0  0  0  0  0  0  0  0  0  0  0  0
  149.3549  142.2724  154.9993 H   0  0  0  0  0  0  0  0  0  0  0  0
  147.1401  140.9703  153.9839 H   0  0  0  0  0  0  0  0  0  0  0  0
  148.5694  137.5486  152.9336 H   0  0  0  0  0  0  0  0  0  0  0  0
  147.1860  136.2682  152.4313 H   0  0  0  0  0  0  0  0  0  0  0  0
  144.4545  136.9650  152.0176 H   0  0  0  0  0  0  0  0  0  0  0  0
  143.3908  135.6425  153.8183 H   0  0  0  0  0  0  0  0  0  0  0  0
  144.4211  136.8580  154.5359 H   0  0  0  0  0  0  0  0  0  0  0  0
  144.9678  135.1861  154.4617 H   0  0  0  0  0  0  0  0  0  0  0  0
  145.5018  135.2880  150.6569 H   0  0  0  0  0  0  0  0  0  0  0  0
  143.4340  133.9918  152.4848 H   0  0  0  0  0  0  0  0  0  0  0  0
  143.0894  134.8875  151.0242 H   0  0  0  0  0  0  0  0  0  0  0  0
  143.0232  132.4323  150.6227 H   0  0  0  0  0  0  0  0  0  0  0  0
  144.2627  133.1889  149.6420 H   0  0  0  0  0  0  0  0  0  0  0  0
  146.9358  131.9602  151.7302 H   0  0  0  0  0  0  0  0  0  0  0  0
  146.5840  132.9101  150.3003 H   0  0  0  0  0  0  0  0  0  0  0  0
  147.2155  134.3887  152.1853 H   0  0  0  0  0  0  0  0  0  0  0  0
  145.9810  133.6876  153.2073 H   0  0  0  0  0  0  0  0  0  0  0  0
  1  2  1  0  0  0  0
  1 21  1  0  0  0  0
  1 22  1  0  0  0  0
  1 23  1  0  0  0  0
  2  3  1  0  0  0  0
  2 24  1  0  0  0  0
  2 25  1  0  0  0  0
  3  4  1  0  0  0  0
  3 26  1  0  0  0  0
  3 27  1  0  0  0  0
  4  8  1  0  0  0  0
  4  5  1  0  0  0  0
  5  6  2  0  0  0  0
  6  7  1  0  0  0  0
  6 28  1  0  0  0  0
  7  8  2  0  0  0  0
  7 29  1  0  0  0  0
  8  9  1  0  0  0  0
  9 10  1  0  0  0  0
  9 30  1  0  0  0  0
 10 11  2  0  0  0  0
 10 12  1  0  0  0  0
 12 13  1  0  0  0  0
 12 31  1  0  0  0  0
 13 14  1  0  0  0  0
 13 15  1  0  0  0  0
 13 32  1  0  0  0  0
 14 33  1  0  0  0  0
 14 34  1  0  0  0  0
 14 35  1  0  0  0  0
 15 20  1  0  0  0  0
 15 16  1  0  0  0  0
 15 36  1  0  0  0  0
 16 17  1  0  0  0  0
 16 37  1  0  0  0  0
 16 38  1  0  0  0  0
 17 18  1  0  0  0  0
 17 39  1  0  0  0  0
 17 40  1  0  0  0  0
 18 19  1  0  0  0  0
 19 20  1  0  0  0  0
 19 41  1  0  0  0  0
 19 42  1  0  0  0  0
 20 43  1  0  0  0  0
 20 44  1  0  0  0  0
M  END
> <s_m_source_file>
AV-unprocessed.smi

> <i_m_source_file_index>
2363

> <i_lp_mmshare_version>
43012

> <i_f3d_flags>
0

> <s_epik_input>
W0NIM11bQ0gyXVtDSDJdbjFuW2NIXVtjSF1jMVtOSF1DKD1PKVtOSF1bQ0BIXShbQ0gzXSlbQ0hdMltDSDJdW0NIMl1PW0NIMl1bQ0gyXTI=

> <s_epik_cmdline>
J2VwaWtfcHl0aG9uJywgJy1waCcsICc3LjAnLCAnLXRuJywgJzgnLCAnLW1hJywgJzIwMCcsICctbWV0YWxfYmluZGluZycsICctaW1hZScsICc8aW5maWxlLm1hZT4nLCAnLW9tYWUnLCAnPG91dGZpbGUubWFlPic=

> <r_lp_tautomer_probability>
1

> <r_epik_Ionization_Penalty>
3.26671e-05

> <r_epik_Ionization_Penalty_Charging>
0

> <r_epik_Ionization_Penalty_Neutral>
3.26671e-05

> <r_epik_State_Penalty>
-0

> <r_epik_Charging_Adjusted_Penalty>
0

> <i_epik_Tot_Q>
0

> <i_epik_Tot_abs_Q>
0

> <r_epik_Metal_State_Penalty>
-0

> <b_epik_Metal_Only>
0

> <s_lp_Force_Field>
OPLS_2005

> <r_lp_Energy>
15.2489

> <b_lp_Chiralities_Consistent>
1

> <s_lp_Variant>
AV-unprocessed.smi:2363-1

> <Gold.Version>
5.8.1

> <Gold.Id.Protein>
6NUR|6NUR_protein|mol2

> <Gold.PLP.Fitness>
44.5612

> <Gold.PLP.PLP>
-33.5106

> <Gold.PLP.part.hbond>
-3.3734

> <Gold.PLP.part.metal>
0.0000

> <Gold.PLP.part.buried>
-3.0050

> <Gold.PLP.part.nonpolar>
-28.5698

> <Gold.PLP.part.repulsive>
1.4197

> <Gold.PLP.ligand.clash>
0.0000

> <Gold.PLP.ligand.torsion>
0.2606

> <Gold.PLP.Chemscore.Hbond>
2.9344

> <Gold.PLP.Chemscore.CHOScore>
0.8951

> <Gold.PLP.Chemscore.Metal>
0.0000

> <Gold.Chemscore.Hbonds>
donor molecule, donor type, donor heavy atom, donor atom, acceptor molecule, acceptor atom, score
      L1  H     9    30       P1  7948  1.00
      L1  H    12    31       P1  7948  0.98
      P1  H  7989  7998       L1     5  0.94
      L1  C     6    28       P1  8028  0.90

> <Gold.PLP.Chemscore.Internal.Correction>
0.0834

> <Gold.Rescore>
     Score         DG    S(hbond)    S(metal)    S(lipo)     H(rot)  DE(clash)    DE(int)     intcor
     14.48     -17.19       2.01        0.00      75.96       1.52       0.21       2.50       ----

> <Gold.Chemscore.Fitness>
14.4789

> <Gold.Chemscore.DG>
-17.1902

> <Gold.Chemscore.ZeroCoef>
-5.4800

> <Gold.Chemscore.Hbond>
2.0084

> <Gold.Chemscore.Metal>
0.0000

> <Gold.Chemscore.Lipo>
75.9595

> <Gold.Chemscore.Internal_Hbond>
0.0000

> <Gold.Chemscore.DEClash>
0.2135

> <Gold.Chemscore.DEInternal>
2.4978

> <Gold.Chemscore.Rot>
1.5176

> <Gold.Chemscore.Internal.Correction>
   9.000000E+99

> <Gold.Chemscore.Hbonds>
donor molecule, donor type, donor heavy atom, donor atom, acceptor molecule, acceptor atom, score
      L1  H     9    30       P1  7948  0.99
      L1  H    12    31       P1  7948  0.93
      P1  H  7989  7998       L1     5  0.18

> <Gold.Chemscore.Hbond.Weighted>
-6.7081

> <Gold.Chemscore.Metal.Weighted>
-0.0000

> <Gold.Chemscore.Lipo.Weighted>
-8.8873

> <Gold.Chemscore.Internal_Hbond.Weighted>
0.0000

> <Gold.Chemscore.DEClash.Weighted>
0.2135

> <Gold.Chemscore.DEInternal.Weighted>
2.4978

> <Gold.Chemscore.Rot.Weighted>
3.8851

> <Gold.Chemscore.Internal.Correction.Weighted>
   9.000000E+99

> <Gold.Protein.RotatedTorsions>
[ 6907 6896 6895 6894 ] final -110.44 input  -60.11 | X-H torsion
[ 7974 7965 7964 7962 ] final  -16.12 input  175.53 | X-H torsion
[ 8008 7997 7996 7995 ] final   56.56 input   59.86 | X-H torsion
[ 10167 10162 10161 10158 ] final  110.92 input  -65.29 | X-H torsion
[ 10718 10713 10712 10709 ] final -119.94 input   66.30 | X-H torsion
[ 10763 10752 10751 10750 ] final   -1.84 input  -60.55 | X-H torsion
[ 11005 11000 10999 10996 ] final  106.41 input  -57.11 | X-H torsion

> <Gold.Protein.ActiveResidues>
 VAL166  LYS551  ARG553  GLY616  TRP617  ASP618  TYR619  PRO620  LYS621  CYS622 
 ASP623  PHE694  ASN695  SER759  ASP760  ASP761  ALA762  ILE779  LEU786  VAL792 
 PHE793  MET794  SER795  GLU796  ALA797  LYS798  CYS799  TRP800  GLU811  SER814 

> <Gold.Protein.RotatedAtoms>
  150.7625  133.9382  159.3447 H   0  0  0  0  0  0  0  0  0  0  0  0  # atno 6907 bound_to 6896
  151.7287  135.0877  160.0306 H   0  0  0  0  0  0  0  0  0  0  0  0  # atno 6908 bound_to 6896
  152.3603  133.6251  159.6046 H   0  0  0  0  0  0  0  0  0  0  0  0  # atno 6909 bound_to 6896
  146.2002  140.3591  142.8426 H   0  0  0  0  0  0  0  0  0  0  0  0  # atno 7974 bound_to 7965
  155.5195  140.3479  155.4404 H   0  0  0  0  0  0  0  0  0  0  0  0  # atno 8008 bound_to 7997
  156.0794  140.1383  156.9758 H   0  0  0  0  0  0  0  0  0  0  0  0  # atno 8009 bound_to 7997
  154.4571  140.0949  156.6765 H   0  0  0  0  0  0  0  0  0  0  0  0  # atno 8010 bound_to 7997
  139.6651  144.7127  151.1792 H   0  0  0  0  0  0  0  0  0  0  0  0  # atno 10167 bound_to 10162
  156.1219  130.6330  150.9479 H   0  0  0  0  0  0  0  0  0  0  0  0  # atno 10718 bound_to 10713
  153.3501  135.6985  153.6795 H   0  0  0  0  0  0  0  0  0  0  0  0  # atno 10763 bound_to 10752
  153.5525  135.3551  155.2766 H   0  0  0  0  0  0  0  0  0  0  0  0  # atno 10764 bound_to 10752
  154.8652  135.4230  154.2735 H   0  0  0  0  0  0  0  0  0  0  0  0  # atno 10765 bound_to 10752
  139.8814  134.9368  156.5662 H   0  0  0  0  0  0  0  0  0  0  0  0  # atno 11005 bound_to 11000
  144.8666  140.7214  143.6073 LP  0  0  0  0  0  0  0  0  0  0  0  0  # atno 17320 bound_to 7965
  145.3511  139.1706  143.4434 LP  0  0  0  0  0  0  0  0  0  0  0  0  # atno 17321 bound_to 7965
  140.7596  143.5933  150.8774 LP  0  0  0  0  0  0  0  0  0  0  0  0  # atno 17342 bound_to 10162
  139.9593  143.6182  152.3007 LP  0  0  0  0  0  0  0  0  0  0  0  0  # atno 17343 bound_to 10162
  157.6402  131.0911  150.8266 LP  0  0  0  0  0  0  0  0  0  0  0  0  # atno 17370 bound_to 10713
  156.8361  130.5032  149.5326 LP  0  0  0  0  0  0  0  0  0  0  0  0  # atno 17371 bound_to 10713
  140.8132  133.8412  155.8829 LP  0  0  0  0  0  0  0  0  0  0  0  0  # atno 17394 bound_to 11000
  140.9487  134.1807  157.4744 LP  0  0  0  0  0  0  0  0  0  0  0  0  # atno 17395 bound_to 11000

$$$$
