AV-unprocessed.smi:304|AV-procd|sdf|2277|dock2
  -GOLD-   2262022173D 1   1.00000     0.00000
 Structure written by MMmdl.
 36 38  0  0  0  0  0  0  0  0  1 V2000
  148.9555  142.8817  157.1917 O   0  0  0  0  0  0  0  0  0  0  0  0
  150.1726  142.1678  157.0963 C   0  0  1  0  0  0  0  0  0  0  0  0
  150.1413  141.3268  155.8106 C   0  0  0  0  0  0  0  0  0  0  0  0
  148.8024  141.2289  155.3546 O   0  0  0  0  0  0  0  0  0  0  0  0
  148.6811  141.4542  153.9592 C   0  0  0  0  0  0  0  0  0  0  0  0
  147.8609  140.3430  153.3855 C   0  0  0  0  0  0  0  0  0  0  0  0
  147.3842  139.2423  154.0509 C   0  0  0  0  0  0  0  0  0  0  0  0
  146.6144  138.3724  153.2238 C   0  0  0  0  0  0  0  0  0  0  0  0
  146.5048  138.8241  151.9357 C   0  0  0  0  0  0  0  0  0  0  0  0
  147.3469  140.3329  151.7137 S   0  0  0  0  0  0  0  0  0  0  0  0
  151.3441  143.1689  157.0986 C   0  0  0  0  0  0  0  0  0  0  0  0
  151.4683  143.8803  158.3588 N   0  0  0  0  0  0  0  0  0  0  0  0
  151.1226  145.1589  158.6026 C   0  0  0  0  0  0  0  0  0  0  0  0
  151.3180  145.6188  159.8351 N   0  0  0  0  0  0  0  0  0  0  0  0
  151.8539  144.5091  160.4658 C   0  0  0  0  0  0  0  0  0  0  0  0
  152.2836  144.3319  161.8002 C   0  0  0  0  0  0  0  0  0  0  0  0
  152.8048  143.0919  162.2247 C   0  0  0  0  0  0  0  0  0  0  0  0
  153.2118  142.9392  163.5071 F   0  0  0  0  0  0  0  0  0  0  0  0
  152.9047  142.0122  161.3221 C   0  0  0  0  0  0  0  0  0  0  0  0
  153.4075  140.8257  161.7380 F   0  0  0  0  0  0  0  0  0  0  0  0
  152.4824  142.1651  159.9876 C   0  0  0  0  0  0  0  0  0  0  0  0
  151.9618  143.4035  159.5688 C   0  0  0  0  0  0  0  0  0  0  0  0
  149.1118  143.7735  156.9199 H   0  0  0  0  0  0  0  0  0  0  0  0
  150.2662  141.5103  157.9617 H   0  0  0  0  0  0  0  0  0  0  0  0
  150.7944  141.7509  155.0456 H   0  0  0  0  0  0  0  0  0  0  0  0
  150.5032  140.3191  156.0214 H   0  0  0  0  0  0  0  0  0  0  0  0
  148.2011  142.4157  153.7706 H   0  0  0  0  0  0  0  0  0  0  0  0
  149.6646  141.4713  153.4877 H   0  0  0  0  0  0  0  0  0  0  0  0
  147.5611  139.0320  155.0955 H   0  0  0  0  0  0  0  0  0  0  0  0
  146.1724  137.4609  153.5980 H   0  0  0  0  0  0  0  0  0  0  0  0
  145.9813  138.3674  151.1089 H   0  0  0  0  0  0  0  0  0  0  0  0
  152.2841  142.6479  156.9112 H   0  0  0  0  0  0  0  0  0  0  0  0
  151.2277  143.8966  156.2945 H   0  0  0  0  0  0  0  0  0  0  0  0
  150.7039  145.7877  157.8303 H   0  0  0  0  0  0  0  0  0  0  0  0
  152.2131  145.1517  162.4995 H   0  0  0  0  0  0  0  0  0  0  0  0
  152.5607  141.3411  159.2942 H   0  0  0  0  0  0  0  0  0  0  0  0
  1  2  1  0  0  0  0
  1 23  1  0  0  0  0
  2  3  1  0  0  0  0
  2 11  1  0  0  0  0
  2 24  1  0  0  0  0
  3  4  1  0  0  0  0
  3 25  1  0  0  0  0
  3 26  1  0  0  0  0
  4  5  1  0  0  0  0
  5  6  1  0  0  0  0
  5 27  1  0  0  0  0
  5 28  1  0  0  0  0
  6 10  1  0  0  0  0
  6  7  2  0  0  0  0
  7  8  1  0  0  0  0
  7 29  1  0  0  0  0
  8  9  2  0  0  0  0
  8 30  1  0  0  0  0
  9 10  1  0  0  0  0
  9 31  1  0  0  0  0
 11 12  1  0  0  0  0
 11 32  1  0  0  0  0
 11 33  1  0  0  0  0
 12 22  1  0  0  0  0
 12 13  1  0  0  0  0
 13 14  2  0  0  0  0
 13 34  1  0  0  0  0
 14 15  1  0  0  0  0
 15 22  2  0  0  0  0
 15 16  1  0  0  0  0
 16 17  2  0  0  0  0
 16 35  1  0  0  0  0
 17 18  1  0  0  0  0
 17 19  1  0  0  0  0
 19 20  1  0  0  0  0
 19 21  2  0  0  0  0
 21 22  1  0  0  0  0
 21 36  1  0  0  0  0
M  END
> <s_m_source_file>
AV-unprocessed.smi

> <i_m_source_file_index>
304

> <i_lp_mmshare_version>
43012

> <i_f3d_flags>
0

> <s_epik_input>
W2NIXTFjKEYpYyhGKVtjSF1jKGMxMiluKFtjSF1uMilbQ0gyXVtDQEhdKFtPSF0pW0NIMl1PW0NIMl1jM1tjSF1bY0hdW2NIXXMz

> <s_epik_cmdline>
J2VwaWtfcHl0aG9uJywgJy1waCcsICc3LjAnLCAnLXRuJywgJzgnLCAnLW1hJywgJzIwMCcsICctbWV0YWxfYmluZGluZycsICctaW1hZScsICc8aW5maWxlLm1hZT4nLCAnLW9tYWUnLCAnPG91dGZpbGUubWFlPic=

> <r_epik_Ionization_Penalty>
0.0152118

> <r_epik_Ionization_Penalty_Charging>
0

> <r_epik_Ionization_Penalty_Neutral>
0.0152118

> <r_epik_State_Penalty>
0.0119413

> <r_epik_Charging_Adjusted_Penalty>
0.0119413

> <i_epik_Tot_Q>
0

> <i_epik_Tot_abs_Q>
0

> <r_epik_Metal_State_Penalty>
1.20623e-05

> <b_epik_Metal_Only>
0

> <s_lp_Force_Field>
OPLS_2005

> <r_lp_Energy>
8.44111

> <b_lp_Chiralities_Consistent>
1

> <s_lp_Variant>
AV-unprocessed.smi:304-2

> <Gold.Version>
5.8.1

> <Gold.Id.Protein>
6NUR|6NUR_protein|mol2

> <Gold.PLP.Fitness>
58.6481

> <Gold.PLP.PLP>
-54.1071

> <Gold.PLP.part.hbond>
-1.0000

> <Gold.PLP.part.metal>
0.0000

> <Gold.PLP.part.buried>
0.6080

> <Gold.PLP.part.nonpolar>
-52.2851

> <Gold.PLP.part.repulsive>
0.2892

> <Gold.PLP.ligand.clash>
0.9565

> <Gold.PLP.ligand.torsion>
1.5118

> <Gold.PLP.Chemscore.Hbond>
0.8320

> <Gold.PLP.Chemscore.CHOScore>
1.9449

> <Gold.PLP.Chemscore.Metal>
0.0000

> <Gold.Chemscore.Hbonds>
donor molecule, donor type, donor heavy atom, donor atom, acceptor molecule, acceptor atom, score
      L1  H     1    23       P1  8028  0.82
      L1  C     9    31       P1 10171  1.00
      L1  C    13    34       P1  8029  0.13

> <Gold.PLP.Chemscore.Internal.Correction>
0.1903

> <Gold.Rescore>
     Score         DG    S(hbond)    S(metal)    S(lipo)     H(rot)  DE(clash)    DE(int)     intcor
     11.77     -15.33       0.16        0.00     137.44       2.64       2.12       1.44       ----

> <Gold.Chemscore.Fitness>
11.7672

> <Gold.Chemscore.DG>
-15.3336

> <Gold.Chemscore.ZeroCoef>
-5.4800

> <Gold.Chemscore.Hbond>
0.1594

> <Gold.Chemscore.Metal>
0.0000

> <Gold.Chemscore.Lipo>
137.4396

> <Gold.Chemscore.Internal_Hbond>
0.0000

> <Gold.Chemscore.DEClash>
2.1244

> <Gold.Chemscore.DEInternal>
1.4419

> <Gold.Chemscore.Rot>
2.6403

> <Gold.Chemscore.Internal.Correction>
   9.000000E+99

> <Gold.Chemscore.Hbonds>
donor molecule, donor type, donor heavy atom, donor atom, acceptor molecule, acceptor atom, score
      L1  H     1    23       P1  8028  0.48

> <Gold.Chemscore.Hbond.Weighted>
-0.5323

> <Gold.Chemscore.Metal.Weighted>
-0.0000

> <Gold.Chemscore.Lipo.Weighted>
-16.0804

> <Gold.Chemscore.Internal_Hbond.Weighted>
0.0000

> <Gold.Chemscore.DEClash.Weighted>
2.1244

> <Gold.Chemscore.DEInternal.Weighted>
1.4419

> <Gold.Chemscore.Rot.Weighted>
6.7592

> <Gold.Chemscore.Internal.Correction.Weighted>
   9.000000E+99

> <Gold.Protein.RotatedTorsions>
[ 6907 6896 6895 6894 ] final -157.07 input  -60.11 | X-H torsion
[ 7974 7965 7964 7962 ] final -167.37 input  175.53 | X-H torsion
[ 8008 7997 7996 7995 ] final   96.55 input   59.86 | X-H torsion
[ 10167 10162 10161 10158 ] final -139.14 input  -65.29 | X-H torsion
[ 10718 10713 10712 10709 ] final -102.58 input   66.30 | X-H torsion
[ 10763 10752 10751 10750 ] final -175.08 input  -60.55 | X-H torsion
[ 11005 11000 10999 10996 ] final   40.05 input  -57.11 | X-H torsion

> <Gold.Protein.ActiveResidues>
 VAL166  LYS551  ARG553  GLY616  TRP617  ASP618  TYR619  PRO620  LYS621  CYS622 
 ASP623  PHE694  ASN695  SER759  ASP760  ASP761  ALA762  ILE779  LEU786  VAL792 
 PHE793  MET794  SER795  GLU796  ALA797  LYS798  CYS799  TRP800  GLU811  SER814 

> <Gold.Protein.RotatedAtoms>
  151.2973  133.4138  159.2636 H   0  0  0  0  0  0  0  0  0  0  0  0  # atno 6907 bound_to 6896
  151.0225  134.9480  159.8078 H   0  0  0  0  0  0  0  0  0  0  0  0  # atno 6908 bound_to 6896
  152.5327  134.2936  159.9105 H   0  0  0  0  0  0  0  0  0  0  0  0  # atno 6909 bound_to 6896
  144.7224  140.2529  143.6276 H   0  0  0  0  0  0  0  0  0  0  0  0  # atno 7974 bound_to 7965
  156.0808  140.3271  155.7691 H   0  0  0  0  0  0  0  0  0  0  0  0  # atno 8008 bound_to 7997
  155.5156  140.0581  157.2933 H   0  0  0  0  0  0  0  0  0  0  0  0  # atno 8009 bound_to 7997
  154.4581  140.1953  156.0339 H   0  0  0  0  0  0  0  0  0  0  0  0  # atno 8010 bound_to 7997
  139.8408  143.7324  152.2663 H   0  0  0  0  0  0  0  0  0  0  0  0  # atno 10167 bound_to 10162
  156.0234  130.5427  150.7129 H   0  0  0  0  0  0  0  0  0  0  0  0  # atno 10718 bound_to 10713
  154.5886  135.2843  155.0659 H   0  0  0  0  0  0  0  0  0  0  0  0  # atno 10763 bound_to 10752
  154.1968  135.6431  153.5079 H   0  0  0  0  0  0  0  0  0  0  0  0  # atno 10764 bound_to 10752
  153.0113  135.5459  154.6564 H   0  0  0  0  0  0  0  0  0  0  0  0  # atno 10765 bound_to 10752
  140.1969  134.3918  155.8117 H   0  0  0  0  0  0  0  0  0  0  0  0  # atno 11005 bound_to 11000
  145.8211  139.2044  143.1937 LP  0  0  0  0  0  0  0  0  0  0  0  0  # atno 17320 bound_to 7965
  146.0513  140.8066  142.9780 LP  0  0  0  0  0  0  0  0  0  0  0  0  # atno 17321 bound_to 7965
  139.7560  144.7520  151.0434 LP  0  0  0  0  0  0  0  0  0  0  0  0  # atno 17342 bound_to 10162
  140.7798  143.4805  151.0025 LP  0  0  0  0  0  0  0  0  0  0  0  0  # atno 17343 bound_to 10162
  157.4763  131.0898  151.0586 LP  0  0  0  0  0  0  0  0  0  0  0  0  # atno 17370 bound_to 10713
  157.1032  130.5990  149.5465 LP  0  0  0  0  0  0  0  0  0  0  0  0  # atno 17371 bound_to 10713
  141.2227  133.7074  156.8190 LP  0  0  0  0  0  0  0  0  0  0  0  0  # atno 17394 bound_to 11000
  140.2098  134.8836  157.3261 LP  0  0  0  0  0  0  0  0  0  0  0  0  # atno 17395 bound_to 11000

$$$$
