AV-unprocessed.smi:3031|AV-procd|sdf|11546|dock4
  -GOLD-   2272016503D 1   1.00000     0.00000
 Structure written by MMmdl.
 47 48  0  0  0  0  0  0  0  0  2 V2000
  152.1071  142.0273  158.5540 C   0  0  0  0  0  0  0  0  0  0  0  0
  151.4715  141.5884  157.2666 C   0  0  0  0  0  0  0  0  0  0  0  0
  151.8701  140.5198  156.4142 C   0  0  0  0  0  0  0  0  0  0  0  0
  151.0935  140.3926  155.3507 N   0  0  0  0  0  0  0  0  0  0  0  0
  150.1763  141.3743  155.4839 N   0  0  0  0  0  0  0  0  0  0  0  0
  149.1393  141.5401  154.4809 C   0  0  0  0  0  0  0  0  0  0  0  0
  148.2213  140.3000  154.3482 C   0  0  1  0  0  0  0  0  0  0  0  0
  147.2992  140.1160  155.5662 C   0  0  0  0  0  0  0  0  0  0  0  0
  147.3995  140.3580  153.1349 N   0  0  0  0  0  0  0  0  0  0  0  0
  146.3065  139.3877  153.0635 C   0  0  0  0  0  0  0  0  0  0  0  0
  146.8084  138.0127  152.5922 C   0  0  2  0  0  0  0  0  0  0  0  0
  147.4558  138.2025  151.3502 O   0  0  0  0  0  0  0  0  0  0  0  0
  145.6649  136.9957  152.3884 C   0  0  0  0  0  0  0  0  0  0  0  0
  146.1511  135.5928  152.3515 N   0  3  0  0  0  0  0  0  0  0  0  0
  146.1836  134.9384  153.6834 C   0  0  0  0  0  0  0  0  0  0  0  0
  146.7375  133.5083  153.5652 C   0  0  0  0  0  0  0  0  0  0  0  0
  145.9485  132.7652  152.6445 O   0  0  0  0  0  0  0  0  0  0  0  0
  145.9787  133.3318  151.3408 C   0  0  0  0  0  0  0  0  0  0  0  0
  145.4014  134.7570  151.3836 C   0  0  0  0  0  0  0  0  0  0  0  0
  150.3783  142.1083  156.6333 C   0  0  0  0  0  0  0  0  0  0  0  0
  153.1436  141.6973  158.6269 H   0  0  0  0  0  0  0  0  0  0  0  0
  151.5796  141.6250  159.4189 H   0  0  0  0  0  0  0  0  0  0  0  0
  152.1084  143.1128  158.6540 H   0  0  0  0  0  0  0  0  0  0  0  0
  152.6967  139.8357  156.5371 H   0  0  0  0  0  0  0  0  0  0  0  0
  148.5469  142.4224  154.7296 H   0  0  0  0  0  0  0  0  0  0  0  0
  149.6392  141.7565  153.5370 H   0  0  0  0  0  0  0  0  0  0  0  0
  148.8588  139.4163  154.2925 H   0  0  0  0  0  0  0  0  0  0  0  0
  147.8680  139.9394  156.4794 H   0  0  0  0  0  0  0  0  0  0  0  0
  146.6391  139.2584  155.4326 H   0  0  0  0  0  0  0  0  0  0  0  0
  146.6744  140.9949  155.7278 H   0  0  0  0  0  0  0  0  0  0  0  0
  147.9959  140.2625  152.3192 H   0  0  0  0  0  0  0  0  0  0  0  0
  145.8205  139.2779  154.0329 H   0  0  0  0  0  0  0  0  0  0  0  0
  145.5468  139.7525  152.3705 H   0  0  0  0  0  0  0  0  0  0  0  0
  147.5453  137.6416  153.3043 H   0  0  0  0  0  0  0  0  0  0  0  0
  148.0059  138.9689  151.4096 H   0  0  0  0  0  0  0  0  0  0  0  0
  144.9160  137.0890  153.1762 H   0  0  0  0  0  0  0  0  0  0  0  0
  145.1510  137.2326  151.4552 H   0  0  0  0  0  0  0  0  0  0  0  0
  146.8030  135.5071  154.3757 H   0  0  0  0  0  0  0  0  0  0  0  0
  145.1771  134.9120  154.1040 H   0  0  0  0  0  0  0  0  0  0  0  0
  147.7804  133.5186  153.2448 H   0  0  0  0  0  0  0  0  0  0  0  0
  146.7077  133.0126  154.5357 H   0  0  0  0  0  0  0  0  0  0  0  0
  146.9995  133.3353  150.9552 H   0  0  0  0  0  0  0  0  0  0  0  0
  145.3876  132.7071  150.6709 H   0  0  0  0  0  0  0  0  0  0  0  0
  144.3477  134.7259  151.6656 H   0  0  0  0  0  0  0  0  0  0  0  0
  145.4551  135.2021  150.3893 H   0  0  0  0  0  0  0  0  0  0  0  0
  149.7345  142.9332  156.9010 H   0  0  0  0  0  0  0  0  0  0  0  0
  147.1031  135.6308  152.0153 H   0  0  0  0  0  0  0  0  0  0  0  0
  1  2  1  0  0  0  0
  1 21  1  0  0  0  0
  1 22  1  0  0  0  0
  1 23  1  0  0  0  0
  2 20  2  0  0  0  0
  2  3  1  0  0  0  0
  3  4  2  0  0  0  0
  3 24  1  0  0  0  0
  4  5  1  0  0  0  0
  5  6  1  0  0  0  0
  5 20  1  0  0  0  0
  6  7  1  0  0  0  0
  6 25  1  0  0  0  0
  6 26  1  0  0  0  0
  7  8  1  0  0  0  0
  7  9  1  0  0  0  0
  7 27  1  0  0  0  0
  8 28  1  0  0  0  0
  8 29  1  0  0  0  0
  8 30  1  0  0  0  0
  9 10  1  0  0  0  0
  9 31  1  0  0  0  0
 10 11  1  0  0  0  0
 10 32  1  0  0  0  0
 10 33  1  0  0  0  0
 11 12  1  0  0  0  0
 11 13  1  0  0  0  0
 11 34  1  0  0  0  0
 12 35  1  0  0  0  0
 13 14  1  0  0  0  0
 13 36  1  0  0  0  0
 13 37  1  0  0  0  0
 14 19  1  0  0  0  0
 14 15  1  0  0  0  0
 14 47  1  0  0  0  0
 15 16  1  0  0  0  0
 15 38  1  0  0  0  0
 15 39  1  0  0  0  0
 16 17  1  0  0  0  0
 16 40  1  0  0  0  0
 16 41  1  0  0  0  0
 17 18  1  0  0  0  0
 18 19  1  0  0  0  0
 18 42  1  0  0  0  0
 18 43  1  0  0  0  0
 19 44  1  0  0  0  0
 19 45  1  0  0  0  0
 20 46  1  0  0  0  0
M  CHG  1  14   1
M  END
> <s_m_source_file>
AV-unprocessed.smi

> <i_m_source_file_index>
3031

> <i_lp_mmshare_version>
43012

> <i_f3d_flags>
0

> <s_epik_input>
W0NIM11jMVtjSF1ubihbY0hdMSlbQ0gyXVtDQEhdKFtDSDNdKVtOSF1bQ0gyXVtDQEhdKFtPSF0pW0NIMl1OMltDSDJdW0NIMl1PW0NIMl1bQ0gyXTI=

> <s_epik_cmdline>
J2VwaWtfcHl0aG9uJywgJy1waCcsICc3LjAnLCAnLXRuJywgJzgnLCAnLW1hJywgJzIwMCcsICctbWV0YWxfYmluZGluZycsICctaW1hZScsICc8aW5maWxlLm1hZT4nLCAnLW9tYWUnLCAnPG91dGZpbGUubWFlPic=

> <r_epik_Ionization_Penalty>
0.467051

> <r_epik_Ionization_Penalty_Charging>
0.202493

> <r_epik_Ionization_Penalty_Neutral>
0.264558

> <r_epik_State_Penalty>
1.34287

> <r_epik_Charging_Adjusted_Penalty>
1.54537

> <i_epik_Tot_Q>
1

> <i_epik_Tot_abs_Q>
1

> <r_epik_Metal_State_Penalty>
1.34281

> <b_epik_Metal_Only>
0

> <s_lp_Force_Field>
OPLS_2005

> <r_lp_Energy>
23.2864

> <b_lp_Chiralities_Consistent>
1

> <s_lp_Variant>
AV-unprocessed.smi:3031-6

> <Gold.Version>
5.8.1

> <Gold.Id.Protein>
6NUR|6NUR_protein|mol2

> <Gold.PLP.Fitness>
51.1235

> <Gold.PLP.PLP>
-32.4058

> <Gold.PLP.part.hbond>
-5.9026

> <Gold.PLP.part.metal>
0.0000

> <Gold.PLP.part.buried>
3.1465

> <Gold.PLP.part.nonpolar>
-28.3500

> <Gold.PLP.part.repulsive>
0.1865

> <Gold.PLP.ligand.clash>
0.0000

> <Gold.PLP.ligand.torsion>
0.9054

> <Gold.PLP.Chemscore.Hbond>
5.8420

> <Gold.PLP.Chemscore.CHOScore>
0.9381

> <Gold.PLP.Chemscore.Metal>
0.0000

> <Gold.Chemscore.Hbonds>
donor molecule, donor type, donor heavy atom, donor atom, acceptor molecule, acceptor atom, score
      L1  H     9    31       P1  7957  1.00
      L1  H    12    35       P1  7957  1.00
      L1  H    14    47       P1  7948  2.00
      P1  H  7954  7966       L1    12  0.40
      P1  H  7989  7998       L1     4  0.79
      L1  C    20    46       P1  8028  1.00

> <Gold.PLP.Chemscore.Internal.Correction>
0.1880

> <Gold.Rescore>
     Score         DG    S(hbond)    S(metal)    S(lipo)     H(rot)  DE(clash)    DE(int)     intcor
     16.21     -17.85       2.93        0.00      80.06       2.65       0.63       1.02       ----

> <Gold.Chemscore.Fitness>
16.2056

> <Gold.Chemscore.DG>
-17.8542

> <Gold.Chemscore.ZeroCoef>
-5.4800

> <Gold.Chemscore.Hbond>
2.9330

> <Gold.Chemscore.Metal>
0.0000

> <Gold.Chemscore.Lipo>
80.0630

> <Gold.Chemscore.Internal_Hbond>
0.0000

> <Gold.Chemscore.DEClash>
0.6327

> <Gold.Chemscore.DEInternal>
1.0159

> <Gold.Chemscore.Rot>
2.6521

> <Gold.Chemscore.Internal.Correction>
   9.000000E+99

> <Gold.Chemscore.Hbonds>
donor molecule, donor type, donor heavy atom, donor atom, acceptor molecule, acceptor atom, score
      L1  H     9    31       P1  7957  0.97
      L1  H    12    35       P1  7957  0.69
      L1  H    14    47       P1  7948  0.99
      P1  H  7954  7966       L1    12  0.01
      P1  H  7989  7998       L1     4  0.11

> <Gold.Chemscore.Hbond.Weighted>
-9.7962

> <Gold.Chemscore.Metal.Weighted>
-0.0000

> <Gold.Chemscore.Lipo.Weighted>
-9.3674

> <Gold.Chemscore.Internal_Hbond.Weighted>
0.0000

> <Gold.Chemscore.DEClash.Weighted>
0.6327

> <Gold.Chemscore.DEInternal.Weighted>
1.0159

> <Gold.Chemscore.Rot.Weighted>
6.7894

> <Gold.Chemscore.Internal.Correction.Weighted>
   9.000000E+99

> <Gold.Protein.RotatedTorsions>
[ 6907 6896 6895 6894 ] final -122.78 input  -60.11 | X-H torsion
[ 7974 7965 7964 7962 ] final   83.17 input  175.53 | X-H torsion
[ 8008 7997 7996 7995 ] final   26.43 input   59.86 | X-H torsion
[ 10167 10162 10161 10158 ] final  -58.12 input  -65.29 | X-H torsion
[ 10718 10713 10712 10709 ] final  -16.50 input   66.30 | X-H torsion
[ 10763 10752 10751 10750 ] final  -79.07 input  -60.55 | X-H torsion
[ 11005 11000 10999 10996 ] final   81.50 input  -57.11 | X-H torsion

> <Gold.Protein.ActiveResidues>
 VAL166  LYS551  ARG553  GLY616  TRP617  ASP618  TYR619  PRO620  LYS621  CYS622 
 ASP623  PHE694  ASN695  SER759  ASP760  ASP761  ALA762  ILE779  LEU786  VAL792 
 PHE793  MET794  SER795  GLU796  ALA797  LYS798  CYS799  TRP800  GLU811  SER814 

> <Gold.Protein.RotatedAtoms>
  150.8608  133.7646  159.2992 H   0  0  0  0  0  0  0  0  0  0  0  0  # atno 6907 bound_to 6896
  151.5289  135.1066  159.9907 H   0  0  0  0  0  0  0  0  0  0  0  0  # atno 6908 bound_to 6896
  152.4625  133.7808  159.6905 H   0  0  0  0  0  0  0  0  0  0  0  0  # atno 6909 bound_to 6896
  145.6154  139.2376  143.2168 H   0  0  0  0  0  0  0  0  0  0  0  0  # atno 7974 bound_to 7965
  155.0272  140.3154  155.4771 H   0  0  0  0  0  0  0  0  0  0  0  0  # atno 8008 bound_to 7997
  156.2881  140.2187  156.5335 H   0  0  0  0  0  0  0  0  0  0  0  0  # atno 8009 bound_to 7997
  154.7401  140.0474  157.0791 H   0  0  0  0  0  0  0  0  0  0  0  0  # atno 8010 bound_to 7997
  140.6217  143.2422  151.5465 H   0  0  0  0  0  0  0  0  0  0  0  0  # atno 10167 bound_to 10162
  156.5868  130.4788  149.6296 H   0  0  0  0  0  0  0  0  0  0  0  0  # atno 10718 bound_to 10713
  154.5340  135.5708  153.6783 H   0  0  0  0  0  0  0  0  0  0  0  0  # atno 10763 bound_to 10752
  152.9946  135.6211  154.2591 H   0  0  0  0  0  0  0  0  0  0  0  0  # atno 10764 bound_to 10752
  154.2519  135.2859  155.2793 H   0  0  0  0  0  0  0  0  0  0  0  0  # atno 10765 bound_to 10752
  139.9096  134.8001  156.2050 H   0  0  0  0  0  0  0  0  0  0  0  0  # atno 11005 bound_to 11000
  146.1472  140.6976  142.9339 LP  0  0  0  0  0  0  0  0  0  0  0  0  # atno 17320 bound_to 7965
  144.7253  140.4504  143.6978 LP  0  0  0  0  0  0  0  0  0  0  0  0  # atno 17321 bound_to 7965
  139.5444  144.2560  152.1414 LP  0  0  0  0  0  0  0  0  0  0  0  0  # atno 17342 bound_to 10162
  140.1782  144.4870  150.6542 LP  0  0  0  0  0  0  0  0  0  0  0  0  # atno 17343 bound_to 10162
  156.2584  130.6948  151.1709 LP  0  0  0  0  0  0  0  0  0  0  0  0  # atno 17370 bound_to 10713
  157.7313  131.0609  150.5683 LP  0  0  0  0  0  0  0  0  0  0  0  0  # atno 17371 bound_to 10713
  141.0501  133.6893  156.1756 LP  0  0  0  0  0  0  0  0  0  0  0  0  # atno 17394 bound_to 11000
  140.6823  134.4754  157.5589 LP  0  0  0  0  0  0  0  0  0  0  0  0  # atno 17395 bound_to 11000

$$$$
