#       Name:                AV-unprocessed.smi:1152
#       Creating user name   scv26
#       Creation time:       Fri Mar 27 03:47:18 2020


#       File generated by GOLD software.
#

@<TRIPOS>MOLECULE
AV-unprocessed.smi:1152
    36    37     1
SMALL
NO_CHARGES


@<TRIPOS>ATOM
      1 ****        -6.6407   1.8213   0.0000 C.3            1 S1                 0.0000
      2 ****        -5.5051   0.9118   0.0000 N.am           1 S1                 0.0000
      3 ****        -4.2250   1.3067   0.0000 C.2            1 S1                 0.0000
      4 ****        -3.8819   2.4894   0.0000 O.2            1 S1                 0.0000
      5 ****        -3.3894   0.2529   0.0000 N.am           1 S1                 0.0000
      6 ****        -1.9694   0.2548   0.0000 C.2            1 S1                 0.0000
      7 ****        -1.2262   1.3696   0.0000 N.2            1 S1                 0.0000
      8 ****         0.1318   1.0859   0.0000 N.2            1 S1                 0.0000
      9 ****         0.3780  -0.2312   0.0000 C.2            1 S1                 0.0000
     10 ****         1.7618  -0.8021   0.0000 C.3            1 S1                 0.0000
     11 ****         2.5473  -0.4482   1.2779 C.3            1 S1                 0.0000
     12 ****         3.9476  -1.0834   1.2689 C.3            1 S1                 0.0000
     13 ****         4.7267  -0.7008   0.0000 C.3            1 S1                 0.0000
     14 ****         3.9476  -1.0834  -1.2689 C.3            1 S1                 0.0000
     15 ****         2.5473  -0.4482  -1.2779 C.3            1 S1                 0.0000
     16 ****        -1.0602  -1.2463   0.0000 S.3            1 S1                 0.0000
     17 ****        -7.5714   1.2541   0.0000 H              1 S1                 0.0000
     18 ****        -6.6288   2.4575  -0.8859 H              1 S1                 0.0000
     19 ****        -6.6288   2.4575   0.8859 H              1 S1                 0.0000
     20 ****        -5.7069  -0.0774   0.0000 H              1 S1                 0.0000
     21 ****        -3.8202  -0.6597   0.0000 H              1 S1                 0.0000
     22 ****         1.6404  -1.8863   0.0000 H              1 S1                 0.0000
     23 ****         2.6432   0.6350   1.3652 H              1 S1                 0.0000
     24 ****         1.9988  -0.7825   2.1593 H              1 S1                 0.0000
     25 ****         4.5021  -0.7709   2.1542 H              1 S1                 0.0000
     26 ****         3.8575  -2.1688   1.3285 H              1 S1                 0.0000
     27 ****         4.9210   0.3725   0.0000 H              1 S1                 0.0000
     28 ****         5.7005  -1.1914   0.0000 H              1 S1                 0.0000
     29 ****         4.5021  -0.7709  -2.1542 H              1 S1                 0.0000
     30 ****         3.8575  -2.1688  -1.3285 H              1 S1                 0.0000
     31 ****         1.9988  -0.7825  -2.1593 H              1 S1                 0.0000
     32 ****         2.6432   0.6350  -1.3652 H              1 S1                 0.0000
     33 ****        -4.5743   3.2108   0.0000 LP             1 S1                 0.0000
     34 ****        -2.9108   2.7283  -0.0000 LP             1 S1                 0.0000
     35 ****        -1.6049   2.2951   0.0000 LP             1 S1                 0.0000
     36 ****         0.8464   1.7855  -0.0000 LP             1 S1                 0.0000
@<TRIPOS>BOND
    1    1    2 1     
    2    1   17 1     
    3    1   18 1     
    4    1   19 1     
    5    2    3 am    
    6    2   20 1     
    7    3    4 2     
    8    3    5 am    
    9    5    6 1     
   10    5   21 1     
   11    6   16 1     
   12    6    7 2     
   13    7    8 1     
   14    8    9 2     
   15    9   10 1     
   16    9   16 1     
   17   10   15 1     
   18   10   11 1     
   19   10   22 1     
   20   11   12 1     
   21   11   23 1     
   22   11   24 1     
   23   12   13 1     
   24   12   25 1     
   25   12   26 1     
   26   13   14 1     
   27   13   27 1     
   28   13   28 1     
   29   14   15 1     
   30   14   29 1     
   31   14   30 1     
   32   15   31 1     
   33   15   32 1     
   34    4   33 1     
   35    4   34 1     
   36    7   35 1     
   37    8   36 1     
@<TRIPOS>SUBSTRUCTURE
      1 S1             1
@<TRIPOS>SET
LONE_PAIRS      STATIC     ATOMS    <user>   **** ""
4 33 34 35 36
DONOR_HYDROGENS      STATIC     ATOMS    <user>   **** ""
2 20 21
ATOM$BLUE        STATIC     ATOMS    COLORGROUP SYSTEM
4 33 34 35 36
ATOM$RED        STATIC     ATOMS    COLORGROUP SYSTEM
2 20 21
