AV-unprocessed.smi:952|AV-procd|sdf|4255|dock6
  -GOLD-   22720 2163D 1   1.00000     0.00000
 Structure written by MMmdl.
 35 35  0  0  0  0  0  0  0  0  1 V2000
  147.2896  133.7813  150.1352 C   0  0  0  0  0  0  0  0  0  0  0  0
  146.5238  134.9593  150.7462 C   0  0  0  0  0  0  0  0  0  0  0  0
  146.5261  134.9271  152.2834 C   0  0  0  0  0  0  0  0  0  0  0  0
  147.8819  134.9580  152.8196 N   0  0  0  0  0  0  0  0  0  0  0  0
  148.2018  134.8043  154.1132 C   0  0  0  0  0  0  0  0  0  0  0  0
  147.3632  134.6365  155.0004 O   0  0  0  0  0  0  0  0  0  0  0  0
  149.6953  134.8729  154.4537 C   0  0  0  0  0  0  0  0  0  0  0  0
  150.2971  136.1328  154.0280 N   0  0  0  0  0  0  0  0  0  0  0  0
  151.1793  136.8489  154.7437 C   0  0  0  0  0  0  0  0  0  0  0  0
  151.6367  136.4688  155.8224 O   0  0  0  0  0  0  0  0  0  0  0  0
  151.5850  138.2075  154.1534 C   0  0  2  0  0  0  0  0  0  0  0  0
  152.8285  138.8075  154.8415 C   0  0  0  0  0  0  0  0  0  0  0  0
  150.4412  139.1129  154.1725 N   0  0  0  0  0  0  0  0  0  0  0  0
  149.1792  138.8924  153.6581 C   0  0  0  0  0  0  0  0  0  0  0  0
  148.4162  139.9850  153.9549 C   0  0  0  0  0  0  0  0  0  0  0  0
  149.3037  140.8294  154.6777 C   0  0  0  0  0  0  0  0  0  0  0  0
  150.5093  140.3029  154.8142 N   0  0  0  0  0  0  0  0  0  0  0  0
  147.2711  133.8292  149.0463 H   0  0  0  0  0  0  0  0  0  0  0  0
  146.8517  132.8287  150.4345 H   0  0  0  0  0  0  0  0  0  0  0  0
  148.3335  133.7850  150.4505 H   0  0  0  0  0  0  0  0  0  0  0  0
  146.9667  135.8916  150.3930 H   0  0  0  0  0  0  0  0  0  0  0  0
  145.4963  134.9488  150.3806 H   0  0  0  0  0  0  0  0  0  0  0  0
  145.9892  135.7924  152.6730 H   0  0  0  0  0  0  0  0  0  0  0  0
  145.9986  134.0443  152.6490 H   0  0  0  0  0  0  0  0  0  0  0  0
  148.6320  135.0964  152.1578 H   0  0  0  0  0  0  0  0  0  0  0  0
  149.8493  134.7176  155.5232 H   0  0  0  0  0  0  0  0  0  0  0  0
  150.2054  134.0571  153.9414 H   0  0  0  0  0  0  0  0  0  0  0  0
  149.9704  136.5194  153.1544 H   0  0  0  0  0  0  0  0  0  0  0  0
  151.8460  138.0464  153.1061 H   0  0  0  0  0  0  0  0  0  0  0  0
  153.6847  138.1377  154.7560 H   0  0  0  0  0  0  0  0  0  0  0  0
  152.6627  138.9955  155.9032 H   0  0  0  0  0  0  0  0  0  0  0  0
  153.1081  139.7544  154.3788 H   0  0  0  0  0  0  0  0  0  0  0  0
  148.9303  137.9830  153.1311 H   0  0  0  0  0  0  0  0  0  0  0  0
  147.3797  140.1517  153.7019 H   0  0  0  0  0  0  0  0  0  0  0  0
  149.1073  141.7997  155.1095 H   0  0  0  0  0  0  0  0  0  0  0  0
  1  2  1  0  0  0  0
  1 18  1  0  0  0  0
  1 19  1  0  0  0  0
  1 20  1  0  0  0  0
  2  3  1  0  0  0  0
  2 21  1  0  0  0  0
  2 22  1  0  0  0  0
  3  4  1  0  0  0  0
  3 23  1  0  0  0  0
  3 24  1  0  0  0  0
  4  5  1  0  0  0  0
  4 25  1  0  0  0  0
  5  6  2  0  0  0  0
  5  7  1  0  0  0  0
  7  8  1  0  0  0  0
  7 26  1  0  0  0  0
  7 27  1  0  0  0  0
  8  9  1  0  0  0  0
  8 28  1  0  0  0  0
  9 10  2  0  0  0  0
  9 11  1  0  0  0  0
 11 12  1  0  0  0  0
 11 13  1  0  0  0  0
 11 29  1  0  0  0  0
 12 30  1  0  0  0  0
 12 31  1  0  0  0  0
 12 32  1  0  0  0  0
 13 17  1  0  0  0  0
 13 14  1  0  0  0  0
 14 15  2  0  0  0  0
 14 33  1  0  0  0  0
 15 16  1  0  0  0  0
 15 34  1  0  0  0  0
 16 17  2  0  0  0  0
 16 35  1  0  0  0  0
M  END
> <s_m_source_file>
AV-unprocessed.smi

> <i_m_source_file_index>
952

> <i_lp_mmshare_version>
43012

> <i_f3d_flags>
0

> <s_epik_input>
W0NIM11bQ0gyXVtDSDJdW05IXUMoPU8pW0NIMl1bTkhdQyg9TylbQ0BIXShbQ0gzXSluMVtjSF1bY0hdW2NIXW4x

> <s_epik_cmdline>
J2VwaWtfcHl0aG9uJywgJy1waCcsICc3LjAnLCAnLXRuJywgJzgnLCAnLW1hJywgJzIwMCcsICctbWV0YWxfYmluZGluZycsICctaW1hZScsICc8aW5maWxlLm1hZT4nLCAnLW9tYWUnLCAnPG91dGZpbGUubWFlPic=

> <r_lp_tautomer_probability>
1

> <r_epik_Ionization_Penalty>
2.62173e-05

> <r_epik_Ionization_Penalty_Charging>
0

> <r_epik_Ionization_Penalty_Neutral>
2.62173e-05

> <r_epik_State_Penalty>
-0

> <r_epik_Charging_Adjusted_Penalty>
0

> <i_epik_Tot_Q>
0

> <i_epik_Tot_abs_Q>
0

> <r_epik_Metal_State_Penalty>
-0

> <b_epik_Metal_Only>
0

> <s_lp_Force_Field>
OPLS_2005

> <r_lp_Energy>
2.54984

> <b_lp_Chiralities_Consistent>
1

> <s_lp_Variant>
AV-unprocessed.smi:952-1

> <Gold.Version>
5.8.1

> <Gold.Id.Protein>
6NUR|6NUR_protein|mol2

> <Gold.PLP.Fitness>
43.8340

> <Gold.PLP.PLP>
-30.7067

> <Gold.PLP.part.hbond>
-4.7687

> <Gold.PLP.part.metal>
0.0000

> <Gold.PLP.part.buried>
-1.4856

> <Gold.PLP.part.nonpolar>
-23.7511

> <Gold.PLP.part.repulsive>
0.1699

> <Gold.PLP.ligand.clash>
0.0000

> <Gold.PLP.ligand.torsion>
0.4186

> <Gold.PLP.Chemscore.Hbond>
3.4380

> <Gold.PLP.Chemscore.CHOScore>
1.1704

> <Gold.PLP.Chemscore.Metal>
0.0000

> <Gold.Chemscore.Hbonds>
donor molecule, donor type, donor heavy atom, donor atom, acceptor molecule, acceptor atom, score
      L1  H     4    25       P1  7948  0.02
      L1  H     8    28       P1  7948  0.53
      P1  H  7989  7998       L1    17  0.40
      P1  H 10752 10764       L1    10  0.92
      L1  C    14    33       P1  7948  1.00

> <Gold.PLP.Chemscore.Internal.Correction>
0.1393

> <Gold.Rescore>
     Score         DG    S(hbond)    S(metal)    S(lipo)     H(rot)  DE(clash)    DE(int)     intcor
     12.78     -14.40       2.57        0.00      51.84       2.24       0.01       1.62       ----

> <Gold.Chemscore.Fitness>
12.7780

> <Gold.Chemscore.DG>
-14.3997

> <Gold.Chemscore.ZeroCoef>
-5.4800

> <Gold.Chemscore.Hbond>
2.5689

> <Gold.Chemscore.Metal>
0.0000

> <Gold.Chemscore.Lipo>
51.8356

> <Gold.Chemscore.Internal_Hbond>
0.0000

> <Gold.Chemscore.DEClash>
0.0060

> <Gold.Chemscore.DEInternal>
1.6158

> <Gold.Chemscore.Rot>
2.2364

> <Gold.Chemscore.Internal.Correction>
   9.000000E+99

> <Gold.Chemscore.Hbonds>
donor molecule, donor type, donor heavy atom, donor atom, acceptor molecule, acceptor atom, score
      L1  H     8    28       P1  7948  0.04
      P1  H  7989  7998       L1    17  0.01
      P1  H 10752 10764       L1    10  0.21

> <Gold.Chemscore.Hbond.Weighted>
-8.5801

> <Gold.Chemscore.Metal.Weighted>
-0.0000

> <Gold.Chemscore.Lipo.Weighted>
-6.0648

> <Gold.Chemscore.Internal_Hbond.Weighted>
0.0000

> <Gold.Chemscore.DEClash.Weighted>
0.0060

> <Gold.Chemscore.DEInternal.Weighted>
1.6158

> <Gold.Chemscore.Rot.Weighted>
5.7251

> <Gold.Chemscore.Internal.Correction.Weighted>
   9.000000E+99

> <Gold.Protein.RotatedTorsions>
[ 6907 6896 6895 6894 ] final -105.56 input  -60.11 | X-H torsion
[ 7974 7965 7964 7962 ] final  168.07 input  175.53 | X-H torsion
[ 8008 7997 7996 7995 ] final  -23.28 input   59.86 | X-H torsion
[ 10167 10162 10161 10158 ] final  -21.56 input  -65.29 | X-H torsion
[ 10718 10713 10712 10709 ] final -152.11 input   66.30 | X-H torsion
[ 10763 10752 10751 10750 ] final  -18.65 input  -60.55 | X-H torsion
[ 11005 11000 10999 10996 ] final -111.03 input  -57.11 | X-H torsion

> <Gold.Protein.ActiveResidues>
 VAL166  LYS551  ARG553  GLY616  TRP617  ASP618  TYR619  PRO620  LYS621  CYS622 
 ASP623  PHE694  ASN695  SER759  ASP760  ASP761  ALA762  ILE779  LEU786  VAL792 
 PHE793  MET794  SER795  GLU796  ALA797  LYS798  CYS799  TRP800  GLU811  SER814 

> <Gold.Protein.RotatedAtoms>
  150.7343  134.0107  159.3668 H   0  0  0  0  0  0  0  0  0  0  0  0  # atno 6907 bound_to 6896
  151.8067  135.0691  160.0417 H   0  0  0  0  0  0  0  0  0  0  0  0  # atno 6908 bound_to 6896
  152.3102  133.5708  159.5712 H   0  0  0  0  0  0  0  0  0  0  0  0  # atno 6909 bound_to 6896
  144.7402  139.8853  143.6399 H   0  0  0  0  0  0  0  0  0  0  0  0  # atno 7974 bound_to 7965
  154.4594  140.1985  156.0286 H   0  0  0  0  0  0  0  0  0  0  0  0  # atno 8008 bound_to 7997
  156.0811  140.3271  155.7667 H   0  0  0  0  0  0  0  0  0  0  0  0  # atno 8009 bound_to 7997
  155.5110  140.0561  157.2914 H   0  0  0  0  0  0  0  0  0  0  0  0  # atno 8010 bound_to 7997
  140.7282  143.4616  151.0372 H   0  0  0  0  0  0  0  0  0  0  0  0  # atno 10167 bound_to 10162
  156.4682  130.8246  151.2475 H   0  0  0  0  0  0  0  0  0  0  0  0  # atno 10718 bound_to 10713
  153.5926  135.7002  153.5417 H   0  0  0  0  0  0  0  0  0  0  0  0  # atno 10763 bound_to 10752
  153.3166  135.4086  155.1381 H   0  0  0  0  0  0  0  0  0  0  0  0  # atno 10764 bound_to 10752
  154.8598  135.3685  154.5458 H   0  0  0  0  0  0  0  0  0  0  0  0  # atno 10765 bound_to 10752
  141.0758  133.9304  157.2393 H   0  0  0  0  0  0  0  0  0  0  0  0  # atno 11005 bound_to 11000
  146.1182  139.4195  143.0245 LP  0  0  0  0  0  0  0  0  0  0  0  0  # atno 17320 bound_to 7965
  145.7344  141.0031  143.1334 LP  0  0  0  0  0  0  0  0  0  0  0  0  # atno 17321 bound_to 7965
  139.8301  143.7703  152.3179 LP  0  0  0  0  0  0  0  0  0  0  0  0  # atno 17342 bound_to 10162
  139.7815  144.7442  151.0081 LP  0  0  0  0  0  0  0  0  0  0  0  0  # atno 17343 bound_to 10162
  157.7493  131.0085  150.3230 LP  0  0  0  0  0  0  0  0  0  0  0  0  # atno 17370 bound_to 10713
  156.3646  130.3853  149.7224 LP  0  0  0  0  0  0  0  0  0  0  0  0  # atno 17371 bound_to 10713
  139.9570  135.0163  156.9156 LP  0  0  0  0  0  0  0  0  0  0  0  0  # atno 17394 bound_to 11000
  140.5577  134.0565  155.7389 LP  0  0  0  0  0  0  0  0  0  0  0  0  # atno 17395 bound_to 11000

$$$$
