#       Name:                AV-unprocessed.smi:2007
#       Creating user name   scv26
#       Creation time:       Fri Mar 27 10:37:27 2020


#       File generated by GOLD software.
#

@<TRIPOS>MOLECULE
AV-unprocessed.smi:2007
    42    43     1
SMALL
NO_CHARGES


@<TRIPOS>ATOM
      1 ****        -0.2012   3.4620  -0.9343 C.3            1 S1                 0.0000
      2 ****        -0.0017   1.9515  -0.7516 C.3            1 S1                 0.0000
      3 ****         1.4720   1.6173  -0.4364 C.3            1 S1                 0.0000
      4 ****         1.7760   0.1989  -0.2392 N.3            1 S1                 0.0000
      5 ****         1.6204  -0.5901  -1.4590 C.3            1 S1                 0.0000
      6 ****         1.9577  -2.0731  -1.2266 C.3            1 S1                 0.0000
      7 ****         3.2808  -2.1885  -0.7127 O.3            1 S1                 0.0000
      8 ****         3.4605  -1.4679   0.5023 C.3            1 S1                 0.0000
      9 ****         3.1284   0.0169   0.2752 C.3            1 S1                 0.0000
     10 ****        -0.8684   1.4845   0.3307 N.am           1 S1                 0.0000
     11 ****        -1.7413   0.4671   0.2801 C.2            1 S1                 0.0000
     12 ****        -1.8897  -0.1727  -0.7635 O.2            1 S1                 0.0000
     13 ****        -2.3883   0.2508   1.4483 N.pl3          1 S1                -1.0000
     14 ****        -3.2844  -0.7446   1.5455 C.2            1 S1                 0.0000
     15 ****        -4.6064  -0.5399   1.5208 N.2            1 S1                 0.0000
     16 ****        -5.3524  -1.7136   1.6430 C.2            1 S1                 0.0000
     17 ****        -4.5804  -2.8376   1.7721 C.2            1 S1                 0.0000
     18 ****        -2.8830  -2.4530   1.7457 S.3            1 S1                 0.0000
     19 ****         0.4183   3.8436  -1.7462 H              1 S1                 0.0000
     20 ****         0.0605   4.0107  -0.0288 H              1 S1                 0.0000
     21 ****        -1.2393   3.6936  -1.1757 H              1 S1                 0.0000
     22 ****        -0.2814   1.4857  -1.6968 H              1 S1                 0.0000
     23 ****         2.1083   2.0160  -1.2279 H              1 S1                 0.0000
     24 ****         1.7479   2.1630   0.4672 H              1 S1                 0.0000
     25 ****         0.5982  -0.5222  -1.8282 H              1 S1                 0.0000
     26 ****         2.2640  -0.1903  -2.2437 H              1 S1                 0.0000
     27 ****         1.2485  -2.5244  -0.5308 H              1 S1                 0.0000
     28 ****         1.8876  -2.6294  -2.1612 H              1 S1                 0.0000
     29 ****         2.8249  -1.8907   1.2819 H              1 S1                 0.0000
     30 ****         4.4929  -1.5790   0.8338 H              1 S1                 0.0000
     31 ****         3.8504   0.4455  -0.4215 H              1 S1                 0.0000
     32 ****         3.2423   0.5578   1.2154 H              1 S1                 0.0000
     33 ****        -0.7870   1.9690   1.2122 H              1 S1                 0.0000
     34 ****        -6.4307  -1.6552   1.6289 H              1 S1                 0.0000
     35 ****        -4.9032  -3.8617   1.8821 H              1 S1                 0.0000
     36 ****         1.1105  -0.1311   0.4302 LP             1 S1                 0.0000
     37 ****         3.9211  -1.8331  -1.3937 LP             1 S1                 0.0000
     38 ****         3.4758  -3.1547  -0.5440 LP             1 S1                 0.0000
     39 ****        -1.3583   0.0661  -1.5763 LP             1 S1                 0.0000
     40 ****        -2.5414  -0.9304  -0.7971 LP             1 S1                 0.0000
     41 ****        -2.1992   0.8323   2.2396 LP             1 S1                 0.0000
     42 ****        -5.0198   0.3655   1.4242 LP             1 S1                 0.0000
@<TRIPOS>BOND
    1    1    2 1     
    2    1   19 1     
    3    1   20 1     
    4    1   21 1     
    5    2    3 1     
    6    2   10 1     
    7    2   22 1     
    8    3    4 1     
    9    3   23 1     
   10    3   24 1     
   11    4    9 1     
   12    4    5 1     
   13    5    6 1     
   14    5   25 1     
   15    5   26 1     
   16    6    7 1     
   17    6   27 1     
   18    6   28 1     
   19    7    8 1     
   20    8    9 1     
   21    8   29 1     
   22    8   30 1     
   23    9   31 1     
   24    9   32 1     
   25   10   11 am    
   26   10   33 1     
   27   11   12 2     
   28   11   13 1     
   29   13   14 1     
   30   14   18 1     
   31   14   15 2     
   32   15   16 1     
   33   16   17 2     
   34   16   34 1     
   35   17   18 1     
   36   17   35 1     
   37    4   36 1     
   38    7   37 1     
   39    7   38 1     
   40   12   39 1     
   41   12   40 1     
   42   13   41 1     
   43   15   42 1     
@<TRIPOS>SUBSTRUCTURE
      1 S1             1
@<TRIPOS>SET
LONE_PAIRS      STATIC     ATOMS    <user>   **** ""
7 36 37 38 39 40 41 42
DONOR_HYDROGENS      STATIC     ATOMS    <user>   **** ""
1 33
ATOM$BLUE        STATIC     ATOMS    COLORGROUP SYSTEM
7 36 37 38 39 40 41 42
ATOM$RED        STATIC     ATOMS    COLORGROUP SYSTEM
1 33
