AV-unprocessed.smi:2735|AV-procd|sdf|10544|dock3
  -GOLD-   2272014593D 1   1.00000     0.00000
 Structure written by MMmdl.
 42 42  0  0  0  0  0  0  0  0  2 V2000
  151.5704  141.6510  158.8579 C   0  0  0  0  0  0  0  0  0  0  0  0
  151.2427  141.0362  157.5295 C   0  0  0  0  0  0  0  0  0  0  0  0
  150.2071  141.3932  156.6234 C   0  0  0  0  0  0  0  0  0  0  0  0
  150.3496  140.5168  155.5845 C   0  0  0  0  0  0  0  0  0  0  0  0
  149.5403  140.3826  154.3355 C   0  0  0  0  0  0  0  0  0  0  0  0
  151.4363  139.7075  155.8800 N   0  0  0  0  0  0  0  0  0  0  0  0
  151.9766  138.5821  155.1166 C   0  0  1  0  0  0  0  0  0  0  0  0
  153.4550  138.7796  154.7203 C   0  0  0  0  0  0  0  0  0  0  0  0
  151.7566  137.2702  155.8842 C   0  0  0  0  0  0  0  0  0  0  0  0
  152.6848  136.7373  156.4933 O   0  0  0  0  0  0  0  0  0  0  0  0
  150.5128  136.7676  155.8438 N   0  0  0  0  0  0  0  0  0  0  0  0
  150.0300  135.5675  156.5241 C   0  0  2  0  0  0  0  0  0  0  0  0
  149.5713  134.4923  155.5100 C   0  0  0  0  0  0  0  0  0  0  0  0
  150.6924  133.6674  154.8374 C   0  0  0  0  0  0  0  0  0  0  0  0
  150.1334  132.8669  153.6512 C   0  0  0  0  0  0  0  0  0  0  0  0
  151.4034  132.7269  155.8254 C   0  0  0  0  0  0  0  0  0  0  0  0
  148.9179  135.9616  157.5029 C   0  0  0  0  0  0  0  0  0  0  0  0
  147.9026  136.5174  157.0261 O   0  0  0  0  0  0  0  0  0  0  0  0
  149.0984  135.7006  158.7125 O   0  5  0  0  0  0  0  0  0  0  0  0
  151.9668  140.0238  157.0851 N   0  0  0  0  0  0  0  0  0  0  0  0
  150.8341  135.1536  157.1340 H   0  0  0  0  0  0  0  0  0  0  0  0
  150.8985  142.4787  159.0854 H   0  0  0  0  0  0  0  0  0  0  0  0
  152.5897  142.0377  158.8708 H   0  0  0  0  0  0  0  0  0  0  0  0
  151.4801  140.9197  159.6615 H   0  0  0  0  0  0  0  0  0  0  0  0
  149.4640  142.1702  156.7250 H   0  0  0  0  0  0  0  0  0  0  0  0
  148.7870  141.1684  154.2747 H   0  0  0  0  0  0  0  0  0  0  0  0
  149.0211  139.4248  154.3067 H   0  0  0  0  0  0  0  0  0  0  0  0
  150.1707  140.4577  153.4496 H   0  0  0  0  0  0  0  0  0  0  0  0
  151.4134  138.5215  154.1847 H   0  0  0  0  0  0  0  0  0  0  0  0
  153.8054  137.9544  154.0996 H   0  0  0  0  0  0  0  0  0  0  0  0
  154.1128  138.8378  155.5887 H   0  0  0  0  0  0  0  0  0  0  0  0
  153.5833  139.6970  154.1456 H   0  0  0  0  0  0  0  0  0  0  0  0
  149.8165  137.2829  155.3249 H   0  0  0  0  0  0  0  0  0  0  0  0
  148.8840  133.8035  156.0040 H   0  0  0  0  0  0  0  0  0  0  0  0
  148.9818  134.9841  154.7345 H   0  0  0  0  0  0  0  0  0  0  0  0
  151.4355  134.3521  154.4297 H   0  0  0  0  0  0  0  0  0  0  0  0
  149.3776  132.1512  153.9766 H   0  0  0  0  0  0  0  0  0  0  0  0
  150.9225  132.3106  153.1446 H   0  0  0  0  0  0  0  0  0  0  0  0
  149.6730  133.5249  152.9137 H   0  0  0  0  0  0  0  0  0  0  0  0
  150.7017  132.0292  156.2837 H   0  0  0  0  0  0  0  0  0  0  0  0
  151.8960  133.2775  156.6260 H   0  0  0  0  0  0  0  0  0  0  0  0
  152.1725  132.1404  155.3221 H   0  0  0  0  0  0  0  0  0  0  0  0
  1  2  1  0  0  0  0
  1 22  1  0  0  0  0
  1 23  1  0  0  0  0
  1 24  1  0  0  0  0
  2 20  2  0  0  0  0
  2  3  1  0  0  0  0
  3  4  2  0  0  0  0
  3 25  1  0  0  0  0
  4  5  1  0  0  0  0
  4  6  1  0  0  0  0
  5 26  1  0  0  0  0
  5 27  1  0  0  0  0
  5 28  1  0  0  0  0
  6  7  1  0  0  0  0
  6 20  1  0  0  0  0
  7  8  1  0  0  0  0
  7  9  1  0  0  0  0
  7 29  1  0  0  0  0
  8 30  1  0  0  0  0
  8 31  1  0  0  0  0
  8 32  1  0  0  0  0
  9 10  2  0  0  0  0
  9 11  1  0  0  0  0
 11 12  1  0  0  0  0
 11 33  1  0  0  0  0
 12 21  1  0  0  0  0
 12 13  1  0  0  0  0
 12 17  1  0  0  0  0
 13 14  1  0  0  0  0
 13 34  1  0  0  0  0
 13 35  1  0  0  0  0
 14 15  1  0  0  0  0
 14 16  1  0  0  0  0
 14 36  1  0  0  0  0
 15 37  1  0  0  0  0
 15 38  1  0  0  0  0
 15 39  1  0  0  0  0
 16 40  1  0  0  0  0
 16 41  1  0  0  0  0
 16 42  1  0  0  0  0
 17 18  2  0  0  0  0
 17 19  1  0  0  0  0
M  CHG  1  19  -1
M  END
> <s_m_source_file>
AV-unprocessed.smi

> <i_m_source_file_index>
2735

> <i_lp_mmshare_version>
43012

> <i_f3d_flags>
0

> <s_epik_input>
W0NIM11jMVtjSF1jKFtDSDNdKW4objEpW0NASF0oW0NIM10pQyg9TylbTkhdW0NASF0oQyg9TylbT0hdKVtDSDJdW0NIXShbQ0gzXSlbQ0gzXQ==

> <s_epik_cmdline>
J2VwaWtfcHl0aG9uJywgJy1waCcsICc3LjAnLCAnLXRuJywgJzgnLCAnLW1hJywgJzIwMCcsICctbWV0YWxfYmluZGluZycsICctaW1hZScsICc8aW5maWxlLm1hZT4nLCAnLW9tYWUnLCAnPG91dGZpbGUubWFlPic=

> <r_lp_tautomer_probability>
1

> <r_epik_Ionization_Penalty>
0.0012303

> <r_epik_Ionization_Penalty_Charging>
0.000186407

> <r_epik_Ionization_Penalty_Neutral>
0.0010439

> <r_epik_State_Penalty>
-0

> <r_epik_Charging_Adjusted_Penalty>
0.000186407

> <i_epik_Tot_Q>
-1

> <i_epik_Tot_abs_Q>
1

> <r_epik_Metal_State_Penalty>
-0

> <b_epik_Metal_Only>
0

> <s_lp_Force_Field>
OPLS_2005

> <r_lp_Energy>
6.63837

> <b_lp_Chiralities_Consistent>
1

> <s_lp_Variant>
AV-unprocessed.smi:2735-4

> <Gold.Version>
5.8.1

> <Gold.Id.Protein>
6NUR|6NUR_protein|mol2

> <Gold.PLP.Fitness>
44.0955

> <Gold.PLP.PLP>
-34.1670

> <Gold.PLP.part.hbond>
-3.0000

> <Gold.PLP.part.metal>
0.0000

> <Gold.PLP.part.buried>
-4.4068

> <Gold.PLP.part.nonpolar>
-26.9696

> <Gold.PLP.part.repulsive>
0.0391

> <Gold.PLP.ligand.clash>
0.0000

> <Gold.PLP.ligand.torsion>
0.8757

> <Gold.PLP.Chemscore.Hbond>
3.8320

> <Gold.PLP.Chemscore.CHOScore>
0.0000

> <Gold.PLP.Chemscore.Metal>
0.0000

> <Gold.Chemscore.Hbonds>
donor molecule, donor type, donor heavy atom, donor atom, acceptor molecule, acceptor atom, score
      P1  H  6896  6909       L1    19  1.62
      P1  H 10752 10765       L1    10  0.35

> <Gold.PLP.Chemscore.Internal.Correction>
0.1838

> <Gold.Rescore>
     Score         DG    S(hbond)    S(metal)    S(lipo)     H(rot)  DE(clash)    DE(int)     intcor
     14.35     -14.96       1.96        0.00      73.96       2.24       0.07       0.54       ----

> <Gold.Chemscore.Fitness>
14.3515

> <Gold.Chemscore.DG>
-14.9551

> <Gold.Chemscore.ZeroCoef>
-5.4800

> <Gold.Chemscore.Hbond>
1.9621

> <Gold.Chemscore.Metal>
0.0000

> <Gold.Chemscore.Lipo>
73.9576

> <Gold.Chemscore.Internal_Hbond>
0.0000

> <Gold.Chemscore.DEClash>
0.0650

> <Gold.Chemscore.DEInternal>
0.5386

> <Gold.Chemscore.Rot>
2.2388

> <Gold.Chemscore.Internal.Correction>
   9.000000E+99

> <Gold.Chemscore.Hbonds>
donor molecule, donor type, donor heavy atom, donor atom, acceptor molecule, acceptor atom, score
      P1  H  6896  6909       L1    19  0.80
      P1  H  7997  8010       L1    20  0.02
      P1  H 10752 10765       L1    10  0.01

> <Gold.Chemscore.Hbond.Weighted>
-6.5534

> <Gold.Chemscore.Metal.Weighted>
-0.0000

> <Gold.Chemscore.Lipo.Weighted>
-8.6530

> <Gold.Chemscore.Internal_Hbond.Weighted>
0.0000

> <Gold.Chemscore.DEClash.Weighted>
0.0650

> <Gold.Chemscore.DEInternal.Weighted>
0.5386

> <Gold.Chemscore.Rot.Weighted>
5.7314

> <Gold.Chemscore.Internal.Correction.Weighted>
   9.000000E+99

> <Gold.Protein.RotatedTorsions>
[ 6907 6896 6895 6894 ] final   50.88 input  -60.11 | X-H torsion
[ 7974 7965 7964 7962 ] final  152.30 input  175.53 | X-H torsion
[ 8008 7997 7996 7995 ] final   58.78 input   59.86 | X-H torsion
[ 10167 10162 10161 10158 ] final   55.61 input  -65.29 | X-H torsion
[ 10718 10713 10712 10709 ] final -174.00 input   66.30 | X-H torsion
[ 10763 10752 10751 10750 ] final -163.99 input  -60.55 | X-H torsion
[ 11005 11000 10999 10996 ] final  126.14 input  -57.11 | X-H torsion

> <Gold.Protein.ActiveResidues>
 VAL166  LYS551  ARG553  GLY616  TRP617  ASP618  TYR619  PRO620  LYS621  CYS622 
 ASP623  PHE694  ASN695  SER759  ASP760  ASP761  ALA762  ILE779  LEU786  VAL792 
 PHE793  MET794  SER795  GLU796  ALA797  LYS798  CYS799  TRP800  GLU811  SER814 

> <Gold.Protein.RotatedAtoms>
  152.3066  134.7547  160.0345 H   0  0  0  0  0  0  0  0  0  0  0  0  # atno 6907 bound_to 6896
  151.8042  133.3368  159.3544 H   0  0  0  0  0  0  0  0  0  0  0  0  # atno 6908 bound_to 6896
  150.7299  134.5655  159.5908 H   0  0  0  0  0  0  0  0  0  0  0  0  # atno 6909 bound_to 6896
  144.8232  139.6650  143.6091 H   0  0  0  0  0  0  0  0  0  0  0  0  # atno 7974 bound_to 7965
  155.5556  140.3487  155.4479 H   0  0  0  0  0  0  0  0  0  0  0  0  # atno 8008 bound_to 7997
  156.0552  140.1327  157.0031 H   0  0  0  0  0  0  0  0  0  0  0  0  # atno 8009 bound_to 7997
  154.4453  140.0996  156.6420 H   0  0  0  0  0  0  0  0  0  0  0  0  # atno 8010 bound_to 7997
  140.2176  144.3822  150.6463 H   0  0  0  0  0  0  0  0  0  0  0  0  # atno 10167 bound_to 10162
  156.7785  130.9475  151.3120 H   0  0  0  0  0  0  0  0  0  0  0  0  # atno 10718 bound_to 10713
  154.7071  135.2999  154.9254 H   0  0  0  0  0  0  0  0  0  0  0  0  # atno 10763 bound_to 10752
  154.0168  135.6688  153.4773 H   0  0  0  0  0  0  0  0  0  0  0  0  # atno 10764 bound_to 10752
  153.0725  135.5053  154.8247 H   0  0  0  0  0  0  0  0  0  0  0  0  # atno 10765 bound_to 10752
  139.9441  134.9632  156.8663 H   0  0  0  0  0  0  0  0  0  0  0  0  # atno 11005 bound_to 11000
  146.2537  139.6256  142.9409 LP  0  0  0  0  0  0  0  0  0  0  0  0  # atno 17320 bound_to 7965
  145.5059  141.0436  143.2515 LP  0  0  0  0  0  0  0  0  0  0  0  0  # atno 17321 bound_to 7965
  140.6278  143.2183  151.6559 LP  0  0  0  0  0  0  0  0  0  0  0  0  # atno 17342 bound_to 10162
  139.5156  144.3373  152.0772 LP  0  0  0  0  0  0  0  0  0  0  0  0  # atno 17343 bound_to 10162
  157.6657  130.9006  149.9927 LP  0  0  0  0  0  0  0  0  0  0  0  0  # atno 17370 bound_to 10713
  156.1233  130.3645  149.9852 LP  0  0  0  0  0  0  0  0  0  0  0  0  # atno 17371 bound_to 10713
  140.5877  134.0291  155.7488 LP  0  0  0  0  0  0  0  0  0  0  0  0  # atno 17394 bound_to 11000
  141.1086  133.9653  157.2951 LP  0  0  0  0  0  0  0  0  0  0  0  0  # atno 17395 bound_to 11000

$$$$
