#       Name:                AV-unprocessed.smi:499
#       Creating user name   scv26
#       Creation time:       Thu Mar 26 23:18:35 2020


#       File generated by GOLD software.
#

@<TRIPOS>MOLECULE
AV-unprocessed.smi:499
    41    42     1
SMALL
NO_CHARGES


@<TRIPOS>ATOM
      1 ****        -2.7216  -0.0526  -2.3026 C.3            1 S1                 0.0000
      2 ****        -2.3511   1.0682  -1.3107 C.3            1 S1                 0.0000
      3 ****        -2.7906   2.3456  -1.9021 C.1            1 S1                 0.0000
      4 ****        -3.1329   3.3483  -2.3682 N.1            1 S1                 0.0000
      5 ****        -0.8948   1.1369  -1.1643 N.am           1 S1                 0.0000
      6 ****        -0.0701   0.2160  -0.6374 C.2            1 S1                 0.0000
      7 ****        -0.4487  -0.8756  -0.2127 O.2            1 S1                 0.0000
      8 ****         1.4185   0.5905  -0.6110 C.3            1 S1                 0.0000
      9 ****         2.1776  -0.1236   0.4292 N.am           1 S1                 0.0000
     10 ****         2.8914  -1.2706   0.0303 C.2            1 S1                 0.0000
     11 ****         3.6327  -2.0057   0.8813 C.2            1 S1                 0.0000
     12 ****         4.3421  -3.2734   0.4314 C.3            1 S1                 0.0000
     13 ****         5.5491  -2.9717  -0.0449 F              1 S1                 0.0000
     14 ****         4.4963  -4.1248   1.4458 F              1 S1                 0.0000
     15 ****         3.6584  -3.8903  -0.5332 F              1 S1                 0.0000
     16 ****         3.6417  -1.5755   2.2657 C.2            1 S1                 0.0000
     17 ****         2.9527  -0.4892   2.6669 C.2            1 S1                 0.0000
     18 ****         2.1643   0.3092   1.7256 C.2            1 S1                 0.0000
     19 ****         1.5306   1.3038   2.0797 O.2            1 S1                 0.0000
     20 ****        -3.0825   0.8440   0.0177 C.3            1 S1                 0.0000
     21 ****        -4.5180   1.2676   0.2377 C.3            1 S1                 0.0000
     22 ****        -3.3989   1.9719   0.9736 C.3            1 S1                 0.0000
     23 ****        -3.7939  -0.0566  -2.5011 H              1 S1                 0.0000
     24 ****        -2.4620  -1.0410  -1.9233 H              1 S1                 0.0000
     25 ****        -2.2137   0.0799  -3.2587 H              1 S1                 0.0000
     26 ****        -0.4683   1.9930  -1.4886 H              1 S1                 0.0000
     27 ****         1.8367   0.3874  -1.5977 H              1 S1                 0.0000
     28 ****         1.5215   1.6689  -0.4748 H              1 S1                 0.0000
     29 ****         2.7889  -1.5227  -1.0153 H              1 S1                 0.0000
     30 ****         4.2128  -2.1317   2.9944 H              1 S1                 0.0000
     31 ****         2.9833  -0.1974   3.7065 H              1 S1                 0.0000
     32 ****        -2.8257  -0.1012   0.4915 H              1 S1                 0.0000
     33 ****        -5.0243   1.8182  -0.5523 H              1 S1                 0.0000
     34 ****        -5.1531   0.5976   0.8136 H              1 S1                 0.0000
     35 ****        -3.2900   1.7692   2.0371 H              1 S1                 0.0000
     36 ****        -3.1588   2.9886   0.6702 H              1 S1                 0.0000
     37 ****        -3.4286   4.2145  -2.7709 LP             1 S1                 0.0000
     38 ****        -1.4183  -1.1174  -0.2492 LP             1 S1                 0.0000
     39 ****         0.2134  -1.5207   0.1688 LP             1 S1                 0.0000
     40 ****         1.0021   1.8247   1.4094 LP             1 S1                 0.0000
     41 ****         1.5445   1.5906   3.0376 LP             1 S1                 0.0000
@<TRIPOS>BOND
    1    1    2 1     
    2    1   23 1     
    3    1   24 1     
    4    1   25 1     
    5    2    3 1     
    6    2    5 1     
    7    2   20 1     
    8    3    4 3     
    9    5    6 am    
   10    5   26 1     
   11    6    7 2     
   12    6    8 1     
   13    8    9 1     
   14    8   27 1     
   15    8   28 1     
   16    9   18 am    
   17    9   10 1     
   18   10   11 2     
   19   10   29 1     
   20   11   12 1     
   21   11   16 1     
   22   12   13 1     
   23   12   14 1     
   24   12   15 1     
   25   16   17 2     
   26   16   30 1     
   27   17   18 1     
   28   17   31 1     
   29   18   19 2     
   30   20   22 1     
   31   20   21 1     
   32   20   32 1     
   33   21   22 1     
   34   21   33 1     
   35   21   34 1     
   36   22   35 1     
   37   22   36 1     
   38    4   37 1     
   39    7   38 1     
   40    7   39 1     
   41   19   40 1     
   42   19   41 1     
@<TRIPOS>SUBSTRUCTURE
      1 S1             1
@<TRIPOS>SET
LONE_PAIRS      STATIC     ATOMS    <user>   **** ""
5 37 38 39 40 41
DONOR_HYDROGENS      STATIC     ATOMS    <user>   **** ""
1 26
ATOM$BLUE        STATIC     ATOMS    COLORGROUP SYSTEM
5 37 38 39 40 41
ATOM$RED        STATIC     ATOMS    COLORGROUP SYSTEM
1 26
