AV-unprocessed.smi:1476|AV-procd|sdf|5980|dock3
  -GOLD-   22720 6 73D 1   1.00000     0.00000
 Structure written by MMmdl.
 41 42  0  0  0  0  0  0  0  0  1 V2000
  150.6198  142.6002  157.3178 C   0  0  0  0  0  0  0  0  0  0  0  0
  150.8384  140.7908  157.0706 S   0  0  0  0  0  0  0  0  0  0  0  0
  152.2595  140.4695  157.2726 O   0  0  0  0  0  0  0  0  0  0  0  0
  149.8136  140.0925  157.8618 O   0  0  0  0  0  0  0  0  0  0  0  0
  150.4712  140.5448  155.3872 N   0  0  0  0  0  0  0  0  0  0  0  0
  150.6298  139.2067  154.7843 C   0  0  0  0  0  0  0  0  0  0  0  0
  149.2782  138.4872  154.6348 C   0  0  0  0  0  0  0  0  0  0  0  0
  148.2646  139.3398  153.8555 C   0  0  0  0  0  0  0  0  0  0  0  0
  146.9194  138.5986  153.7014 C   0  0  0  0  0  0  0  0  0  0  0  0
  147.0752  137.2553  153.1520 N   0  0  0  0  0  0  0  0  0  0  0  0
  146.0688  136.4071  152.8950 C   0  0  0  0  0  0  0  0  0  0  0  0
  144.8850  136.6794  153.0969 O   0  0  0  0  0  0  0  0  0  0  0  0
  146.5267  135.2451  152.3962 N   0  0  0  0  0  0  0  0  0  0  0  0
  145.7820  134.0929  152.0276 C   0  0  0  0  0  0  0  0  0  0  0  0
  146.5572  132.9845  151.6170 C   0  0  0  0  0  0  0  0  0  0  0  0
  145.9131  131.7918  151.2343 C   0  0  0  0  0  0  0  0  0  0  0  0
  144.5086  131.7374  151.2733 C   0  0  0  0  0  0  0  0  0  0  0  0
  143.8120  132.8850  151.6949 C   0  0  0  0  0  0  0  0  0  0  0  0
  144.4272  134.0293  152.0611 N   0  0  0  0  0  0  0  0  0  0  0  0
  148.1205  140.7012  154.5608 C   0  0  0  0  0  0  0  0  0  0  0  0
  149.4795  141.4074  154.7154 C   0  0  0  0  0  0  0  0  0  0  0  0
  150.8305  142.8444  158.3586 H   0  0  0  0  0  0  0  0  0  0  0  0
  149.5944  142.8848  157.0891 H   0  0  0  0  0  0  0  0  0  0  0  0
  151.3111  143.1477  156.6798 H   0  0  0  0  0  0  0  0  0  0  0  0
  151.0898  139.3249  153.8026 H   0  0  0  0  0  0  0  0  0  0  0  0
  151.3179  138.6025  155.3746 H   0  0  0  0  0  0  0  0  0  0  0  0
  149.4327  137.5370  154.1224 H   0  0  0  0  0  0  0  0  0  0  0  0
  148.8764  138.2395  155.6167 H   0  0  0  0  0  0  0  0  0  0  0  0
  148.6737  139.5146  152.8590 H   0  0  0  0  0  0  0  0  0  0  0  0
  146.4073  138.5400  154.6634 H   0  0  0  0  0  0  0  0  0  0  0  0
  146.2592  139.1588  153.0388 H   0  0  0  0  0  0  0  0  0  0  0  0
  148.0175  136.9514  152.9550 H   0  0  0  0  0  0  0  0  0  0  0  0
  147.5257  135.1727  152.2729 H   0  0  0  0  0  0  0  0  0  0  0  0
  147.6358  133.0428  151.5937 H   0  0  0  0  0  0  0  0  0  0  0  0
  146.4873  130.9339  150.9167 H   0  0  0  0  0  0  0  0  0  0  0  0
  143.9789  130.8404  150.9884 H   0  0  0  0  0  0  0  0  0  0  0  0
  142.7331  132.8846  151.7396 H   0  0  0  0  0  0  0  0  0  0  0  0
  147.4505  141.3499  153.9962 H   0  0  0  0  0  0  0  0  0  0  0  0
  147.6569  140.5641  155.5369 H   0  0  0  0  0  0  0  0  0  0  0  0
  149.3603  142.3436  155.2599 H   0  0  0  0  0  0  0  0  0  0  0  0
  149.8662  141.6722  153.7307 H   0  0  0  0  0  0  0  0  0  0  0  0
  1  2  1  0  0  0  0
  1 22  1  0  0  0  0
  1 23  1  0  0  0  0
  1 24  1  0  0  0  0
  2  3  2  0  0  0  0
  2  4  2  0  0  0  0
  2  5  1  0  0  0  0
  5 21  1  0  0  0  0
  5  6  1  0  0  0  0
  6  7  1  0  0  0  0
  6 25  1  0  0  0  0
  6 26  1  0  0  0  0
  7  8  1  0  0  0  0
  7 27  1  0  0  0  0
  7 28  1  0  0  0  0
  8  9  1  0  0  0  0
  8 20  1  0  0  0  0
  8 29  1  0  0  0  0
  9 10  1  0  0  0  0
  9 30  1  0  0  0  0
  9 31  1  0  0  0  0
 10 11  1  0  0  0  0
 10 32  1  0  0  0  0
 11 12  2  0  0  0  0
 11 13  1  0  0  0  0
 13 14  1  0  0  0  0
 13 33  1  0  0  0  0
 14 19  1  0  0  0  0
 14 15  2  0  0  0  0
 15 16  1  0  0  0  0
 15 34  1  0  0  0  0
 16 17  2  0  0  0  0
 16 35  1  0  0  0  0
 17 18  1  0  0  0  0
 17 36  1  0  0  0  0
 18 19  2  0  0  0  0
 18 37  1  0  0  0  0
 20 21  1  0  0  0  0
 20 38  1  0  0  0  0
 20 39  1  0  0  0  0
 21 40  1  0  0  0  0
 21 41  1  0  0  0  0
M  END
> <s_m_source_file>
AV-unprocessed.smi

> <i_m_source_file_index>
1476

> <i_lp_mmshare_version>
43012

> <i_f3d_flags>
0

> <s_epik_input>
W0NIM11TKD1PKSg9TylOMVtDSDJdW0NIMl1bQ0hdKFtDSDJdW0NIMl0xKVtDSDJdW05IXUMoPU8pW05IXWMyW2NIXVtjSF1bY0hdW2NIXW4y

> <s_epik_cmdline>
J2VwaWtfcHl0aG9uJywgJy1waCcsICc3LjAnLCAnLXRuJywgJzgnLCAnLW1hJywgJzIwMCcsICctbWV0YWxfYmluZGluZycsICctaW1hZScsICc8aW5maWxlLm1hZT4nLCAnLW9tYWUnLCAnPG91dGZpbGUubWFlPic=

> <r_lp_tautomer_probability>
1

> <r_epik_Ionization_Penalty>
4.9822e-05

> <r_epik_Ionization_Penalty_Charging>
0

> <r_epik_Ionization_Penalty_Neutral>
4.9822e-05

> <r_epik_State_Penalty>
-0

> <r_epik_Charging_Adjusted_Penalty>
0

> <i_epik_Tot_Q>
0

> <i_epik_Tot_abs_Q>
0

> <r_epik_Metal_State_Penalty>
-0

> <b_epik_Metal_Only>
0

> <s_lp_Force_Field>
OPLS_2005

> <r_lp_Energy>
3.82985

> <b_lp_Chiralities_Consistent>
1

> <s_lp_Variant>
AV-unprocessed.smi:1476-1

> <Gold.Version>
5.8.1

> <Gold.Id.Protein>
6NUR|6NUR_protein|mol2

> <Gold.PLP.Fitness>
47.5229

> <Gold.PLP.PLP>
-36.1086

> <Gold.PLP.part.hbond>
-2.7694

> <Gold.PLP.part.metal>
0.0000

> <Gold.PLP.part.buried>
-0.3685

> <Gold.PLP.part.nonpolar>
-32.2778

> <Gold.PLP.part.repulsive>
0.4251

> <Gold.PLP.ligand.clash>
0.0000

> <Gold.PLP.ligand.torsion>
1.2337

> <Gold.PLP.Chemscore.Hbond>
2.9920

> <Gold.PLP.Chemscore.CHOScore>
0.9463

> <Gold.PLP.Chemscore.Metal>
0.0000

> <Gold.Chemscore.Hbonds>
donor molecule, donor type, donor heavy atom, donor atom, acceptor molecule, acceptor atom, score
      L1  H    10    32       P1  7948  0.88
      L1  H    13    33       P1  7948  0.82
      P1  H  7997  8009       L1     3  0.44

> <Gold.PLP.Chemscore.Internal.Correction>
2.0668

> <Gold.Rescore>
     Score         DG    S(hbond)    S(metal)    S(lipo)     H(rot)  DE(clash)    DE(int)     intcor
     17.96     -20.68       2.94        0.00      74.76       1.32       0.10       2.62       ----

> <Gold.Chemscore.Fitness>
17.9584

> <Gold.Chemscore.DG>
-20.6763

> <Gold.Chemscore.ZeroCoef>
-5.4800

> <Gold.Chemscore.Hbond>
2.9394

> <Gold.Chemscore.Metal>
0.0000

> <Gold.Chemscore.Lipo>
74.7600

> <Gold.Chemscore.Internal_Hbond>
0.0000

> <Gold.Chemscore.DEClash>
0.0979

> <Gold.Chemscore.DEInternal>
2.6200

> <Gold.Chemscore.Rot>
1.3157

> <Gold.Chemscore.Internal.Correction>
   9.000000E+99

> <Gold.Chemscore.Hbonds>
donor molecule, donor type, donor heavy atom, donor atom, acceptor molecule, acceptor atom, score
      L1  H    10    32       P1  7948  0.86
      L1  H    13    33       P1  7948  0.80
      P1  H  7997  8009       L1     3  0.42

> <Gold.Chemscore.Hbond.Weighted>
-9.8176

> <Gold.Chemscore.Metal.Weighted>
-0.0000

> <Gold.Chemscore.Lipo.Weighted>
-8.7469

> <Gold.Chemscore.Internal_Hbond.Weighted>
0.0000

> <Gold.Chemscore.DEClash.Weighted>
0.0979

> <Gold.Chemscore.DEInternal.Weighted>
2.6200

> <Gold.Chemscore.Rot.Weighted>
3.3682

> <Gold.Chemscore.Internal.Correction.Weighted>
   9.000000E+99

> <Gold.Protein.RotatedTorsions>
[ 6907 6896 6895 6894 ] final  -18.15 input  -60.11 | X-H torsion
[ 7974 7965 7964 7962 ] final  159.84 input  175.53 | X-H torsion
[ 8008 7997 7996 7995 ] final -173.97 input   59.86 | X-H torsion
[ 10167 10162 10161 10158 ] final  155.82 input  -65.29 | X-H torsion
[ 10718 10713 10712 10709 ] final  -91.07 input   66.30 | X-H torsion
[ 10763 10752 10751 10750 ] final -152.84 input  -60.55 | X-H torsion
[ 11005 11000 10999 10996 ] final  -75.73 input  -57.11 | X-H torsion

> <Gold.Protein.ActiveResidues>
 VAL166  LYS551  ARG553  GLY616  TRP617  ASP618  TYR619  PRO620  LYS621  CYS622 
 ASP623  PHE694  ASN695  SER759  ASP760  ASP761  ALA762  ILE779  LEU786  VAL792 
 PHE793  MET794  SER795  GLU796  ALA797  LYS798  CYS799  TRP800  GLU811  SER814 

> <Gold.Protein.RotatedAtoms>
  151.2826  135.0718  159.9174 H   0  0  0  0  0  0  0  0  0  0  0  0  # atno 6907 bound_to 6896
  152.5331  134.0015  159.7907 H   0  0  0  0  0  0  0  0  0  0  0  0  # atno 6908 bound_to 6896
  151.0272  133.5773  159.2695 H   0  0  0  0  0  0  0  0  0  0  0  0  # atno 6909 bound_to 6896
  144.7768  139.7674  143.6275 H   0  0  0  0  0  0  0  0  0  0  0  0  # atno 7974 bound_to 7965
  155.9642  140.1150  157.0869 H   0  0  0  0  0  0  0  0  0  0  0  0  # atno 8008 bound_to 7997
  154.4139  140.1176  156.5287 H   0  0  0  0  0  0  0  0  0  0  0  0  # atno 8009 bound_to 7997
  155.6681  140.3473  155.4810 H   0  0  0  0  0  0  0  0  0  0  0  0  # atno 8010 bound_to 7997
  139.4821  144.5064  151.8091 H   0  0  0  0  0  0  0  0  0  0  0  0  # atno 10167 bound_to 10162
  155.9991  130.4934  150.5419 H   0  0  0  0  0  0  0  0  0  0  0  0  # atno 10718 bound_to 10713
  154.7968  135.3227  154.7648 H   0  0  0  0  0  0  0  0  0  0  0  0  # atno 10763 bound_to 10752
  153.8325  135.6878  153.4817 H   0  0  0  0  0  0  0  0  0  0  0  0  # atno 10764 bound_to 10752
  153.1663  135.4641  154.9783 H   0  0  0  0  0  0  0  0  0  0  0  0  # atno 10765 bound_to 10752
  141.1648  133.6957  156.7561 H   0  0  0  0  0  0  0  0  0  0  0  0  # atno 11005 bound_to 11000
  146.1953  139.5216  142.9778 LP  0  0  0  0  0  0  0  0  0  0  0  0  # atno 17320 bound_to 7965
  145.6162  141.0331  143.1940 LP  0  0  0  0  0  0  0  0  0  0  0  0  # atno 17321 bound_to 7965
  140.4562  144.1785  150.5902 LP  0  0  0  0  0  0  0  0  0  0  0  0  # atno 17342 bound_to 10162
  140.4532  143.2478  151.9319 LP  0  0  0  0  0  0  0  0  0  0  0  0  # atno 17343 bound_to 10162
  157.3354  131.0707  151.1829 LP  0  0  0  0  0  0  0  0  0  0  0  0  # atno 17370 bound_to 10713
  157.2695  130.6697  149.6013 LP  0  0  0  0  0  0  0  0  0  0  0  0  # atno 17371 bound_to 10713
  140.2568  134.8498  157.3720 LP  0  0  0  0  0  0  0  0  0  0  0  0  # atno 17394 bound_to 11000
  140.1649  134.4681  155.7869 LP  0  0  0  0  0  0  0  0  0  0  0  0  # atno 17395 bound_to 11000

$$$$
