AV-unprocessed.smi:781|AV-procd|sdf|3712|dock5
  -GOLD-   22720 1133D 1   1.00000     0.00000
 Structure written by MMmdl.
 38 40  0  0  0  0  0  0  0  0  1 V2000
  146.4350  134.1241  162.3907 C   0  0  0  0  0  0  0  0  0  0  0  0
  147.0988  135.0779  161.4577 C   0  0  0  0  0  0  0  0  0  0  0  0
  147.4169  135.0112  160.1303 C   0  0  0  0  0  0  0  0  0  0  0  0
  148.0321  136.2679  159.8858 C   0  0  0  0  0  0  0  0  0  0  0  0
  148.5157  136.6019  158.5956 N   0  0  0  0  0  0  0  0  0  0  0  0
  149.7965  136.6926  158.1990 C   0  0  0  0  0  0  0  0  0  0  0  0
  150.7779  136.4831  158.9127 O   0  0  0  0  0  0  0  0  0  0  0  0
  149.8816  137.0404  156.9076 N   0  0  0  0  0  0  0  0  0  0  0  0
  151.1316  137.2253  156.1744 C   0  0  1  0  0  0  0  0  0  0  0  0
  150.9296  137.7402  154.7265 C   0  0  1  0  0  0  0  0  0  0  0  0
  150.0226  138.9889  154.6917 C   0  0  0  0  0  0  0  0  0  0  0  0
  150.9121  140.0683  155.3362 C   0  0  0  0  0  0  0  0  0  0  0  0
  152.2199  139.3052  155.6248 C   0  0  2  0  0  0  0  0  0  0  0  0
  152.2894  138.3598  154.4310 C   0  0  0  0  0  0  0  0  0  0  0  0
  152.0013  138.3405  156.8133 C   0  0  2  0  0  0  0  0  0  0  0  0
  153.3227  137.8196  157.4109 C   0  0  0  0  0  0  0  0  0  0  0  0
  153.9115  138.8108  158.2259 O   0  0  0  0  0  0  0  0  0  0  0  0
  148.0839  137.0330  160.9656 N   0  0  0  0  0  0  0  0  0  0  0  0
  147.4853  136.2743  161.9784 O   0  0  0  0  0  0  0  0  0  0  0  0
  146.4819  133.1055  162.0051 H   0  0  0  0  0  0  0  0  0  0  0  0
  145.3860  134.3862  162.5277 H   0  0  0  0  0  0  0  0  0  0  0  0
  146.9178  134.1373  163.3682 H   0  0  0  0  0  0  0  0  0  0  0  0
  147.2371  134.1940  159.4475 H   0  0  0  0  0  0  0  0  0  0  0  0
  147.8108  136.7960  157.9003 H   0  0  0  0  0  0  0  0  0  0  0  0
  149.0262  137.1952  156.3947 H   0  0  0  0  0  0  0  0  0  0  0  0
  151.6823  136.2827  156.1518 H   0  0  0  0  0  0  0  0  0  0  0  0
  150.6232  136.9618  154.0270 H   0  0  0  0  0  0  0  0  0  0  0  0
  149.7869  139.2594  153.6615 H   0  0  0  0  0  0  0  0  0  0  0  0
  149.0756  138.8559  155.2147 H   0  0  0  0  0  0  0  0  0  0  0  0
  151.0858  140.8874  154.6372 H   0  0  0  0  0  0  0  0  0  0  0  0
  150.4677  140.4898  156.2385 H   0  0  0  0  0  0  0  0  0  0  0  0
  153.0822  139.9623  155.7429 H   0  0  0  0  0  0  0  0  0  0  0  0
  153.1118  137.6447  154.4832 H   0  0  0  0  0  0  0  0  0  0  0  0
  152.3310  138.8773  153.4708 H   0  0  0  0  0  0  0  0  0  0  0  0
  151.4590  138.8666  157.6015 H   0  0  0  0  0  0  0  0  0  0  0  0
  153.1678  136.9151  157.9996 H   0  0  0  0  0  0  0  0  0  0  0  0
  154.0250  137.5692  156.6155 H   0  0  0  0  0  0  0  0  0  0  0  0
  154.4390  138.3846  158.8841 H   0  0  0  0  0  0  0  0  0  0  0  0
  1  2  1  0  0  0  0
  1 20  1  0  0  0  0
  1 21  1  0  0  0  0
  1 22  1  0  0  0  0
  2 19  1  0  0  0  0
  2  3  2  0  0  0  0
  3  4  1  0  0  0  0
  3 23  1  0  0  0  0
  4  5  1  0  0  0  0
  4 18  2  0  0  0  0
  5  6  1  0  0  0  0
  5 24  1  0  0  0  0
  6  7  2  0  0  0  0
  6  8  1  0  0  0  0
  8  9  1  0  0  0  0
  8 25  1  0  0  0  0
  9 15  1  0  0  0  0
  9 10  1  0  0  0  0
  9 26  1  0  0  0  0
 10 14  1  0  0  0  0
 10 11  1  0  0  0  0
 10 27  1  0  0  0  0
 11 12  1  0  0  0  0
 11 28  1  0  0  0  0
 11 29  1  0  0  0  0
 12 13  1  0  0  0  0
 12 30  1  0  0  0  0
 12 31  1  0  0  0  0
 13 14  1  0  0  0  0
 13 15  1  0  0  0  0
 13 32  1  0  0  0  0
 14 33  1  0  0  0  0
 14 34  1  0  0  0  0
 15 16  1  0  0  0  0
 15 35  1  0  0  0  0
 16 17  1  0  0  0  0
 16 36  1  0  0  0  0
 16 37  1  0  0  0  0
 17 38  1  0  0  0  0
 18 19  1  0  0  0  0
M  END
> <s_m_source_file>
AV-unprocessed.smi

> <i_m_source_file_index>
781

> <i_lp_mmshare_version>
43012

> <i_f3d_flags>
0

> <s_epik_input>
W0NIM11jMVtjSF1jKG5vMSlbTkhdQyg9TylbTkhdW0NASF0oW0NAQEhdMjMpW0NASF0oW0NIMl1bT0hdKVtDQEBIXShbQ0gyXTMpW0NIMl1bQ0gyXTI=

> <s_epik_cmdline>
J2VwaWtfcHl0aG9uJywgJy1waCcsICc3LjAnLCAnLXRuJywgJzgnLCAnLW1hJywgJzIwMCcsICctbWV0YWxfYmluZGluZycsICctaW1hZScsICc8aW5maWxlLm1hZT4nLCAnLW9tYWUnLCAnPG91dGZpbGUubWFlPic=

> <r_lp_tautomer_probability>
1

> <r_epik_Ionization_Penalty>
2.32222e-05

> <r_epik_Ionization_Penalty_Charging>
0

> <r_epik_Ionization_Penalty_Neutral>
2.32222e-05

> <r_epik_State_Penalty>
-0

> <r_epik_Charging_Adjusted_Penalty>
0

> <i_epik_Tot_Q>
0

> <i_epik_Tot_abs_Q>
0

> <r_epik_Metal_State_Penalty>
-0

> <b_epik_Metal_Only>
0

> <s_lp_Force_Field>
OPLS_2005

> <r_lp_Energy>
46.3898

> <b_lp_Chiralities_Consistent>
1

> <s_lp_Variant>
AV-unprocessed.smi:781-6

> <Gold.Version>
5.8.1

> <Gold.Id.Protein>
6NUR|6NUR_protein|mol2

> <Gold.PLP.Fitness>
41.8619

> <Gold.PLP.PLP>
-32.4154

> <Gold.PLP.part.hbond>
-4.0000

> <Gold.PLP.part.metal>
0.0000

> <Gold.PLP.part.buried>
-3.4088

> <Gold.PLP.part.nonpolar>
-24.5377

> <Gold.PLP.part.repulsive>
0.1460

> <Gold.PLP.ligand.clash>
0.0000

> <Gold.PLP.ligand.torsion>
0.8053

> <Gold.PLP.Chemscore.Hbond>
3.6800

> <Gold.PLP.Chemscore.CHOScore>
0.0000

> <Gold.PLP.Chemscore.Metal>
0.0000

> <Gold.Chemscore.Hbonds>
donor molecule, donor type, donor heavy atom, donor atom, acceptor molecule, acceptor atom, score
      P1  H  6896  6907       L1     7  0.99
      P1  H  6931  6943       L1    18  1.00
      P1  H  6934  6947       L1    18  0.47
      P1  H  7997  8008       L1    17  1.00

> <Gold.PLP.Chemscore.Internal.Correction>
0.0171

> <Gold.Rescore>
     Score         DG    S(hbond)    S(metal)    S(lipo)     H(rot)  DE(clash)    DE(int)     intcor
     19.55     -20.32       3.48        0.00      68.12       1.86       0.00       0.78       ----

> <Gold.Chemscore.Fitness>
19.5468

> <Gold.Chemscore.DG>
-20.3243

> <Gold.Chemscore.ZeroCoef>
-5.4800

> <Gold.Chemscore.Hbond>
3.4829

> <Gold.Chemscore.Metal>
0.0000

> <Gold.Chemscore.Lipo>
68.1165

> <Gold.Chemscore.Internal_Hbond>
0.0000

> <Gold.Chemscore.DEClash>
0.0009

> <Gold.Chemscore.DEInternal>
0.7767

> <Gold.Chemscore.Rot>
1.8587

> <Gold.Chemscore.Internal.Correction>
   9.000000E+99

> <Gold.Chemscore.Hbonds>
donor molecule, donor type, donor heavy atom, donor atom, acceptor molecule, acceptor atom, score
      P1  H  6896  6907       L1     7  0.92
      P1  H  6931  6943       L1    18  0.38
      P1  H  6934  6947       L1    18  0.34
      P1  H  7997  8008       L1    17  0.39

> <Gold.Chemscore.Hbond.Weighted>
-11.6330

> <Gold.Chemscore.Metal.Weighted>
-0.0000

> <Gold.Chemscore.Lipo.Weighted>
-7.9696

> <Gold.Chemscore.Internal_Hbond.Weighted>
0.0000

> <Gold.Chemscore.DEClash.Weighted>
0.0009

> <Gold.Chemscore.DEInternal.Weighted>
0.7767

> <Gold.Chemscore.Rot.Weighted>
4.7583

> <Gold.Chemscore.Internal.Correction.Weighted>
   9.000000E+99

> <Gold.Protein.RotatedTorsions>
[ 6907 6896 6895 6894 ] final  -39.03 input  -60.11 | X-H torsion
[ 7974 7965 7964 7962 ] final  134.51 input  175.53 | X-H torsion
[ 8008 7997 7996 7995 ] final  -83.70 input   59.86 | X-H torsion
[ 10167 10162 10161 10158 ] final  -66.47 input  -65.29 | X-H torsion
[ 10718 10713 10712 10709 ] final -104.81 input   66.30 | X-H torsion
[ 10763 10752 10751 10750 ] final  -41.08 input  -60.55 | X-H torsion
[ 11005 11000 10999 10996 ] final  -35.57 input  -57.11 | X-H torsion

> <Gold.Protein.ActiveResidues>
 VAL166  LYS551  ARG553  GLY616  TRP617  ASP618  TYR619  PRO620  LYS621  CYS622 
 ASP623  PHE694  ASN695  SER759  ASP760  ASP761  ALA762  ILE779  LEU786  VAL792 
 PHE793  MET794  SER795  GLU796  ALA797  LYS798  CYS799  TRP800  GLU811  SER814 

> <Gold.Protein.RotatedAtoms>
  150.9953  134.9278  159.7922 H   0  0  0  0  0  0  0  0  0  0  0  0  # atno 6907 bound_to 6896
  152.5262  134.3227  159.9164 H   0  0  0  0  0  0  0  0  0  0  0  0  # atno 6908 bound_to 6896
  151.3233  133.3989  159.2690 H   0  0  0  0  0  0  0  0  0  0  0  0  # atno 6909 bound_to 6896
  144.9756  139.4558  143.5411 H   0  0  0  0  0  0  0  0  0  0  0  0  # atno 7974 bound_to 7965
  154.6219  140.0615  156.9625 H   0  0  0  0  0  0  0  0  0  0  0  0  # atno 8008 bound_to 7997
  155.1804  140.3298  155.4358 H   0  0  0  0  0  0  0  0  0  0  0  0  # atno 8009 bound_to 7997
  156.2436  140.1898  156.6900 H   0  0  0  0  0  0  0  0  0  0  0  0  # atno 8010 bound_to 7997
  140.5655  143.2314  151.6644 H   0  0  0  0  0  0  0  0  0  0  0  0  # atno 10167 bound_to 10162
  156.0320  130.5533  150.7450 H   0  0  0  0  0  0  0  0  0  0  0  0  # atno 10718 bound_to 10713
  153.9567  135.6744  153.4744 H   0  0  0  0  0  0  0  0  0  0  0  0  # atno 10763 bound_to 10752
  153.0858  135.4900  154.8591 H   0  0  0  0  0  0  0  0  0  0  0  0  # atno 10764 bound_to 10752
  154.7296  135.3135  154.8874 H   0  0  0  0  0  0  0  0  0  0  0  0  # atno 10765 bound_to 10752
  140.9806  133.7058  156.1678 H   0  0  0  0  0  0  0  0  0  0  0  0  # atno 11005 bound_to 11000
  146.3394  139.8996  142.8796 LP  0  0  0  0  0  0  0  0  0  0  0  0  # atno 17320 bound_to 7965
  145.2495  141.0039  143.3889 LP  0  0  0  0  0  0  0  0  0  0  0  0  # atno 17321 bound_to 7965
  139.5091  144.3589  152.0581 LP  0  0  0  0  0  0  0  0  0  0  0  0  # atno 17342 bound_to 10162
  140.2721  144.3953  150.6148 LP  0  0  0  0  0  0  0  0  0  0  0  0  # atno 17343 bound_to 10162
  157.5009  131.0918  151.0315 LP  0  0  0  0  0  0  0  0  0  0  0  0  # atno 17370 bound_to 10713
  157.0696  130.5859  149.5400 LP  0  0  0  0  0  0  0  0  0  0  0  0  # atno 17371 bound_to 10713
  140.7192  134.4377  157.5576 LP  0  0  0  0  0  0  0  0  0  0  0  0  # atno 17394 bound_to 11000
  139.8949  134.8696  156.2157 LP  0  0  0  0  0  0  0  0  0  0  0  0  # atno 17395 bound_to 11000

$$$$
