AV-unprocessed.smi:2253|AV-procd|sdf|9122|dock6
  -GOLD-   2272012323D 1   1.00000     0.00000
 Structure written by MMmdl.
 51 53  0  0  0  0  0  0  0  0  2 V2000
  152.7150  139.6606  156.4731 C   0  0  0  0  0  0  0  0  0  0  0  0
  151.2908  139.8053  156.2058 N   0  0  0  0  0  0  0  0  0  0  0  0
  151.0769  139.8934  154.7644 C   0  0  0  0  0  0  0  0  0  0  0  0
  149.5718  139.9706  154.4578 C   0  0  0  0  0  0  0  0  0  0  0  0
  148.8967  141.1864  155.1380 C   0  0  0  0  0  0  0  0  0  0  0  0
  147.4061  141.2047  154.9546 N   0  3  2  0  0  0  0  0  0  0  0  0
  146.6535  140.1081  155.6291 C   0  0  0  0  0  0  0  0  0  0  0  0
  146.8721  138.7533  154.9303 C   0  0  0  0  0  0  0  0  0  0  0  0
  146.4447  138.8275  153.4544 C   0  0  2  0  0  0  0  0  0  0  0  0
  146.7431  137.5643  152.7853 N   0  0  0  0  0  0  0  0  0  0  0  0
  145.8317  136.6432  152.4387 C   0  0  0  0  0  0  0  0  0  0  0  0
  144.6246  136.7896  152.6255 O   0  0  0  0  0  0  0  0  0  0  0  0
  146.4166  135.5723  151.8739 N   0  0  0  0  0  0  0  0  0  0  0  0
  145.8377  134.3624  151.3957 C   0  0  0  0  0  0  0  0  0  0  0  0
  144.5189  134.2366  150.8926 C   0  0  0  0  0  0  0  0  0  0  0  0
  144.0796  132.9701  150.4571 C   0  0  0  0  0  0  0  0  0  0  0  0
  144.8487  131.8617  150.4921 N   0  0  0  0  0  0  0  0  0  0  0  0
  146.1038  131.9839  150.9720 C   0  0  0  0  0  0  0  0  0  0  0  0
  146.6411  133.2025  151.4327 C   0  0  0  0  0  0  0  0  0  0  0  0
  147.9106  133.2532  151.9043 F   0  0  0  0  0  0  0  0  0  0  0  0
  147.1483  140.0075  152.7547 C   0  0  0  0  0  0  0  0  0  0  0  0
  146.9498  141.3202  153.5390 C   0  0  0  0  0  0  0  0  0  0  0  0
  149.2833  141.1564  156.6361 C   0  0  0  0  0  0  0  0  0  0  0  0
  150.8014  141.0237  156.8442 C   0  0  0  0  0  0  0  0  0  0  0  0
  153.1016  138.7532  156.0080 H   0  0  0  0  0  0  0  0  0  0  0  0
  152.8971  139.5852  157.5457 H   0  0  0  0  0  0  0  0  0  0  0  0
  153.2819  140.5100  156.0890 H   0  0  0  0  0  0  0  0  0  0  0  0
  151.5942  140.7634  154.3558 H   0  0  0  0  0  0  0  0  0  0  0  0
  151.5001  139.0127  154.2795 H   0  0  0  0  0  0  0  0  0  0  0  0
  149.4689  140.0262  153.3745 H   0  0  0  0  0  0  0  0  0  0  0  0
  149.0877  139.0460  154.7759 H   0  0  0  0  0  0  0  0  0  0  0  0
  149.3201  142.0867  154.6925 H   0  0  0  0  0  0  0  0  0  0  0  0
  146.8793  140.0454  156.6919 H   0  0  0  0  0  0  0  0  0  0  0  0
  145.5914  140.3557  155.5915 H   0  0  0  0  0  0  0  0  0  0  0  0
  147.9192  138.4576  155.0080 H   0  0  0  0  0  0  0  0  0  0  0  0
  146.2978  137.9804  155.4427 H   0  0  0  0  0  0  0  0  0  0  0  0
  145.3661  138.9958  153.4262 H   0  0  0  0  0  0  0  0  0  0  0  0
  147.7144  137.3679  152.5919 H   0  0  0  0  0  0  0  0  0  0  0  0
  147.4212  135.6200  151.7837 H   0  0  0  0  0  0  0  0  0  0  0  0
  143.8345  135.0670  150.8294 H   0  0  0  0  0  0  0  0  0  0  0  0
  143.0794  132.8441  150.0695 H   0  0  0  0  0  0  0  0  0  0  0  0
  146.6979  131.0822  150.9910 H   0  0  0  0  0  0  0  0  0  0  0  0
  148.2118  139.7970  152.6391 H   0  0  0  0  0  0  0  0  0  0  0  0
  146.7551  140.1288  151.7445 H   0  0  0  0  0  0  0  0  0  0  0  0
  145.8872  141.5668  153.5474 H   0  0  0  0  0  0  0  0  0  0  0  0
  147.4236  142.1509  153.0209 H   0  0  0  0  0  0  0  0  0  0  0  0
  148.9679  142.0665  157.1428 H   0  0  0  0  0  0  0  0  0  0  0  0
  148.7748  140.3296  157.1348 H   0  0  0  0  0  0  0  0  0  0  0  0
  151.0179  140.9857  157.9127 H   0  0  0  0  0  0  0  0  0  0  0  0
  151.3189  141.8973  156.4436 H   0  0  0  0  0  0  0  0  0  0  0  0
  147.1040  142.0537  155.4112 H   0  0  0  0  0  0  0  0  0  0  0  0
  1  2  1  0  0  0  0
  1 25  1  0  0  0  0
  1 26  1  0  0  0  0
  1 27  1  0  0  0  0
  2 24  1  0  0  0  0
  2  3  1  0  0  0  0
  3  4  1  0  0  0  0
  3 28  1  0  0  0  0
  3 29  1  0  0  0  0
  4  5  1  0  0  0  0
  4 30  1  0  0  0  0
  4 31  1  0  0  0  0
  5  6  1  0  0  0  0
  5 23  1  0  0  0  0
  5 32  1  0  0  0  0
  6 22  1  0  0  0  0
  6  7  1  0  0  0  0
  6 51  1  0  0  0  0
  7  8  1  0  0  0  0
  7 33  1  0  0  0  0
  7 34  1  0  0  0  0
  8  9  1  0  0  0  0
  8 35  1  0  0  0  0
  8 36  1  0  0  0  0
  9 10  1  0  0  0  0
  9 21  1  0  0  0  0
  9 37  1  0  0  0  0
 10 11  1  0  0  0  0
 10 38  1  0  0  0  0
 11 12  2  0  0  0  0
 11 13  1  0  0  0  0
 13 14  1  0  0  0  0
 13 39  1  0  0  0  0
 14 19  1  0  0  0  0
 14 15  2  0  0  0  0
 15 16  1  0  0  0  0
 15 40  1  0  0  0  0
 16 17  2  0  0  0  0
 16 41  1  0  0  0  0
 17 18  1  0  0  0  0
 18 19  2  0  0  0  0
 18 42  1  0  0  0  0
 19 20  1  0  0  0  0
 21 22  1  0  0  0  0
 21 43  1  0  0  0  0
 21 44  1  0  0  0  0
 22 45  1  0  0  0  0
 22 46  1  0  0  0  0
 23 24  1  0  0  0  0
 23 47  1  0  0  0  0
 23 48  1  0  0  0  0
 24 49  1  0  0  0  0
 24 50  1  0  0  0  0
M  CHG  1   6   1
M  END
> <s_m_source_file>
AV-unprocessed.smi

> <i_m_source_file_index>
2253

> <i_lp_mmshare_version>
43012

> <i_f3d_flags>
0

> <s_epik_input>
W0NIM11OMVtDSDJdW0NIMl1bQ0hdKFtDSDJdW0NIMl0xKU4yW0NIMl1bQ0gyXVtDSF0oW0NIMl1bQ0gyXTIpW05IXUMoPU8pW05IXWMzW2NIXVtjSF1uW2NIXWMzRg==

> <s_epik_cmdline>
J2VwaWtfcHl0aG9uJywgJy1waCcsICc3LjAnLCAnLXRuJywgJzgnLCAnLW1hJywgJzIwMCcsICctbWV0YWxfYmluZGluZycsICctaW1hZScsICc8aW5maWxlLm1hZT4nLCAnLW9tYWUnLCAnPG91dGZpbGUubWFlPic=

> <r_epik_Ionization_Penalty>
1.37522

> <r_epik_Ionization_Penalty_Charging>
0.00081195

> <r_epik_Ionization_Penalty_Neutral>
1.3744

> <r_epik_State_Penalty>
1.55149

> <r_epik_Charging_Adjusted_Penalty>
1.5523

> <i_epik_Tot_Q>
1

> <i_epik_Tot_abs_Q>
1

> <r_epik_Metal_State_Penalty>
1.55158

> <b_epik_Metal_Only>
0

> <s_lp_Force_Field>
OPLS_2005

> <r_lp_Energy>
38.6229

> <b_lp_Chiralities_Consistent>
1

> <s_lp_Variant>
AV-unprocessed.smi:2253-8

> <Gold.Version>
5.8.1

> <Gold.Id.Protein>
6NUR|6NUR_protein|mol2

> <Gold.PLP.Fitness>
43.7847

> <Gold.PLP.PLP>
-34.7678

> <Gold.PLP.part.hbond>
-2.0000

> <Gold.PLP.part.metal>
0.0000

> <Gold.PLP.part.buried>
-2.0951

> <Gold.PLP.part.nonpolar>
-30.5375

> <Gold.PLP.part.repulsive>
1.0987

> <Gold.PLP.ligand.clash>
1.2828

> <Gold.PLP.ligand.torsion>
0.3502

> <Gold.PLP.Chemscore.Hbond>
1.9280

> <Gold.PLP.Chemscore.CHOScore>
1.7218

> <Gold.PLP.Chemscore.Metal>
0.0000

> <Gold.Chemscore.Hbonds>
donor molecule, donor type, donor heavy atom, donor atom, acceptor molecule, acceptor atom, score
      L1  H    10    38       P1  7948  0.96
      L1  H    13    39       P1  7948  1.00
      L1  C    16    41       P1 10186  0.69
      L1  C    18    42       P1 10747  0.94

> <Gold.PLP.Chemscore.Internal.Correction>
0.0506

> <Gold.Rescore>
     Score         DG    S(hbond)    S(metal)    S(lipo)     H(rot)  DE(clash)    DE(int)     intcor
     16.51     -19.98       1.96        0.00      95.15       1.24       1.58       1.88       ----

> <Gold.Chemscore.Fitness>
16.5142

> <Gold.Chemscore.DG>
-19.9777

> <Gold.Chemscore.ZeroCoef>
-5.4800

> <Gold.Chemscore.Hbond>
1.9560

> <Gold.Chemscore.Metal>
0.0000

> <Gold.Chemscore.Lipo>
95.1546

> <Gold.Chemscore.Internal_Hbond>
0.0000

> <Gold.Chemscore.DEClash>
1.5834

> <Gold.Chemscore.DEInternal>
1.8800

> <Gold.Chemscore.Rot>
1.2377

> <Gold.Chemscore.Internal.Correction>
   9.000000E+99

> <Gold.Chemscore.Hbonds>
donor molecule, donor type, donor heavy atom, donor atom, acceptor molecule, acceptor atom, score
      L1  H    10    38       P1  7948  0.92
      L1  H    13    39       P1  7948  0.98

> <Gold.Chemscore.Hbond.Weighted>
-6.5331

> <Gold.Chemscore.Metal.Weighted>
-0.0000

> <Gold.Chemscore.Lipo.Weighted>
-11.1331

> <Gold.Chemscore.Internal_Hbond.Weighted>
0.0000

> <Gold.Chemscore.DEClash.Weighted>
1.5834

> <Gold.Chemscore.DEInternal.Weighted>
1.8800

> <Gold.Chemscore.Rot.Weighted>
3.1685

> <Gold.Chemscore.Internal.Correction.Weighted>
   9.000000E+99

> <Gold.Protein.RotatedTorsions>
[ 6907 6896 6895 6894 ] final   97.25 input  -60.11 | X-H torsion
[ 7974 7965 7964 7962 ] final  168.16 input  175.53 | X-H torsion
[ 8008 7997 7996 7995 ] final  120.78 input   59.86 | X-H torsion
[ 10167 10162 10161 10158 ] final   31.88 input  -65.29 | X-H torsion
[ 10718 10713 10712 10709 ] final  -92.12 input   66.30 | X-H torsion
[ 10763 10752 10751 10750 ] final -163.80 input  -60.55 | X-H torsion
[ 11005 11000 10999 10996 ] final  110.95 input  -57.11 | X-H torsion

> <Gold.Protein.ActiveResidues>
 VAL166  LYS551  ARG553  GLY616  TRP617  ASP618  TYR619  PRO620  LYS621  CYS622 
 ASP623  PHE694  ASN695  SER759  ASP760  ASP761  ALA762  ILE779  LEU786  VAL792 
 PHE793  MET794  SER795  GLU796  ALA797  LYS798  CYS799  TRP800  GLU811  SER814 

> <Gold.Protein.RotatedAtoms>
  152.5426  134.0763  159.8215 H   0  0  0  0  0  0  0  0  0  0  0  0  # atno 6907 bound_to 6896
  151.0870  133.5338  159.2624 H   0  0  0  0  0  0  0  0  0  0  0  0  # atno 6908 bound_to 6896
  151.2143  135.0502  159.8978 H   0  0  0  0  0  0  0  0  0  0  0  0  # atno 6909 bound_to 6896
  144.7398  139.8867  143.6400 H   0  0  0  0  0  0  0  0  0  0  0  0  # atno 7974 bound_to 7965
  156.2658  140.2823  156.1204 H   0  0  0  0  0  0  0  0  0  0  0  0  # atno 8008 bound_to 7997
  155.1162  140.0391  157.2755 H   0  0  0  0  0  0  0  0  0  0  0  0  # atno 8009 bound_to 7997
  154.6705  140.2587  155.7018 H   0  0  0  0  0  0  0  0  0  0  0  0  # atno 8010 bound_to 7997
  140.4549  144.0993  150.6199 H   0  0  0  0  0  0  0  0  0  0  0  0  # atno 10167 bound_to 10162
  155.9999  130.4974  150.5577 H   0  0  0  0  0  0  0  0  0  0  0  0  # atno 10718 bound_to 10713
  154.7088  135.3002  154.9229 H   0  0  0  0  0  0  0  0  0  0  0  0  # atno 10763 bound_to 10752
  154.0137  135.6691  153.4771 H   0  0  0  0  0  0  0  0  0  0  0  0  # atno 10764 bound_to 10752
  153.0738  135.5046  154.8274 H   0  0  0  0  0  0  0  0  0  0  0  0  # atno 10765 bound_to 10752
  139.8893  134.9496  156.6358 H   0  0  0  0  0  0  0  0  0  0  0  0  # atno 11005 bound_to 11000
  146.1172  139.4184  143.0251 LP  0  0  0  0  0  0  0  0  0  0  0  0  # atno 17320 bound_to 7965
  145.7358  141.0026  143.1327 LP  0  0  0  0  0  0  0  0  0  0  0  0  # atno 17321 bound_to 7965
  140.4163  143.2633  151.9771 LP  0  0  0  0  0  0  0  0  0  0  0  0  # atno 17342 bound_to 10162
  139.4800  144.5871  151.7835 LP  0  0  0  0  0  0  0  0  0  0  0  0  # atno 17343 bound_to 10162
  157.3491  131.0730  151.1728 LP  0  0  0  0  0  0  0  0  0  0  0  0  # atno 17370 bound_to 10713
  157.2550  130.6632  149.5949 LP  0  0  0  0  0  0  0  0  0  0  0  0  # atno 17371 bound_to 10713
  140.7632  133.8800  155.8434 LP  0  0  0  0  0  0  0  0  0  0  0  0  # atno 17394 bound_to 11000
  140.9905  134.1285  157.4413 LP  0  0  0  0  0  0  0  0  0  0  0  0  # atno 17395 bound_to 11000

$$$$
