#       Name:                AV-unprocessed.smi:2807
#       Creating user name   scv26
#       Creation time:       Fri Mar 27 15:25:47 2020


#       File generated by GOLD software.
#

@<TRIPOS>MOLECULE
AV-unprocessed.smi:2807
    37    38     1
SMALL
NO_CHARGES


@<TRIPOS>ATOM
      1 ****         0.1307   2.4338  -1.1003 O.2            1 S1                 0.0000
      2 ****         0.5406   1.2682  -1.1553 C.2            1 S1                 0.0000
      3 ****        -0.1592   0.0973  -1.1619 N.pl3          1 S1                -1.0000
      4 ****        -1.6129   0.0124  -1.0281 C.3            1 S1                 0.0000
      5 ****        -2.0502  -0.0024   0.4427 C.3            1 S1                 0.0000
      6 ****        -3.3988  -0.7416   0.4668 C.3            1 S1                 0.0000
      7 ****        -3.5184  -1.4786  -0.8776 C.3            1 S1                 0.0000
      8 ****        -2.1491  -1.3240  -1.5522 C.3            1 S1                 0.0000
      9 ****        -2.2475  -1.3371  -2.9608 O.3            1 S1                 0.0000
     10 ****         2.0650   1.0303  -1.1965 C.3            1 S1                 0.0000
     11 ****         2.3547   0.0577  -2.0680 F              1 S1                 0.0000
     12 ****         2.6617   2.1435  -1.6302 F              1 S1                 0.0000
     13 ****         2.5916   0.6967   0.1986 C.ar           1 S1                 0.0000
     14 ****         2.8306   1.7230   1.1413 C.ar           1 S1                 0.0000
     15 ****         3.2941   1.3700   2.4229 C.ar           1 S1                 0.0000
     16 ****         3.5030   0.0096   2.7181 C.ar           1 S1                 0.0000
     17 ****         3.2369  -0.9410   1.7130 C.ar           1 S1                 0.0000
     18 ****         2.7937  -0.6129   0.4812 N.ar           1 S1                 0.0000
     19 ****        -2.1329   0.8254  -1.5389 H              1 S1                 0.0000
     20 ****        -1.3303  -0.5570   1.0474 H              1 S1                 0.0000
     21 ****        -2.1206   1.0020   0.8614 H              1 S1                 0.0000
     22 ****        -3.4383  -1.4384   1.3048 H              1 S1                 0.0000
     23 ****        -4.2276  -0.0426   0.5901 H              1 S1                 0.0000
     24 ****        -3.7900  -2.5271  -0.7509 H              1 S1                 0.0000
     25 ****        -4.3051  -1.0144  -1.4770 H              1 S1                 0.0000
     26 ****        -1.4986  -2.1405  -1.2329 H              1 S1                 0.0000
     27 ****        -1.3983  -1.1092  -3.3085 H              1 S1                 0.0000
     28 ****         2.6516   2.7579   0.8894 H              1 S1                 0.0000
     29 ****         3.4828   2.1294   3.1671 H              1 S1                 0.0000
     30 ****         3.8560  -0.2983   3.6911 H              1 S1                 0.0000
     31 ****         3.3846  -1.9936   1.9039 H              1 S1                 0.0000
     32 ****        -0.8512   2.6168  -1.0515 LP             1 S1                 0.0000
     33 ****         0.7812   3.1933  -1.1046 LP             1 S1                 0.0000
     34 ****         0.3533  -0.7552  -1.2645 LP             1 S1                 0.0000
     35 ****        -2.9293  -0.6701  -3.2613 LP             1 S1                 0.0000
     36 ****        -2.5116  -2.2487  -3.2758 LP             1 S1                 0.0000
     37 ****         2.6189  -1.3184  -0.2056 LP             1 S1                 0.0000
@<TRIPOS>BOND
    1    1    2 2     
    2    2    3 1     
    3    2   10 1     
    4    3    4 1     
    5    4    8 1     
    6    4    5 1     
    7    4   19 1     
    8    5    6 1     
    9    5   20 1     
   10    5   21 1     
   11    6    7 1     
   12    6   22 1     
   13    6   23 1     
   14    7    8 1     
   15    7   24 1     
   16    7   25 1     
   17    8    9 1     
   18    8   26 1     
   19    9   27 1     
   20   10   11 1     
   21   10   12 1     
   22   10   13 1     
   23   13   18 ar    
   24   13   14 ar    
   25   14   15 ar    
   26   14   28 1     
   27   15   16 ar    
   28   15   29 1     
   29   16   17 ar    
   30   16   30 1     
   31   17   18 ar    
   32   17   31 1     
   33    1   32 1     
   34    1   33 1     
   35    3   34 1     
   36    9   35 1     
   37    9   36 1     
   38   18   37 1     
@<TRIPOS>SUBSTRUCTURE
      1 S1             1
@<TRIPOS>SET
LONE_PAIRS      STATIC     ATOMS    <user>   **** ""
6 32 33 34 35 36 37
DONOR_HYDROGENS      STATIC     ATOMS    <user>   **** ""
1 27
ATOM$BLUE        STATIC     ATOMS    COLORGROUP SYSTEM
6 32 33 34 35 36 37
ATOM$RED        STATIC     ATOMS    COLORGROUP SYSTEM
1 27
