#       Name:                AV-unprocessed.smi:284
#       Creating user name   scv26
#       Creation time:       Thu Mar 26 21:50:34 2020


#       File generated by GOLD software.
#

@<TRIPOS>MOLECULE
AV-unprocessed.smi:284
    72    74     1
SMALL
NO_CHARGES


@<TRIPOS>ATOM
      1 ****        -0.7186   5.1791  -2.5205 C.3            1 S1                 0.0000
      2 ****        -0.1033   3.7884  -2.5029 C.2            1 S1                 0.0000
      3 ****         1.2338   3.5921  -2.5765 C.2            1 S1                 0.0000
      4 ****         1.8247   2.3402  -2.5567 N.am           1 S1                 0.0000
      5 ****         3.3270   2.1445  -2.6202 C.3            1 S1                 0.0000
      6 ****         3.8824   1.7527  -1.2382 C.3            1 S1                 0.0000
      7 ****         5.0256   2.7300  -1.0321 C.3            1 S1                 0.0000
      8 ****         6.2438   2.1771  -1.4945 O.3            1 S1                 0.0000
      9 ****         4.5820   3.9338  -1.8700 C.3            1 S1                 0.0000
     10 ****         5.6752   4.9285  -2.2987 C.3            1 S1                 0.0000
     11 ****         6.1801   5.6171  -1.1743 O.3            1 S1                 0.0000
     12 ****         3.9548   3.3357  -2.9992 O.3            1 S1                 0.0000
     13 ****         1.0135   1.1906  -2.4673 C.2            1 S1                 0.0000
     14 ****         1.5182   0.0653  -2.4449 O.2            1 S1                 0.0000
     15 ****        -0.3867   1.3612  -2.3937 N.am           1 S1                 0.0000
     16 ****        -1.2376   0.1568  -2.2641 C.3            1 S1                 0.0000
     17 ****        -1.4282  -0.3070  -0.8107 C.2            1 S1                 0.0000
     18 ****        -1.0682   0.4120   0.1217 O.2            1 S1                 0.0000
     19 ****        -2.0079  -1.5145  -0.6754 N.am           1 S1                 0.0000
     20 ****        -2.3245  -2.2557   0.4984 C.ar           1 S1                 0.0000
     21 ****        -2.9258  -3.5150   0.3053 C.ar           1 S1                 0.0000
     22 ****        -3.2750  -4.3259   1.4020 C.ar           1 S1                 0.0000
     23 ****        -3.0304  -3.8957   2.7287 C.ar           1 S1                 0.0000
     24 ****        -3.3945  -4.7519   3.9566 C.3            1 S1                 0.0000
     25 ****        -2.1199  -5.0582   4.7702 C.3            1 S1                 0.0000
     26 ****        -4.0449  -6.1022   3.5798 C.3            1 S1                 0.0000
     27 ****        -4.3939  -3.9835   4.8460 C.3            1 S1                 0.0000
     28 ****        -2.4276  -2.6303   2.9159 C.ar           1 S1                 0.0000
     29 ****        -2.0775  -1.8176   1.8211 C.ar           1 S1                 0.0000
     30 ****        -1.0022   2.6366  -2.3982 C.2            1 S1                 0.0000
     31 ****        -2.2271   2.7434  -2.3106 O.2            1 S1                 0.0000
     32 ****         0.0389   5.9586  -2.6063 H              1 S1                 0.0000
     33 ****        -1.2787   5.3590  -1.6021 H              1 S1                 0.0000
     34 ****        -1.4014   5.2839  -3.3644 H              1 S1                 0.0000
     35 ****         1.8554   4.4707  -2.6529 H              1 S1                 0.0000
     36 ****         3.4954   1.3944  -3.3949 H              1 S1                 0.0000
     37 ****         3.1182   1.9101  -0.4753 H              1 S1                 0.0000
     38 ****         4.1830   0.7044  -1.2157 H              1 S1                 0.0000
     39 ****         5.1461   2.9938   0.0191 H              1 S1                 0.0000
     40 ****         6.1484   1.9629  -2.4099 H              1 S1                 0.0000
     41 ****         3.8107   4.4730  -1.3174 H              1 S1                 0.0000
     42 ****         6.4907   4.4312  -2.8238 H              1 S1                 0.0000
     43 ****         5.2571   5.6628  -2.9876 H              1 S1                 0.0000
     44 ****         6.8455   6.2216  -1.4664 H              1 S1                 0.0000
     45 ****        -2.2235   0.3173  -2.7031 H              1 S1                 0.0000
     46 ****        -0.8233  -0.6692  -2.8451 H              1 S1                 0.0000
     47 ****        -2.2504  -1.9730  -1.5416 H              1 S1                 0.0000
     48 ****        -3.1238  -3.8701  -0.6956 H              1 S1                 0.0000
     49 ****        -3.7317  -5.2801   1.1912 H              1 S1                 0.0000
     50 ****        -2.3426  -5.6817   5.6367 H              1 S1                 0.0000
     51 ****        -1.6431  -4.1520   5.1444 H              1 S1                 0.0000
     52 ****        -1.3844  -5.5896   4.1651 H              1 S1                 0.0000
     53 ****        -3.3780  -6.7164   2.9734 H              1 S1                 0.0000
     54 ****        -4.9746  -5.9622   3.0268 H              1 S1                 0.0000
     55 ****        -4.2895  -6.6834   4.4696 H              1 S1                 0.0000
     56 ****        -4.6888  -4.5750   5.7135 H              1 S1                 0.0000
     57 ****        -5.3020  -3.7358   4.2951 H              1 S1                 0.0000
     58 ****        -3.9754  -3.0509   5.2245 H              1 S1                 0.0000
     59 ****        -2.2245  -2.2658   3.9116 H              1 S1                 0.0000
     60 ****        -1.6213  -0.8658   2.0370 H              1 S1                 0.0000
     61 ****         6.4571   1.3496  -0.9751 LP             1 S1                 0.0000
     62 ****         6.9813   2.8425  -1.3791 LP             1 S1                 0.0000
     63 ****         6.5773   4.9642  -0.5294 LP             1 S1                 0.0000
     64 ****         5.4406   6.1200  -0.7268 LP             1 S1                 0.0000
     65 ****         3.2734   3.9654  -3.3722 LP             1 S1                 0.0000
     66 ****         4.6444   3.1397  -3.6964 LP             1 S1                 0.0000
     67 ****         2.5118  -0.0381  -2.4904 LP             1 S1                 0.0000
     68 ****         0.9338  -0.7436  -2.3814 LP             1 S1                 0.0000
     69 ****        -0.6502   1.3010  -0.0651 LP             1 S1                 0.0000
     70 ****        -1.1938   0.1069   1.0657 LP             1 S1                 0.0000
     71 ****        -2.6512   3.6490  -2.3089 LP             1 S1                 0.0000
     72 ****        -2.7967   1.9244  -2.2414 LP             1 S1                 0.0000
@<TRIPOS>BOND
    1    1    2 1     
    2    1   32 1     
    3    1   33 1     
    4    1   34 1     
    5    2   30 1     
    6    2    3 2     
    7    3    4 1     
    8    3   35 1     
    9    4    5 1     
   10    4   13 am    
   11    5   12 1     
   12    5    6 1     
   13    5   36 1     
   14    6    7 1     
   15    6   37 1     
   16    6   38 1     
   17    7    8 1     
   18    7    9 1     
   19    7   39 1     
   20    8   40 1     
   21    9   10 1     
   22    9   12 1     
   23    9   41 1     
   24   10   11 1     
   25   10   42 1     
   26   10   43 1     
   27   11   44 1     
   28   13   14 2     
   29   13   15 am    
   30   15   16 1     
   31   15   30 am    
   32   16   17 1     
   33   16   45 1     
   34   16   46 1     
   35   17   18 2     
   36   17   19 am    
   37   19   20 1     
   38   19   47 1     
   39   20   29 ar    
   40   20   21 ar    
   41   21   22 ar    
   42   21   48 1     
   43   22   23 ar    
   44   22   49 1     
   45   23   24 1     
   46   23   28 ar    
   47   24   25 1     
   48   24   26 1     
   49   24   27 1     
   50   25   50 1     
   51   25   51 1     
   52   25   52 1     
   53   26   53 1     
   54   26   54 1     
   55   26   55 1     
   56   27   56 1     
   57   27   57 1     
   58   27   58 1     
   59   28   29 ar    
   60   28   59 1     
   61   29   60 1     
   62   30   31 2     
   63    8   61 1     
   64    8   62 1     
   65   11   63 1     
   66   11   64 1     
   67   12   65 1     
   68   12   66 1     
   69   14   67 1     
   70   14   68 1     
   71   18   69 1     
   72   18   70 1     
   73   31   71 1     
   74   31   72 1     
@<TRIPOS>SUBSTRUCTURE
      1 S1             1
@<TRIPOS>SET
LONE_PAIRS      STATIC     ATOMS    <user>   **** ""
12 61 62 63 64 65 66 67 68 69 70 71 72
DONOR_HYDROGENS      STATIC     ATOMS    <user>   **** ""
3 40 44 47
ATOM$BLUE        STATIC     ATOMS    COLORGROUP SYSTEM
12 61 62 63 64 65 66 67 68 69 70 71 72
ATOM$RED        STATIC     ATOMS    COLORGROUP SYSTEM
3 40 44 47
