#       Name:                AV-unprocessed.smi:2855
#       Creating user name   scv26
#       Creation time:       Fri Mar 27 15:43:51 2020


#       File generated by GOLD software.
#

@<TRIPOS>MOLECULE
AV-unprocessed.smi:2855
    53    54     1
SMALL
NO_CHARGES


@<TRIPOS>ATOM
      1 ****        -4.4769  -0.0066  -0.1768 C.3            1 S1                 0.0000
      2 ****        -2.9476   0.1186  -0.2265 C.3            1 S1                 0.0000
      3 ****        -2.4850   0.8921  -1.4707 C.3            1 S1                 0.0000
      4 ****        -0.9550   1.0248  -1.5225 C.3            1 S1                 0.0000
      5 ****        -0.3707   1.6997  -0.2551 C.3            1 S1                 0.0000
      6 ****         1.1812   1.8509  -0.3343 C.3            1 S1                 0.0000
      7 ****         1.7959   2.4233   0.9576 C.3            1 S1                 0.0000
      8 ****         1.6300   2.7198  -1.5248 C.3            1 S1                 0.0000
      9 ****        -0.8632   0.9492   1.0158 C.3            1 S1                 0.0000
     10 ****        -0.1953  -0.3446   1.1314 N.am           1 S1                 0.0000
     11 ****        -0.0093  -1.0532   2.2565 C.2            1 S1                 0.0000
     12 ****        -0.4619  -0.7101   3.3479 O.2            1 S1                 0.0000
     13 ****         0.8329  -2.3363   2.1544 C.3            1 S1                 0.0000
     14 ****         1.5827  -2.4633   0.8925 N.am           1 S1                 0.0000
     15 ****         1.0768  -3.2256  -0.1510 C.2            1 S1                 0.0000
     16 ****         1.6936  -3.3502  -1.3500 C.2            1 S1                 0.0000
     17 ****         2.9573  -2.6671  -1.6058 C.2            1 S1                 0.0000
     18 ****         3.5894  -2.7153  -2.6585 O.2            1 S1                 0.0000
     19 ****         3.4349  -1.9125  -0.5311 N.am           1 S1                 0.0000
     20 ****         2.8047  -1.7794   0.7066 C.2            1 S1                 0.0000
     21 ****         3.3063  -1.0761   1.5825 O.2            1 S1                 0.0000
     22 ****        -2.3991   0.7956   1.0413 C.3            1 S1                 0.0000
     23 ****         4.3068  -1.4204  -0.6616 H              1 S1                 0.0000
     24 ****        -4.9531   0.9724  -0.1156 H              1 S1                 0.0000
     25 ****        -4.7944  -0.5860   0.6906 H              1 S1                 0.0000
     26 ****        -4.8592  -0.5089  -1.0658 H              1 S1                 0.0000
     27 ****        -2.5387  -0.8914  -0.2823 H              1 S1                 0.0000
     28 ****        -2.8364   0.3892  -2.3723 H              1 S1                 0.0000
     29 ****        -2.9356   1.8856  -1.4779 H              1 S1                 0.0000
     30 ****        -0.5084   0.0387  -1.6569 H              1 S1                 0.0000
     31 ****        -0.7043   1.5965  -2.4144 H              1 S1                 0.0000
     32 ****        -0.7896   2.7061  -0.2061 H              1 S1                 0.0000
     33 ****         1.6172   0.8624  -0.4838 H              1 S1                 0.0000
     34 ****         1.3449   3.3800   1.2222 H              1 S1                 0.0000
     35 ****         2.8687   2.5825   0.8454 H              1 S1                 0.0000
     36 ****         1.6734   1.7460   1.8024 H              1 S1                 0.0000
     37 ****         1.1579   3.7024  -1.4994 H              1 S1                 0.0000
     38 ****         1.3956   2.2563  -2.4822 H              1 S1                 0.0000
     39 ****         2.7096   2.8729  -1.5139 H              1 S1                 0.0000
     40 ****        -0.5954   1.5431   1.8905 H              1 S1                 0.0000
     41 ****         0.2130  -0.7110   0.2839 H              1 S1                 0.0000
     42 ****         1.5149  -2.3818   3.0057 H              1 S1                 0.0000
     43 ****         0.1627  -3.1879   2.2796 H              1 S1                 0.0000
     44 ****         0.1390  -3.7437  -0.0089 H              1 S1                 0.0000
     45 ****         1.2480  -3.9563  -2.1253 H              1 S1                 0.0000
     46 ****        -2.8492   1.7842   1.1427 H              1 S1                 0.0000
     47 ****        -2.7072   0.2367   1.9258 H              1 S1                 0.0000
     48 ****        -0.9962   0.1316   3.4253 LP             1 S1                 0.0000
     49 ****        -0.2955  -1.2730   4.1575 LP             1 S1                 0.0000
     50 ****         3.2429  -3.2555  -3.4255 LP             1 S1                 0.0000
     51 ****         4.4502  -2.2144  -2.7483 LP             1 S1                 0.0000
     52 ****         2.8469  -0.9727   2.4647 LP             1 S1                 0.0000
     53 ****         4.1733  -0.6079   1.4122 LP             1 S1                 0.0000
@<TRIPOS>BOND
    1    1    2 1     
    2    1   24 1     
    3    1   25 1     
    4    1   26 1     
    5    2   22 1     
    6    2    3 1     
    7    2   27 1     
    8    3    4 1     
    9    3   28 1     
   10    3   29 1     
   11    4    5 1     
   12    4   30 1     
   13    4   31 1     
   14    5    6 1     
   15    5    9 1     
   16    5   32 1     
   17    6    7 1     
   18    6    8 1     
   19    6   33 1     
   20    7   34 1     
   21    7   35 1     
   22    7   36 1     
   23    8   37 1     
   24    8   38 1     
   25    8   39 1     
   26    9   10 1     
   27    9   22 1     
   28    9   40 1     
   29   10   11 am    
   30   10   41 1     
   31   11   12 2     
   32   11   13 1     
   33   13   14 1     
   34   13   42 1     
   35   13   43 1     
   36   14   20 1     
   37   14   15 1     
   38   15   16 2     
   39   15   44 1     
   40   16   17 1     
   41   16   45 1     
   42   17   18 2     
   43   17   19 1     
   44   19   23 1     
   45   19   20 1     
   46   20   21 2     
   47   22   46 1     
   48   22   47 1     
   49   12   48 1     
   50   12   49 1     
   51   18   50 1     
   52   18   51 1     
   53   21   52 1     
   54   21   53 1     
@<TRIPOS>SUBSTRUCTURE
      1 S1             1
@<TRIPOS>SET
LONE_PAIRS      STATIC     ATOMS    <user>   **** ""
6 48 49 50 51 52 53
DONOR_HYDROGENS      STATIC     ATOMS    <user>   **** ""
2 41 23
ATOM$BLUE        STATIC     ATOMS    COLORGROUP SYSTEM
6 48 49 50 51 52 53
ATOM$RED        STATIC     ATOMS    COLORGROUP SYSTEM
2 41 23
