AV-unprocessed.smi:1599|AV-procd|sdf|6424|dock9
  -GOLD-   22720 7 63D 1   1.00000     0.00000
 Structure written by MMmdl.
 39 40  0  0  0  0  0  0  0  0  1 V2000
  148.2581  141.3064  154.1989 C   0  0  0  0  0  0  0  0  0  0  0  0
  148.6813  139.8317  154.2696 C   0  0  1  0  0  0  0  0  0  0  0  0
  148.0367  139.0896  153.1881 N   0  0  0  0  0  0  0  0  0  0  0  0
  147.0231  138.2235  153.3278 C   0  0  0  0  0  0  0  0  0  0  0  0
  146.4920  137.9590  154.4060 O   0  0  0  0  0  0  0  0  0  0  0  0
  146.6757  137.6903  152.1458 N   0  0  0  0  0  0  0  0  0  0  0  0
  145.6697  136.7217  151.9056 C   0  0  0  0  0  0  0  0  0  0  0  0
  144.2565  136.8393  152.0294 C   0  0  0  0  0  0  0  0  0  0  0  0
  143.6562  135.7011  151.7160 N   0  0  0  0  0  0  0  0  0  0  0  0
  144.6596  134.8498  151.3862 N   0  0  0  0  0  0  0  0  0  0  0  0
  144.3468  133.4876  150.9896 C   0  0  0  0  0  0  0  0  0  0  0  0
  145.5920  132.5964  151.0081 C   0  0  0  0  0  0  0  0  0  0  0  0
  146.5203  132.8287  150.0765 N   0  0  0  0  0  0  0  0  0  0  0  0
  145.7172  131.7091  151.8499 O   0  0  0  0  0  0  0  0  0  0  0  0
  145.9024  135.4439  151.4946 C   0  0  0  0  0  0  0  0  0  0  0  0
  150.2094  139.6609  154.1783 C   0  0  2  0  0  0  0  0  0  0  0  0
  150.6924  138.2113  154.2201 C   0  0  0  0  0  0  0  0  0  0  0  0
  152.1366  138.3487  154.6654 C   0  0  0  0  0  0  0  0  0  0  0  0
  152.1716  139.6984  155.3892 C   0  0  0  0  0  0  0  0  0  0  0  0
  150.8470  140.2138  155.3193 O   0  0  0  0  0  0  0  0  0  0  0  0
  148.7084  141.8842  155.0064 H   0  0  0  0  0  0  0  0  0  0  0  0
  147.1760  141.4089  154.2880 H   0  0  0  0  0  0  0  0  0  0  0  0
  148.5600  141.7629  153.2556 H   0  0  0  0  0  0  0  0  0  0  0  0
  148.3603  139.4346  155.2344 H   0  0  0  0  0  0  0  0  0  0  0  0
  148.4027  139.2408  152.2597 H   0  0  0  0  0  0  0  0  0  0  0  0
  147.1936  137.9992  151.3364 H   0  0  0  0  0  0  0  0  0  0  0  0
  143.6529  137.6828  152.3294 H   0  0  0  0  0  0  0  0  0  0  0  0
  143.5829  133.0992  151.6649 H   0  0  0  0  0  0  0  0  0  0  0  0
  143.9180  133.4873  149.9863 H   0  0  0  0  0  0  0  0  0  0  0  0
  147.3579  132.2656  150.0453 H   0  0  0  0  0  0  0  0  0  0  0  0
  146.3780  133.5674  149.4029 H   0  0  0  0  0  0  0  0  0  0  0  0
  146.8190  134.9164  151.2750 H   0  0  0  0  0  0  0  0  0  0  0  0
  150.5973  140.1525  153.2837 H   0  0  0  0  0  0  0  0  0  0  0  0
  150.1288  137.6486  154.9659 H   0  0  0  0  0  0  0  0  0  0  0  0
  150.5909  137.6992  153.2627 H   0  0  0  0  0  0  0  0  0  0  0  0
  152.4427  137.5231  155.3085 H   0  0  0  0  0  0  0  0  0  0  0  0
  152.8040  138.3684  153.8032 H   0  0  0  0  0  0  0  0  0  0  0  0
  152.4841  139.6014  156.4293 H   0  0  0  0  0  0  0  0  0  0  0  0
  152.8572  140.3847  154.8911 H   0  0  0  0  0  0  0  0  0  0  0  0
  1  2  1  0  0  0  0
  1 21  1  0  0  0  0
  1 22  1  0  0  0  0
  1 23  1  0  0  0  0
  2  3  1  0  0  0  0
  2 16  1  0  0  0  0
  2 24  1  0  0  0  0
  3  4  1  0  0  0  0
  3 25  1  0  0  0  0
  4  5  2  0  0  0  0
  4  6  1  0  0  0  0
  6  7  1  0  0  0  0
  6 26  1  0  0  0  0
  7 15  2  0  0  0  0
  7  8  1  0  0  0  0
  8  9  2  0  0  0  0
  8 27  1  0  0  0  0
  9 10  1  0  0  0  0
 10 11  1  0  0  0  0
 10 15  1  0  0  0  0
 11 12  1  0  0  0  0
 11 28  1  0  0  0  0
 11 29  1  0  0  0  0
 12 13  1  0  0  0  0
 12 14  2  0  0  0  0
 13 30  1  0  0  0  0
 13 31  1  0  0  0  0
 15 32  1  0  0  0  0
 16 20  1  0  0  0  0
 16 17  1  0  0  0  0
 16 33  1  0  0  0  0
 17 18  1  0  0  0  0
 17 34  1  0  0  0  0
 17 35  1  0  0  0  0
 18 19  1  0  0  0  0
 18 36  1  0  0  0  0
 18 37  1  0  0  0  0
 19 20  1  0  0  0  0
 19 38  1  0  0  0  0
 19 39  1  0  0  0  0
M  END
> <s_m_source_file>
AV-unprocessed.smi

> <i_m_source_file_index>
1599

> <i_lp_mmshare_version>
43012

> <i_f3d_flags>
0

> <s_epik_input>
TzFbQ0gyXVtDSDJdW0NIMl1bQ0BIXTFbQ0BIXShbQ0gzXSlbTkhdQyg9TylbTkhdYzJbY0hdbm4oW2NIXTIpW0NIMl1DKD1PKVtOSDJd

> <s_epik_cmdline>
J2VwaWtfcHl0aG9uJywgJy1waCcsICc3LjAnLCAnLXRuJywgJzgnLCAnLW1hJywgJzIwMCcsICctbWV0YWxfYmluZGluZycsICctaW1hZScsICc8aW5maWxlLm1hZT4nLCAnLW9tYWUnLCAnPG91dGZpbGUubWFlPic=

> <r_lp_tautomer_probability>
1

> <r_epik_Ionization_Penalty>
4.15391e-05

> <r_epik_Ionization_Penalty_Charging>
0

> <r_epik_Ionization_Penalty_Neutral>
4.15391e-05

> <r_epik_State_Penalty>
-0

> <r_epik_Charging_Adjusted_Penalty>
0

> <i_epik_Tot_Q>
0

> <i_epik_Tot_abs_Q>
0

> <r_epik_Metal_State_Penalty>
-0

> <b_epik_Metal_Only>
0

> <s_lp_Force_Field>
OPLS_2005

> <r_lp_Energy>
20.7391

> <b_lp_Chiralities_Consistent>
1

> <s_lp_Variant>
AV-unprocessed.smi:1599-2

> <Gold.Version>
5.8.1

> <Gold.Id.Protein>
6NUR|6NUR_protein|mol2

> <Gold.PLP.Fitness>
40.8393

> <Gold.PLP.PLP>
-32.6144

> <Gold.PLP.part.hbond>
-3.9125

> <Gold.PLP.part.metal>
0.0000

> <Gold.PLP.part.buried>
0.3313

> <Gold.PLP.part.nonpolar>
-29.7820

> <Gold.PLP.part.repulsive>
0.7021

> <Gold.PLP.ligand.clash>
0.0000

> <Gold.PLP.ligand.torsion>
1.0488

> <Gold.PLP.Chemscore.Hbond>
1.9921

> <Gold.PLP.Chemscore.CHOScore>
1.4377

> <Gold.PLP.Chemscore.Metal>
0.0000

> <Gold.Chemscore.Hbonds>
donor molecule, donor type, donor heavy atom, donor atom, acceptor molecule, acceptor atom, score
      L1  H     3    25       P1  7957  1.00
      L1  H    13    30       P1 10747  0.71
      L1  H    13    31       P1  7921  0.14
      L1  C     8    27       P1 10171  0.11
      L1  C     8    27       P1 10175  0.45
      L1  C    15    32       P1  7948  0.70

> <Gold.PLP.Chemscore.Internal.Correction>
0.0333

> <Gold.Rescore>
     Score         DG    S(hbond)    S(metal)    S(lipo)     H(rot)  DE(clash)    DE(int)     intcor
     12.48     -13.67       1.98        0.00      63.60       2.28       0.25       0.95       ----

> <Gold.Chemscore.Fitness>
12.4756

> <Gold.Chemscore.DG>
-13.6747

> <Gold.Chemscore.ZeroCoef>
-5.4800

> <Gold.Chemscore.Hbond>
1.9750

> <Gold.Chemscore.Metal>
0.0000

> <Gold.Chemscore.Lipo>
63.5961

> <Gold.Chemscore.Internal_Hbond>
0.0000

> <Gold.Chemscore.DEClash>
0.2516

> <Gold.Chemscore.DEInternal>
0.9475

> <Gold.Chemscore.Rot>
2.2823

> <Gold.Chemscore.Internal.Correction>
   9.000000E+99

> <Gold.Chemscore.Hbonds>
donor molecule, donor type, donor heavy atom, donor atom, acceptor molecule, acceptor atom, score
      L1  H     3    25       P1  7957  0.95
      L1  H    13    30       P1 10747  0.71

> <Gold.Chemscore.Hbond.Weighted>
-6.5967

> <Gold.Chemscore.Metal.Weighted>
-0.0000

> <Gold.Chemscore.Lipo.Weighted>
-7.4407

> <Gold.Chemscore.Internal_Hbond.Weighted>
0.0000

> <Gold.Chemscore.DEClash.Weighted>
0.2516

> <Gold.Chemscore.DEInternal.Weighted>
0.9475

> <Gold.Chemscore.Rot.Weighted>
5.8427

> <Gold.Chemscore.Internal.Correction.Weighted>
   9.000000E+99

> <Gold.Protein.RotatedTorsions>
[ 6907 6896 6895 6894 ] final  160.08 input  -60.11 | X-H torsion
[ 7974 7965 7964 7962 ] final  -94.10 input  175.53 | X-H torsion
[ 8008 7997 7996 7995 ] final -176.39 input   59.86 | X-H torsion
[ 10167 10162 10161 10158 ] final  -96.33 input  -65.29 | X-H torsion
[ 10718 10713 10712 10709 ] final  127.69 input   66.30 | X-H torsion
[ 10763 10752 10751 10750 ] final   46.97 input  -60.55 | X-H torsion
[ 11005 11000 10999 10996 ] final  162.88 input  -57.11 | X-H torsion

> <Gold.Protein.ActiveResidues>
 VAL166  LYS551  ARG553  GLY616  TRP617  ASP618  TYR619  PRO620  LYS621  CYS622 
 ASP623  PHE694  ASN695  SER759  ASP760  ASP761  ALA762  ILE779  LEU786  VAL792 
 PHE793  MET794  SER795  GLU796  ALA797  LYS798  CYS799  TRP800  GLU811  SER814 

> <Gold.Protein.RotatedAtoms>
  151.9760  133.3742  159.4089 H   0  0  0  0  0  0  0  0  0  0  0  0  # atno 6907 bound_to 6896
  150.6941  134.4089  159.5162 H   0  0  0  0  0  0  0  0  0  0  0  0  # atno 6908 bound_to 6896
  152.1800  134.8761  160.0578 H   0  0  0  0  0  0  0  0  0  0  0  0  # atno 6909 bound_to 6896
  145.3777  140.9513  143.2411 H   0  0  0  0  0  0  0  0  0  0  0  0  # atno 7974 bound_to 7965
  155.9943  140.1207  157.0608 H   0  0  0  0  0  0  0  0  0  0  0  0  # atno 8008 bound_to 7997
  154.4221  140.1119  156.5677 H   0  0  0  0  0  0  0  0  0  0  0  0  # atno 8009 bound_to 7997
  155.6300  140.3473  155.4682 H   0  0  0  0  0  0  0  0  0  0  0  0  # atno 8010 bound_to 7997
  140.2949  143.3198  152.0307 H   0  0  0  0  0  0  0  0  0  0  0  0  # atno 10167 bound_to 10162
  157.5311  131.1098  150.9008 H   0  0  0  0  0  0  0  0  0  0  0  0  # atno 10718 bound_to 10713
  152.9805  135.5991  154.3686 H   0  0  0  0  0  0  0  0  0  0  0  0  # atno 10763 bound_to 10752
  154.3361  135.2768  155.2448 H   0  0  0  0  0  0  0  0  0  0  0  0  # atno 10764 bound_to 10752
  154.4551  135.5980  153.6273 H   0  0  0  0  0  0  0  0  0  0  0  0  # atno 10765 bound_to 10752
  140.2302  134.8129  157.3309 H   0  0  0  0  0  0  0  0  0  0  0  0  # atno 11005 bound_to 11000
  144.8530  139.5292  143.6847 LP  0  0  0  0  0  0  0  0  0  0  0  0  # atno 17320 bound_to 7965
  146.2856  139.6996  142.9197 LP  0  0  0  0  0  0  0  0  0  0  0  0  # atno 17321 bound_to 7965
  139.4929  144.6498  151.6701 LP  0  0  0  0  0  0  0  0  0  0  0  0  # atno 17342 bound_to 10162
  140.5700  144.0124  150.6212 LP  0  0  0  0  0  0  0  0  0  0  0  0  # atno 17343 bound_to 10162
  156.9589  130.5447  149.5285 LP  0  0  0  0  0  0  0  0  0  0  0  0  # atno 17370 bound_to 10713
  156.0423  130.5504  150.8800 LP  0  0  0  0  0  0  0  0  0  0  0  0  # atno 17371 bound_to 10713
  140.1758  134.4551  155.7802 LP  0  0  0  0  0  0  0  0  0  0  0  0  # atno 17394 bound_to 11000
  141.2218  133.6962  156.7785 LP  0  0  0  0  0  0  0  0  0  0  0  0  # atno 17395 bound_to 11000

$$$$
