AV-unprocessed.smi:243|AV-procd|sdf|1849|dock7
  -GOLD-   2262020473D 1   1.00000     0.00000
 Structure written by MMmdl.
 58 61  0  0  0  0  0  0  0  0  2 V2000
  147.0541  128.2606  151.4156 C   0  0  0  0  0  0  0  0  0  0  0  0
  146.5363  129.2251  152.4927 C   0  0  0  0  0  0  0  0  0  0  0  0
  146.9265  130.6349  152.2353 N   0  3  1  0  0  0  0  0  0  0  0  0
  145.7916  131.4390  151.7146 C   0  0  0  0  0  0  0  0  0  0  0  0
  146.2191  132.8733  151.3457 C   0  0  0  0  0  0  0  0  0  0  0  0
  147.0254  133.6032  152.4405 C   0  0  1  0  0  0  0  0  0  0  0  0
  146.1859  134.2896  153.4400 N   0  0  0  0  0  0  0  0  0  0  0  0
  145.4296  133.6066  154.4860 C   0  0  0  0  0  0  0  0  0  0  0  0
  146.2854  135.6404  153.5372 C   0  0  0  0  0  0  0  0  0  0  0  0
  145.6803  136.4028  152.5890 N   0  0  0  0  0  0  0  0  0  0  0  0
  145.7451  137.7359  152.6518 C   0  0  0  0  0  0  0  0  0  0  0  0
  146.3542  138.4993  153.5603 N   0  0  0  0  0  0  0  0  0  0  0  0
  146.9705  137.7413  154.5118 C   0  0  0  0  0  0  0  0  0  0  0  0
  146.9825  136.3189  154.5791 C   0  0  0  0  0  0  0  0  0  0  0  0
  147.7148  135.9072  155.6874 N   0  0  0  0  0  0  0  0  0  0  0  0
  148.1006  137.0199  156.2484 C   0  0  0  0  0  0  0  0  0  0  0  0
  147.7089  138.1696  155.6015 N   0  0  0  0  0  0  0  0  0  0  0  0
  148.0019  139.5365  156.0028 C   0  0  0  0  0  0  0  0  0  0  0  0
  148.9794  140.2752  155.0533 C   0  0  1  0  0  0  0  0  0  0  0  0
  148.3424  140.5342  153.8168 O   0  0  0  0  0  0  0  0  0  0  0  0
  149.4795  141.5805  155.6508 C   0  0  0  0  0  0  0  0  0  0  0  0
  150.6689  141.1364  156.5008 C   0  0  0  0  0  0  0  0  0  0  0  0
  151.1432  139.9257  155.9175 O   0  0  0  0  0  0  0  0  0  0  0  0
  150.3109  139.5492  154.8259 C   0  0  0  0  0  0  0  0  0  0  0  0
  148.1184  132.6796  153.0313 C   0  0  1  0  0  0  0  0  0  0  0  0
  148.9192  133.3290  154.1732 C   0  0  0  0  0  0  0  0  0  0  0  0
  147.5755  131.2861  153.4034 C   0  0  0  0  0  0  0  0  0  0  0  0
  146.6617  127.2571  151.5817 H   0  0  0  0  0  0  0  0  0  0  0  0
  148.1410  128.1842  151.4194 H   0  0  0  0  0  0  0  0  0  0  0  0
  146.7404  128.5758  150.4200 H   0  0  0  0  0  0  0  0  0  0  0  0
  145.4479  129.1510  152.5045 H   0  0  0  0  0  0  0  0  0  0  0  0
  146.8760  128.9162  153.4825 H   0  0  0  0  0  0  0  0  0  0  0  0
  145.3948  130.9593  150.8192 H   0  0  0  0  0  0  0  0  0  0  0  0
  144.9778  131.4357  152.4362 H   0  0  0  0  0  0  0  0  0  0  0  0
  146.8464  132.8105  150.4556 H   0  0  0  0  0  0  0  0  0  0  0  0
  145.3518  133.4662  151.0523 H   0  0  0  0  0  0  0  0  0  0  0  0
  147.5827  134.3783  151.9134 H   0  0  0  0  0  0  0  0  0  0  0  0
  144.6816  134.2690  154.9238 H   0  0  0  0  0  0  0  0  0  0  0  0
  146.0889  133.2727  155.2866 H   0  0  0  0  0  0  0  0  0  0  0  0
  144.8905  132.7465  154.1021 H   0  0  0  0  0  0  0  0  0  0  0  0
  145.2363  138.2676  151.8611 H   0  0  0  0  0  0  0  0  0  0  0  0
  148.6932  137.0329  157.1517 H   0  0  0  0  0  0  0  0  0  0  0  0
  147.0588  140.0808  156.0672 H   0  0  0  0  0  0  0  0  0  0  0  0
  148.4042  139.5090  157.0161 H   0  0  0  0  0  0  0  0  0  0  0  0
  148.9605  140.3730  153.1204 H   0  0  0  0  0  0  0  0  0  0  0  0
  149.8362  142.2472  154.8637 H   0  0  0  0  0  0  0  0  0  0  0  0
  148.7222  142.1188  156.2217 H   0  0  0  0  0  0  0  0  0  0  0  0
  151.4535  141.8928  156.5342 H   0  0  0  0  0  0  0  0  0  0  0  0
  150.3569  140.9303  157.5249 H   0  0  0  0  0  0  0  0  0  0  0  0
  150.2232  138.4678  154.7358 H   0  0  0  0  0  0  0  0  0  0  0  0
  150.7896  139.9102  153.9141 H   0  0  0  0  0  0  0  0  0  0  0  0
  148.8361  132.5126  152.2260 H   0  0  0  0  0  0  0  0  0  0  0  0
  148.3104  133.4744  155.0651 H   0  0  0  0  0  0  0  0  0  0  0  0
  149.3085  134.3027  153.8744 H   0  0  0  0  0  0  0  0  0  0  0  0
  149.7699  132.7087  154.4564 H   0  0  0  0  0  0  0  0  0  0  0  0
  146.8726  131.3414  154.2338 H   0  0  0  0  0  0  0  0  0  0  0  0
  148.4080  130.6740  153.7481 H   0  0  0  0  0  0  0  0  0  0  0  0
  147.6139  130.6100  151.4956 H   0  0  0  0  0  0  0  0  0  0  0  0
  1  2  1  0  0  0  0
  1 28  1  0  0  0  0
  1 29  1  0  0  0  0
  1 30  1  0  0  0  0
  2  3  1  0  0  0  0
  2 31  1  0  0  0  0
  2 32  1  0  0  0  0
  3 27  1  0  0  0  0
  3  4  1  0  0  0  0
  3 58  1  0  0  0  0
  4  5  1  0  0  0  0
  4 33  1  0  0  0  0
  4 34  1  0  0  0  0
  5  6  1  0  0  0  0
  5 35  1  0  0  0  0
  5 36  1  0  0  0  0
  6  7  1  0  0  0  0
  6 25  1  0  0  0  0
  6 37  1  0  0  0  0
  7  8  1  0  0  0  0
  7  9  1  0  0  0  0
  8 38  1  0  0  0  0
  8 39  1  0  0  0  0
  8 40  1  0  0  0  0
  9 14  1  0  0  0  0
  9 10  2  0  0  0  0
 10 11  1  0  0  0  0
 11 12  2  0  0  0  0
 11 41  1  0  0  0  0
 12 13  1  0  0  0  0
 13 17  1  0  0  0  0
 13 14  2  0  0  0  0
 14 15  1  0  0  0  0
 15 16  2  0  0  0  0
 16 17  1  0  0  0  0
 16 42  1  0  0  0  0
 17 18  1  0  0  0  0
 18 19  1  0  0  0  0
 18 43  1  0  0  0  0
 18 44  1  0  0  0  0
 19 24  1  0  0  0  0
 19 20  1  0  0  0  0
 19 21  1  0  0  0  0
 20 45  1  0  0  0  0
 21 22  1  0  0  0  0
 21 46  1  0  0  0  0
 21 47  1  0  0  0  0
 22 23  1  0  0  0  0
 22 48  1  0  0  0  0
 22 49  1  0  0  0  0
 23 24  1  0  0  0  0
 24 50  1  0  0  0  0
 24 51  1  0  0  0  0
 25 26  1  0  0  0  0
 25 27  1  0  0  0  0
 25 52  1  0  0  0  0
 26 53  1  0  0  0  0
 26 54  1  0  0  0  0
 26 55  1  0  0  0  0
 27 56  1  0  0  0  0
 27 57  1  0  0  0  0
M  CHG  1   3   1
M  END
> <s_m_source_file>
AV-unprocessed.smi

> <i_m_source_file_index>
243

> <i_lp_mmshare_version>
43012

> <i_f3d_flags>
0

> <s_epik_input>
W0NIM11bQ0gyXU4xW0NIMl1bQ0gyXVtDQEhdKFtDQEBIXShbQ0gzXSlbQ0gyXTEpTihbQ0gzXSljKG5bY0hdbjIpYyhjMjMpbltjSF1uM1tDSDJdW0NAQF00KFtPSF0pW0NIMl1bQ0gyXU9bQ0gyXTQ=

> <s_epik_cmdline>
J2VwaWtfcHl0aG9uJywgJy1waCcsICc3LjAnLCAnLXRuJywgJzgnLCAnLW1hJywgJzIwMCcsICctbWV0YWxfYmluZGluZycsICctaW1hZScsICc8aW5maWxlLm1hZT4nLCAnLW9tYWUnLCAnPG91dGZpbGUubWFlPic=

> <r_lp_tautomer_probability>
1

> <r_epik_Ionization_Penalty>
0.00253099

> <r_epik_Ionization_Penalty_Charging>
0.00137877

> <r_epik_Ionization_Penalty_Neutral>
0.00115221

> <r_epik_State_Penalty>
-0

> <r_epik_Charging_Adjusted_Penalty>
0.00137877

> <i_epik_Tot_Q>
1

> <i_epik_Tot_abs_Q>
1

> <r_epik_Metal_State_Penalty>
-0

> <b_epik_Metal_Only>
0

> <s_lp_Force_Field>
OPLS_2005

> <r_lp_Energy>
52.4655

> <b_lp_Chiralities_Consistent>
1

> <s_lp_Variant>
AV-unprocessed.smi:243-2

> <Gold.Version>
5.8.1

> <Gold.Id.Protein>
6NUR|6NUR_protein|mol2

> <Gold.PLP.Fitness>
45.0136

> <Gold.PLP.PLP>
-38.6113

> <Gold.PLP.part.hbond>
-2.9937

> <Gold.PLP.part.metal>
0.0000

> <Gold.PLP.part.buried>
-2.2712

> <Gold.PLP.part.nonpolar>
-33.7317

> <Gold.PLP.part.repulsive>
0.4536

> <Gold.PLP.ligand.clash>
0.0000

> <Gold.PLP.ligand.torsion>
2.2739

> <Gold.PLP.Chemscore.Hbond>
2.0000

> <Gold.PLP.Chemscore.CHOScore>
1.5539

> <Gold.PLP.Chemscore.Metal>
0.0000

> <Gold.Chemscore.Hbonds>
donor molecule, donor type, donor heavy atom, donor atom, acceptor molecule, acceptor atom, score
      L1  H     3    58       P1 10747  1.00
      L1  H    20    45       P1  7957  0.84
      L1  C    11    41       P1 10171  1.00
      L1  C    11    41       P1 10175  0.38

> <Gold.PLP.Chemscore.Internal.Correction>
0.2884

> <Gold.Rescore>
     Score         DG    S(hbond)    S(metal)    S(lipo)     H(rot)  DE(clash)    DE(int)     intcor
     14.98     -17.40       1.99        0.00      93.97       2.24       0.24       2.18       ----

> <Gold.Chemscore.Fitness>
14.9786

> <Gold.Chemscore.DG>
-17.3997

> <Gold.Chemscore.ZeroCoef>
-5.4800

> <Gold.Chemscore.Hbond>
1.9924

> <Gold.Chemscore.Metal>
0.0000

> <Gold.Chemscore.Lipo>
93.9678

> <Gold.Chemscore.Internal_Hbond>
0.0000

> <Gold.Chemscore.DEClash>
0.2438

> <Gold.Chemscore.DEInternal>
2.1773

> <Gold.Chemscore.Rot>
2.2379

> <Gold.Chemscore.Internal.Correction>
   9.000000E+99

> <Gold.Chemscore.Hbonds>
donor molecule, donor type, donor heavy atom, donor atom, acceptor molecule, acceptor atom, score
      L1  H     3    58       P1 10747  1.00
      L1  H    20    45       P1  7957  0.83

> <Gold.Chemscore.Hbond.Weighted>
-6.6546

> <Gold.Chemscore.Metal.Weighted>
-0.0000

> <Gold.Chemscore.Lipo.Weighted>
-10.9942

> <Gold.Chemscore.Internal_Hbond.Weighted>
0.0000

> <Gold.Chemscore.DEClash.Weighted>
0.2438

> <Gold.Chemscore.DEInternal.Weighted>
2.1773

> <Gold.Chemscore.Rot.Weighted>
5.7291

> <Gold.Chemscore.Internal.Correction.Weighted>
   9.000000E+99

> <Gold.Protein.RotatedTorsions>
[ 6907 6896 6895 6894 ] final   71.92 input  -60.11 | X-H torsion
[ 7974 7965 7964 7962 ] final -177.60 input  175.53 | X-H torsion
[ 8008 7997 7996 7995 ] final  115.50 input   59.86 | X-H torsion
[ 10167 10162 10161 10158 ] final   41.83 input  -65.29 | X-H torsion
[ 10718 10713 10712 10709 ] final  166.46 input   66.30 | X-H torsion
[ 10763 10752 10751 10750 ] final  175.40 input  -60.55 | X-H torsion
[ 11005 11000 10999 10996 ] final    5.32 input  -57.11 | X-H torsion

> <Gold.Protein.ActiveResidues>
 VAL166  LYS551  ARG553  GLY616  TRP617  ASP618  TYR619  PRO620  LYS621  CYS622 
 ASP623  PHE694  ASN695  SER759  ASP760  ASP761  ALA762  ILE779  LEU786  VAL792 
 PHE793  MET794  SER795  GLU796  ALA797  LYS798  CYS799  TRP800  GLU811  SER814 

> <Gold.Protein.RotatedAtoms>
  152.4838  134.4648  159.9616 H   0  0  0  0  0  0  0  0  0  0  0  0  # atno 6907 bound_to 6896
  151.4649  133.3577  159.2822 H   0  0  0  0  0  0  0  0  0  0  0  0  # atno 6908 bound_to 6896
  150.8932  134.8363  159.7368 H   0  0  0  0  0  0  0  0  0  0  0  0  # atno 6909 bound_to 6896
  144.7128  140.0995  143.6417 H   0  0  0  0  0  0  0  0  0  0  0  0  # atno 7974 bound_to 7965
  156.2385  140.2937  156.0379 H   0  0  0  0  0  0  0  0  0  0  0  0  # atno 8008 bound_to 7997
  155.2021  140.0410  157.2936 H   0  0  0  0  0  0  0  0  0  0  0  0  # atno 8009 bound_to 7997
  154.6124  140.2455  155.7660 H   0  0  0  0  0  0  0  0  0  0  0  0  # atno 8010 bound_to 7997
  140.3604  144.2235  150.6138 H   0  0  0  0  0  0  0  0  0  0  0  0  # atno 10167 bound_to 10162
  157.0656  131.0352  151.2631 H   0  0  0  0  0  0  0  0  0  0  0  0  # atno 10718 bound_to 10713
  154.4671  135.2770  155.1670 H   0  0  0  0  0  0  0  0  0  0  0  0  # atno 10763 bound_to 10752
  154.3434  135.6165  153.5611 H   0  0  0  0  0  0  0  0  0  0  0  0  # atno 10764 bound_to 10752
  152.9860  135.5794  154.5044 H   0  0  0  0  0  0  0  0  0  0  0  0  # atno 10765 bound_to 10752
  140.5720  134.0093  155.8012 H   0  0  0  0  0  0  0  0  0  0  0  0  # atno 11005 bound_to 11000
  145.9550  139.2760  143.1189 LP  0  0  0  0  0  0  0  0  0  0  0  0  # atno 17320 bound_to 7965
  145.9282  140.9067  143.0370 LP  0  0  0  0  0  0  0  0  0  0  0  0  # atno 17321 bound_to 7965
  140.5132  143.2285  151.8503 LP  0  0  0  0  0  0  0  0  0  0  0  0  # atno 17342 bound_to 10162
  139.4815  144.4925  151.9166 LP  0  0  0  0  0  0  0  0  0  0  0  0  # atno 17343 bound_to 10162
  157.4919  130.7827  149.7517 LP  0  0  0  0  0  0  0  0  0  0  0  0  # atno 17370 bound_to 10713
  155.9965  130.3905  150.2775 LP  0  0  0  0  0  0  0  0  0  0  0  0  # atno 17371 bound_to 10713
  141.1050  133.9708  157.3013 LP  0  0  0  0  0  0  0  0  0  0  0  0  # atno 17394 bound_to 11000
  139.9357  135.0196  156.8548 LP  0  0  0  0  0  0  0  0  0  0  0  0  # atno 17395 bound_to 11000

$$$$
