AV-unprocessed.smi:111|AV-procd|sdf|1079|dock2
  -GOLD-   2262018163D 1   1.00000     0.00000
 Structure written by MMmdl.
 46 48  0  0  0  0  0  0  0  0  1 V2000
  149.7488  135.5000  156.4778 O   0  0  0  0  0  0  0  0  0  0  0  0
  149.0162  135.5206  157.4685 C   0  0  0  0  0  0  0  0  0  0  0  0
  148.1170  134.4280  157.8214 C   0  0  0  0  0  0  0  0  0  0  0  0
  148.0785  133.3249  157.0551 F   0  0  0  0  0  0  0  0  0  0  0  0
  147.3154  134.5079  158.9044 C   0  0  0  0  0  0  0  0  0  0  0  0
  147.2867  135.6090  159.7429 N   0  0  0  0  0  0  0  0  0  0  0  0
  146.3555  135.6615  160.9329 C   0  0  2  0  0  0  0  0  0  0  0  0
  147.1611  135.7513  162.2334 C   0  0  0  0  0  0  0  0  0  0  0  0
  147.2339  134.3002  162.6569 C   0  0  0  0  0  0  0  0  0  0  0  0
  145.8832  133.7746  162.1842 C   0  0  0  0  0  0  0  0  0  0  0  0
  145.6069  134.4807  160.9777 O   0  0  0  0  0  0  0  0  0  0  0  0
  148.1459  136.7022  159.4961 C   0  0  0  0  0  0  0  0  0  0  0  0
  148.1548  137.6759  160.2523 O   0  0  0  0  0  0  0  0  0  0  0  0
  148.9813  136.6257  158.3553 N   0  0  0  0  0  0  0  0  0  0  0  0
  149.8474  137.7549  158.0459 C   0  0  0  0  0  0  0  0  0  0  0  0
  149.0875  139.0680  157.7414 C   0  0  2  0  0  0  0  0  0  0  0  0
  148.3842  138.8914  156.5287 O   0  0  0  0  0  0  0  0  0  0  0  0
  149.9875  140.3220  157.6263 C   0  0  0  0  0  0  0  0  0  0  0  0
  150.8067  140.6231  158.8935 C   0  0  0  0  0  0  0  0  0  0  0  0
  151.3362  142.0464  158.9400 C   0  0  0  0  0  0  0  0  0  0  0  0
  152.2625  142.4330  159.9318 C   0  0  0  0  0  0  0  0  0  0  0  0
  152.7506  143.7536  159.9685 C   0  0  0  0  0  0  0  0  0  0  0  0
  152.3117  144.6943  159.0169 C   0  0  0  0  0  0  0  0  0  0  0  0
  151.3848  144.3136  158.0279 C   0  0  0  0  0  0  0  0  0  0  0  0
  150.8982  142.9925  157.9894 C   0  0  0  0  0  0  0  0  0  0  0  0
  146.6707  133.6673  159.1129 H   0  0  0  0  0  0  0  0  0  0  0  0
  145.6870  136.5075  160.7654 H   0  0  0  0  0  0  0  0  0  0  0  0
  148.1334  136.2244  162.0896 H   0  0  0  0  0  0  0  0  0  0  0  0
  146.5881  136.3321  162.9572 H   0  0  0  0  0  0  0  0  0  0  0  0
  148.0440  133.7931  162.1314 H   0  0  0  0  0  0  0  0  0  0  0  0
  147.3896  134.1735  163.7283 H   0  0  0  0  0  0  0  0  0  0  0  0
  145.8833  132.6960  162.0254 H   0  0  0  0  0  0  0  0  0  0  0  0
  145.1076  134.0118  162.9137 H   0  0  0  0  0  0  0  0  0  0  0  0
  150.5725  137.8850  158.8500 H   0  0  0  0  0  0  0  0  0  0  0  0
  150.4462  137.4408  157.1883 H   0  0  0  0  0  0  0  0  0  0  0  0
  148.3219  139.2261  158.5000 H   0  0  0  0  0  0  0  0  0  0  0  0
  147.5129  138.5851  156.7288 H   0  0  0  0  0  0  0  0  0  0  0  0
  150.6658  140.2390  156.7793 H   0  0  0  0  0  0  0  0  0  0  0  0
  149.3735  141.1948  157.3993 H   0  0  0  0  0  0  0  0  0  0  0  0
  150.1806  140.4675  159.7728 H   0  0  0  0  0  0  0  0  0  0  0  0
  151.6324  139.9160  158.9835 H   0  0  0  0  0  0  0  0  0  0  0  0
  152.6063  141.7171  160.6640 H   0  0  0  0  0  0  0  0  0  0  0  0
  153.4646  144.0439  160.7251 H   0  0  0  0  0  0  0  0  0  0  0  0
  152.6890  145.7060  159.0429 H   0  0  0  0  0  0  0  0  0  0  0  0
  151.0516  145.0329  157.2944 H   0  0  0  0  0  0  0  0  0  0  0  0
  150.1919  142.7054  157.2243 H   0  0  0  0  0  0  0  0  0  0  0  0
  1  2  2  0  0  0  0
  2 14  1  0  0  0  0
  2  3  1  0  0  0  0
  3  4  1  0  0  0  0
  3  5  2  0  0  0  0
  5  6  1  0  0  0  0
  5 26  1  0  0  0  0
  6  7  1  0  0  0  0
  6 12  1  0  0  0  0
  7 11  1  0  0  0  0
  7  8  1  0  0  0  0
  7 27  1  0  0  0  0
  8  9  1  0  0  0  0
  8 28  1  0  0  0  0
  8 29  1  0  0  0  0
  9 10  1  0  0  0  0
  9 30  1  0  0  0  0
  9 31  1  0  0  0  0
 10 11  1  0  0  0  0
 10 32  1  0  0  0  0
 10 33  1  0  0  0  0
 12 13  2  0  0  0  0
 12 14  1  0  0  0  0
 14 15  1  0  0  0  0
 15 16  1  0  0  0  0
 15 34  1  0  0  0  0
 15 35  1  0  0  0  0
 16 17  1  0  0  0  0
 16 18  1  0  0  0  0
 16 36  1  0  0  0  0
 17 37  1  0  0  0  0
 18 19  1  0  0  0  0
 18 38  1  0  0  0  0
 18 39  1  0  0  0  0
 19 20  1  0  0  0  0
 19 40  1  0  0  0  0
 19 41  1  0  0  0  0
 20 25  1  0  0  0  0
 20 21  2  0  0  0  0
 21 22  1  0  0  0  0
 21 42  1  0  0  0  0
 22 23  2  0  0  0  0
 22 43  1  0  0  0  0
 23 24  1  0  0  0  0
 23 44  1  0  0  0  0
 24 25  2  0  0  0  0
 24 45  1  0  0  0  0
 25 46  1  0  0  0  0
M  END
> <s_m_source_file>
AV-unprocessed.smi

> <i_m_source_file_index>
111

> <i_lp_mmshare_version>
43012

> <i_f3d_flags>
0

> <s_epik_input>
TzFbQ0gyXVtDSDJdW0NIMl1bQ0BIXTFuKFtjSF1jKEYpYzI9TyljKD1PKW4yW0NIMl1bQ0BIXShbT0hdKVtDSDJdW0NIMl1jM1tjSF1bY0hdW2NIXVtjSF1bY0hdMw==

> <s_epik_cmdline>
J2VwaWtfcHl0aG9uJywgJy1waCcsICc3LjAnLCAnLXRuJywgJzgnLCAnLW1hJywgJzIwMCcsICctbWV0YWxfYmluZGluZycsICctaW1hZScsICc8aW5maWxlLm1hZT4nLCAnLW9tYWUnLCAnPG91dGZpbGUubWFlPic=

> <r_lp_tautomer_probability>
1

> <r_epik_Ionization_Penalty>
1.88248e-07

> <r_epik_Ionization_Penalty_Charging>
4.03974e-08

> <r_epik_Ionization_Penalty_Neutral>
1.47851e-07

> <r_epik_State_Penalty>
-0

> <r_epik_Charging_Adjusted_Penalty>
4.03974e-08

> <i_epik_Tot_Q>
0

> <i_epik_Tot_abs_Q>
0

> <r_epik_Metal_State_Penalty>
-0

> <b_epik_Metal_Only>
0

> <s_epik_Chemistry_Notes>
This compound contains an acetal/aminal-like group ( X-CH(R)-Y where X, Y are N, S, or O) that may be acid/base labile, releasing an aldehyde.

> <s_lp_Force_Field>
OPLS_2005

> <r_lp_Energy>
34.4162

> <b_lp_Chiralities_Consistent>
1

> <s_lp_Variant>
AV-unprocessed.smi:111-1

> <Gold.Version>
5.8.1

> <Gold.Id.Protein>
6NUR|6NUR_protein|mol2

> <Gold.PLP.Fitness>
47.0894

> <Gold.PLP.PLP>
-44.8823

> <Gold.PLP.part.hbond>
-2.0000

> <Gold.PLP.part.metal>
0.0000

> <Gold.PLP.part.buried>
-3.3599

> <Gold.PLP.part.nonpolar>
-40.5369

> <Gold.PLP.part.repulsive>
0.0000

> <Gold.PLP.ligand.clash>
0.0000

> <Gold.PLP.ligand.torsion>
0.2039

> <Gold.PLP.Chemscore.Hbond>
0.8160

> <Gold.PLP.Chemscore.CHOScore>
0.0000

> <Gold.PLP.Chemscore.Metal>
0.0000

> <Gold.Chemscore.Hbonds>
donor molecule, donor type, donor heavy atom, donor atom, acceptor molecule, acceptor atom, score
      P1  H  6931  6943       L1    13  0.45
      P1  H  6934  6947       L1    13  0.53

> <Gold.PLP.Chemscore.Internal.Correction>
0.1669

> <Gold.Rescore>
     Score         DG    S(hbond)    S(metal)    S(lipo)     H(rot)  DE(clash)    DE(int)     intcor
     13.29     -14.27       0.73        0.00     112.77       2.67       0.27       0.71       ----

> <Gold.Chemscore.Fitness>
13.2880

> <Gold.Chemscore.DG>
-14.2665

> <Gold.Chemscore.ZeroCoef>
-5.4800

> <Gold.Chemscore.Hbond>
0.7302

> <Gold.Chemscore.Metal>
0.0000

> <Gold.Chemscore.Lipo>
112.7694

> <Gold.Chemscore.Internal_Hbond>
0.0000

> <Gold.Chemscore.DEClash>
0.2672

> <Gold.Chemscore.DEInternal>
0.7113

> <Gold.Chemscore.Rot>
2.6743

> <Gold.Chemscore.Internal.Correction>
   9.000000E+99

> <Gold.Chemscore.Hbonds>
donor molecule, donor type, donor heavy atom, donor atom, acceptor molecule, acceptor atom, score
      P1  H  6931  6943       L1    13  0.46
      P1  H  6934  6947       L1    13  0.54

> <Gold.Chemscore.Hbond.Weighted>
-2.4387

> <Gold.Chemscore.Metal.Weighted>
-0.0000

> <Gold.Chemscore.Lipo.Weighted>
-13.1940

> <Gold.Chemscore.Internal_Hbond.Weighted>
0.0000

> <Gold.Chemscore.DEClash.Weighted>
0.2672

> <Gold.Chemscore.DEInternal.Weighted>
0.7113

> <Gold.Chemscore.Rot.Weighted>
6.8463

> <Gold.Chemscore.Internal.Correction.Weighted>
   9.000000E+99

> <Gold.Protein.RotatedTorsions>
[ 6907 6896 6895 6894 ] final -172.22 input  -60.11 | X-H torsion
[ 7974 7965 7964 7962 ] final -164.33 input  175.53 | X-H torsion
[ 8008 7997 7996 7995 ] final  -83.89 input   59.86 | X-H torsion
[ 10167 10162 10161 10158 ] final -114.22 input  -65.29 | X-H torsion
[ 10718 10713 10712 10709 ] final   34.95 input   66.30 | X-H torsion
[ 10763 10752 10751 10750 ] final -144.54 input  -60.55 | X-H torsion
[ 11005 11000 10999 10996 ] final -179.93 input  -57.11 | X-H torsion

> <Gold.Protein.ActiveResidues>
 VAL166  LYS551  ARG553  GLY616  TRP617  ASP618  TYR619  PRO620  LYS621  CYS622 
 ASP623  PHE694  ASN695  SER759  ASP760  ASP761  ALA762  ILE779  LEU786  VAL792 
 PHE793  MET794  SER795  GLU796  ALA797  LYS798  CYS799  TRP800  GLU811  SER814 

> <Gold.Protein.RotatedAtoms>
  151.5365  133.3440  159.2927 H   0  0  0  0  0  0  0  0  0  0  0  0  # atno 6907 bound_to 6896
  150.8561  134.7903  159.7058 H   0  0  0  0  0  0  0  0  0  0  0  0  # atno 6908 bound_to 6896
  152.4594  134.5226  159.9839 H   0  0  0  0  0  0  0  0  0  0  0  0  # atno 6909 bound_to 6896
  144.7300  140.2977  143.6210 H   0  0  0  0  0  0  0  0  0  0  0  0  # atno 7974 bound_to 7965
  154.6239  140.0612  156.9649 H   0  0  0  0  0  0  0  0  0  0  0  0  # atno 8008 bound_to 7997
  155.1773  140.3296  155.4363 H   0  0  0  0  0  0  0  0  0  0  0  0  # atno 8009 bound_to 7997
  156.2446  140.1903  156.6872 H   0  0  0  0  0  0  0  0  0  0  0  0  # atno 8010 bound_to 7997
  140.1034  143.4593  152.1798 H   0  0  0  0  0  0  0  0  0  0  0  0  # atno 10167 bound_to 10162
  157.3167  130.7427  149.6759 H   0  0  0  0  0  0  0  0  0  0  0  0  # atno 10718 bound_to 10713
  154.8423  135.3437  154.6362 H   0  0  0  0  0  0  0  0  0  0  0  0  # atno 10763 bound_to 10752
  153.6972  135.6971  153.5078 H   0  0  0  0  0  0  0  0  0  0  0  0  # atno 10764 bound_to 10752
  153.2550  135.4341  155.0791 H   0  0  0  0  0  0  0  0  0  0  0  0  # atno 10765 bound_to 10752
  140.4131  134.6673  157.4625 H   0  0  0  0  0  0  0  0  0  0  0  0  # atno 11005 bound_to 11000
  145.7792  139.1885  143.2168 LP  0  0  0  0  0  0  0  0  0  0  0  0  # atno 17320 bound_to 7965
  146.0848  140.7723  142.9624 LP  0  0  0  0  0  0  0  0  0  0  0  0  # atno 17321 bound_to 7965
  139.5659  144.7434  151.4024 LP  0  0  0  0  0  0  0  0  0  0  0  0  # atno 17342 bound_to 10162
  140.6965  143.7735  150.7335 LP  0  0  0  0  0  0  0  0  0  0  0  0  # atno 17343 bound_to 10162
  155.9682  130.4235  150.4566 LP  0  0  0  0  0  0  0  0  0  0  0  0  # atno 17370 bound_to 10713
  157.2575  131.0559  151.2341 LP  0  0  0  0  0  0  0  0  0  0  0  0  # atno 17371 bound_to 10713
  140.0253  134.6486  155.9182 LP  0  0  0  0  0  0  0  0  0  0  0  0  # atno 17394 bound_to 11000
  141.1813  133.6547  156.5033 LP  0  0  0  0  0  0  0  0  0  0  0  0  # atno 17395 bound_to 11000

$$$$
