AV-unprocessed.smi:564|AV-procd|sdf|2949|dock7
  -GOLD-   2262023453D 1   1.00000     0.00000
 Structure written by MMmdl.
 50 51  0  0  0  0  0  0  0  0  2 V2000
  150.7362  138.3964  154.4113 C   0  0  0  0  0  0  0  0  0  0  0  0
  150.9066  139.4006  155.5155 C   0  0  0  0  0  0  0  0  0  0  0  0
  151.7137  139.1089  156.5214 N   0  0  0  0  0  0  0  0  0  0  0  0
  151.6647  140.1872  157.3284 N   0  0  0  0  0  0  0  0  0  0  0  0
  152.4547  140.1986  158.5443 C   0  0  0  0  0  0  0  0  0  0  0  0
  150.8270  141.1654  156.8290 C   0  0  0  0  0  0  0  0  0  0  0  0
  150.6069  142.4661  157.5316 C   0  0  0  0  0  0  0  0  0  0  0  0
  150.3101  140.6898  155.6533 C   0  0  0  0  0  0  0  0  0  0  0  0
  149.3414  141.3685  154.7136 C   0  0  0  0  0  0  0  0  0  0  0  0
  148.0215  140.5948  154.6008 C   0  0  0  0  0  0  0  0  0  0  0  0
  147.2543  140.4919  155.5595 O   0  0  0  0  0  0  0  0  0  0  0  0
  147.7670  140.0450  153.4038 N   0  0  0  0  0  0  0  0  0  0  0  0
  146.5772  139.2670  153.0796 C   0  0  0  0  0  0  0  0  0  0  0  0
  146.5071  137.9728  153.9149 C   0  0  0  0  0  0  0  0  0  0  0  0
  146.2349  136.7549  153.1039 N   0  3  2  0  0  0  0  0  0  0  0  0
  145.1758  136.9935  152.0858 C   0  0  0  0  0  0  0  0  0  0  0  0
  145.0502  135.8095  151.1140 C   0  0  0  0  0  0  0  0  0  0  0  0
  144.7943  134.5020  151.8704 C   0  0  0  0  0  0  0  0  0  0  0  0
  145.8915  134.2867  152.9216 C   0  0  0  0  0  0  0  0  0  0  0  0
  146.0277  135.4904  153.8788 C   0  0  2  0  0  0  0  0  0  0  0  0
  144.8620  135.5666  154.8884 C   0  0  0  0  0  0  0  0  0  0  0  0
  150.0041  138.7262  153.6752 H   0  0  0  0  0  0  0  0  0  0  0  0
  150.4000  137.4362  154.8031 H   0  0  0  0  0  0  0  0  0  0  0  0
  151.6773  138.2310  153.8866 H   0  0  0  0  0  0  0  0  0  0  0  0
  151.8624  140.5983  159.3677 H   0  0  0  0  0  0  0  0  0  0  0  0
  153.3355  140.8247  158.4008 H   0  0  0  0  0  0  0  0  0  0  0  0
  152.7750  139.1884  158.8028 H   0  0  0  0  0  0  0  0  0  0  0  0
  150.1627  143.2038  156.8634 H   0  0  0  0  0  0  0  0  0  0  0  0
  151.5472  142.8777  157.8985 H   0  0  0  0  0  0  0  0  0  0  0  0
  149.9380  142.3364  158.3824 H   0  0  0  0  0  0  0  0  0  0  0  0
  149.1187  142.3839  155.0413 H   0  0  0  0  0  0  0  0  0  0  0  0
  149.7729  141.4663  153.7168 H   0  0  0  0  0  0  0  0  0  0  0  0
  148.4435  140.1794  152.6659 H   0  0  0  0  0  0  0  0  0  0  0  0
  145.6805  139.8713  153.2283 H   0  0  0  0  0  0  0  0  0  0  0  0
  146.6311  139.0395  152.0156 H   0  0  0  0  0  0  0  0  0  0  0  0
  147.4181  137.8432  154.4997 H   0  0  0  0  0  0  0  0  0  0  0  0
  145.7000  138.0778  154.6411 H   0  0  0  0  0  0  0  0  0  0  0  0
  144.2211  137.1850  152.5768 H   0  0  0  0  0  0  0  0  0  0  0  0
  145.4141  137.8910  151.5136 H   0  0  0  0  0  0  0  0  0  0  0  0
  144.2427  135.9938  150.4045 H   0  0  0  0  0  0  0  0  0  0  0  0
  145.9643  135.7195  150.5255 H   0  0  0  0  0  0  0  0  0  0  0  0
  143.8148  134.5340  152.3484 H   0  0  0  0  0  0  0  0  0  0  0  0
  144.7713  133.6634  151.1737 H   0  0  0  0  0  0  0  0  0  0  0  0
  145.6946  133.3739  153.4852 H   0  0  0  0  0  0  0  0  0  0  0  0
  146.8425  134.1258  152.4118 H   0  0  0  0  0  0  0  0  0  0  0  0
  146.9331  135.3023  154.4549 H   0  0  0  0  0  0  0  0  0  0  0  0
  144.7409  134.6154  155.4075 H   0  0  0  0  0  0  0  0  0  0  0  0
  143.9111  135.7954  154.4083 H   0  0  0  0  0  0  0  0  0  0  0  0
  145.0387  136.3201  155.6553 H   0  0  0  0  0  0  0  0  0  0  0  0
  147.0787  136.6019  152.5697 H   0  0  0  0  0  0  0  0  0  0  0  0
  1  2  1  0  0  0  0
  1 22  1  0  0  0  0
  1 23  1  0  0  0  0
  1 24  1  0  0  0  0
  2  8  1  0  0  0  0
  2  3  2  0  0  0  0
  3  4  1  0  0  0  0
  4  5  1  0  0  0  0
  4  6  1  0  0  0  0
  5 25  1  0  0  0  0
  5 26  1  0  0  0  0
  5 27  1  0  0  0  0
  6  7  1  0  0  0  0
  6  8  2  0  0  0  0
  7 28  1  0  0  0  0
  7 29  1  0  0  0  0
  7 30  1  0  0  0  0
  8  9  1  0  0  0  0
  9 10  1  0  0  0  0
  9 31  1  0  0  0  0
  9 32  1  0  0  0  0
 10 11  2  0  0  0  0
 10 12  1  0  0  0  0
 12 13  1  0  0  0  0
 12 33  1  0  0  0  0
 13 14  1  0  0  0  0
 13 34  1  0  0  0  0
 13 35  1  0  0  0  0
 14 15  1  0  0  0  0
 14 36  1  0  0  0  0
 14 37  1  0  0  0  0
 15 20  1  0  0  0  0
 15 16  1  0  0  0  0
 15 50  1  0  0  0  0
 16 17  1  0  0  0  0
 16 38  1  0  0  0  0
 16 39  1  0  0  0  0
 17 18  1  0  0  0  0
 17 40  1  0  0  0  0
 17 41  1  0  0  0  0
 18 19  1  0  0  0  0
 18 42  1  0  0  0  0
 18 43  1  0  0  0  0
 19 20  1  0  0  0  0
 19 44  1  0  0  0  0
 19 45  1  0  0  0  0
 20 21  1  0  0  0  0
 20 46  1  0  0  0  0
 21 47  1  0  0  0  0
 21 48  1  0  0  0  0
 21 49  1  0  0  0  0
M  CHG  1  15   1
M  END
> <s_m_source_file>
AV-unprocessed.smi

> <i_m_source_file_index>
564

> <i_lp_mmshare_version>
43012

> <i_f3d_flags>
0

> <s_epik_input>
W0NIM11jMW5uKFtDSDNdKWMoW0NIM10pYzFbQ0gyXUMoPU8pW05IXVtDSDJdW0NIMl1OMltDSDJdW0NIMl1bQ0gyXVtDSDJdW0NASF0yW0NIM10=

> <s_epik_cmdline>
J2VwaWtfcHl0aG9uJywgJy1waCcsICc3LjAnLCAnLXRuJywgJzgnLCAnLW1hJywgJzIwMCcsICctbWV0YWxfYmluZGluZycsICctaW1hZScsICc8aW5maWxlLm1hZT4nLCAnLW9tYWUnLCAnPG91dGZpbGUubWFlPic=

> <r_lp_tautomer_probability>
1

> <r_epik_Ionization_Penalty>
0.00456826

> <r_epik_Ionization_Penalty_Charging>
0.00240401

> <r_epik_Ionization_Penalty_Neutral>
0.00216425

> <r_epik_State_Penalty>
-0

> <r_epik_Charging_Adjusted_Penalty>
0.00240401

> <i_epik_Tot_Q>
1

> <i_epik_Tot_abs_Q>
1

> <r_epik_Metal_State_Penalty>
-0

> <b_epik_Metal_Only>
0

> <s_lp_Force_Field>
OPLS_2005

> <r_lp_Energy>
15.7718

> <b_lp_Chiralities_Consistent>
1

> <s_lp_Variant>
AV-unprocessed.smi:564-3

> <Gold.Version>
5.8.1

> <Gold.Id.Protein>
6NUR|6NUR_protein|mol2

> <Gold.PLP.Fitness>
44.4106

> <Gold.PLP.PLP>
-36.3108

> <Gold.PLP.part.hbond>
-2.0000

> <Gold.PLP.part.metal>
0.0000

> <Gold.PLP.part.buried>
-3.5955

> <Gold.PLP.part.nonpolar>
-30.9121

> <Gold.PLP.part.repulsive>
0.1470

> <Gold.PLP.ligand.clash>
0.0000

> <Gold.PLP.ligand.torsion>
0.4798

> <Gold.PLP.Chemscore.Hbond>
3.0000

> <Gold.PLP.Chemscore.CHOScore>
0.0000

> <Gold.PLP.Chemscore.Metal>
0.0000

> <Gold.Chemscore.Hbonds>
donor molecule, donor type, donor heavy atom, donor atom, acceptor molecule, acceptor atom, score
      L1  H    12    33       P1  7957  1.00
      L1  H    15    50       P1  7948  2.00

> <Gold.PLP.Chemscore.Internal.Correction>
0.0593

> <Gold.Rescore>
     Score         DG    S(hbond)    S(metal)    S(lipo)     H(rot)  DE(clash)    DE(int)     intcor
     17.29     -17.79       1.99        0.00      83.81       1.61       0.06       0.44       ----

> <Gold.Chemscore.Fitness>
17.2891

> <Gold.Chemscore.DG>
-17.7918

> <Gold.Chemscore.ZeroCoef>
-5.4800

> <Gold.Chemscore.Hbond>
1.9877

> <Gold.Chemscore.Metal>
0.0000

> <Gold.Chemscore.Lipo>
83.8070

> <Gold.Chemscore.Internal_Hbond>
0.0000

> <Gold.Chemscore.DEClash>
0.0630

> <Gold.Chemscore.DEInternal>
0.4397

> <Gold.Chemscore.Rot>
1.6142

> <Gold.Chemscore.Internal.Correction>
   9.000000E+99

> <Gold.Chemscore.Hbonds>
donor molecule, donor type, donor heavy atom, donor atom, acceptor molecule, acceptor atom, score
      L1  H    12    33       P1  7957  1.00
      L1  H    15    50       P1  7948  0.93

> <Gold.Chemscore.Hbond.Weighted>
-6.6388

> <Gold.Chemscore.Metal.Weighted>
-0.0000

> <Gold.Chemscore.Lipo.Weighted>
-9.8054

> <Gold.Chemscore.Internal_Hbond.Weighted>
0.0000

> <Gold.Chemscore.DEClash.Weighted>
0.0630

> <Gold.Chemscore.DEInternal.Weighted>
0.4397

> <Gold.Chemscore.Rot.Weighted>
4.1324

> <Gold.Chemscore.Internal.Correction.Weighted>
   9.000000E+99

> <Gold.Protein.RotatedTorsions>
[ 6907 6896 6895 6894 ] final -162.03 input  -60.11 | X-H torsion
[ 7974 7965 7964 7962 ] final  155.37 input  175.53 | X-H torsion
[ 8008 7997 7996 7995 ] final  -48.24 input   59.86 | X-H torsion
[ 10167 10162 10161 10158 ] final  -26.93 input  -65.29 | X-H torsion
[ 10718 10713 10712 10709 ] final   19.61 input   66.30 | X-H torsion
[ 10763 10752 10751 10750 ] final   78.32 input  -60.55 | X-H torsion
[ 11005 11000 10999 10996 ] final   55.07 input  -57.11 | X-H torsion

> <Gold.Protein.ActiveResidues>
 VAL166  LYS551  ARG553  GLY616  TRP617  ASP618  TYR619  PRO620  LYS621  CYS622 
 ASP623  PHE694  ASN695  SER759  ASP760  ASP761  ALA762  ILE779  LEU786  VAL792 
 PHE793  MET794  SER795  GLU796  ALA797  LYS798  CYS799  TRP800  GLU811  SER814 

> <Gold.Protein.RotatedAtoms>
  151.3739  133.3845  159.2702 H   0  0  0  0  0  0  0  0  0  0  0  0  # atno 6907 bound_to 6896
  150.9630  134.9016  159.7752 H   0  0  0  0  0  0  0  0  0  0  0  0  # atno 6908 bound_to 6896
  152.5156  134.3698  159.9366 H   0  0  0  0  0  0  0  0  0  0  0  0  # atno 6909 bound_to 6896
  144.8029  139.7059  143.6174 H   0  0  0  0  0  0  0  0  0  0  0  0  # atno 7974 bound_to 7965
  154.4026  140.1326  156.4306 H   0  0  0  0  0  0  0  0  0  0  0  0  # atno 8008 bound_to 7997
  155.7554  140.3487  155.5151 H   0  0  0  0  0  0  0  0  0  0  0  0  # atno 8009 bound_to 7997
  155.8909  140.1003  157.1409 H   0  0  0  0  0  0  0  0  0  0  0  0  # atno 8010 bound_to 7997
  140.7280  143.4136  151.1065 H   0  0  0  0  0  0  0  0  0  0  0  0  # atno 10167 bound_to 10162
  157.1128  130.6516  149.5902 H   0  0  0  0  0  0  0  0  0  0  0  0  # atno 10718 bound_to 10713
  153.0865  135.4881  154.8607 H   0  0  0  0  0  0  0  0  0  0  0  0  # atno 10763 bound_to 10752
  154.7217  135.3041  154.9039 H   0  0  0  0  0  0  0  0  0  0  0  0  # atno 10764 bound_to 10752
  153.9701  135.6802  153.4800 H   0  0  0  0  0  0  0  0  0  0  0  0  # atno 10765 bound_to 10752
  140.0636  134.5568  155.9124 H   0  0  0  0  0  0  0  0  0  0  0  0  # atno 11005 bound_to 11000
  146.2314  139.5821  142.9552 LP  0  0  0  0  0  0  0  0  0  0  0  0  # atno 17320 bound_to 7965
  145.5509  141.0413  143.2279 LP  0  0  0  0  0  0  0  0  0  0  0  0  # atno 17321 bound_to 7965
  139.7773  143.8407  152.3131 LP  0  0  0  0  0  0  0  0  0  0  0  0  # atno 17342 bound_to 10162
  139.8346  144.7238  150.9407 LP  0  0  0  0  0  0  0  0  0  0  0  0  # atno 17343 bound_to 10162
  155.9846  130.4872  150.6992 LP  0  0  0  0  0  0  0  0  0  0  0  0  # atno 17370 bound_to 10713
  157.4544  131.0876  151.0812 LP  0  0  0  0  0  0  0  0  0  0  0  0  # atno 17371 bound_to 10713
  141.1983  133.6601  156.5787 LP  0  0  0  0  0  0  0  0  0  0  0  0  # atno 17394 bound_to 11000
  140.3733  134.7587  157.4613 LP  0  0  0  0  0  0  0  0  0  0  0  0  # atno 17395 bound_to 11000

$$$$
