#       Name:                AV-unprocessed.smi:597
#       Creating user name   scv26
#       Creation time:       Thu Mar 26 23:53:05 2020


#       File generated by GOLD software.
#

@<TRIPOS>MOLECULE
AV-unprocessed.smi:597
    43    44     1
SMALL
NO_CHARGES


@<TRIPOS>ATOM
      1 ****        -0.0710   0.5094   1.0467 O.2            1 S1                 0.0000
      2 ****         0.4067   0.1843  -0.0412 C.2            1 S1                 0.0000
      3 ****         1.9218   0.2362  -0.2854 C.3            1 S1                 0.0000
      4 ****         2.6486   1.0339   0.7170 N.am           1 S1                 0.0000
      5 ****         3.2223   0.3347   1.7974 C.2            1 S1                 0.0000
      6 ****         3.9030   0.9627   2.7762 C.2            1 S1                 0.0000
      7 ****         4.4810   0.2293   3.8809 N.pl3          1 S1                 1.0000
      8 ****         5.0853   0.8517   4.7485 O.2            1 S1                 0.0000
      9 ****         4.3522  -0.9909   3.9180 O.2            1 S1                -1.0000
     10 ****         4.0352   2.4041   2.6873 C.2            1 S1                 0.0000
     11 ****         3.4850   3.0789   1.6588 C.2            1 S1                 0.0000
     12 ****         2.7401   2.3939   0.5974 C.2            1 S1                 0.0000
     13 ****         2.2298   3.0054  -0.3414 O.2            1 S1                 0.0000
     14 ****        -0.3373  -0.2488  -1.0702 N.am           1 S1                 0.0000
     15 ****        -1.7910  -0.3828  -1.0639 C.3            1 S1                 0.0000
     16 ****        -2.2161  -1.6981  -0.3773 C.3            1 S1                 0.0000
     17 ****        -3.7401  -1.8938  -0.4305 C.3            1 S1                 0.0000
     18 ****        -4.2615  -1.8319  -1.8747 C.3            1 S1                 0.0000
     19 ****        -3.8446  -0.5204  -2.5586 C.3            1 S1                 0.0000
     20 ****        -2.3204  -0.3268  -2.5096 C.3            1 S1                 0.0000
     21 ****         2.2984  -0.7876  -0.3034 H              1 S1                 0.0000
     22 ****         2.1113   0.6258  -1.2875 H              1 S1                 0.0000
     23 ****         3.0623  -0.7337   1.7748 H              1 S1                 0.0000
     24 ****         4.5755   2.9531   3.4446 H              1 S1                 0.0000
     25 ****         3.5947   4.1524   1.6128 H              1 S1                 0.0000
     26 ****         0.1379  -0.4999  -1.9250 H              1 S1                 0.0000
     27 ****        -2.2204   0.4572  -0.5142 H              1 S1                 0.0000
     28 ****        -1.7267  -2.5434  -0.8635 H              1 S1                 0.0000
     29 ****        -1.8856  -1.7065   0.6620 H              1 S1                 0.0000
     30 ****        -4.0077  -2.8497   0.0207 H              1 S1                 0.0000
     31 ****        -4.2274  -1.1224   0.1675 H              1 S1                 0.0000
     32 ****        -3.8722  -2.6793  -2.4405 H              1 S1                 0.0000
     33 ****        -5.3476  -1.9271  -1.8830 H              1 S1                 0.0000
     34 ****        -4.1864  -0.5158  -3.5938 H              1 S1                 0.0000
     35 ****        -4.3353   0.3206  -2.0670 H              1 S1                 0.0000
     36 ****        -2.0579   0.6274  -2.9682 H              1 S1                 0.0000
     37 ****        -1.8401  -1.1008  -3.1101 H              1 S1                 0.0000
     38 ****         0.5300   0.8125   1.7862 LP             1 S1                 0.0000
     39 ****        -1.0599   0.4702   1.1903 LP             1 S1                 0.0000
     40 ****         5.1703   1.8459   4.6830 LP             1 S1                 0.0000
     41 ****         5.4927   0.3647   5.5210 LP             1 S1                 0.0000
     42 ****         1.7282   2.5074  -1.0489 LP             1 S1                 0.0000
     43 ****         2.3168   4.0000  -0.3966 LP             1 S1                 0.0000
@<TRIPOS>BOND
    1    1    2 2     
    2    2    3 1     
    3    2   14 am    
    4    3    4 1     
    5    3   21 1     
    6    3   22 1     
    7    4   12 am    
    8    4    5 1     
    9    5    6 2     
   10    5   23 1     
   11    6    7 1     
   12    6   10 1     
   13    7    8 2     
   14    7    9 1     
   15   10   11 2     
   16   10   24 1     
   17   11   12 1     
   18   11   25 1     
   19   12   13 2     
   20   14   15 1     
   21   14   26 1     
   22   15   20 1     
   23   15   16 1     
   24   15   27 1     
   25   16   17 1     
   26   16   28 1     
   27   16   29 1     
   28   17   18 1     
   29   17   30 1     
   30   17   31 1     
   31   18   19 1     
   32   18   32 1     
   33   18   33 1     
   34   19   20 1     
   35   19   34 1     
   36   19   35 1     
   37   20   36 1     
   38   20   37 1     
   39    1   38 1     
   40    1   39 1     
   41    8   40 1     
   42    8   41 1     
   43   13   42 1     
   44   13   43 1     
@<TRIPOS>SUBSTRUCTURE
      1 S1             1
@<TRIPOS>SET
LONE_PAIRS      STATIC     ATOMS    <user>   **** ""
7 38 39 40 41 9 42 43
DONOR_HYDROGENS      STATIC     ATOMS    <user>   **** ""
1 26
ATOM$BLUE        STATIC     ATOMS    COLORGROUP SYSTEM
7 38 39 40 41 9 42 43
ATOM$RED        STATIC     ATOMS    COLORGROUP SYSTEM
1 26
