AV-unprocessed.smi:1690|AV-procd|sdf|6773|dock10
  -GOLD-   22720 7533D 1   1.00000     0.00000
 Structure written by MMmdl.
 37 38  0  0  0  0  0  0  0  0  1 V2000
  152.6288  143.0791  161.5556 C   0  0  0  0  0  0  0  0  0  0  0  0
  152.5065  142.0876  160.3893 C   0  0  0  0  0  0  0  0  0  0  0  0
  153.8630  141.5491  159.9115 C   0  0  0  0  0  0  0  0  0  0  0  0
  151.6946  142.6415  159.2613 C   0  0  0  0  0  0  0  0  0  0  0  0
  150.5365  142.1140  158.8533 N   0  0  0  0  0  0  0  0  0  0  0  0
  149.9599  142.8240  157.7949 C   0  0  0  0  0  0  0  0  0  0  0  0
  148.6425  142.3814  157.2254 C   0  0  0  0  0  0  0  0  0  0  0  0
  147.5161  142.6180  158.2343 C   0  0  0  0  0  0  0  0  0  0  0  0
  146.9251  141.6606  158.7336 O   0  0  0  0  0  0  0  0  0  0  0  0
  147.2361  143.8972  158.5308 N   0  0  0  0  0  0  0  0  0  0  0  0
  146.1957  144.3456  159.4513 C   0  0  0  0  0  0  0  0  0  0  0  0
  146.4244  143.7575  160.8575 C   0  0  0  0  0  0  0  0  0  0  0  0
  145.0924  143.1351  161.2812 C   0  0  0  0  0  0  0  0  0  0  0  0
  144.4248  142.7358  159.9690 C   0  0  0  0  0  0  0  0  0  0  0  0
  144.8047  143.8580  159.0029 C   0  0  0  0  0  0  0  0  0  0  0  0
  150.7144  143.8978  157.3916 C   0  0  0  0  0  0  0  0  0  0  0  0
  152.1675  144.0639  158.3382 S   0  0  0  0  0  0  0  0  0  0  0  0
  151.6456  143.3757  161.9225 H   0  0  0  0  0  0  0  0  0  0  0  0
  153.1588  143.9830  161.2541 H   0  0  0  0  0  0  0  0  0  0  0  0
  153.1738  142.6381  162.3906 H   0  0  0  0  0  0  0  0  0  0  0  0
  151.9533  141.2294  160.7728 H   0  0  0  0  0  0  0  0  0  0  0  0
  153.7332  140.7864  159.1430 H   0  0  0  0  0  0  0  0  0  0  0  0
  154.4187  141.0983  160.7339 H   0  0  0  0  0  0  0  0  0  0  0  0
  154.4797  142.3441  159.4909 H   0  0  0  0  0  0  0  0  0  0  0  0
  148.4237  142.9230  156.3042 H   0  0  0  0  0  0  0  0  0  0  0  0
  148.6666  141.3232  156.9617 H   0  0  0  0  0  0  0  0  0  0  0  0
  147.7769  144.6158  158.0711 H   0  0  0  0  0  0  0  0  0  0  0  0
  146.1990  145.4359  159.5097 H   0  0  0  0  0  0  0  0  0  0  0  0
  147.1892  142.9791  160.8312 H   0  0  0  0  0  0  0  0  0  0  0  0
  146.7618  144.5128  161.5679 H   0  0  0  0  0  0  0  0  0  0  0  0
  145.2206  142.2932  161.9619 H   0  0  0  0  0  0  0  0  0  0  0  0
  144.4820  143.8835  161.7885 H   0  0  0  0  0  0  0  0  0  0  0  0
  144.8404  141.7907  159.6171 H   0  0  0  0  0  0  0  0  0  0  0  0
  143.3459  142.6116  160.0659 H   0  0  0  0  0  0  0  0  0  0  0  0
  144.0892  144.6753  159.1048 H   0  0  0  0  0  0  0  0  0  0  0  0
  144.7710  143.5329  157.9621 H   0  0  0  0  0  0  0  0  0  0  0  0
  150.4996  144.6033  156.6026 H   0  0  0  0  0  0  0  0  0  0  0  0
  1  2  1  0  0  0  0
  1 18  1  0  0  0  0
  1 19  1  0  0  0  0
  1 20  1  0  0  0  0
  2  3  1  0  0  0  0
  2  4  1  0  0  0  0
  2 21  1  0  0  0  0
  3 22  1  0  0  0  0
  3 23  1  0  0  0  0
  3 24  1  0  0  0  0
  4 17  1  0  0  0  0
  4  5  2  0  0  0  0
  5  6  1  0  0  0  0
  6  7  1  0  0  0  0
  6 16  2  0  0  0  0
  7  8  1  0  0  0  0
  7 25  1  0  0  0  0
  7 26  1  0  0  0  0
  8  9  2  0  0  0  0
  8 10  1  0  0  0  0
 10 11  1  0  0  0  0
 10 27  1  0  0  0  0
 11 15  1  0  0  0  0
 11 12  1  0  0  0  0
 11 28  1  0  0  0  0
 12 13  1  0  0  0  0
 12 29  1  0  0  0  0
 12 30  1  0  0  0  0
 13 14  1  0  0  0  0
 13 31  1  0  0  0  0
 13 32  1  0  0  0  0
 14 15  1  0  0  0  0
 14 33  1  0  0  0  0
 14 34  1  0  0  0  0
 15 35  1  0  0  0  0
 15 36  1  0  0  0  0
 16 17  1  0  0  0  0
 16 37  1  0  0  0  0
M  END
> <s_m_source_file>
AV-unprocessed.smi

> <i_m_source_file_index>
1690

> <i_lp_mmshare_version>
43012

> <i_f3d_flags>
0

> <s_epik_input>
W0NIM11bQ0hdKFtDSDNdKWMxbmMoW2NIXXMxKVtDSDJdQyg9TylbTkhdW0NIXTJbQ0gyXVtDSDJdW0NIMl1bQ0gyXTI=

> <s_epik_cmdline>
J2VwaWtfcHl0aG9uJywgJy1waCcsICc3LjAnLCAnLXRuJywgJzgnLCAnLW1hJywgJzIwMCcsICctbWV0YWxfYmluZGluZycsICctaW1hZScsICc8aW5maWxlLm1hZT4nLCAnLW9tYWUnLCAnPG91dGZpbGUubWFlPic=

> <r_lp_tautomer_probability>
1

> <r_epik_Ionization_Penalty>
4.81312e-05

> <r_epik_Ionization_Penalty_Charging>
0

> <r_epik_Ionization_Penalty_Neutral>
4.81312e-05

> <r_epik_State_Penalty>
-0

> <r_epik_Charging_Adjusted_Penalty>
0

> <i_epik_Tot_Q>
0

> <i_epik_Tot_abs_Q>
0

> <r_epik_Metal_State_Penalty>
-0

> <b_epik_Metal_Only>
0

> <s_lp_Force_Field>
OPLS_2005

> <r_lp_Energy>
9.48899

> <b_lp_Chiralities_Consistent>
1

> <s_lp_Variant>
AV-unprocessed.smi:1690-1

> <Gold.Version>
5.8.1

> <Gold.Id.Protein>
6NUR|6NUR_protein|mol2

> <Gold.PLP.Fitness>
44.7579

> <Gold.PLP.PLP>
-38.1392

> <Gold.PLP.part.hbond>
-3.6922

> <Gold.PLP.part.metal>
0.0000

> <Gold.PLP.part.buried>
-1.8977

> <Gold.PLP.part.nonpolar>
-31.6049

> <Gold.PLP.part.repulsive>
0.1424

> <Gold.PLP.ligand.clash>
0.0000

> <Gold.PLP.ligand.torsion>
0.1584

> <Gold.PLP.Chemscore.Hbond>
1.4186

> <Gold.PLP.Chemscore.CHOScore>
0.8676

> <Gold.PLP.Chemscore.Metal>
0.0000

> <Gold.Chemscore.Hbonds>
donor molecule, donor type, donor heavy atom, donor atom, acceptor molecule, acceptor atom, score
      L1  H    10    27       P1  8029  1.00
      P1  H  6934  6946       L1     9  0.42
      L1  C    16    37       P1  8028  0.48

> <Gold.PLP.Chemscore.Internal.Correction>
0.0770

> <Gold.Rescore>
     Score         DG    S(hbond)    S(metal)    S(lipo)     H(rot)  DE(clash)    DE(int)     intcor
     17.06     -20.24       1.89        0.00     101.88       1.35       0.45       2.74       ----

> <Gold.Chemscore.Fitness>
17.0561

> <Gold.Chemscore.DG>
-20.2433

> <Gold.Chemscore.ZeroCoef>
-5.4800

> <Gold.Chemscore.Hbond>
1.8850

> <Gold.Chemscore.Metal>
0.0000

> <Gold.Chemscore.Lipo>
101.8840

> <Gold.Chemscore.Internal_Hbond>
0.0000

> <Gold.Chemscore.DEClash>
0.4516

> <Gold.Chemscore.DEInternal>
2.7356

> <Gold.Chemscore.Rot>
1.3489

> <Gold.Chemscore.Internal.Correction>
   9.000000E+99

> <Gold.Chemscore.Hbonds>
donor molecule, donor type, donor heavy atom, donor atom, acceptor molecule, acceptor atom, score
      L1  H    10    27       P1  8029  0.54
      P1  H  6934  6946       L1     9  0.42

> <Gold.Chemscore.Hbond.Weighted>
-6.2960

> <Gold.Chemscore.Metal.Weighted>
-0.0000

> <Gold.Chemscore.Lipo.Weighted>
-11.9204

> <Gold.Chemscore.Internal_Hbond.Weighted>
0.0000

> <Gold.Chemscore.DEClash.Weighted>
0.4516

> <Gold.Chemscore.DEInternal.Weighted>
2.7356

> <Gold.Chemscore.Rot.Weighted>
3.4532

> <Gold.Chemscore.Internal.Correction.Weighted>
   9.000000E+99

> <Gold.Protein.RotatedTorsions>
[ 6907 6896 6895 6894 ] final   61.50 input  -60.11 | X-H torsion
[ 7974 7965 7964 7962 ] final -172.19 input  175.53 | X-H torsion
[ 8008 7997 7996 7995 ] final   80.36 input   59.86 | X-H torsion
[ 10167 10162 10161 10158 ] final  -87.08 input  -65.29 | X-H torsion
[ 10718 10713 10712 10709 ] final   -1.07 input   66.30 | X-H torsion
[ 10763 10752 10751 10750 ] final  -70.50 input  -60.55 | X-H torsion
[ 11005 11000 10999 10996 ] final  137.34 input  -57.11 | X-H torsion

> <Gold.Protein.ActiveResidues>
 VAL166  LYS551  ARG553  GLY616  TRP617  ASP618  TYR619  PRO620  LYS621  CYS622 
 ASP623  PHE694  ASN695  SER759  ASP760  ASP761  ALA762  ILE779  LEU786  VAL792 
 PHE793  MET794  SER795  GLU796  ALA797  LYS798  CYS799  TRP800  GLU811  SER814 

> <Gold.Protein.RotatedAtoms>
  152.4094  134.6151  160.0035 H   0  0  0  0  0  0  0  0  0  0  0  0  # atno 6907 bound_to 6896
  151.6333  133.3325  159.3121 H   0  0  0  0  0  0  0  0  0  0  0  0  # atno 6908 bound_to 6896
  150.7986  134.7104  159.6645 H   0  0  0  0  0  0  0  0  0  0  0  0  # atno 6909 bound_to 6896
  144.7149  140.1809  143.6358 H   0  0  0  0  0  0  0  0  0  0  0  0  # atno 7974 bound_to 7965
  155.8824  140.3443  155.5897 H   0  0  0  0  0  0  0  0  0  0  0  0  # atno 8008 bound_to 7997
  155.7705  140.0844  157.2129 H   0  0  0  0  0  0  0  0  0  0  0  0  # atno 8009 bound_to 7997
  154.4026  140.1519  156.2923 H   0  0  0  0  0  0  0  0  0  0  0  0  # atno 8010 bound_to 7997
  140.3879  143.2718  151.9301 H   0  0  0  0  0  0  0  0  0  0  0  0  # atno 10167 bound_to 10162
  156.8110  130.5424  149.5709 H   0  0  0  0  0  0  0  0  0  0  0  0  # atno 10718 bound_to 10713
  154.4185  135.5992  153.5995 H   0  0  0  0  0  0  0  0  0  0  0  0  # atno 10763 bound_to 10752
  152.9793  135.5946  154.3984 H   0  0  0  0  0  0  0  0  0  0  0  0  # atno 10764 bound_to 10752
  154.3806  135.2841  155.2192 H   0  0  0  0  0  0  0  0  0  0  0  0  # atno 10765 bound_to 10752
  140.0107  134.9440  157.0272 H   0  0  0  0  0  0  0  0  0  0  0  0  # atno 11005 bound_to 11000
  145.8857  139.2348  143.1579 LP  0  0  0  0  0  0  0  0  0  0  0  0  # atno 17320 bound_to 7965
  145.9952  140.8568  143.0046 LP  0  0  0  0  0  0  0  0  0  0  0  0  # atno 17321 bound_to 7965
  139.4791  144.5756  151.8018 LP  0  0  0  0  0  0  0  0  0  0  0  0  # atno 17342 bound_to 10162
  140.4870  144.1366  150.5943 LP  0  0  0  0  0  0  0  0  0  0  0  0  # atno 17343 bound_to 10162
  156.1044  130.5993  150.9947 LP  0  0  0  0  0  0  0  0  0  0  0  0  # atno 17370 bound_to 10713
  157.6506  131.0897  150.8060 LP  0  0  0  0  0  0  0  0  0  0  0  0  # atno 17371 bound_to 10713
  140.4559  134.1534  155.7186 LP  0  0  0  0  0  0  0  0  0  0  0  0  # atno 17394 bound_to 11000
  141.1709  133.8610  157.1573 LP  0  0  0  0  0  0  0  0  0  0  0  0  # atno 17395 bound_to 11000

$$$$
