#       Name:                AV-unprocessed.smi:3126
#       Creating user name   scv26
#       Creation time:       Fri Mar 27 17:29:21 2020


#       File generated by GOLD software.
#

@<TRIPOS>MOLECULE
AV-unprocessed.smi:3126
    43    44     1
SMALL
NO_CHARGES


@<TRIPOS>ATOM
      1 ****        -3.2952  -1.2320  -2.3437 C.3            1 S1                 0.0000
      2 ****        -3.4245  -1.9358  -0.9856 C.3            1 S1                 0.0000
      3 ****        -2.8285  -1.1421   0.1952 C.3            1 S1                 0.0000
      4 ****        -3.2597  -1.7585   1.5408 C.3            1 S1                 0.0000
      5 ****        -2.6853  -0.9782   2.7324 C.3            1 S1                 0.0000
      6 ****        -1.1549  -0.8915   2.6501 C.3            1 S1                 0.0000
      7 ****        -0.6996  -0.2637   1.3206 C.3            1 S1                 0.0000
      8 ****         0.7792  -0.2210   1.2714 N.4            1 S1                 1.0000
      9 ****         1.3527   0.6885   0.2576 C.3            1 S1                 0.0000
     10 ****         2.8831   0.7245   0.3560 C.3            1 S1                 0.0000
     11 ****         3.4966   1.6510  -0.6751 C.ar           1 S1                 0.0000
     12 ****         3.8467   1.1783  -1.9569 C.ar           1 S1                 0.0000
     13 ****         4.4068   2.0795  -2.8826 C.ar           1 S1                 0.0000
     14 ****         4.5939   3.4188  -2.4861 C.ar           1 S1                 0.0000
     15 ****         4.2617   3.8823  -1.2618 N.ar           1 S1                 0.0000
     16 ****         3.7261   3.0118  -0.3798 C.ar           1 S1                 0.0000
     17 ****        -1.2880  -1.0468   0.1260 C.3            1 S1                 0.0000
     18 ****        -3.7941  -1.8081  -3.1232 H              1 S1                 0.0000
     19 ****        -2.2543  -1.1145  -2.6432 H              1 S1                 0.0000
     20 ****        -3.7539  -0.2432  -2.3202 H              1 S1                 0.0000
     21 ****        -4.4851  -2.1087  -0.7989 H              1 S1                 0.0000
     22 ****        -2.9653  -2.9236  -1.0399 H              1 S1                 0.0000
     23 ****        -3.2333  -0.1296   0.1536 H              1 S1                 0.0000
     24 ****        -4.3479  -1.7761   1.6122 H              1 S1                 0.0000
     25 ****        -2.9313  -2.7975   1.5935 H              1 S1                 0.0000
     26 ****        -3.1102   0.0264   2.7530 H              1 S1                 0.0000
     27 ****        -2.9805  -1.4573   3.6663 H              1 S1                 0.0000
     28 ****        -0.7776  -0.3062   3.4896 H              1 S1                 0.0000
     29 ****        -0.7301  -1.8912   2.7545 H              1 S1                 0.0000
     30 ****        -1.0700   0.7623   1.2901 H              1 S1                 0.0000
     31 ****         1.1038   0.0953   2.1741 H              1 S1                 0.0000
     32 ****         1.0593   0.3629  -0.7405 H              1 S1                 0.0000
     33 ****         0.9486   1.6912   0.4031 H              1 S1                 0.0000
     34 ****         3.1878   1.0507   1.3516 H              1 S1                 0.0000
     35 ****         3.2928  -0.2775   0.2206 H              1 S1                 0.0000
     36 ****         3.6875   0.1450  -2.2288 H              1 S1                 0.0000
     37 ****         4.6860   1.7531  -3.8736 H              1 S1                 0.0000
     38 ****         5.0192   4.1372  -3.1712 H              1 S1                 0.0000
     39 ****         3.4692   3.4145   0.5890 H              1 S1                 0.0000
     40 ****        -0.8603  -2.0503   0.0987 H              1 S1                 0.0000
     41 ****        -0.9991  -0.5635  -0.8060 H              1 S1                 0.0000
     42 ****         1.1283  -1.1560   1.1164 H              1 S1                 0.0000
     43 ****         4.4079   4.8406  -1.0162 LP             1 S1                 0.0000
@<TRIPOS>BOND
    1    1    2 1     
    2    1   18 1     
    3    1   19 1     
    4    1   20 1     
    5    2    3 1     
    6    2   21 1     
    7    2   22 1     
    8    3   17 1     
    9    3    4 1     
   10    3   23 1     
   11    4    5 1     
   12    4   24 1     
   13    4   25 1     
   14    5    6 1     
   15    5   26 1     
   16    5   27 1     
   17    6    7 1     
   18    6   28 1     
   19    6   29 1     
   20    7    8 1     
   21    7   17 1     
   22    7   30 1     
   23    8    9 1     
   24    8   31 1     
   25    8   42 1     
   26    9   10 1     
   27    9   32 1     
   28    9   33 1     
   29   10   11 1     
   30   10   34 1     
   31   10   35 1     
   32   11   16 ar    
   33   11   12 ar    
   34   12   13 ar    
   35   12   36 1     
   36   13   14 ar    
   37   13   37 1     
   38   14   15 ar    
   39   14   38 1     
   40   15   16 ar    
   41   16   39 1     
   42   17   40 1     
   43   17   41 1     
   44   15   43 1     
@<TRIPOS>SUBSTRUCTURE
      1 S1             1
@<TRIPOS>SET
LONE_PAIRS      STATIC     ATOMS    <user>   **** ""
1 43
DONOR_HYDROGENS      STATIC     ATOMS    <user>   **** ""
2 31 42
ATOM$BLUE        STATIC     ATOMS    COLORGROUP SYSTEM
1 43
ATOM$RED        STATIC     ATOMS    COLORGROUP SYSTEM
2 31 42
