AV-unprocessed.smi:3330|AV-procd|sdf|12813|dock3
  -GOLD-   2272019183D 1   1.00000     0.00000
 Structure written by MMmdl.
 37 38  0  0  0  0  0  0  0  0  2 V2000
  152.0316  139.5798  158.9514 C   0  0  0  0  0  0  0  0  0  0  0  0
  150.5681  140.0453  158.8155 C   0  0  2  0  0  0  0  0  0  0  0  0
  149.7964  138.9741  158.1907 N   0  0  0  0  0  0  0  0  0  0  0  0
  149.6429  137.8200  159.0629 C   0  0  0  0  0  0  0  0  0  0  0  0
  148.5773  136.8806  158.4792 C   0  0  0  0  0  0  0  0  0  0  0  0
  148.1264  135.9100  159.4804 N   0  0  0  0  0  0  0  0  0  0  0  0
  148.3834  134.5995  159.4261 C   0  0  0  0  0  0  0  0  0  0  0  0
  149.0081  133.9854  158.5606 O   0  0  0  0  0  0  0  0  0  0  0  0
  147.7682  133.9641  160.6513 C   0  0  0  0  0  0  0  0  0  0  0  0
  147.1856  135.1002  161.3292 N   0  5  0  0  0  0  0  0  0  0  0  0
  147.4332  136.2108  160.5954 C   0  0  0  0  0  0  0  0  0  0  0  0
  147.0961  137.3625  160.8690 O   0  0  0  0  0  0  0  0  0  0  0  0
  150.4170  141.3306  157.9566 C   0  0  2  0  0  0  0  0  0  0  0  0
  150.9282  141.1613  156.5126 C   0  0  0  0  0  0  0  0  0  0  0  0
  151.0783  142.4691  158.5875 N   0  0  0  0  0  0  0  0  0  0  0  0
  151.0950  143.7835  158.1673 C   0  0  0  0  0  0  0  0  0  0  0  0
  151.8148  144.4972  159.0821 C   0  0  0  0  0  0  0  0  0  0  0  0
  152.1988  143.5222  160.0441 C   0  0  0  0  0  0  0  0  0  0  0  0
  151.7584  142.3109  159.7464 N   0  0  0  0  0  0  0  0  0  0  0  0
  152.6333  140.3120  159.4890 H   0  0  0  0  0  0  0  0  0  0  0  0
  152.4908  139.4231  157.9748 H   0  0  0  0  0  0  0  0  0  0  0  0
  152.1124  138.6468  159.5085 H   0  0  0  0  0  0  0  0  0  0  0  0
  150.1638  140.2485  159.8085 H   0  0  0  0  0  0  0  0  0  0  0  0
  150.2172  138.7021  157.3139 H   0  0  0  0  0  0  0  0  0  0  0  0
  150.5912  137.2923  159.1638 H   0  0  0  0  0  0  0  0  0  0  0  0
  149.3425  138.1504  160.0584 H   0  0  0  0  0  0  0  0  0  0  0  0
  147.7265  137.4593  158.1146 H   0  0  0  0  0  0  0  0  0  0  0  0
  148.9742  136.3578  157.6071 H   0  0  0  0  0  0  0  0  0  0  0  0
  147.0319  133.2175  160.3523 H   0  0  0  0  0  0  0  0  0  0  0  0
  148.5399  133.4624  161.2360 H   0  0  0  0  0  0  0  0  0  0  0  0
  149.3557  141.5766  157.8931 H   0  0  0  0  0  0  0  0  0  0  0  0
  150.3254  140.4458  155.9540 H   0  0  0  0  0  0  0  0  0  0  0  0
  151.9624  140.8163  156.4907 H   0  0  0  0  0  0  0  0  0  0  0  0
  150.8819  142.1061  155.9698 H   0  0  0  0  0  0  0  0  0  0  0  0
  150.5944  144.0987  157.2637 H   0  0  0  0  0  0  0  0  0  0  0  0
  152.0289  145.5556  159.0691 H   0  0  0  0  0  0  0  0  0  0  0  0
  152.7800  143.6579  160.9443 H   0  0  0  0  0  0  0  0  0  0  0  0
  1  2  1  0  0  0  0
  1 20  1  0  0  0  0
  1 21  1  0  0  0  0
  1 22  1  0  0  0  0
  2  3  1  0  0  0  0
  2 13  1  0  0  0  0
  2 23  1  0  0  0  0
  3  4  1  0  0  0  0
  3 24  1  0  0  0  0
  4  5  1  0  0  0  0
  4 25  1  0  0  0  0
  4 26  1  0  0  0  0
  5  6  1  0  0  0  0
  5 27  1  0  0  0  0
  5 28  1  0  0  0  0
  6 11  1  0  0  0  0
  6  7  1  0  0  0  0
  7  8  2  0  0  0  0
  7  9  1  0  0  0  0
  9 10  1  0  0  0  0
  9 29  1  0  0  0  0
  9 30  1  0  0  0  0
 10 11  1  0  0  0  0
 11 12  2  0  0  0  0
 13 14  1  0  0  0  0
 13 15  1  0  0  0  0
 13 31  1  0  0  0  0
 14 32  1  0  0  0  0
 14 33  1  0  0  0  0
 14 34  1  0  0  0  0
 15 19  1  0  0  0  0
 15 16  1  0  0  0  0
 16 17  2  0  0  0  0
 16 35  1  0  0  0  0
 17 18  1  0  0  0  0
 17 36  1  0  0  0  0
 18 19  2  0  0  0  0
 18 37  1  0  0  0  0
M  CHG  1  10  -1
M  END
> <s_m_source_file>
AV-unprocessed.smi

> <i_m_source_file_index>
3330

> <i_lp_mmshare_version>
43012

> <i_f3d_flags>
0

> <s_epik_input>
bjFbY0hdW2NIXVtjSF1uMVtDQEBIXShbQ0gzXSlbQ0BIXShbQ0gzXSlbTkhdW0NIMl1bQ0gyXU4yQyg9TylbQ0gyXVtOSF1DMj1P

> <s_epik_cmdline>
J2VwaWtfcHl0aG9uJywgJy1waCcsICc3LjAnLCAnLXRuJywgJzgnLCAnLW1hJywgJzIwMCcsICctbWV0YWxfYmluZGluZycsICctaW1hZScsICc8aW5maWxlLm1hZT4nLCAnLW9tYWUnLCAnPG91dGZpbGUubWFlPic=

> <r_lp_tautomer_probability>
1

> <r_epik_Ionization_Penalty>
8.77477

> <r_epik_Ionization_Penalty_Charging>
6.28461

> <r_epik_Ionization_Penalty_Neutral>
2.49016

> <r_epik_State_Penalty>
8.73376

> <r_epik_Charging_Adjusted_Penalty>
15.0184

> <i_epik_Tot_Q>
-1

> <i_epik_Tot_abs_Q>
1

> <r_epik_Metal_State_Penalty>
4.73175

> <b_epik_Metal_Only>
1

> <s_lp_Force_Field>
OPLS_2005

> <r_lp_Energy>
21.1742

> <b_lp_Chiralities_Consistent>
1

> <s_lp_Variant>
AV-unprocessed.smi:3330-13

> <Gold.Version>
5.8.1

> <Gold.Id.Protein>
6NUR|6NUR_protein|mol2

> <Gold.PLP.Fitness>
43.7238

> <Gold.PLP.PLP>
-33.1936

> <Gold.PLP.part.hbond>
-2.8060

> <Gold.PLP.part.metal>
0.0000

> <Gold.PLP.part.buried>
-3.3634

> <Gold.PLP.part.nonpolar>
-27.3203

> <Gold.PLP.part.repulsive>
0.0000

> <Gold.PLP.ligand.clash>
0.0000

> <Gold.PLP.ligand.torsion>
0.2459

> <Gold.PLP.Chemscore.Hbond>
2.6320

> <Gold.PLP.Chemscore.CHOScore>
1.0000

> <Gold.PLP.Chemscore.Metal>
0.0000

> <Gold.Chemscore.Hbonds>
donor molecule, donor type, donor heavy atom, donor atom, acceptor molecule, acceptor atom, score
      P1  H  6896  6908       L1     8  1.00
      P1  H  6931  6943       L1    12  0.11
      P1  H  6934  6947       L1    12  1.00
      L1  C    16    35       P1  8028  1.00

> <Gold.PLP.Chemscore.Internal.Correction>
0.1261

> <Gold.Rescore>
     Score         DG    S(hbond)    S(metal)    S(lipo)     H(rot)  DE(clash)    DE(int)     intcor
     12.20     -13.80       1.94        0.00      70.74       2.52       0.04       1.56       ----

> <Gold.Chemscore.Fitness>
12.1983

> <Gold.Chemscore.DG>
-13.8006

> <Gold.Chemscore.ZeroCoef>
-5.4800

> <Gold.Chemscore.Hbond>
1.9418

> <Gold.Chemscore.Metal>
0.0000

> <Gold.Chemscore.Lipo>
70.7355

> <Gold.Chemscore.Internal_Hbond>
0.0000

> <Gold.Chemscore.DEClash>
0.0419

> <Gold.Chemscore.DEInternal>
1.5605

> <Gold.Chemscore.Rot>
2.5160

> <Gold.Chemscore.Internal.Correction>
   9.000000E+99

> <Gold.Chemscore.Hbonds>
donor molecule, donor type, donor heavy atom, donor atom, acceptor molecule, acceptor atom, score
      P1  H  6896  6908       L1     8  0.38
      P1  H  6931  6943       L1    12  0.06
      P1  H  6934  6947       L1    12  1.00

> <Gold.Chemscore.Hbond.Weighted>
-6.4856

> <Gold.Chemscore.Metal.Weighted>
-0.0000

> <Gold.Chemscore.Lipo.Weighted>
-8.2761

> <Gold.Chemscore.Internal_Hbond.Weighted>
0.0000

> <Gold.Chemscore.DEClash.Weighted>
0.0419

> <Gold.Chemscore.DEInternal.Weighted>
1.5605

> <Gold.Chemscore.Rot.Weighted>
6.4410

> <Gold.Chemscore.Internal.Correction.Weighted>
   9.000000E+99

> <Gold.Protein.RotatedTorsions>
[ 6907 6896 6895 6894 ] final  122.22 input  -60.11 | X-H torsion
[ 7974 7965 7964 7962 ] final  118.50 input  175.53 | X-H torsion
[ 8008 7997 7996 7995 ] final   13.64 input   59.86 | X-H torsion
[ 10167 10162 10161 10158 ] final  -80.74 input  -65.29 | X-H torsion
[ 10718 10713 10712 10709 ] final  150.04 input   66.30 | X-H torsion
[ 10763 10752 10751 10750 ] final  -31.87 input  -60.55 | X-H torsion
[ 11005 11000 10999 10996 ] final -127.02 input  -57.11 | X-H torsion

> <Gold.Protein.ActiveResidues>
 VAL166  LYS551  ARG553  GLY616  TRP617  ASP618  TYR619  PRO620  LYS621  CYS622 
 ASP623  PHE694  ASN695  SER759  ASP760  ASP761  ALA762  ILE779  LEU786  VAL792 
 PHE793  MET794  SER795  GLU796  ALA797  LYS798  CYS799  TRP800  GLU811  SER814 

> <Gold.Protein.RotatedAtoms>
  152.4260  133.7196  159.6525 H   0  0  0  0  0  0  0  0  0  0  0  0  # atno 6907 bound_to 6896
  150.8137  133.8365  159.3176 H   0  0  0  0  0  0  0  0  0  0  0  0  # atno 6908 bound_to 6896
  151.6068  135.1045  160.0124 H   0  0  0  0  0  0  0  0  0  0  0  0  # atno 6909 bound_to 6896
  145.1544  139.3191  143.4550 H   0  0  0  0  0  0  0  0  0  0  0  0  # atno 7974 bound_to 7965
  154.8373  140.2909  155.5683 H   0  0  0  0  0  0  0  0  0  0  0  0  # atno 8008 bound_to 7997
  156.3009  140.2521  156.3240 H   0  0  0  0  0  0  0  0  0  0  0  0  # atno 8009 bound_to 7997
  154.9165  140.0387  157.1964 H   0  0  0  0  0  0  0  0  0  0  0  0  # atno 8010 bound_to 7997
  140.4476  143.2493  151.8536 H   0  0  0  0  0  0  0  0  0  0  0  0  # atno 10167 bound_to 10162
  157.2885  131.0849  151.1479 H   0  0  0  0  0  0  0  0  0  0  0  0  # atno 10718 bound_to 10713
  153.8045  135.6887  153.4850 H   0  0  0  0  0  0  0  0  0  0  0  0  # atno 10763 bound_to 10752
  153.1667  135.4558  154.9846 H   0  0  0  0  0  0  0  0  0  0  0  0  # atno 10764 bound_to 10752
  154.7993  135.3331  154.7531 H   0  0  0  0  0  0  0  0  0  0  0  0  # atno 10765 bound_to 10752
  140.9634  134.0906  157.3945 H   0  0  0  0  0  0  0  0  0  0  0  0  # atno 11005 bound_to 11000
  146.3490  140.1631  142.8590 LP  0  0  0  0  0  0  0  0  0  0  0  0  # atno 17320 bound_to 7965
  145.0396  140.8935  143.5060 LP  0  0  0  0  0  0  0  0  0  0  0  0  # atno 17321 bound_to 7965
  139.4794  144.5157  151.8871 LP  0  0  0  0  0  0  0  0  0  0  0  0  # atno 17342 bound_to 10162
  140.4245  144.2198  150.5887 LP  0  0  0  0  0  0  0  0  0  0  0  0  # atno 17343 bound_to 10162
  157.2885  130.6785  149.6102 LP  0  0  0  0  0  0  0  0  0  0  0  0  # atno 17370 bound_to 10713
  155.9666  130.4428  150.5395 LP  0  0  0  0  0  0  0  0  0  0  0  0  # atno 17371 bound_to 10713
  139.8886  135.0099  156.6629 LP  0  0  0  0  0  0  0  0  0  0  0  0  # atno 17394 bound_to 11000
  140.7435  133.8957  155.8295 LP  0  0  0  0  0  0  0  0  0  0  0  0  # atno 17395 bound_to 11000

$$$$
