AV-unprocessed.smi:304|AV-procd|sdf|2276|dock3
  -GOLD-   2262022173D 1   1.00000     0.00000
 Structure written by MMmdl.
 36 38  0  0  0  0  0  0  0  0  1 V2000
  149.2565  141.0933  153.2737 O   0  0  0  0  0  0  0  0  0  0  0  0
  149.3080  140.8659  154.6688 C   0  0  2  0  0  0  0  0  0  0  0  0
  147.8730  140.8942  155.2175 C   0  0  0  0  0  0  0  0  0  0  0  0
  147.1801  141.9881  154.6405 O   0  0  0  0  0  0  0  0  0  0  0  0
  146.0571  142.3917  155.4074 C   0  0  0  0  0  0  0  0  0  0  0  0
  145.3889  143.5139  154.6795 C   0  0  0  0  0  0  0  0  0  0  0  0
  145.6539  143.9438  153.4041 C   0  0  0  0  0  0  0  0  0  0  0  0
  144.8285  145.0314  152.9927 C   0  0  0  0  0  0  0  0  0  0  0  0
  143.9347  145.4138  153.9569 C   0  0  0  0  0  0  0  0  0  0  0  0
  144.0895  144.4409  155.3938 S   0  0  0  0  0  0  0  0  0  0  0  0
  150.1939  141.9439  155.3231 C   0  0  0  0  0  0  0  0  0  0  0  0
  151.0541  141.4051  156.3620 N   0  0  0  0  0  0  0  0  0  0  0  0
  151.6775  140.2114  156.3575 C   0  0  0  0  0  0  0  0  0  0  0  0
  152.4224  139.9088  157.4169 N   0  0  0  0  0  0  0  0  0  0  0  0
  152.2655  141.0391  158.2007 C   0  0  0  0  0  0  0  0  0  0  0  0
  152.8018  141.3569  159.4689 C   0  0  0  0  0  0  0  0  0  0  0  0
  152.4993  142.5893  160.0847 C   0  0  0  0  0  0  0  0  0  0  0  0
  153.0216  142.8778  161.3004 F   0  0  0  0  0  0  0  0  0  0  0  0
  151.6577  143.5215  159.4422 C   0  0  0  0  0  0  0  0  0  0  0  0
  151.3737  144.7029  160.0397 F   0  0  0  0  0  0  0  0  0  0  0  0
  151.1113  143.2267  158.1785 C   0  0  0  0  0  0  0  0  0  0  0  0
  151.4147  141.9955  157.5686 C   0  0  0  0  0  0  0  0  0  0  0  0
  149.5172  140.2988  152.8329 H   0  0  0  0  0  0  0  0  0  0  0  0
  149.7505  139.8854  154.8514 H   0  0  0  0  0  0  0  0  0  0  0  0
  147.3545  139.9762  154.9359 H   0  0  0  0  0  0  0  0  0  0  0  0
  147.8670  140.9469  156.3077 H   0  0  0  0  0  0  0  0  0  0  0  0
  145.3640  141.5589  155.5364 H   0  0  0  0  0  0  0  0  0  0  0  0
  146.3720  142.7240  156.3974 H   0  0  0  0  0  0  0  0  0  0  0  0
  146.4080  143.5199  152.7578 H   0  0  0  0  0  0  0  0  0  0  0  0
  144.9168  145.4869  152.0174 H   0  0  0  0  0  0  0  0  0  0  0  0
  143.1972  146.2013  153.9109 H   0  0  0  0  0  0  0  0  0  0  0  0
  150.8149  142.4361  154.5736 H   0  0  0  0  0  0  0  0  0  0  0  0
  149.5721  142.7213  155.7692 H   0  0  0  0  0  0  0  0  0  0  0  0
  151.5786  139.5259  155.5284 H   0  0  0  0  0  0  0  0  0  0  0  0
  153.4480  140.6514  159.9697 H   0  0  0  0  0  0  0  0  0  0  0  0
  150.4693  143.9397  157.6830 H   0  0  0  0  0  0  0  0  0  0  0  0
  1  2  1  0  0  0  0
  1 23  1  0  0  0  0
  2  3  1  0  0  0  0
  2 11  1  0  0  0  0
  2 24  1  0  0  0  0
  3  4  1  0  0  0  0
  3 25  1  0  0  0  0
  3 26  1  0  0  0  0
  4  5  1  0  0  0  0
  5  6  1  0  0  0  0
  5 27  1  0  0  0  0
  5 28  1  0  0  0  0
  6 10  1  0  0  0  0
  6  7  2  0  0  0  0
  7  8  1  0  0  0  0
  7 29  1  0  0  0  0
  8  9  2  0  0  0  0
  8 30  1  0  0  0  0
  9 10  1  0  0  0  0
  9 31  1  0  0  0  0
 11 12  1  0  0  0  0
 11 32  1  0  0  0  0
 11 33  1  0  0  0  0
 12 22  1  0  0  0  0
 12 13  1  0  0  0  0
 13 14  2  0  0  0  0
 13 34  1  0  0  0  0
 14 15  1  0  0  0  0
 15 22  2  0  0  0  0
 15 16  1  0  0  0  0
 16 17  2  0  0  0  0
 16 35  1  0  0  0  0
 17 18  1  0  0  0  0
 17 19  1  0  0  0  0
 19 20  1  0  0  0  0
 19 21  2  0  0  0  0
 21 22  1  0  0  0  0
 21 36  1  0  0  0  0
M  END
> <s_m_source_file>
AV-unprocessed.smi

> <i_m_source_file_index>
304

> <i_lp_mmshare_version>
43012

> <i_f3d_flags>
0

> <s_epik_input>
W2NIXTFjKEYpYyhGKVtjSF1jKGMxMiluKFtjSF1uMilbQ0gyXVtDQEhdKFtPSF0pW0NIMl1PW0NIMl1jM1tjSF1bY0hdW2NIXXMz

> <s_epik_cmdline>
J2VwaWtfcHl0aG9uJywgJy1waCcsICc3LjAnLCAnLXRuJywgJzgnLCAnLW1hJywgJzIwMCcsICctbWV0YWxfYmluZGluZycsICctaW1hZScsICc8aW5maWxlLm1hZT4nLCAnLW9tYWUnLCAnPG91dGZpbGUubWFlPic=

> <r_epik_Ionization_Penalty>
0.0152118

> <r_epik_Ionization_Penalty_Charging>
0

> <r_epik_Ionization_Penalty_Neutral>
0.0152118

> <r_epik_State_Penalty>
0.0119413

> <r_epik_Charging_Adjusted_Penalty>
0.0119413

> <i_epik_Tot_Q>
0

> <i_epik_Tot_abs_Q>
0

> <r_epik_Metal_State_Penalty>
1.20623e-05

> <b_epik_Metal_Only>
0

> <s_lp_Force_Field>
OPLS_2005

> <r_lp_Energy>
8.33782

> <b_lp_Chiralities_Consistent>
1

> <s_lp_Variant>
AV-unprocessed.smi:304-1

> <Gold.Version>
5.8.1

> <Gold.Id.Protein>
6NUR|6NUR_protein|mol2

> <Gold.PLP.Fitness>
58.2695

> <Gold.PLP.PLP>
-52.7702

> <Gold.PLP.part.hbond>
-3.4993

> <Gold.PLP.part.metal>
0.0000

> <Gold.PLP.part.buried>
-6.2000

> <Gold.PLP.part.nonpolar>
-42.9126

> <Gold.PLP.part.repulsive>
0.1430

> <Gold.PLP.ligand.clash>
0.0000

> <Gold.PLP.ligand.torsion>
1.2103

> <Gold.PLP.Chemscore.Hbond>
2.5993

> <Gold.PLP.Chemscore.CHOScore>
0.0000

> <Gold.PLP.Chemscore.Metal>
0.0000

> <Gold.Chemscore.Hbonds>
donor molecule, donor type, donor heavy atom, donor atom, acceptor molecule, acceptor atom, score
      L1  H     1    23       P1  7957  0.54
      P1  H  7997  8008       L1    14  0.81
      P1  H  8011  8017       L1     1  1.00

> <Gold.PLP.Chemscore.Internal.Correction>
0.1221

> <Gold.Rescore>
     Score         DG    S(hbond)    S(metal)    S(lipo)     H(rot)  DE(clash)    DE(int)     intcor
     15.14     -16.24       1.58        0.00     104.70       2.64       0.21       0.90       ----

> <Gold.Chemscore.Fitness>
15.1384

> <Gold.Chemscore.DG>
-16.2439

> <Gold.Chemscore.ZeroCoef>
-5.4800

> <Gold.Chemscore.Hbond>
1.5787

> <Gold.Chemscore.Metal>
0.0000

> <Gold.Chemscore.Lipo>
104.7030

> <Gold.Chemscore.Internal_Hbond>
0.0000

> <Gold.Chemscore.DEClash>
0.2100

> <Gold.Chemscore.DEInternal>
0.8955

> <Gold.Chemscore.Rot>
2.6403

> <Gold.Chemscore.Internal.Correction>
   9.000000E+99

> <Gold.Chemscore.Hbonds>
donor molecule, donor type, donor heavy atom, donor atom, acceptor molecule, acceptor atom, score
      L1  H     1    23       P1  7957  0.54
      P1  H  7997  8008       L1    14  0.14
      P1  H  8011  8017       L1     1  0.60

> <Gold.Chemscore.Hbond.Weighted>
-5.2728

> <Gold.Chemscore.Metal.Weighted>
-0.0000

> <Gold.Chemscore.Lipo.Weighted>
-12.2503

> <Gold.Chemscore.Internal_Hbond.Weighted>
0.0000

> <Gold.Chemscore.DEClash.Weighted>
0.2100

> <Gold.Chemscore.DEInternal.Weighted>
0.8955

> <Gold.Chemscore.Rot.Weighted>
6.7592

> <Gold.Chemscore.Internal.Correction.Weighted>
   9.000000E+99

> <Gold.Protein.RotatedTorsions>
[ 6907 6896 6895 6894 ] final -100.21 input  -60.11 | X-H torsion
[ 7974 7965 7964 7962 ] final -124.07 input  175.53 | X-H torsion
[ 8008 7997 7996 7995 ] final  -65.93 input   59.86 | X-H torsion
[ 10167 10162 10161 10158 ] final   -5.46 input  -65.29 | X-H torsion
[ 10718 10713 10712 10709 ] final  157.31 input   66.30 | X-H torsion
[ 10763 10752 10751 10750 ] final  106.29 input  -60.55 | X-H torsion
[ 11005 11000 10999 10996 ] final -106.55 input  -57.11 | X-H torsion

> <Gold.Protein.ActiveResidues>
 VAL166  LYS551  ARG553  GLY616  TRP617  ASP618  TYR619  PRO620  LYS621  CYS622 
 ASP623  PHE694  ASN695  SER759  ASP760  ASP761  ALA762  ILE779  LEU786  VAL792 
 PHE793  MET794  SER795  GLU796  ALA797  LYS798  CYS799  TRP800  GLU811  SER814 

> <Gold.Protein.RotatedAtoms>
  150.7107  134.0922  159.3935 H   0  0  0  0  0  0  0  0  0  0  0  0  # atno 6907 bound_to 6896
  151.8907  135.0415  160.0507 H   0  0  0  0  0  0  0  0  0  0  0  0  # atno 6908 bound_to 6896
  152.2493  133.5166  159.5353 H   0  0  0  0  0  0  0  0  0  0  0  0  # atno 6909 bound_to 6896
  145.0120  140.7914  143.4433 H   0  0  0  0  0  0  0  0  0  0  0  0  # atno 7974 bound_to 7965
  154.4702  140.0923  156.7126 H   0  0  0  0  0  0  0  0  0  0  0  0  # atno 8008 bound_to 7997
  155.4744  140.3465  155.4312 H   0  0  0  0  0  0  0  0  0  0  0  0  # atno 8009 bound_to 7997
  156.1026  140.1426  156.9435 H   0  0  0  0  0  0  0  0  0  0  0  0  # atno 8010 bound_to 7997
  140.6964  143.6306  150.8527 H   0  0  0  0  0  0  0  0  0  0  0  0  # atno 10167 bound_to 10162
  157.1932  131.0659  151.2067 H   0  0  0  0  0  0  0  0  0  0  0  0  # atno 10718 bound_to 10713
  153.3910  135.3882  155.1923 H   0  0  0  0  0  0  0  0  0  0  0  0  # atno 10763 bound_to 10752
  154.8719  135.3748  154.4738 H   0  0  0  0  0  0  0  0  0  0  0  0  # atno 10764 bound_to 10752
  153.5224  135.7086  153.5786 H   0  0  0  0  0  0  0  0  0  0  0  0  # atno 10765 bound_to 10752
  141.0999  133.8903  157.1870 H   0  0  0  0  0  0  0  0  0  0  0  0  # atno 11005 bound_to 11000
  145.2011  139.2252  143.5192 LP  0  0  0  0  0  0  0  0  0  0  0  0  # atno 17320 bound_to 7965
  146.3471  140.1828  142.8589 LP  0  0  0  0  0  0  0  0  0  0  0  0  # atno 17321 bound_to 7965
  140.0024  143.5730  152.2870 LP  0  0  0  0  0  0  0  0  0  0  0  0  # atno 17342 bound_to 10162
  139.6424  144.7655  151.2312 LP  0  0  0  0  0  0  0  0  0  0  0  0  # atno 17343 bound_to 10162
  157.3840  130.7246  149.6650 LP  0  0  0  0  0  0  0  0  0  0  0  0  # atno 17370 bound_to 10713
  155.9709  130.4164  150.4231 LP  0  0  0  0  0  0  0  0  0  0  0  0  # atno 17371 bound_to 10713
  139.9847  135.0086  156.9833 LP  0  0  0  0  0  0  0  0  0  0  0  0  # atno 17394 bound_to 11000
  140.5048  134.1060  155.7258 LP  0  0  0  0  0  0  0  0  0  0  0  0  # atno 17395 bound_to 11000

$$$$
