#       Name:                AV-unprocessed.smi:704
#       Creating user name   scv26
#       Creation time:       Fri Mar 27 00:43:23 2020


#       File generated by GOLD software.
#

@<TRIPOS>MOLECULE
AV-unprocessed.smi:704
    45    46     1
SMALL
NO_CHARGES


@<TRIPOS>ATOM
      1 ****        -3.1003  -4.1045  -0.0337 C.3            1 S1                 0.0000
      2 ****        -2.4765  -2.8373   0.1428 O.3            1 S1                 0.0000
      3 ****        -3.2368  -1.6965  -0.0320 C.ar           1 S1                 0.0000
      4 ****        -4.5409  -1.8373  -0.3784 N.ar           1 S1                 0.0000
      5 ****        -5.2858  -0.7251  -0.5435 C.ar           1 S1                 0.0000
      6 ****        -4.7777   0.5750  -0.3680 C.ar           1 S1                 0.0000
      7 ****        -3.4253   0.7238  -0.0090 C.ar           1 S1                 0.0000
      8 ****        -2.6263  -0.4341   0.1536 C.ar           1 S1                 0.0000
      9 ****        -1.2554  -0.4039   0.5312 N.am           1 S1                 0.0000
     10 ****        -0.3703   0.5999   0.4135 C.2            1 S1                 0.0000
     11 ****        -0.6088   1.7112  -0.0581 O.2            1 S1                 0.0000
     12 ****         0.8376   0.2299   0.8612 N.am           1 S1                 0.0000
     13 ****         2.0333   1.0706   0.8657 C.3            1 S1                 0.0000
     14 ****         3.1010   0.4844   1.8035 C.3            1 S1                 0.0000
     15 ****         4.1296  -0.1760   0.8903 C.3            1 S1                 0.0000
     16 ****         4.1468   0.7116  -0.3507 C.3            1 S1                 0.0000
     17 ****         2.6852   1.1563  -0.5420 C.3            1 S1                 0.0000
     18 ****         2.5677   2.5566  -1.1641 C.2            1 S1                 0.0000
     19 ****         1.8812   2.6594  -2.3047 N.am           1 S1                 0.0000
     20 ****         3.0858   3.5323  -0.6241 O.2            1 S1                 0.0000
     21 ****        -2.3681  -4.8930   0.1391 H              1 S1                 0.0000
     22 ****        -3.4821  -4.2246  -1.0486 H              1 S1                 0.0000
     23 ****        -3.9158  -4.2494   0.6764 H              1 S1                 0.0000
     24 ****        -6.3194  -0.8763  -0.8172 H              1 S1                 0.0000
     25 ****        -5.4119   1.4389  -0.5005 H              1 S1                 0.0000
     26 ****        -3.0364   1.7176   0.1473 H              1 S1                 0.0000
     27 ****        -0.8860  -1.2806   0.8690 H              1 S1                 0.0000
     28 ****         0.9422  -0.7061   1.2245 H              1 S1                 0.0000
     29 ****         1.7505   2.0548   1.2459 H              1 S1                 0.0000
     30 ****         3.5815   1.2970   2.3501 H              1 S1                 0.0000
     31 ****         2.6973  -0.2065   2.5448 H              1 S1                 0.0000
     32 ****         5.1110  -0.2659   1.3568 H              1 S1                 0.0000
     33 ****         3.7928  -1.1783   0.6220 H              1 S1                 0.0000
     34 ****         4.8051   1.5637  -0.1732 H              1 S1                 0.0000
     35 ****         4.5310   0.1791  -1.2213 H              1 S1                 0.0000
     36 ****         2.2080   0.4327  -1.2063 H              1 S1                 0.0000
     37 ****         1.7876   3.5558  -2.7593 H              1 S1                 0.0000
     38 ****         1.4689   1.8349  -2.7162 H              1 S1                 0.0000
     39 ****        -1.7181  -2.7888  -0.5073 LP             1 S1                 0.0000
     40 ****        -2.1177  -2.8126   1.0759 LP             1 S1                 0.0000
     41 ****        -4.9406  -2.7447  -0.5083 LP             1 S1                 0.0000
     42 ****        -1.5262   1.9257  -0.3933 LP             1 S1                 0.0000
     43 ****         0.1148   2.3997  -0.1062 LP             1 S1                 0.0000
     44 ****         3.5917   3.4204   0.2312 LP             1 S1                 0.0000
     45 ****         3.0013   4.4376  -1.0403 LP             1 S1                 0.0000
@<TRIPOS>BOND
    1    1    2 1     
    2    1   21 1     
    3    1   22 1     
    4    1   23 1     
    5    2    3 1     
    6    3    8 ar    
    7    3    4 ar    
    8    4    5 ar    
    9    5    6 ar    
   10    5   24 1     
   11    6    7 ar    
   12    6   25 1     
   13    7    8 ar    
   14    7   26 1     
   15    8    9 1     
   16    9   10 am    
   17    9   27 1     
   18   10   11 2     
   19   10   12 am    
   20   12   13 1     
   21   12   28 1     
   22   13   17 1     
   23   13   14 1     
   24   13   29 1     
   25   14   15 1     
   26   14   30 1     
   27   14   31 1     
   28   15   16 1     
   29   15   32 1     
   30   15   33 1     
   31   16   17 1     
   32   16   34 1     
   33   16   35 1     
   34   17   18 1     
   35   17   36 1     
   36   18   19 am    
   37   18   20 2     
   38   19   37 1     
   39   19   38 1     
   40    2   39 1     
   41    2   40 1     
   42    4   41 1     
   43   11   42 1     
   44   11   43 1     
   45   20   44 1     
   46   20   45 1     
@<TRIPOS>SUBSTRUCTURE
      1 S1             1
@<TRIPOS>SET
LONE_PAIRS      STATIC     ATOMS    <user>   **** ""
7 39 40 41 42 43 44 45
DONOR_HYDROGENS      STATIC     ATOMS    <user>   **** ""
4 27 28 37 38
ATOM$BLUE        STATIC     ATOMS    COLORGROUP SYSTEM
7 39 40 41 42 43 44 45
ATOM$RED        STATIC     ATOMS    COLORGROUP SYSTEM
4 27 28 37 38
