AV-unprocessed.smi:1268|AV-procd|sdf|5326|dock9
  -GOLD-   22720 4453D 1   1.00000     0.00000
 Structure written by MMmdl.
 39 40  0  0  0  0  0  0  0  0  3 V2000
  147.2257  136.5860  158.0647 O   0  0  0  0  0  0  0  0  0  0  0  0
  148.4370  136.4508  158.2556 C   0  0  0  0  0  0  0  0  0  0  0  0
  149.3129  137.0386  157.4281 N   0  0  0  0  0  0  0  0  0  0  0  0
  148.9717  137.8667  156.2757 C   0  0  0  0  0  0  0  0  0  0  0  0
  148.7688  137.0209  155.0016 C   0  0  1  0  0  0  0  0  0  0  0  0
  150.0399  136.7558  154.4412 O   0  0  0  0  0  0  0  0  0  0  0  0
  148.1077  135.6660  155.3215 C   0  0  0  0  0  0  0  0  0  0  0  0
  147.7350  134.9135  154.0963 N   0  3  0  0  0  0  0  0  0  0  0  0
  146.2773  134.9572  153.8002 C   0  0  0  0  0  0  0  0  0  0  0  0
  145.9648  134.2815  152.4544 C   0  0  0  0  0  0  0  0  0  0  0  0
  146.4810  132.8371  152.4312 C   0  0  0  0  0  0  0  0  0  0  0  0
  147.9759  132.8101  152.7751 C   0  0  0  0  0  0  0  0  0  0  0  0
  148.2480  133.5190  154.1126 C   0  0  0  0  0  0  0  0  0  0  0  0
  149.0185  135.7517  159.2556 N   0  5  0  0  0  0  0  0  0  0  0  0
  148.3704  135.5778  160.4190 C   0  0  0  0  0  0  0  0  0  0  0  0
  148.3348  136.5078  161.3801 N   0  0  0  0  0  0  0  0  0  0  0  0
  147.6000  136.1194  162.5018 C   0  0  0  0  0  0  0  0  0  0  0  0
  147.0575  134.8668  162.3891 C   0  0  0  0  0  0  0  0  0  0  0  0
  147.4546  134.1341  160.8611 S   0  0  0  0  0  0  0  0  0  0  0  0
  150.2946  136.8972  157.6166 H   0  0  0  0  0  0  0  0  0  0  0  0
  148.0832  138.4574  156.5021 H   0  0  0  0  0  0  0  0  0  0  0  0
  149.7785  138.5865  156.1263 H   0  0  0  0  0  0  0  0  0  0  0  0
  148.1691  137.5715  154.2777 H   0  0  0  0  0  0  0  0  0  0  0  0
  149.9301  136.6131  153.5126 H   0  0  0  0  0  0  0  0  0  0  0  0
  148.7993  135.0778  155.9273 H   0  0  0  0  0  0  0  0  0  0  0  0
  147.2162  135.8087  155.9346 H   0  0  0  0  0  0  0  0  0  0  0  0
  145.7274  134.4629  154.6027 H   0  0  0  0  0  0  0  0  0  0  0  0
  145.9239  135.9870  153.7672 H   0  0  0  0  0  0  0  0  0  0  0  0
  144.8902  134.2960  152.2701 H   0  0  0  0  0  0  0  0  0  0  0  0
  146.4252  134.8493  151.6446 H   0  0  0  0  0  0  0  0  0  0  0  0
  145.9254  132.2343  153.1508 H   0  0  0  0  0  0  0  0  0  0  0  0
  146.3109  132.3908  151.4509 H   0  0  0  0  0  0  0  0  0  0  0  0
  148.3289  131.7793  152.8201 H   0  0  0  0  0  0  0  0  0  0  0  0
  148.5435  133.2969  151.9807 H   0  0  0  0  0  0  0  0  0  0  0  0
  149.3226  133.5237  154.2997 H   0  0  0  0  0  0  0  0  0  0  0  0
  147.7847  132.9691  154.9334 H   0  0  0  0  0  0  0  0  0  0  0  0
  147.5138  136.7996  163.3360 H   0  0  0  0  0  0  0  0  0  0  0  0
  146.4514  134.3336  163.1055 H   0  0  0  0  0  0  0  0  0  0  0  0
  148.2063  135.3775  153.3325 H   0  0  0  0  0  0  0  0  0  0  0  0
  1  2  2  0  0  0  0
  2  3  1  0  0  0  0
  2 14  1  0  0  0  0
  3  4  1  0  0  0  0
  3 20  1  0  0  0  0
  4  5  1  0  0  0  0
  4 21  1  0  0  0  0
  4 22  1  0  0  0  0
  5  6  1  0  0  0  0
  5  7  1  0  0  0  0
  5 23  1  0  0  0  0
  6 24  1  0  0  0  0
  7  8  1  0  0  0  0
  7 25  1  0  0  0  0
  7 26  1  0  0  0  0
  8 13  1  0  0  0  0
  8  9  1  0  0  0  0
  8 39  1  0  0  0  0
  9 10  1  0  0  0  0
  9 27  1  0  0  0  0
  9 28  1  0  0  0  0
 10 11  1  0  0  0  0
 10 29  1  0  0  0  0
 10 30  1  0  0  0  0
 11 12  1  0  0  0  0
 11 31  1  0  0  0  0
 11 32  1  0  0  0  0
 12 13  1  0  0  0  0
 12 33  1  0  0  0  0
 12 34  1  0  0  0  0
 13 35  1  0  0  0  0
 13 36  1  0  0  0  0
 14 15  1  0  0  0  0
 15 19  1  0  0  0  0
 15 16  2  0  0  0  0
 16 17  1  0  0  0  0
 17 18  2  0  0  0  0
 17 37  1  0  0  0  0
 18 19  1  0  0  0  0
 18 38  1  0  0  0  0
M  CHG  1   8   1
M  CHG  1  14  -1
M  END
> <s_m_source_file>
AV-unprocessed.smi

> <i_m_source_file_index>
1268

> <i_lp_mmshare_version>
43012

> <i_f3d_flags>
0

> <s_epik_input>
czFbY0hdW2NIXW5jMVtOSF1DKD1PKVtOSF1bQ0gyXVtDQEhdKFtPSF0pW0NIMl1OMltDSDJdW0NIMl1bQ0gyXVtDSDJdW0NIMl0y

> <s_epik_cmdline>
J2VwaWtfcHl0aG9uJywgJy1waCcsICc3LjAnLCAnLXRuJywgJzgnLCAnLW1hJywgJzIwMCcsICctbWV0YWxfYmluZGluZycsICctaW1hZScsICc8aW5maWxlLm1hZT4nLCAnLW9tYWUnLCAnPG91dGZpbGUubWFlPic=

> <r_lp_tautomer_probability>
0.999

> <r_epik_Ionization_Penalty>
6.36291

> <r_epik_Ionization_Penalty_Charging>
5.4816

> <r_epik_Ionization_Penalty_Neutral>
0.881305

> <r_epik_State_Penalty>
5.4805

> <r_epik_Charging_Adjusted_Penalty>
10.9621

> <i_epik_Tot_Q>
0

> <i_epik_Tot_abs_Q>
2

> <r_epik_Metal_State_Penalty>
1.48871

> <b_epik_Metal_Only>
1

> <s_lp_Force_Field>
OPLS_2005

> <r_lp_Energy>
8.43067

> <b_lp_Chiralities_Consistent>
1

> <s_lp_Variant>
AV-unprocessed.smi:1268-4

> <Gold.Version>
5.8.1

> <Gold.Id.Protein>
6NUR|6NUR_protein|mol2

> <Gold.PLP.Fitness>
42.0695

> <Gold.PLP.PLP>
-28.3665

> <Gold.PLP.part.hbond>
-3.9809

> <Gold.PLP.part.metal>
0.0000

> <Gold.PLP.part.buried>
-4.5784

> <Gold.PLP.part.nonpolar>
-20.9991

> <Gold.PLP.part.repulsive>
0.0304

> <Gold.PLP.ligand.clash>
0.0000

> <Gold.PLP.ligand.torsion>
2.0198

> <Gold.PLP.Chemscore.Hbond>
5.8834

> <Gold.PLP.Chemscore.CHOScore>
0.0000

> <Gold.PLP.Chemscore.Metal>
0.0000

> <Gold.Chemscore.Hbonds>
donor molecule, donor type, donor heavy atom, donor atom, acceptor molecule, acceptor atom, score
      L1  H     6    24       P1  7948  0.95
      L1  H     8    39       P1  7948  2.00
      P1  H  6896  6908       L1    14  1.95
      P1  H  6931  6943       L1    16  1.00

> <Gold.PLP.Chemscore.Internal.Correction>
0.0924

> <Gold.Rescore>
     Score         DG    S(hbond)    S(metal)    S(lipo)     H(rot)  DE(clash)    DE(int)     intcor
     12.61     -14.74       2.73        0.00      55.51       2.48       0.14       2.00       ----

> <Gold.Chemscore.Fitness>
12.6058

> <Gold.Chemscore.DG>
-14.7442

> <Gold.Chemscore.ZeroCoef>
-5.4800

> <Gold.Chemscore.Hbond>
2.7326

> <Gold.Chemscore.Metal>
0.0000

> <Gold.Chemscore.Lipo>
55.5113

> <Gold.Chemscore.Internal_Hbond>
0.0000

> <Gold.Chemscore.DEClash>
0.1407

> <Gold.Chemscore.DEInternal>
1.9977

> <Gold.Chemscore.Rot>
2.4834

> <Gold.Chemscore.Internal.Correction>
   9.000000E+99

> <Gold.Chemscore.Hbonds>
donor molecule, donor type, donor heavy atom, donor atom, acceptor molecule, acceptor atom, score
      L1  H     6    24       P1  7948  0.21
      L1  H     8    39       P1  7948  1.00
      P1  H  6896  6908       L1    14  0.23
      P1  H  6931  6943       L1    16  0.39

> <Gold.Chemscore.Hbond.Weighted>
-9.1269

> <Gold.Chemscore.Metal.Weighted>
-0.0000

> <Gold.Chemscore.Lipo.Weighted>
-6.4948

> <Gold.Chemscore.Internal_Hbond.Weighted>
0.0000

> <Gold.Chemscore.DEClash.Weighted>
0.1407

> <Gold.Chemscore.DEInternal.Weighted>
1.9977

> <Gold.Chemscore.Rot.Weighted>
6.3575

> <Gold.Chemscore.Internal.Correction.Weighted>
   9.000000E+99

> <Gold.Protein.RotatedTorsions>
[ 6907 6896 6895 6894 ] final -174.88 input  -60.11 | X-H torsion
[ 7974 7965 7964 7962 ] final  -56.20 input  175.53 | X-H torsion
[ 8008 7997 7996 7995 ] final  -40.16 input   59.86 | X-H torsion
[ 10167 10162 10161 10158 ] final -161.96 input  -65.29 | X-H torsion
[ 10718 10713 10712 10709 ] final  -82.71 input   66.30 | X-H torsion
[ 10763 10752 10751 10750 ] final -139.31 input  -60.55 | X-H torsion
[ 11005 11000 10999 10996 ] final -106.41 input  -57.11 | X-H torsion

> <Gold.Protein.ActiveResidues>
 VAL166  LYS551  ARG553  GLY616  TRP617  ASP618  TYR619  PRO620  LYS621  CYS622 
 ASP623  PHE694  ASN695  SER759  ASP760  ASP761  ALA762  ILE779  LEU786  VAL792 
 PHE793  MET794  SER795  GLU796  ALA797  LYS798  CYS799  TRP800  GLU811  SER814 

> <Gold.Protein.RotatedAtoms>
  151.5795  133.3379  159.3005 H   0  0  0  0  0  0  0  0  0  0  0  0  # atno 6907 bound_to 6896
  150.8321  134.7582  159.6874 H   0  0  0  0  0  0  0  0  0  0  0  0  # atno 6908 bound_to 6896
  152.4403  134.5610  159.9945 H   0  0  0  0  0  0  0  0  0  0  0  0  # atno 6909 bound_to 6896
  145.8655  140.8255  142.9915 H   0  0  0  0  0  0  0  0  0  0  0  0  # atno 7974 bound_to 7965
  154.4015  140.1533  156.2981 H   0  0  0  0  0  0  0  0  0  0  0  0  # atno 8008 bound_to 7997
  155.8725  140.3448  155.5809 H   0  0  0  0  0  0  0  0  0  0  0  0  # atno 8009 bound_to 7997
  155.7758  140.0836  157.2075 H   0  0  0  0  0  0  0  0  0  0  0  0  # atno 8010 bound_to 7997
  139.6427  144.0229  152.2104 H   0  0  0  0  0  0  0  0  0  0  0  0  # atno 10167 bound_to 10162
  156.0029  130.4643  150.4146 H   0  0  0  0  0  0  0  0  0  0  0  0  # atno 10718 bound_to 10713
  154.8613  135.3586  154.5525 H   0  0  0  0  0  0  0  0  0  0  0  0  # atno 10763 bound_to 10752
  153.6143  135.7008  153.5339 H   0  0  0  0  0  0  0  0  0  0  0  0  # atno 10764 bound_to 10752
  153.3183  135.4159  155.1355 H   0  0  0  0  0  0  0  0  0  0  0  0  # atno 10765 bound_to 10752
  141.1006  133.8891  157.1852 H   0  0  0  0  0  0  0  0  0  0  0  0  # atno 11005 bound_to 11000
  144.6726  140.1159  143.7452 LP  0  0  0  0  0  0  0  0  0  0  0  0  # atno 17320 bound_to 7965
  145.9199  139.2539  143.1388 LP  0  0  0  0  0  0  0  0  0  0  0  0  # atno 17321 bound_to 7965
  139.9923  144.6353  150.7803 LP  0  0  0  0  0  0  0  0  0  0  0  0  # atno 17342 bound_to 10162
  140.7499  143.2946  151.3238 LP  0  0  0  0  0  0  0  0  0  0  0  0  # atno 17343 bound_to 10162
  157.2207  131.0482  151.2548 LP  0  0  0  0  0  0  0  0  0  0  0  0  # atno 17370 bound_to 10713
  157.3803  130.7228  149.6625 LP  0  0  0  0  0  0  0  0  0  0  0  0  # atno 17371 bound_to 10713
  139.9856  135.0083  156.9855 LP  0  0  0  0  0  0  0  0  0  0  0  0  # atno 17394 bound_to 11000
  140.5031  134.1077  155.7254 LP  0  0  0  0  0  0  0  0  0  0  0  0  # atno 17395 bound_to 11000

$$$$
