AV-unprocessed.smi:1995|AV-procd|sdf|8083|dock4
  -GOLD-   2272010293D 1   1.00000     0.00000
 Structure written by MMmdl.
 42 43  0  0  0  0  0  0  0  0  3 V2000
  152.1039  138.3956  154.9347 C   0  0  0  0  0  0  0  0  0  0  0  0
  151.2458  137.2040  154.4750 C   0  0  0  0  0  0  0  0  0  0  0  0
  149.9069  136.9795  155.2416 C   0  0  2  0  0  0  0  0  0  0  0  0
  149.1086  138.3104  155.2819 C   0  0  0  0  0  0  0  0  0  0  0  0
  150.1900  136.5752  156.7203 C   0  0  0  0  0  0  0  0  0  0  0  0
  148.9781  136.5968  157.5420 N   0  0  0  0  0  0  0  0  0  0  0  0
  148.9167  136.6243  158.8808 C   0  0  0  0  0  0  0  0  0  0  0  0
  149.9464  136.7502  159.5461 O   0  0  0  0  0  0  0  0  0  0  0  0
  147.6656  136.4725  159.3667 N   0  5  0  0  0  0  0  0  0  0  0  0
  147.4781  136.2909  160.6839 C   0  0  0  0  0  0  0  0  0  0  0  0
  147.3976  137.3042  161.5542 N   0  0  0  0  0  0  0  0  0  0  0  0
  147.2022  136.8887  162.8726 C   0  0  0  0  0  0  0  0  0  0  0  0
  147.1391  135.5274  163.0095 C   0  0  0  0  0  0  0  0  0  0  0  0
  147.3240  134.7217  161.4778 S   0  0  0  0  0  0  0  0  0  0  0  0
  149.0904  135.8909  154.5873 N   0  3  0  0  0  0  0  0  0  0  0  0
  149.6141  134.4992  154.6710 C   0  0  0  0  0  0  0  0  0  0  0  0
  148.7850  133.5671  153.7677 C   0  0  0  0  0  0  0  0  0  0  0  0
  147.4095  133.6295  154.1212 O   0  0  0  0  0  0  0  0  0  0  0  0
  146.8854  134.9424  153.9735 C   0  0  0  0  0  0  0  0  0  0  0  0
  147.6392  135.8869  154.9206 C   0  0  0  0  0  0  0  0  0  0  0  0
  153.0285  138.4399  154.3590 H   0  0  0  0  0  0  0  0  0  0  0  0
  152.3833  138.3154  155.9847 H   0  0  0  0  0  0  0  0  0  0  0  0
  151.5931  139.3472  154.7898 H   0  0  0  0  0  0  0  0  0  0  0  0
  151.0387  137.3306  153.4119 H   0  0  0  0  0  0  0  0  0  0  0  0
  151.8728  136.3159  154.5535 H   0  0  0  0  0  0  0  0  0  0  0  0
  149.5830  139.0460  155.9318 H   0  0  0  0  0  0  0  0  0  0  0  0
  148.0977  138.1653  155.6651 H   0  0  0  0  0  0  0  0  0  0  0  0
  149.0306  138.7705  154.2963 H   0  0  0  0  0  0  0  0  0  0  0  0
  150.6822  135.6042  156.7795 H   0  0  0  0  0  0  0  0  0  0  0  0
  150.8910  137.2731  157.1778 H   0  0  0  0  0  0  0  0  0  0  0  0
  148.1005  136.5170  157.0492 H   0  0  0  0  0  0  0  0  0  0  0  0
  147.1210  137.6315  163.6520 H   0  0  0  0  0  0  0  0  0  0  0  0
  146.9974  134.9520  163.9119 H   0  0  0  0  0  0  0  0  0  0  0  0
  150.6469  134.4298  154.3352 H   0  0  0  0  0  0  0  0  0  0  0  0
  149.5848  134.1515  155.7043 H   0  0  0  0  0  0  0  0  0  0  0  0
  148.9108  133.8358  152.7173 H   0  0  0  0  0  0  0  0  0  0  0  0
  149.1291  132.5382  153.8745 H   0  0  0  0  0  0  0  0  0  0  0  0
  146.9683  135.2743  152.9369 H   0  0  0  0  0  0  0  0  0  0  0  0
  145.8241  134.9284  154.2215 H   0  0  0  0  0  0  0  0  0  0  0  0
  147.4884  135.5527  155.9477 H   0  0  0  0  0  0  0  0  0  0  0  0
  147.2099  136.8840  154.8483 H   0  0  0  0  0  0  0  0  0  0  0  0
  149.1348  136.1192  153.6033 H   0  0  0  0  0  0  0  0  0  0  0  0
  1  2  1  0  0  0  0
  1 21  1  0  0  0  0
  1 22  1  0  0  0  0
  1 23  1  0  0  0  0
  2  3  1  0  0  0  0
  2 24  1  0  0  0  0
  2 25  1  0  0  0  0
  3  4  1  0  0  0  0
  3  5  1  0  0  0  0
  3 15  1  0  0  0  0
  4 26  1  0  0  0  0
  4 27  1  0  0  0  0
  4 28  1  0  0  0  0
  5  6  1  0  0  0  0
  5 29  1  0  0  0  0
  5 30  1  0  0  0  0
  6  7  1  0  0  0  0
  6 31  1  0  0  0  0
  7  8  2  0  0  0  0
  7  9  1  0  0  0  0
  9 10  1  0  0  0  0
 10 14  1  0  0  0  0
 10 11  2  0  0  0  0
 11 12  1  0  0  0  0
 12 13  2  0  0  0  0
 12 32  1  0  0  0  0
 13 14  1  0  0  0  0
 13 33  1  0  0  0  0
 15 20  1  0  0  0  0
 15 16  1  0  0  0  0
 15 42  1  0  0  0  0
 16 17  1  0  0  0  0
 16 34  1  0  0  0  0
 16 35  1  0  0  0  0
 17 18  1  0  0  0  0
 17 36  1  0  0  0  0
 17 37  1  0  0  0  0
 18 19  1  0  0  0  0
 19 20  1  0  0  0  0
 19 38  1  0  0  0  0
 19 39  1  0  0  0  0
 20 40  1  0  0  0  0
 20 41  1  0  0  0  0
M  CHG  1   9  -1
M  CHG  1  15   1
M  END
> <s_m_source_file>
AV-unprocessed.smi

> <i_m_source_file_index>
1995

> <i_lp_mmshare_version>
43012

> <i_f3d_flags>
0

> <s_epik_input>
W0NIMl0xW0NIMl1PW0NIMl1bQ0gyXU4xW0NAQF0oW0NIM10pKFtDSDJdW0NIM10pW0NIMl1bTkhdQyg9TylbTkhdYzJuW2NIXVtjSF1zMg==

> <s_epik_cmdline>
J2VwaWtfcHl0aG9uJywgJy1waCcsICc3LjAnLCAnLXRuJywgJzgnLCAnLW1hJywgJzIwMCcsICctbWV0YWxfYmluZGluZycsICctaW1hZScsICc8aW5maWxlLm1hZT4nLCAnLW9tYWUnLCAnPG91dGZpbGUubWFlPic=

> <r_lp_tautomer_probability>
0.999

> <r_epik_Ionization_Penalty>
8.09417

> <r_epik_Ionization_Penalty_Charging>
6.70334

> <r_epik_Ionization_Penalty_Neutral>
1.39083

> <r_epik_State_Penalty>
6.86521

> <r_epik_Charging_Adjusted_Penalty>
13.5685

> <i_epik_Tot_Q>
0

> <i_epik_Tot_abs_Q>
2

> <r_epik_Metal_State_Penalty>
2.79608

> <b_epik_Metal_Only>
1

> <s_lp_Force_Field>
OPLS_2005

> <r_lp_Energy>
20.9753

> <b_lp_Chiralities_Consistent>
1

> <s_lp_Variant>
AV-unprocessed.smi:1995-8

> <Gold.Version>
5.8.1

> <Gold.Id.Protein>
6NUR|6NUR_protein|mol2

> <Gold.PLP.Fitness>
46.2212

> <Gold.PLP.PLP>
-34.8181

> <Gold.PLP.part.hbond>
-4.0000

> <Gold.PLP.part.metal>
0.0000

> <Gold.PLP.part.buried>
-4.2418

> <Gold.PLP.part.nonpolar>
-27.2092

> <Gold.PLP.part.repulsive>
0.1296

> <Gold.PLP.ligand.clash>
0.0000

> <Gold.PLP.ligand.torsion>
1.3163

> <Gold.PLP.Chemscore.Hbond>
4.6209

> <Gold.PLP.Chemscore.CHOScore>
0.0000

> <Gold.PLP.Chemscore.Metal>
0.0000

> <Gold.Chemscore.Hbonds>
donor molecule, donor type, donor heavy atom, donor atom, acceptor molecule, acceptor atom, score
      L1  H    15    42       P1  7948  2.00
      P1  H  6896  6907       L1     8  0.88
      P1  H  6931  6943       L1    11  0.65
      P1  H  6934  6947       L1    11  0.86

> <Gold.PLP.Chemscore.Internal.Correction>
0.1732

> <Gold.Rescore>
     Score         DG    S(hbond)    S(metal)    S(lipo)     H(rot)  DE(clash)    DE(int)     intcor
     16.58     -18.16       2.63        0.00      71.63       1.75       0.05       1.54       ----

> <Gold.Chemscore.Fitness>
16.5771

> <Gold.Chemscore.DG>
-18.1625

> <Gold.Chemscore.ZeroCoef>
-5.4800

> <Gold.Chemscore.Hbond>
2.6310

> <Gold.Chemscore.Metal>
0.0000

> <Gold.Chemscore.Lipo>
71.6314

> <Gold.Chemscore.Internal_Hbond>
0.0000

> <Gold.Chemscore.DEClash>
0.0497

> <Gold.Chemscore.DEInternal>
1.5356

> <Gold.Chemscore.Rot>
1.7523

> <Gold.Chemscore.Internal.Correction>
   9.000000E+99

> <Gold.Chemscore.Hbonds>
donor molecule, donor type, donor heavy atom, donor atom, acceptor molecule, acceptor atom, score
      L1  H    15    42       P1  7948  0.93
      P1  H  6896  6907       L1     8  0.83
      P1  H  6931  6943       L1    11  0.07
      P1  H  6934  6947       L1    11  0.83

> <Gold.Chemscore.Hbond.Weighted>
-8.7874

> <Gold.Chemscore.Metal.Weighted>
-0.0000

> <Gold.Chemscore.Lipo.Weighted>
-8.3809

> <Gold.Chemscore.Internal_Hbond.Weighted>
0.0000

> <Gold.Chemscore.DEClash.Weighted>
0.0497

> <Gold.Chemscore.DEInternal.Weighted>
1.5356

> <Gold.Chemscore.Rot.Weighted>
4.4858

> <Gold.Chemscore.Internal.Correction.Weighted>
   9.000000E+99

> <Gold.Protein.RotatedTorsions>
[ 6907 6896 6895 6894 ] final  -22.63 input  -60.11 | X-H torsion
[ 7974 7965 7964 7962 ] final  -26.23 input  175.53 | X-H torsion
[ 8008 7997 7996 7995 ] final  150.16 input   59.86 | X-H torsion
[ 10167 10162 10161 10158 ] final   40.60 input  -65.29 | X-H torsion
[ 10718 10713 10712 10709 ] final -145.13 input   66.30 | X-H torsion
[ 10763 10752 10751 10750 ] final   60.10 input  -60.55 | X-H torsion
[ 11005 11000 10999 10996 ] final -121.97 input  -57.11 | X-H torsion

> <Gold.Protein.ActiveResidues>
 VAL166  LYS551  ARG553  GLY616  TRP617  ASP618  TYR619  PRO620  LYS621  CYS622 
 ASP623  PHE694  ASN695  SER759  ASP760  ASP761  ALA762  ILE779  LEU786  VAL792 
 PHE793  MET794  SER795  GLU796  ALA797  LYS798  CYS799  TRP800  GLU811  SER814 

> <Gold.Protein.RotatedAtoms>
  151.2158  135.0499  159.8929 H   0  0  0  0  0  0  0  0  0  0  0  0  # atno 6907 bound_to 6896
  152.5420  134.0695  159.8198 H   0  0  0  0  0  0  0  0  0  0  0  0  # atno 6908 bound_to 6896
  151.0854  133.5309  159.2650 H   0  0  0  0  0  0  0  0  0  0  0  0  # atno 6909 bound_to 6896
  146.1439  140.4992  142.8640 H   0  0  0  0  0  0  0  0  0  0  0  0  # atno 7974 bound_to 7965
  156.2727  140.2082  156.5973 H   0  0  0  0  0  0  0  0  0  0  0  0  # atno 8008 bound_to 7997
  154.6935  140.0528  157.0410 H   0  0  0  0  0  0  0  0  0  0  0  0  # atno 8009 bound_to 7997
  155.0834  140.3189  155.4598 H   0  0  0  0  0  0  0  0  0  0  0  0  # atno 8010 bound_to 7997
  140.3725  144.2086  150.6132 H   0  0  0  0  0  0  0  0  0  0  0  0  # atno 10167 bound_to 10162
  156.3786  130.7825  151.2015 H   0  0  0  0  0  0  0  0  0  0  0  0  # atno 10718 bound_to 10713
  152.9912  135.5548  154.5819 H   0  0  0  0  0  0  0  0  0  0  0  0  # atno 10763 bound_to 10752
  154.5198  135.2807  155.1274 H   0  0  0  0  0  0  0  0  0  0  0  0  # atno 10764 bound_to 10752
  154.2632  135.6377  153.5335 H   0  0  0  0  0  0  0  0  0  0  0  0  # atno 10765 bound_to 10752
  141.0030  134.0375  157.3513 H   0  0  0  0  0  0  0  0  0  0  0  0  # atno 11005 bound_to 11000
  144.7824  140.5867  143.6597 LP  0  0  0  0  0  0  0  0  0  0  0  0  # atno 17320 bound_to 7965
  145.4983  139.1484  143.3671 LP  0  0  0  0  0  0  0  0  0  0  0  0  # atno 17321 bound_to 7965
  140.5018  143.2315  151.8666 LP  0  0  0  0  0  0  0  0  0  0  0  0  # atno 17342 bound_to 10162
  139.4802  144.5050  151.9009 LP  0  0  0  0  0  0  0  0  0  0  0  0  # atno 17343 bound_to 10162
  157.7490  131.0351  150.4346 LP  0  0  0  0  0  0  0  0  0  0  0  0  # atno 17370 bound_to 10713
  156.4586  130.4027  149.6590 LP  0  0  0  0  0  0  0  0  0  0  0  0  # atno 17371 bound_to 10713
  139.9049  135.0176  156.7438 LP  0  0  0  0  0  0  0  0  0  0  0  0  # atno 17394 bound_to 11000
  140.6858  133.9434  155.7937 LP  0  0  0  0  0  0  0  0  0  0  0  0  # atno 17395 bound_to 11000

$$$$
