AV-unprocessed.smi:2045|AV-procd|sdf|8308|dock5
  -GOLD-   2272010573D 1   1.00000     0.00000
 Structure written by MMmdl.
 39 40  0  0  0  0  0  0  0  0  2 V2000
  151.0959  131.4998  156.3186 C   0  0  0  0  0  0  0  0  0  0  0  0
  150.7004  132.9236  156.1257 C   0  0  0  0  0  0  0  0  0  0  0  0
  150.3296  133.6454  155.0261 C   0  0  0  0  0  0  0  0  0  0  0  0
  150.0906  134.9398  155.5591 C   0  0  0  0  0  0  0  0  0  0  0  0
  149.6751  136.0070  154.7223 N   0  0  0  0  0  0  0  0  0  0  0  0
  149.2714  137.2321  155.0996 C   0  0  0  0  0  0  0  0  0  0  0  0
  149.2077  137.6330  156.2622 O   0  0  0  0  0  0  0  0  0  0  0  0
  148.9336  137.9850  154.0424 N   0  0  0  0  0  0  0  0  0  0  0  0
  148.4550  139.3604  154.1217 C   0  0  0  0  0  0  0  0  0  0  0  0
  147.1450  139.5511  153.3317 C   0  0  0  0  0  0  0  0  0  0  0  0
  146.3265  140.6739  153.8544 N   0  3  0  0  0  0  0  0  0  0  0  0
  145.9681  140.4867  155.2850 C   0  0  0  0  0  0  0  0  0  0  0  0
  145.0111  141.5888  155.7705 C   0  0  0  0  0  0  0  0  0  0  0  0
  145.6123  142.9807  155.5383 C   0  0  0  0  0  0  0  0  0  0  0  0
  146.0048  143.1413  154.0644 C   0  0  0  0  0  0  0  0  0  0  0  0
  146.9430  142.0075  153.6172 C   0  0  0  0  0  0  0  0  0  0  0  0
  150.2959  135.0026  156.8658 N   0  0  0  0  0  0  0  0  0  0  0  0
  150.6887  133.7108  157.2354 O   0  0  0  0  0  0  0  0  0  0  0  0
  150.8580  130.9061  155.4358 H   0  0  0  0  0  0  0  0  0  0  0  0
  150.5719  131.0638  157.1693 H   0  0  0  0  0  0  0  0  0  0  0  0
  152.1673  131.4187  156.5025 H   0  0  0  0  0  0  0  0  0  0  0  0
  150.2443  133.2993  154.0067 H   0  0  0  0  0  0  0  0  0  0  0  0
  149.6823  135.8140  153.7317 H   0  0  0  0  0  0  0  0  0  0  0  0
  149.0197  137.5818  153.1206 H   0  0  0  0  0  0  0  0  0  0  0  0
  148.3357  139.6337  155.1705 H   0  0  0  0  0  0  0  0  0  0  0  0
  149.2301  140.0125  153.7182 H   0  0  0  0  0  0  0  0  0  0  0  0
  147.4077  139.7498  152.2914 H   0  0  0  0  0  0  0  0  0  0  0  0
  146.5480  138.6380  153.3274 H   0  0  0  0  0  0  0  0  0  0  0  0
  145.4906  139.5158  155.4230 H   0  0  0  0  0  0  0  0  0  0  0  0
  146.8759  140.4824  155.8908 H   0  0  0  0  0  0  0  0  0  0  0  0
  144.0596  141.5072  155.2433 H   0  0  0  0  0  0  0  0  0  0  0  0
  144.7908  141.4508  156.8295 H   0  0  0  0  0  0  0  0  0  0  0  0
  144.8990  143.7533  155.8265 H   0  0  0  0  0  0  0  0  0  0  0  0
  146.4909  143.1137  156.1711 H   0  0  0  0  0  0  0  0  0  0  0  0
  145.1081  143.1420  153.4430 H   0  0  0  0  0  0  0  0  0  0  0  0
  146.4874  144.1070  153.9116 H   0  0  0  0  0  0  0  0  0  0  0  0
  147.8899  142.0722  154.1559 H   0  0  0  0  0  0  0  0  0  0  0  0
  147.1744  142.1400  152.5610 H   0  0  0  0  0  0  0  0  0  0  0  0
  145.4560  140.6554  153.3427 H   0  0  0  0  0  0  0  0  0  0  0  0
  1  2  1  0  0  0  0
  1 19  1  0  0  0  0
  1 20  1  0  0  0  0
  1 21  1  0  0  0  0
  2 18  1  0  0  0  0
  2  3  2  0  0  0  0
  3  4  1  0  0  0  0
  3 22  1  0  0  0  0
  4  5  1  0  0  0  0
  4 17  2  0  0  0  0
  5  6  1  0  0  0  0
  5 23  1  0  0  0  0
  6  7  2  0  0  0  0
  6  8  1  0  0  0  0
  8  9  1  0  0  0  0
  8 24  1  0  0  0  0
  9 10  1  0  0  0  0
  9 25  1  0  0  0  0
  9 26  1  0  0  0  0
 10 11  1  0  0  0  0
 10 27  1  0  0  0  0
 10 28  1  0  0  0  0
 11 16  1  0  0  0  0
 11 12  1  0  0  0  0
 11 39  1  0  0  0  0
 12 13  1  0  0  0  0
 12 29  1  0  0  0  0
 12 30  1  0  0  0  0
 13 14  1  0  0  0  0
 13 31  1  0  0  0  0
 13 32  1  0  0  0  0
 14 15  1  0  0  0  0
 14 33  1  0  0  0  0
 14 34  1  0  0  0  0
 15 16  1  0  0  0  0
 15 35  1  0  0  0  0
 15 36  1  0  0  0  0
 16 37  1  0  0  0  0
 16 38  1  0  0  0  0
 17 18  1  0  0  0  0
M  CHG  1  11   1
M  END
> <s_m_source_file>
AV-unprocessed.smi

> <i_m_source_file_index>
2045

> <i_lp_mmshare_version>
43012

> <i_f3d_flags>
0

> <s_epik_input>
W0NIM11jMVtjSF1jKG5vMSlbTkhdQyg9TylbTkhdW0NIMl1bQ0gyXU4yW0NIMl1bQ0gyXVtDSDJdW0NIMl1bQ0gyXTI=

> <s_epik_cmdline>
J2VwaWtfcHl0aG9uJywgJy1waCcsICc3LjAnLCAnLXRuJywgJzgnLCAnLW1hJywgJzIwMCcsICctbWV0YWxfYmluZGluZycsICctaW1hZScsICc8aW5maWxlLm1hZT4nLCAnLW9tYWUnLCAnPG91dGZpbGUubWFlPic=

> <r_epik_Ionization_Penalty>
0.00265971

> <r_epik_Ionization_Penalty_Charging>
0.00262393

> <r_epik_Ionization_Penalty_Neutral>
3.57846e-05

> <r_epik_State_Penalty>
0.00182566

> <r_epik_Charging_Adjusted_Penalty>
0.00444959

> <i_epik_Tot_Q>
1

> <i_epik_Tot_abs_Q>
1

> <r_epik_Metal_State_Penalty>
0.0216344

> <b_epik_Metal_Only>
0

> <s_lp_Force_Field>
OPLS_2005

> <r_lp_Energy>
12.4185

> <b_lp_Chiralities_Consistent>
1

> <s_lp_Variant>
AV-unprocessed.smi:2045-1

> <Gold.Version>
5.8.1

> <Gold.Id.Protein>
6NUR|6NUR_protein|mol2

> <Gold.PLP.Fitness>
40.5726

> <Gold.PLP.PLP>
-26.3253

> <Gold.PLP.part.hbond>
-4.0000

> <Gold.PLP.part.metal>
0.0000

> <Gold.PLP.part.buried>
-5.2973

> <Gold.PLP.part.nonpolar>
-17.6893

> <Gold.PLP.part.repulsive>
0.0531

> <Gold.PLP.ligand.clash>
0.0000

> <Gold.PLP.ligand.torsion>
0.2177

> <Gold.PLP.Chemscore.Hbond>
4.8892

> <Gold.PLP.Chemscore.CHOScore>
0.0000

> <Gold.PLP.Chemscore.Metal>
0.0000

> <Gold.Chemscore.Hbonds>
donor molecule, donor type, donor heavy atom, donor atom, acceptor molecule, acceptor atom, score
      L1  H     5    23       P1  7948  0.95
      L1  H     8    24       P1  7948  1.00
      L1  H    11    39       P1 10175  2.00
      P1  H  6896  6909       L1    18  0.75

> <Gold.PLP.Chemscore.Internal.Correction>
0.0151

> <Gold.Rescore>
     Score         DG    S(hbond)    S(metal)    S(lipo)     H(rot)  DE(clash)    DE(int)     intcor
     16.86     -18.43       3.41        0.00      48.10       1.58       0.09       1.48       ----

> <Gold.Chemscore.Fitness>
16.8602

> <Gold.Chemscore.DG>
-18.4334

> <Gold.Chemscore.ZeroCoef>
-5.4800

> <Gold.Chemscore.Hbond>
3.4068

> <Gold.Chemscore.Metal>
0.0000

> <Gold.Chemscore.Lipo>
48.1014

> <Gold.Chemscore.Internal_Hbond>
0.0000

> <Gold.Chemscore.DEClash>
0.0901

> <Gold.Chemscore.DEInternal>
1.4831

> <Gold.Chemscore.Rot>
1.5833

> <Gold.Chemscore.Internal.Correction>
   9.000000E+99

> <Gold.Chemscore.Hbonds>
donor molecule, donor type, donor heavy atom, donor atom, acceptor molecule, acceptor atom, score
      L1  H     5    23       P1  7948  0.19
      L1  H     8    24       P1  7948  0.99
      L1  H    11    39       P1 10175  0.86
      P1  H  6896  6909       L1    18  0.53

> <Gold.Chemscore.Hbond.Weighted>
-11.3788

> <Gold.Chemscore.Metal.Weighted>
-0.0000

> <Gold.Chemscore.Lipo.Weighted>
-5.6279

> <Gold.Chemscore.Internal_Hbond.Weighted>
0.0000

> <Gold.Chemscore.DEClash.Weighted>
0.0901

> <Gold.Chemscore.DEInternal.Weighted>
1.4831

> <Gold.Chemscore.Rot.Weighted>
4.0532

> <Gold.Chemscore.Internal.Correction.Weighted>
   9.000000E+99

> <Gold.Protein.RotatedTorsions>
[ 6907 6896 6895 6894 ] final  -14.34 input  -60.11 | X-H torsion
[ 7974 7965 7964 7962 ] final   27.23 input  175.53 | X-H torsion
[ 8008 7997 7996 7995 ] final  -52.06 input   59.86 | X-H torsion
[ 10167 10162 10161 10158 ] final  137.20 input  -65.29 | X-H torsion
[ 10718 10713 10712 10709 ] final  159.02 input   66.30 | X-H torsion
[ 10763 10752 10751 10750 ] final   74.43 input  -60.55 | X-H torsion
[ 11005 11000 10999 10996 ] final  -83.36 input  -57.11 | X-H torsion

> <Gold.Protein.ActiveResidues>
 VAL166  LYS551  ARG553  GLY616  TRP617  ASP618  TYR619  PRO620  LYS621  CYS622 
 ASP623  PHE694  ASN695  SER759  ASP760  ASP761  ALA762  ILE779  LEU786  VAL792 
 PHE793  MET794  SER795  GLU796  ALA797  LYS798  CYS799  TRP800  GLU811  SER814 

> <Gold.Protein.RotatedAtoms>
  151.3409  135.0863  159.9370 H   0  0  0  0  0  0  0  0  0  0  0  0  # atno 6907 bound_to 6896
  152.5211  133.9448  159.7654 H   0  0  0  0  0  0  0  0  0  0  0  0  # atno 6908 bound_to 6896
  150.9805  133.6197  159.2753 H   0  0  0  0  0  0  0  0  0  0  0  0  # atno 6909 bound_to 6896
  146.1795  139.7220  142.8910 H   0  0  0  0  0  0  0  0  0  0  0  0  # atno 7974 bound_to 7965
  154.4097  140.1233  156.4930 H   0  0  0  0  0  0  0  0  0  0  0  0  # atno 8008 bound_to 7997
  155.6971  140.3495  155.4898 H   0  0  0  0  0  0  0  0  0  0  0  0  # atno 8009 bound_to 7997
  155.9417  140.1088  157.1040 H   0  0  0  0  0  0  0  0  0  0  0  0  # atno 8010 bound_to 7997
  139.5153  144.6423  151.5536 H   0  0  0  0  0  0  0  0  0  0  0  0  # atno 10167 bound_to 10162
  157.1699  131.0607  151.2188 H   0  0  0  0  0  0  0  0  0  0  0  0  # atno 10718 bound_to 10713
  153.0586  135.5026  154.8041 H   0  0  0  0  0  0  0  0  0  0  0  0  # atno 10763 bound_to 10752
  154.6847  135.2974  154.9566 H   0  0  0  0  0  0  0  0  0  0  0  0  # atno 10764 bound_to 10752
  154.0340  135.6726  153.4836 H   0  0  0  0  0  0  0  0  0  0  0  0  # atno 10765 bound_to 10752
  141.1658  133.7290  156.8709 H   0  0  0  0  0  0  0  0  0  0  0  0  # atno 11005 bound_to 11000
  145.4116  141.0397  143.3014 LP  0  0  0  0  0  0  0  0  0  0  0  0  # atno 17320 bound_to 7965
  144.8291  139.5658  143.6952 LP  0  0  0  0  0  0  0  0  0  0  0  0  # atno 17321 bound_to 7965
  140.6194  143.9287  150.6514 LP  0  0  0  0  0  0  0  0  0  0  0  0  # atno 17342 bound_to 10162
  140.2555  143.3561  152.1368 LP  0  0  0  0  0  0  0  0  0  0  0  0  # atno 17343 bound_to 10162
  157.4053  130.7356  149.6798 LP  0  0  0  0  0  0  0  0  0  0  0  0  # atno 17370 bound_to 10713
  155.9740  130.4110  150.3957 LP  0  0  0  0  0  0  0  0  0  0  0  0  # atno 17371 bound_to 10713
  140.1782  134.9052  157.2917 LP  0  0  0  0  0  0  0  0  0  0  0  0  # atno 17394 bound_to 11000
  140.2425  134.3779  155.7475 LP  0  0  0  0  0  0  0  0  0  0  0  0  # atno 17395 bound_to 11000

$$$$
