AV-unprocessed.smi:1950|AV-procd|sdf|7879|dock10
  -GOLD-   2272010 33D 1   1.00000     0.00000
 Structure written by MMmdl.
 33 34  0  0  0  0  0  0  0  0  1 V2000
  152.5712  142.3189  161.9989 C   0  0  0  0  0  0  0  0  0  0  0  0
  152.5453  143.5756  161.1260 C   0  0  0  0  0  0  0  0  0  0  0  0
  152.2709  144.6482  161.6644 O   0  0  0  0  0  0  0  0  0  0  0  0
  152.8292  143.4706  159.8054 N   0  0  0  0  0  0  0  0  0  0  0  0
  153.0692  142.1827  159.1447 C   0  0  0  0  0  0  0  0  0  0  0  0
  151.8688  141.8608  158.2359 C   0  0  0  0  0  0  0  0  0  0  0  0
  151.6066  142.9978  157.2242 C   0  0  0  0  0  0  0  0  0  0  0  0
  150.3413  142.7610  156.5342 N   0  0  0  0  0  0  0  0  0  0  0  0
  150.0191  141.6630  155.8347 C   0  0  0  0  0  0  0  0  0  0  0  0
  150.7729  140.7008  155.6873 O   0  0  0  0  0  0  0  0  0  0  0  0
  148.7786  141.7627  155.3253 N   0  0  0  0  0  0  0  0  0  0  0  0
  148.0701  140.8157  154.5391 C   0  0  0  0  0  0  0  0  0  0  0  0
  148.4352  139.5302  154.4125 N   0  0  0  0  0  0  0  0  0  0  0  0
  147.5691  138.8225  153.5892 N   0  0  0  0  0  0  0  0  0  0  0  0
  146.5865  139.6010  153.1271 C   0  0  0  0  0  0  0  0  0  0  0  0
  146.6224  141.2750  153.6539 S   0  0  0  0  0  0  0  0  0  0  0  0
  151.5717  144.3782  157.9156 C   0  0  0  0  0  0  0  0  0  0  0  0
  152.7885  144.5733  158.8373 C   0  0  0  0  0  0  0  0  0  0  0  0
  153.5508  141.8415  161.9617 H   0  0  0  0  0  0  0  0  0  0  0  0
  151.8151  141.6050  161.6718 H   0  0  0  0  0  0  0  0  0  0  0  0
  152.3644  142.5696  163.0397 H   0  0  0  0  0  0  0  0  0  0  0  0
  153.9832  142.2443  158.5523 H   0  0  0  0  0  0  0  0  0  0  0  0
  153.2293  141.3677  159.8517 H   0  0  0  0  0  0  0  0  0  0  0  0
  152.0423  140.9225  157.7075 H   0  0  0  0  0  0  0  0  0  0  0  0
  150.9850  141.7064  158.8570 H   0  0  0  0  0  0  0  0  0  0  0  0
  152.4360  143.0057  156.5144 H   0  0  0  0  0  0  0  0  0  0  0  0
  149.6527  143.4964  156.5979 H   0  0  0  0  0  0  0  0  0  0  0  0
  148.2805  142.6173  155.5253 H   0  0  0  0  0  0  0  0  0  0  0  0
  145.8351  139.1867  152.4715 H   0  0  0  0  0  0  0  0  0  0  0  0
  151.5409  145.1703  157.1665 H   0  0  0  0  0  0  0  0  0  0  0  0
  150.6591  144.4751  158.5064 H   0  0  0  0  0  0  0  0  0  0  0  0
  152.7514  145.5590  159.2987 H   0  0  0  0  0  0  0  0  0  0  0  0
  153.7057  144.5651  158.2466 H   0  0  0  0  0  0  0  0  0  0  0  0
  1  2  1  0  0  0  0
  1 19  1  0  0  0  0
  1 20  1  0  0  0  0
  1 21  1  0  0  0  0
  2  3  2  0  0  0  0
  2  4  1  0  0  0  0
  4 18  1  0  0  0  0
  4  5  1  0  0  0  0
  5  6  1  0  0  0  0
  5 22  1  0  0  0  0
  5 23  1  0  0  0  0
  6  7  1  0  0  0  0
  6 24  1  0  0  0  0
  6 25  1  0  0  0  0
  7  8  1  0  0  0  0
  7 17  1  0  0  0  0
  7 26  1  0  0  0  0
  8  9  1  0  0  0  0
  8 27  1  0  0  0  0
  9 10  2  0  0  0  0
  9 11  1  0  0  0  0
 11 12  1  0  0  0  0
 11 28  1  0  0  0  0
 12 16  1  0  0  0  0
 12 13  2  0  0  0  0
 13 14  1  0  0  0  0
 14 15  2  0  0  0  0
 15 16  1  0  0  0  0
 15 29  1  0  0  0  0
 17 18  1  0  0  0  0
 17 30  1  0  0  0  0
 17 31  1  0  0  0  0
 18 32  1  0  0  0  0
 18 33  1  0  0  0  0
M  END
> <s_m_source_file>
AV-unprocessed.smi

> <i_m_source_file_index>
1950

> <i_lp_mmshare_version>
43012

> <i_f3d_flags>
0

> <s_epik_input>
W0NIM11DKD1PKU4xW0NIMl1bQ0gyXVtDSF0oW0NIMl1bQ0gyXTEpW05IXUMoPU8pW05IXWMybm5bY0hdczI=

> <s_epik_cmdline>
J2VwaWtfcHl0aG9uJywgJy1waCcsICc3LjAnLCAnLXRuJywgJzgnLCAnLW1hJywgJzIwMCcsICctbWV0YWxfYmluZGluZycsICctaW1hZScsICc8aW5maWxlLm1hZT4nLCAnLW9tYWUnLCAnPG91dGZpbGUubWFlPic=

> <r_lp_tautomer_probability>
1

> <r_epik_Ionization_Penalty>
0.00190949

> <r_epik_Ionization_Penalty_Charging>
0

> <r_epik_Ionization_Penalty_Neutral>
0.00190949

> <r_epik_State_Penalty>
-0

> <r_epik_Charging_Adjusted_Penalty>
0

> <i_epik_Tot_Q>
0

> <i_epik_Tot_abs_Q>
0

> <r_epik_Metal_State_Penalty>
0.336167

> <b_epik_Metal_Only>
0

> <s_lp_Force_Field>
OPLS_2005

> <r_lp_Energy>
22.3171

> <b_lp_Chiralities_Consistent>
1

> <s_lp_Variant>
AV-unprocessed.smi:1950-1

> <Gold.Version>
5.8.1

> <Gold.Id.Protein>
6NUR|6NUR_protein|mol2

> <Gold.PLP.Fitness>
45.0321

> <Gold.PLP.PLP>
-37.0191

> <Gold.PLP.part.hbond>
-2.9681

> <Gold.PLP.part.metal>
0.0000

> <Gold.PLP.part.buried>
-4.8660

> <Gold.PLP.part.nonpolar>
-29.3984

> <Gold.PLP.part.repulsive>
2.7810

> <Gold.PLP.ligand.clash>
0.0000

> <Gold.PLP.ligand.torsion>
0.0599

> <Gold.PLP.Chemscore.Hbond>
2.1926

> <Gold.PLP.Chemscore.CHOScore>
0.5125

> <Gold.PLP.Chemscore.Metal>
0.0000

> <Gold.Chemscore.Hbonds>
donor molecule, donor type, donor heavy atom, donor atom, acceptor molecule, acceptor atom, score
      L1  H     8    27       P1  8028  0.85
      L1  H    11    28       P1  8028  0.44
      P1  H  7989  7998       L1    10  0.17
      L1  C    15    29       P1 10175  0.68

> <Gold.PLP.Chemscore.Internal.Correction>
0.0173

> <Gold.Rescore>
     Score         DG    S(hbond)    S(metal)    S(lipo)     H(rot)  DE(clash)    DE(int)     intcor
     14.20     -18.87       1.73        0.00      86.97       1.00       1.91       2.76       ----

> <Gold.Chemscore.Fitness>
14.2039

> <Gold.Chemscore.DG>
-18.8725

> <Gold.Chemscore.ZeroCoef>
-5.4800

> <Gold.Chemscore.Hbond>
1.7295

> <Gold.Chemscore.Metal>
0.0000

> <Gold.Chemscore.Lipo>
86.9746

> <Gold.Chemscore.Internal_Hbond>
0.0000

> <Gold.Chemscore.DEClash>
1.9112

> <Gold.Chemscore.DEInternal>
2.7574

> <Gold.Chemscore.Rot>
1.0000

> <Gold.Chemscore.Internal.Correction>
   9.000000E+99

> <Gold.Chemscore.Hbonds>
donor molecule, donor type, donor heavy atom, donor atom, acceptor molecule, acceptor atom, score
      L1  H     8    27       P1  8028  0.83
      L1  H    11    28       P1  8028  0.42
      P1  H  7989  7998       L1    10  0.10

> <Gold.Chemscore.Hbond.Weighted>
-5.7765

> <Gold.Chemscore.Metal.Weighted>
-0.0000

> <Gold.Chemscore.Lipo.Weighted>
-10.1760

> <Gold.Chemscore.Internal_Hbond.Weighted>
0.0000

> <Gold.Chemscore.DEClash.Weighted>
1.9112

> <Gold.Chemscore.DEInternal.Weighted>
2.7574

> <Gold.Chemscore.Rot.Weighted>
2.5600

> <Gold.Chemscore.Internal.Correction.Weighted>
   9.000000E+99

> <Gold.Protein.RotatedTorsions>
[ 6907 6896 6895 6894 ] final  161.58 input  -60.11 | X-H torsion
[ 7974 7965 7964 7962 ] final  -48.27 input  175.53 | X-H torsion
[ 8008 7997 7996 7995 ] final  -39.88 input   59.86 | X-H torsion
[ 10167 10162 10161 10158 ] final  160.63 input  -65.29 | X-H torsion
[ 10718 10713 10712 10709 ] final   12.78 input   66.30 | X-H torsion
[ 10763 10752 10751 10750 ] final  166.90 input  -60.55 | X-H torsion
[ 11005 11000 10999 10996 ] final   96.47 input  -57.11 | X-H torsion

> <Gold.Protein.ActiveResidues>
 VAL166  LYS551  ARG553  GLY616  TRP617  ASP618  TYR619  PRO620  LYS621  CYS622 
 ASP623  PHE694  ASN695  SER759  ASP760  ASP761  ALA762  ILE779  LEU786  VAL792 
 PHE793  MET794  SER795  GLU796  ALA797  LYS798  CYS799  TRP800  GLU811  SER814 

> <Gold.Protein.RotatedAtoms>
  151.9535  133.3673  159.4008 H   0  0  0  0  0  0  0  0  0  0  0  0  # atno 6907 bound_to 6896
  150.6976  134.4315  159.5260 H   0  0  0  0  0  0  0  0  0  0  0  0  # atno 6908 bound_to 6896
  152.1992  134.8603  160.0560 H   0  0  0  0  0  0  0  0  0  0  0  0  # atno 6909 bound_to 6896
  145.9529  140.7554  142.9495 H   0  0  0  0  0  0  0  0  0  0  0  0  # atno 7974 bound_to 7965
  154.4018  140.1540  156.2935 H   0  0  0  0  0  0  0  0  0  0  0  0  # atno 8008 bound_to 7997
  155.8764  140.3446  155.5835 H   0  0  0  0  0  0  0  0  0  0  0  0  # atno 8009 bound_to 7997
  155.7716  140.0831  157.2095 H   0  0  0  0  0  0  0  0  0  0  0  0  # atno 8010 bound_to 7997
  139.4841  144.4615  151.8698 H   0  0  0  0  0  0  0  0  0  0  0  0  # atno 10167 bound_to 10162
  157.0151  130.6132  149.5713 H   0  0  0  0  0  0  0  0  0  0  0  0  # atno 10718 bound_to 10713
  154.3459  135.2753  155.2398 H   0  0  0  0  0  0  0  0  0  0  0  0  # atno 10763 bound_to 10752
  154.4648  135.5898  153.6284 H   0  0  0  0  0  0  0  0  0  0  0  0  # atno 10764 bound_to 10752
  152.9854  135.6074  154.3664 H   0  0  0  0  0  0  0  0  0  0  0  0  # atno 10765 bound_to 10752
  139.8781  134.8952  156.4163 H   0  0  0  0  0  0  0  0  0  0  0  0  # atno 11005 bound_to 11000
  144.6799  140.2465  143.7337 LP  0  0  0  0  0  0  0  0  0  0  0  0  # atno 17320 bound_to 7965
  145.8146  139.2017  143.1973 LP  0  0  0  0  0  0  0  0  0  0  0  0  # atno 17321 bound_to 7965
  140.4078  144.2409  150.5890 LP  0  0  0  0  0  0  0  0  0  0  0  0  # atno 17342 bound_to 10162
  140.4995  143.2322  151.8699 LP  0  0  0  0  0  0  0  0  0  0  0  0  # atno 17343 bound_to 10162
  156.0122  130.5214  150.8024 LP  0  0  0  0  0  0  0  0  0  0  0  0  # atno 17370 bound_to 10713
  157.5291  131.0935  150.9978 LP  0  0  0  0  0  0  0  0  0  0  0  0  # atno 17371 bound_to 10713
  140.9165  133.7675  155.9854 LP  0  0  0  0  0  0  0  0  0  0  0  0  # atno 17394 bound_to 11000
  140.8488  134.2979  157.5284 LP  0  0  0  0  0  0  0  0  0  0  0  0  # atno 17395 bound_to 11000

$$$$
