AV-unprocessed.smi:2571|AV-procd|sdf|10109|dock4
  -GOLD-   2272014123D 1   1.00000     0.00000
 Structure written by MMmdl.
 38 40  0  0  0  0  0  0  0  0  1 V2000
  145.8392  137.9560  152.4844 C   0  0  0  0  0  0  0  0  0  0  0  0
  147.0010  137.9197  153.2997 O   0  0  0  0  0  0  0  0  0  0  0  0
  147.6039  139.1163  153.6219 C   0  0  0  0  0  0  0  0  0  0  0  0
  147.0696  140.3898  153.3035 C   0  0  0  0  0  0  0  0  0  0  0  0
  147.7498  141.5620  153.6848 C   0  0  0  0  0  0  0  0  0  0  0  0
  148.9635  141.4788  154.3913 C   0  0  0  0  0  0  0  0  0  0  0  0
  149.5072  140.2182  154.7172 C   0  0  0  0  0  0  0  0  0  0  0  0
  150.7894  140.1043  155.5323 C   0  0  1  0  0  0  0  0  0  0  0  0
  151.9074  139.7581  154.7393 O   0  0  0  0  0  0  0  0  0  0  0  0
  151.1151  141.4065  156.2939 C   0  0  0  0  0  0  0  0  0  0  0  0
  151.9257  141.1621  157.4784 N   0  0  0  0  0  0  0  0  0  0  0  0
  152.4234  139.9182  157.7012 N   0  0  0  0  0  0  0  0  0  0  0  0
  153.0683  139.9875  158.8638 C   0  0  0  0  0  0  0  0  0  0  0  0
  153.0010  141.2881  159.4336 C   0  0  0  0  0  0  0  0  0  0  0  0
  153.4891  141.9042  160.6634 C   0  0  0  0  0  0  0  0  0  0  0  0
  153.2103  143.1521  160.8772 N   0  0  0  0  0  0  0  0  0  0  0  0
  152.4672  143.8988  159.9561 N   0  0  0  0  0  0  0  0  0  0  0  0
  152.2234  145.2854  160.3463 C   0  0  0  0  0  0  0  0  0  0  0  0
  151.9885  143.4258  158.7666 C   0  0  0  0  0  0  0  0  0  0  0  0
  151.3623  144.1097  157.9575 O   0  0  0  0  0  0  0  0  0  0  0  0
  152.2851  141.9930  158.5227 C   0  0  0  0  0  0  0  0  0  0  0  0
  148.8263  139.0479  154.3201 C   0  0  0  0  0  0  0  0  0  0  0  0
  145.4721  136.9406  152.3361 H   0  0  0  0  0  0  0  0  0  0  0  0
  146.0549  138.3755  151.5007 H   0  0  0  0  0  0  0  0  0  0  0  0
  145.0398  138.5297  152.9558 H   0  0  0  0  0  0  0  0  0  0  0  0
  146.1373  140.4945  152.7697 H   0  0  0  0  0  0  0  0  0  0  0  0
  147.3333  142.5289  153.4436 H   0  0  0  0  0  0  0  0  0  0  0  0
  149.4631  142.3864  154.6974 H   0  0  0  0  0  0  0  0  0  0  0  0
  150.6659  139.2953  156.2538 H   0  0  0  0  0  0  0  0  0  0  0  0
  152.1871  138.8885  154.9812 H   0  0  0  0  0  0  0  0  0  0  0  0
  151.6689  142.0870  155.6447 H   0  0  0  0  0  0  0  0  0  0  0  0
  150.2046  141.9340  156.5758 H   0  0  0  0  0  0  0  0  0  0  0  0
  153.5464  139.1009  159.2533 H   0  0  0  0  0  0  0  0  0  0  0  0
  154.0700  141.3247  161.3809 H   0  0  0  0  0  0  0  0  0  0  0  0
  152.6774  145.9712  159.6294 H   0  0  0  0  0  0  0  0  0  0  0  0
  152.6379  145.5127  161.3299 H   0  0  0  0  0  0  0  0  0  0  0  0
  151.1524  145.4904  160.3853 H   0  0  0  0  0  0  0  0  0  0  0  0
  149.2327  138.0805  154.5778 H   0  0  0  0  0  0  0  0  0  0  0  0
  1  2  1  0  0  0  0
  1 23  1  0  0  0  0
  1 24  1  0  0  0  0
  1 25  1  0  0  0  0
  2  3  1  0  0  0  0
  3 22  1  0  0  0  0
  3  4  2  0  0  0  0
  4  5  1  0  0  0  0
  4 26  1  0  0  0  0
  5  6  2  0  0  0  0
  5 27  1  0  0  0  0
  6  7  1  0  0  0  0
  6 28  1  0  0  0  0
  7  8  1  0  0  0  0
  7 22  2  0  0  0  0
  8  9  1  0  0  0  0
  8 10  1  0  0  0  0
  8 29  1  0  0  0  0
  9 30  1  0  0  0  0
 10 11  1  0  0  0  0
 10 31  1  0  0  0  0
 10 32  1  0  0  0  0
 11 21  1  0  0  0  0
 11 12  1  0  0  0  0
 12 13  2  0  0  0  0
 13 14  1  0  0  0  0
 13 33  1  0  0  0  0
 14 21  2  0  0  0  0
 14 15  1  0  0  0  0
 15 16  2  0  0  0  0
 15 34  1  0  0  0  0
 16 17  1  0  0  0  0
 17 18  1  0  0  0  0
 17 19  1  0  0  0  0
 18 35  1  0  0  0  0
 18 36  1  0  0  0  0
 18 37  1  0  0  0  0
 19 20  2  0  0  0  0
 19 21  1  0  0  0  0
 22 38  1  0  0  0  0
M  END
> <s_m_source_file>
AV-unprocessed.smi

> <i_m_source_file_index>
2571

> <i_lp_mmshare_version>
43012

> <i_f3d_flags>
0

> <s_epik_input>
W0NIM11PYzFbY0hdW2NIXVtjSF1jKFtjSF0xKVtDQEhdKFtPSF0pW0NIMl1uKG5bY0hdMiljKGMyMyljKD1PKW4oW0NIM10pbltjSF0z

> <s_epik_cmdline>
J2VwaWtfcHl0aG9uJywgJy1waCcsICc3LjAnLCAnLXRuJywgJzgnLCAnLW1hJywgJzIwMCcsICctbWV0YWxfYmluZGluZycsICctaW1hZScsICc8aW5maWxlLm1hZT4nLCAnLW9tYWUnLCAnPG91dGZpbGUubWFlPic=

> <r_lp_tautomer_probability>
1

> <r_epik_Ionization_Penalty>
1.38887e-06

> <r_epik_Ionization_Penalty_Charging>
1.65421e-10

> <r_epik_Ionization_Penalty_Neutral>
1.38871e-06

> <r_epik_State_Penalty>
-0

> <r_epik_Charging_Adjusted_Penalty>
1.65421e-10

> <i_epik_Tot_Q>
0

> <i_epik_Tot_abs_Q>
0

> <r_epik_Metal_State_Penalty>
-0

> <b_epik_Metal_Only>
0

> <s_lp_Force_Field>
OPLS_2005

> <r_lp_Energy>
30.2232

> <b_lp_Chiralities_Consistent>
1

> <s_lp_Variant>
AV-unprocessed.smi:2571-2

> <Gold.Version>
5.8.1

> <Gold.Id.Protein>
6NUR|6NUR_protein|mol2

> <Gold.PLP.Fitness>
47.1336

> <Gold.PLP.PLP>
-45.9142

> <Gold.PLP.part.hbond>
-1.2916

> <Gold.PLP.part.metal>
0.0000

> <Gold.PLP.part.buried>
-5.0538

> <Gold.PLP.part.nonpolar>
-41.6349

> <Gold.PLP.part.repulsive>
2.6238

> <Gold.PLP.ligand.clash>
0.0000

> <Gold.PLP.ligand.torsion>
0.8481

> <Gold.PLP.Chemscore.Hbond>
0.9621

> <Gold.PLP.Chemscore.CHOScore>
0.0000

> <Gold.PLP.Chemscore.Metal>
0.0000

> <Gold.Chemscore.Hbonds>
donor molecule, donor type, donor heavy atom, donor atom, acceptor molecule, acceptor atom, score
      P1  H  7989  7998       L1     9  0.85

> <Gold.PLP.Chemscore.Internal.Correction>
0.0292

> <Gold.Rescore>
     Score         DG    S(hbond)    S(metal)    S(lipo)     H(rot)  DE(clash)    DE(int)     intcor
     13.23     -14.26       0.77        0.00     101.43       2.21       0.12       0.91       ----

> <Gold.Chemscore.Fitness>
13.2349

> <Gold.Chemscore.DG>
-14.2622

> <Gold.Chemscore.ZeroCoef>
-5.4800

> <Gold.Chemscore.Hbond>
0.7737

> <Gold.Chemscore.Metal>
0.0000

> <Gold.Chemscore.Lipo>
101.4308

> <Gold.Chemscore.Internal_Hbond>
0.0000

> <Gold.Chemscore.DEClash>
0.1176

> <Gold.Chemscore.DEInternal>
0.9097

> <Gold.Chemscore.Rot>
2.2146

> <Gold.Chemscore.Internal.Correction>
   9.000000E+99

> <Gold.Chemscore.Hbonds>
donor molecule, donor type, donor heavy atom, donor atom, acceptor molecule, acceptor atom, score
      P1  H  7989  7998       L1     9  0.16

> <Gold.Chemscore.Hbond.Weighted>
-2.5841

> <Gold.Chemscore.Metal.Weighted>
-0.0000

> <Gold.Chemscore.Lipo.Weighted>
-11.8674

> <Gold.Chemscore.Internal_Hbond.Weighted>
0.0000

> <Gold.Chemscore.DEClash.Weighted>
0.1176

> <Gold.Chemscore.DEInternal.Weighted>
0.9097

> <Gold.Chemscore.Rot.Weighted>
5.6693

> <Gold.Chemscore.Internal.Correction.Weighted>
   9.000000E+99

> <Gold.Protein.RotatedTorsions>
[ 6907 6896 6895 6894 ] final  166.22 input  -60.11 | X-H torsion
[ 7974 7965 7964 7962 ] final   48.69 input  175.53 | X-H torsion
[ 8008 7997 7996 7995 ] final  -82.11 input   59.86 | X-H torsion
[ 10167 10162 10161 10158 ] final  157.05 input  -65.29 | X-H torsion
[ 10718 10713 10712 10709 ] final -179.32 input   66.30 | X-H torsion
[ 10763 10752 10751 10750 ] final    4.76 input  -60.55 | X-H torsion
[ 11005 11000 10999 10996 ] final -158.75 input  -57.11 | X-H torsion

> <Gold.Protein.ActiveResidues>
 VAL166  LYS551  ARG553  GLY616  TRP617  ASP618  TYR619  PRO620  LYS621  CYS622 
 ASP623  PHE694  ASN695  SER759  ASP760  ASP761  ALA762  ILE779  LEU786  VAL792 
 PHE793  MET794  SER795  GLU796  ALA797  LYS798  CYS799  TRP800  GLU811  SER814 

> <Gold.Protein.RotatedAtoms>
  151.8823  133.3498  159.3770 H   0  0  0  0  0  0  0  0  0  0  0  0  # atno 6907 bound_to 6896
  150.7124  134.5006  159.5569 H   0  0  0  0  0  0  0  0  0  0  0  0  # atno 6908 bound_to 6896
  152.2560  134.8084  160.0489 H   0  0  0  0  0  0  0  0  0  0  0  0  # atno 6909 bound_to 6896
  146.0180  139.4618  142.9915 H   0  0  0  0  0  0  0  0  0  0  0  0  # atno 7974 bound_to 7965
  154.6052  140.0638  156.9422 H   0  0  0  0  0  0  0  0  0  0  0  0  # atno 8008 bound_to 7997
  155.2065  140.3319  155.4317 H   0  0  0  0  0  0  0  0  0  0  0  0  # atno 8009 bound_to 7997
  156.2343  140.1855  156.7144 H   0  0  0  0  0  0  0  0  0  0  0  0  # atno 8010 bound_to 7997
  139.4822  144.4953  151.8249 H   0  0  0  0  0  0  0  0  0  0  0  0  # atno 10167 bound_to 10162
  156.8574  130.9740  151.3086 H   0  0  0  0  0  0  0  0  0  0  0  0  # atno 10718 bound_to 10713
  153.2674  135.6929  153.7515 H   0  0  0  0  0  0  0  0  0  0  0  0  # atno 10763 bound_to 10752
  153.6552  135.3370  155.3112 H   0  0  0  0  0  0  0  0  0  0  0  0  # atno 10764 bound_to 10752
  154.8452  135.4464  154.1685 H   0  0  0  0  0  0  0  0  0  0  0  0  # atno 10765 bound_to 10752
  140.6501  134.4459  157.5235 H   0  0  0  0  0  0  0  0  0  0  0  0  # atno 11005 bound_to 11000
  145.7238  141.0066  143.1388 LP  0  0  0  0  0  0  0  0  0  0  0  0  # atno 17320 bound_to 7965
  144.6978  139.8903  143.7452 LP  0  0  0  0  0  0  0  0  0  0  0  0  # atno 17321 bound_to 7965
  140.4441  144.1946  150.5893 LP  0  0  0  0  0  0  0  0  0  0  0  0  # atno 17342 bound_to 10162
  140.4653  143.2433  151.9164 LP  0  0  0  0  0  0  0  0  0  0  0  0  # atno 17343 bound_to 10162
  157.6269  130.8699  149.9206 LP  0  0  0  0  0  0  0  0  0  0  0  0  # atno 17370 bound_to 10713
  156.0795  130.3675  150.0609 LP  0  0  0  0  0  0  0  0  0  0  0  0  # atno 17371 bound_to 10713
  139.9049  134.8472  156.1747 LP  0  0  0  0  0  0  0  0  0  0  0  0  # atno 17394 bound_to 11000
  141.0543  133.6873  156.1830 LP  0  0  0  0  0  0  0  0  0  0  0  0  # atno 17395 bound_to 11000

$$$$
