AV-unprocessed.smi:1662|AV-procd|sdf|6664|dock7
  -GOLD-   22720 7373D 1   1.00000     0.00000
 Structure written by MMmdl.
 47 48  0  0  0  0  0  0  0  0  1 V2000
  150.6239  144.7752  159.9677 C   0  0  0  0  0  0  0  0  0  0  0  0
  151.2175  143.5423  159.3416 C   0  0  0  0  0  0  0  0  0  0  0  0
  150.6344  143.0921  158.2795 N   0  0  0  0  0  0  0  0  0  0  0  0
  151.0939  141.9623  157.6309 N   0  0  0  0  0  0  0  0  0  0  0  0
  150.2997  141.5774  156.4554 C   0  0  0  0  0  0  0  0  0  0  0  0
  148.8301  141.2963  156.7977 C   0  0  0  0  0  0  0  0  0  0  0  0
  148.5236  140.3179  157.4801 O   0  0  0  0  0  0  0  0  0  0  0  0
  147.9362  142.1800  156.3291 N   0  0  0  0  0  0  0  0  0  0  0  0
  146.4884  142.1059  156.5128 C   0  0  1  0  0  0  0  0  0  0  0  0
  146.1285  142.6113  157.9241 C   0  0  0  0  0  0  0  0  0  0  0  0
  144.6109  142.6448  158.1512 C   0  0  0  0  0  0  0  0  0  0  0  0
  143.9051  143.4721  157.0654 C   0  0  0  0  0  0  0  0  0  0  0  0
  144.2283  142.9669  155.6443 C   0  0  2  0  0  0  0  0  0  0  0  0
  143.5131  141.6345  155.3398 C   0  0  0  0  0  0  0  0  0  0  0  0
  145.7639  142.9317  155.4186 C   0  0  2  0  0  0  0  0  0  0  0  0
  146.1388  142.4926  153.9889 C   0  0  0  0  0  0  0  0  0  0  0  0
  152.1801  141.2323  158.0172 C   0  0  0  0  0  0  0  0  0  0  0  0
  152.5594  140.2337  157.4028 O   0  0  0  0  0  0  0  0  0  0  0  0
  152.8367  141.7493  159.2197 C   0  0  0  0  0  0  0  0  0  0  0  0
  153.9759  141.0113  159.6612 C   0  0  0  0  0  0  0  0  0  0  0  0
  154.9086  140.4297  160.0242 N   0  0  0  0  0  0  0  0  0  0  0  0
  152.3909  142.8534  159.8698 C   0  0  0  0  0  0  0  0  0  0  0  0
  153.0351  143.4292  161.1235 C   0  0  0  0  0  0  0  0  0  0  0  0
  151.3537  145.5845  159.9977 H   0  0  0  0  0  0  0  0  0  0  0  0
  150.3006  144.5724  160.9888 H   0  0  0  0  0  0  0  0  0  0  0  0
  149.7560  145.1357  159.4133 H   0  0  0  0  0  0  0  0  0  0  0  0
  150.3240  142.3690  155.7045 H   0  0  0  0  0  0  0  0  0  0  0  0
  150.7461  140.7046  155.9743 H   0  0  0  0  0  0  0  0  0  0  0  0
  148.2823  142.9552  155.7825 H   0  0  0  0  0  0  0  0  0  0  0  0
  146.1679  141.0668  156.4224 H   0  0  0  0  0  0  0  0  0  0  0  0
  146.5968  141.9789  158.6795 H   0  0  0  0  0  0  0  0  0  0  0  0
  146.5333  143.6140  158.0696 H   0  0  0  0  0  0  0  0  0  0  0  0
  144.2181  141.6278  158.1628 H   0  0  0  0  0  0  0  0  0  0  0  0
  144.3949  143.0652  159.1337 H   0  0  0  0  0  0  0  0  0  0  0  0
  142.8278  143.4658  157.2335 H   0  0  0  0  0  0  0  0  0  0  0  0
  144.2169  144.5136  157.1548 H   0  0  0  0  0  0  0  0  0  0  0  0
  143.8146  143.6990  154.9493 H   0  0  0  0  0  0  0  0  0  0  0  0
  143.8923  140.8140  155.9481 H   0  0  0  0  0  0  0  0  0  0  0  0
  143.6248  141.3495  154.2939 H   0  0  0  0  0  0  0  0  0  0  0  0
  142.4431  141.7162  155.5320 H   0  0  0  0  0  0  0  0  0  0  0  0
  146.1101  143.9620  155.5177 H   0  0  0  0  0  0  0  0  0  0  0  0
  145.9421  141.4322  153.8295 H   0  0  0  0  0  0  0  0  0  0  0  0
  147.1961  142.6607  153.7827 H   0  0  0  0  0  0  0  0  0  0  0  0
  145.5739  143.0545  153.2448 H   0  0  0  0  0  0  0  0  0  0  0  0
  153.9051  142.8557  161.4419 H   0  0  0  0  0  0  0  0  0  0  0  0
  152.3251  143.4327  161.9512 H   0  0  0  0  0  0  0  0  0  0  0  0
  153.3654  144.4536  160.9489 H   0  0  0  0  0  0  0  0  0  0  0  0
  1  2  1  0  0  0  0
  1 24  1  0  0  0  0
  1 25  1  0  0  0  0
  1 26  1  0  0  0  0
  2 22  1  0  0  0  0
  2  3  2  0  0  0  0
  3  4  1  0  0  0  0
  4  5  1  0  0  0  0
  4 17  1  0  0  0  0
  5  6  1  0  0  0  0
  5 27  1  0  0  0  0
  5 28  1  0  0  0  0
  6  7  2  0  0  0  0
  6  8  1  0  0  0  0
  8  9  1  0  0  0  0
  8 29  1  0  0  0  0
  9 15  1  0  0  0  0
  9 10  1  0  0  0  0
  9 30  1  0  0  0  0
 10 11  1  0  0  0  0
 10 31  1  0  0  0  0
 10 32  1  0  0  0  0
 11 12  1  0  0  0  0
 11 33  1  0  0  0  0
 11 34  1  0  0  0  0
 12 13  1  0  0  0  0
 12 35  1  0  0  0  0
 12 36  1  0  0  0  0
 13 14  1  0  0  0  0
 13 15  1  0  0  0  0
 13 37  1  0  0  0  0
 14 38  1  0  0  0  0
 14 39  1  0  0  0  0
 14 40  1  0  0  0  0
 15 16  1  0  0  0  0
 15 41  1  0  0  0  0
 16 42  1  0  0  0  0
 16 43  1  0  0  0  0
 16 44  1  0  0  0  0
 17 18  2  0  0  0  0
 17 19  1  0  0  0  0
 19 20  1  0  0  0  0
 19 22  2  0  0  0  0
 20 21  3  0  0  0  0
 22 23  1  0  0  0  0
 23 45  1  0  0  0  0
 23 46  1  0  0  0  0
 23 47  1  0  0  0  0
M  END
> <s_m_source_file>
AV-unprocessed.smi

> <i_m_source_file_index>
1662

> <i_lp_mmshare_version>
43012

> <i_f3d_flags>
0

> <s_epik_input>
TiNDYyhjMVtDSDNdKWMoPU8pbihuYzFbQ0gzXSlbQ0gyXUMoPU8pW05IXVtDQEBIXTJbQ0gyXVtDSDJdW0NIMl1bQ0BASF0oW0NIM10pW0NASF0yW0NIM10=

> <s_epik_cmdline>
J2VwaWtfcHl0aG9uJywgJy1waCcsICc3LjAnLCAnLXRuJywgJzgnLCAnLW1hJywgJzIwMCcsICctbWV0YWxfYmluZGluZycsICctaW1hZScsICc8aW5maWxlLm1hZT4nLCAnLW9tYWUnLCAnPG91dGZpbGUubWFlPic=

> <r_lp_tautomer_probability>
1

> <r_epik_Ionization_Penalty>
1.90709e-08

> <r_epik_Ionization_Penalty_Charging>
2.37982e-11

> <r_epik_Ionization_Penalty_Neutral>
1.90471e-08

> <r_epik_State_Penalty>
-0

> <r_epik_Charging_Adjusted_Penalty>
2.37982e-11

> <i_epik_Tot_Q>
0

> <i_epik_Tot_abs_Q>
0

> <r_epik_Metal_State_Penalty>
-0

> <b_epik_Metal_Only>
0

> <s_lp_Force_Field>
OPLS_2005

> <r_lp_Energy>
29.0639

> <b_lp_Chiralities_Consistent>
1

> <s_lp_Variant>
AV-unprocessed.smi:1662-8

> <Gold.Version>
5.8.1

> <Gold.Id.Protein>
6NUR|6NUR_protein|mol2

> <Gold.PLP.Fitness>
42.3697

> <Gold.PLP.PLP>
-37.0882

> <Gold.PLP.part.hbond>
-2.0000

> <Gold.PLP.part.metal>
0.0000

> <Gold.PLP.part.buried>
-6.1327

> <Gold.PLP.part.nonpolar>
-28.5385

> <Gold.PLP.part.repulsive>
0.1497

> <Gold.PLP.ligand.clash>
0.0000

> <Gold.PLP.ligand.torsion>
0.3615

> <Gold.PLP.Chemscore.Hbond>
2.0000

> <Gold.PLP.Chemscore.CHOScore>
0.0000

> <Gold.PLP.Chemscore.Metal>
0.0000

> <Gold.Chemscore.Hbonds>
donor molecule, donor type, donor heavy atom, donor atom, acceptor molecule, acceptor atom, score
      L1  H     8    29       P1  8028  1.00
      P1  H  7997  8009       L1    18  1.00

> <Gold.PLP.Chemscore.Internal.Correction>
0.0046

> <Gold.Rescore>
     Score         DG    S(hbond)    S(metal)    S(lipo)     H(rot)  DE(clash)    DE(int)     intcor
     16.81     -17.30       1.88        0.00      79.01       1.45       0.08       0.40       ----

> <Gold.Chemscore.Fitness>
16.8123

> <Gold.Chemscore.DG>
-17.2992

> <Gold.Chemscore.ZeroCoef>
-5.4800

> <Gold.Chemscore.Hbond>
1.8827

> <Gold.Chemscore.Metal>
0.0000

> <Gold.Chemscore.Lipo>
79.0075

> <Gold.Chemscore.Internal_Hbond>
0.0000

> <Gold.Chemscore.DEClash>
0.0821

> <Gold.Chemscore.DEInternal>
0.4048

> <Gold.Chemscore.Rot>
1.4504

> <Gold.Chemscore.Internal.Correction>
   9.000000E+99

> <Gold.Chemscore.Hbonds>
donor molecule, donor type, donor heavy atom, donor atom, acceptor molecule, acceptor atom, score
      L1  H     8    29       P1  8028  0.90
      P1  H  7997  8009       L1    18  0.93

> <Gold.Chemscore.Hbond.Weighted>
-6.2882

> <Gold.Chemscore.Metal.Weighted>
-0.0000

> <Gold.Chemscore.Lipo.Weighted>
-9.2439

> <Gold.Chemscore.Internal_Hbond.Weighted>
0.0000

> <Gold.Chemscore.DEClash.Weighted>
0.0821

> <Gold.Chemscore.DEInternal.Weighted>
0.4048

> <Gold.Chemscore.Rot.Weighted>
3.7129

> <Gold.Chemscore.Internal.Correction.Weighted>
   9.000000E+99

> <Gold.Protein.RotatedTorsions>
[ 6907 6896 6895 6894 ] final -139.26 input  -60.11 | X-H torsion
[ 7974 7965 7964 7962 ] final -131.45 input  175.53 | X-H torsion
[ 8008 7997 7996 7995 ] final  178.32 input   59.86 | X-H torsion
[ 10167 10162 10161 10158 ] final -167.33 input  -65.29 | X-H torsion
[ 10718 10713 10712 10709 ] final  -49.32 input   66.30 | X-H torsion
[ 10763 10752 10751 10750 ] final  -84.52 input  -60.55 | X-H torsion
[ 11005 11000 10999 10996 ] final  -88.13 input  -57.11 | X-H torsion

> <Gold.Protein.ActiveResidues>
 VAL166  LYS551  ARG553  GLY616  TRP617  ASP618  TYR619  PRO620  LYS621  CYS622 
 ASP623  PHE694  ASN695  SER759  ASP760  ASP761  ALA762  ILE779  LEU786  VAL792 
 PHE793  MET794  SER795  GLU796  ALA797  LYS798  CYS799  TRP800  GLU811  SER814 

> <Gold.Protein.RotatedAtoms>
  151.0456  133.5668  159.2646 H   0  0  0  0  0  0  0  0  0  0  0  0  # atno 6907 bound_to 6896
  151.2699  135.0680  159.9140 H   0  0  0  0  0  0  0  0  0  0  0  0  # atno 6908 bound_to 6896
  152.5372  134.0188  159.8026 H   0  0  0  0  0  0  0  0  0  0  0  0  # atno 6909 bound_to 6896
  144.9378  140.7204  143.4865 H   0  0  0  0  0  0  0  0  0  0  0  0  # atno 7974 bound_to 7965
  156.0560  140.1336  156.9996 H   0  0  0  0  0  0  0  0  0  0  0  0  # atno 8008 bound_to 7997
  154.4458  140.1001  156.6517 H   0  0  0  0  0  0  0  0  0  0  0  0  # atno 8009 bound_to 7997
  155.5451  140.3461  155.4458 H   0  0  0  0  0  0  0  0  0  0  0  0  # atno 8010 bound_to 7997
  139.6057  144.0919  152.1790 H   0  0  0  0  0  0  0  0  0  0  0  0  # atno 10167 bound_to 10162
  156.1904  130.4152  149.9380 H   0  0  0  0  0  0  0  0  0  0  0  0  # atno 10718 bound_to 10713
  154.6005  135.5517  153.7369 H   0  0  0  0  0  0  0  0  0  0  0  0  # atno 10763 bound_to 10752
  153.0152  135.6365  154.1721 H   0  0  0  0  0  0  0  0  0  0  0  0  # atno 10764 bound_to 10752
  154.1661  135.2894  155.3074 H   0  0  0  0  0  0  0  0  0  0  0  0  # atno 10765 bound_to 10752
  141.1606  133.7551  156.9406 H   0  0  0  0  0  0  0  0  0  0  0  0  # atno 11005 bound_to 11000
  145.3039  139.1841  143.4675 LP  0  0  0  0  0  0  0  0  0  0  0  0  # atno 17320 bound_to 7965
  146.3274  140.3033  142.8622 LP  0  0  0  0  0  0  0  0  0  0  0  0  # atno 17321 bound_to 7965
  140.0525  144.5921  150.7325 LP  0  0  0  0  0  0  0  0  0  0  0  0  # atno 17342 bound_to 10162
  140.7283  143.2660  151.4044 LP  0  0  0  0  0  0  0  0  0  0  0  0  # atno 17343 bound_to 10162
  156.7122  130.8974  151.3610 LP  0  0  0  0  0  0  0  0  0  0  0  0  # atno 17370 bound_to 10713
  157.6925  130.9248  150.0553 LP  0  0  0  0  0  0  0  0  0  0  0  0  # atno 17371 bound_to 10713
  140.1324  134.9347  157.2355 LP  0  0  0  0  0  0  0  0  0  0  0  0  # atno 17394 bound_to 11000
  140.2937  134.3211  155.7308 LP  0  0  0  0  0  0  0  0  0  0  0  0  # atno 17395 bound_to 11000

$$$$
