#       Name:                AV-unprocessed.smi:1663
#       Creating user name   scv26
#       Creation time:       Fri Mar 27 07:37:46 2020


#       File generated by GOLD software.
#

@<TRIPOS>MOLECULE
AV-unprocessed.smi:1663
    42    43     1
SMALL
NO_CHARGES


@<TRIPOS>ATOM
      1 ****        -1.9829  -4.8694  -1.0552 C.3            1 S1                 0.0000
      2 ****        -1.9965  -3.3942  -1.1557 N.4            1 S1                 1.0000
      3 ****        -1.2833  -2.9036  -2.3609 C.3            1 S1                 0.0000
      4 ****        -1.4185  -1.3767  -2.5016 C.3            1 S1                 0.0000
      5 ****        -0.9379  -0.6288  -1.2431 C.3            1 S1                 0.0000
      6 ****         0.6053  -0.6197  -1.1212 C.3            1 S1                 0.0000
      7 ****         1.0772   0.1665   0.0149 N.am           1 S1                 0.0000
      8 ****         1.1527   1.5052   0.0443 C.2            1 S1                 0.0000
      9 ****         0.8171   2.2215  -0.8992 O.2            1 S1                 0.0000
     10 ****         1.6322   1.9422   1.2223 N.am           1 S1                 0.0000
     11 ****         1.8501   3.2834   1.6371 C.ar           1 S1                 0.0000
     12 ****         2.3441   3.4310   2.9532 C.ar           1 S1                 0.0000
     13 ****         2.5914   4.7216   3.4597 C.ar           1 S1                 0.0000
     14 ****         2.3395   5.8330   2.6357 C.ar           1 S1                 0.0000
     15 ****         1.8495   5.5986   1.3377 C.ar           1 S1                 0.0000
     16 ****         1.6108   4.3626   0.8508 N.ar           1 S1                 0.0000
     17 ****        -1.6596  -1.2082  -0.0080 C.3            1 S1                 0.0000
     18 ****        -1.5146  -2.7376   0.0849 C.3            1 S1                 0.0000
     19 ****        -0.9652  -5.2447  -0.9396 H              1 S1                 0.0000
     20 ****        -2.4145  -5.3202  -1.9494 H              1 S1                 0.0000
     21 ****        -2.5705  -5.2028  -0.1992 H              1 S1                 0.0000
     22 ****        -0.2324  -3.1918  -2.3103 H              1 S1                 0.0000
     23 ****        -1.6977  -3.3853  -3.2475 H              1 S1                 0.0000
     24 ****        -0.8711  -1.0310  -3.3793 H              1 S1                 0.0000
     25 ****        -2.4655  -1.1307  -2.6848 H              1 S1                 0.0000
     26 ****        -1.2553   0.4093  -1.3504 H              1 S1                 0.0000
     27 ****         0.9913  -1.6319  -1.0060 H              1 S1                 0.0000
     28 ****         1.0527  -0.2306  -2.0375 H              1 S1                 0.0000
     29 ****         1.3770  -0.3455   0.8317 H              1 S1                 0.0000
     30 ****         1.8660   1.2353   1.9033 H              1 S1                 0.0000
     31 ****         2.5326   2.5664   3.5731 H              1 S1                 0.0000
     32 ****         2.9678   4.8552   4.4632 H              1 S1                 0.0000
     33 ****         2.5172   6.8382   2.9882 H              1 S1                 0.0000
     34 ****         1.6432   6.4239   0.6724 H              1 S1                 0.0000
     35 ****        -1.3004  -0.7406   0.9089 H              1 S1                 0.0000
     36 ****        -2.7200  -0.9599  -0.0699 H              1 S1                 0.0000
     37 ****        -2.0911  -3.1033   0.9355 H              1 S1                 0.0000
     38 ****        -0.4753  -3.0131   0.2692 H              1 S1                 0.0000
     39 ****        -2.9639  -3.1249  -1.2655 H              1 S1                 0.0000
     40 ****         0.4676   1.8091  -1.7405 LP             1 S1                 0.0000
     41 ****         0.8940   3.2157  -0.8243 LP             1 S1                 0.0000
     42 ****         1.2616   4.2438  -0.0787 LP             1 S1                 0.0000
@<TRIPOS>BOND
    1    1    2 1     
    2    1   19 1     
    3    1   20 1     
    4    1   21 1     
    5    2   18 1     
    6    2    3 1     
    7    2   39 1     
    8    3    4 1     
    9    3   22 1     
   10    3   23 1     
   11    4    5 1     
   12    4   24 1     
   13    4   25 1     
   14    5    6 1     
   15    5   17 1     
   16    5   26 1     
   17    6    7 1     
   18    6   27 1     
   19    6   28 1     
   20    7    8 am    
   21    7   29 1     
   22    8    9 2     
   23    8   10 am    
   24   10   11 1     
   25   10   30 1     
   26   11   16 ar    
   27   11   12 ar    
   28   12   13 ar    
   29   12   31 1     
   30   13   14 ar    
   31   13   32 1     
   32   14   15 ar    
   33   14   33 1     
   34   15   16 ar    
   35   15   34 1     
   36   17   18 1     
   37   17   35 1     
   38   17   36 1     
   39   18   37 1     
   40   18   38 1     
   41    9   40 1     
   42    9   41 1     
   43   16   42 1     
@<TRIPOS>SUBSTRUCTURE
      1 S1             1
@<TRIPOS>SET
LONE_PAIRS      STATIC     ATOMS    <user>   **** ""
3 40 41 42
DONOR_HYDROGENS      STATIC     ATOMS    <user>   **** ""
3 39 29 30
ATOM$BLUE        STATIC     ATOMS    COLORGROUP SYSTEM
3 40 41 42
ATOM$RED        STATIC     ATOMS    COLORGROUP SYSTEM
3 39 29 30
