AV-unprocessed.smi:1298|AV-procd|sdf|5417|dock3
  -GOLD-   22720 4573D 1   1.00000     0.00000
 Structure written by MMmdl.
 30 31  0  0  0  0  0  0  0  0  1 V2000
  151.7342  144.2236  157.8953 C   0  0  0  0  0  0  0  0  0  0  0  0
  151.7226  143.1190  158.6562 C   0  0  0  0  0  0  0  0  0  0  0  0
  152.7612  142.9304  160.0233 Cl  0  0  0  0  0  0  0  0  0  0  0  0
  150.8145  141.9247  158.4508 C   0  0  0  0  0  0  0  0  0  0  0  0
  151.4410  140.8125  157.1579 S   0  0  0  0  0  0  0  0  0  0  0  0
  150.5519  139.3350  157.5547 C   0  0  0  0  0  0  0  0  0  0  0  0
  149.7880  139.1781  158.6409 N   0  0  0  0  0  0  0  0  0  0  0  0
  149.2751  137.9040  158.5580 N   0  0  0  0  0  0  0  0  0  0  0  0
  149.7869  137.3903  157.4384 C   0  0  0  0  0  0  0  0  0  0  0  0
  149.4587  136.0202  156.9351 C   0  0  0  0  0  0  0  0  0  0  0  0
  148.0560  135.6632  156.4935 C   0  0  0  0  0  0  0  0  0  0  0  0
  148.6190  135.0662  157.7563 C   0  0  0  0  0  0  0  0  0  0  0  0
  150.5844  138.2426  156.7614 N   0  0  0  0  0  0  0  0  0  0  0  0
  151.2778  138.0409  155.4950 C   0  0  0  0  0  0  0  0  0  0  0  0
  150.7151  138.9570  154.4062 C   0  0  0  0  0  0  0  0  0  0  0  0
  150.2025  138.3705  153.3215 N   0  0  0  0  0  0  0  0  0  0  0  0
  150.7373  140.1782  154.5441 O   0  0  0  0  0  0  0  0  0  0  0  0
  152.4073  145.0410  158.1086 H   0  0  0  0  0  0  0  0  0  0  0  0
  151.0713  144.3245  157.0483 H   0  0  0  0  0  0  0  0  0  0  0  0
  150.7151  141.3755  159.3879 H   0  0  0  0  0  0  0  0  0  0  0  0
  149.8197  142.2767  158.1744 H   0  0  0  0  0  0  0  0  0  0  0  0
  150.2908  135.6096  156.3663 H   0  0  0  0  0  0  0  0  0  0  0  0
  147.2798  136.4186  156.6006 H   0  0  0  0  0  0  0  0  0  0  0  0
  147.9538  135.0094  155.6299 H   0  0  0  0  0  0  0  0  0  0  0  0
  148.8937  134.0137  157.7376 H   0  0  0  0  0  0  0  0  0  0  0  0
  148.2191  135.4277  158.7018 H   0  0  0  0  0  0  0  0  0  0  0  0
  152.3421  138.2387  155.6219 H   0  0  0  0  0  0  0  0  0  0  0  0
  151.1957  136.9943  155.2015 H   0  0  0  0  0  0  0  0  0  0  0  0
  149.8163  138.9323  152.5770 H   0  0  0  0  0  0  0  0  0  0  0  0
  150.2007  137.3629  153.2520 H   0  0  0  0  0  0  0  0  0  0  0  0
  1  2  2  0  0  0  0
  1 18  1  0  0  0  0
  1 19  1  0  0  0  0
  2  3  1  0  0  0  0
  2  4  1  0  0  0  0
  4  5  1  0  0  0  0
  4 20  1  0  0  0  0
  4 21  1  0  0  0  0
  5  6  1  0  0  0  0
  6 13  1  0  0  0  0
  6  7  2  0  0  0  0
  7  8  1  0  0  0  0
  8  9  2  0  0  0  0
  9 10  1  0  0  0  0
  9 13  1  0  0  0  0
 10 12  1  0  0  0  0
 10 11  1  0  0  0  0
 10 22  1  0  0  0  0
 11 12  1  0  0  0  0
 11 23  1  0  0  0  0
 11 24  1  0  0  0  0
 12 25  1  0  0  0  0
 12 26  1  0  0  0  0
 13 14  1  0  0  0  0
 14 15  1  0  0  0  0
 14 27  1  0  0  0  0
 14 28  1  0  0  0  0
 15 16  1  0  0  0  0
 15 17  2  0  0  0  0
 16 29  1  0  0  0  0
 16 30  1  0  0  0  0
M  END
> <s_m_source_file>
AV-unprocessed.smi

> <i_m_source_file_index>
1298

> <i_lp_mmshare_version>
43012

> <i_f3d_flags>
0

> <s_epik_input>
W0NIMl09QyhDbClbQ0gyXVNjMW5uYyhbQ0hdMltDSDJdW0NIMl0yKW4xW0NIMl1DKD1PKVtOSDJd

> <s_epik_cmdline>
J2VwaWtfcHl0aG9uJywgJy1waCcsICc3LjAnLCAnLXRuJywgJzgnLCAnLW1hJywgJzIwMCcsICctbWV0YWxfYmluZGluZycsICctaW1hZScsICc8aW5maWxlLm1hZT4nLCAnLW9tYWUnLCAnPG91dGZpbGUubWFlPic=

> <r_lp_tautomer_probability>
1

> <r_epik_Ionization_Penalty>
2.01117e-07

> <r_epik_Ionization_Penalty_Charging>
0

> <r_epik_Ionization_Penalty_Neutral>
2.01117e-07

> <r_epik_State_Penalty>
-0

> <r_epik_Charging_Adjusted_Penalty>
0

> <i_epik_Tot_Q>
0

> <i_epik_Tot_abs_Q>
0

> <r_epik_Metal_State_Penalty>
-0

> <b_epik_Metal_Only>
0

> <s_lp_Force_Field>
OPLS_2005

> <r_lp_Energy>
3.32617

> <b_lp_Chiralities_Consistent>
1

> <s_lp_Variant>
AV-unprocessed.smi:1298-1

> <Gold.Version>
5.8.1

> <Gold.Id.Protein>
6NUR|6NUR_protein|mol2

> <Gold.PLP.Fitness>
33.8949

> <Gold.PLP.PLP>
-27.2276

> <Gold.PLP.part.hbond>
-3.3043

> <Gold.PLP.part.metal>
0.0000

> <Gold.PLP.part.buried>
-4.7870

> <Gold.PLP.part.nonpolar>
-19.4561

> <Gold.PLP.part.repulsive>
0.1714

> <Gold.PLP.ligand.clash>
0.0000

> <Gold.PLP.ligand.torsion>
0.5268

> <Gold.PLP.Chemscore.Hbond>
2.4990

> <Gold.PLP.Chemscore.CHOScore>
0.0000

> <Gold.PLP.Chemscore.Metal>
0.0000

> <Gold.Chemscore.Hbonds>
donor molecule, donor type, donor heavy atom, donor atom, acceptor molecule, acceptor atom, score
      L1  H    16    29       P1  7957  1.00
      L1  H    16    30       P1  7948  0.30
      P1  H  7989  7998       L1    17  1.00

> <Gold.PLP.Chemscore.Internal.Correction>
0.2237

> <Gold.Rescore>
     Score         DG    S(hbond)    S(metal)    S(lipo)     H(rot)  DE(clash)    DE(int)     intcor
     11.75     -13.65       2.30        0.00      61.09       2.60       0.00       1.90       ----

> <Gold.Chemscore.Fitness>
11.7522

> <Gold.Chemscore.DG>
-13.6493

> <Gold.Chemscore.ZeroCoef>
-5.4800

> <Gold.Chemscore.Hbond>
2.2980

> <Gold.Chemscore.Metal>
0.0000

> <Gold.Chemscore.Lipo>
61.0880

> <Gold.Chemscore.Internal_Hbond>
0.0000

> <Gold.Chemscore.DEClash>
0.0000

> <Gold.Chemscore.DEInternal>
1.8971

> <Gold.Chemscore.Rot>
2.5990

> <Gold.Chemscore.Internal.Correction>
   9.000000E+99

> <Gold.Chemscore.Hbonds>
donor molecule, donor type, donor heavy atom, donor atom, acceptor molecule, acceptor atom, score
      L1  H    16    29       P1  7957  0.70
      L1  H    16    30       P1  7948  0.04
      P1  H  7989  7998       L1    17  0.77

> <Gold.Chemscore.Hbond.Weighted>
-7.6754

> <Gold.Chemscore.Metal.Weighted>
-0.0000

> <Gold.Chemscore.Lipo.Weighted>
-7.1473

> <Gold.Chemscore.Internal_Hbond.Weighted>
0.0000

> <Gold.Chemscore.DEClash.Weighted>
0.0000

> <Gold.Chemscore.DEInternal.Weighted>
1.8971

> <Gold.Chemscore.Rot.Weighted>
6.6534

> <Gold.Chemscore.Internal.Correction.Weighted>
   9.000000E+99

> <Gold.Protein.RotatedTorsions>
[ 6907 6896 6895 6894 ] final   80.45 input  -60.11 | X-H torsion
[ 7974 7965 7964 7962 ] final  135.86 input  175.53 | X-H torsion
[ 8008 7997 7996 7995 ] final   80.76 input   59.86 | X-H torsion
[ 10167 10162 10161 10158 ] final  130.53 input  -65.29 | X-H torsion
[ 10718 10713 10712 10709 ] final  -97.44 input   66.30 | X-H torsion
[ 10763 10752 10751 10750 ] final -179.20 input  -60.55 | X-H torsion
[ 11005 11000 10999 10996 ] final  156.32 input  -57.11 | X-H torsion

> <Gold.Protein.ActiveResidues>
 VAL166  LYS551  ARG553  GLY616  TRP617  ASP618  TYR619  PRO620  LYS621  CYS622 
 ASP623  PHE694  ASN695  SER759  ASP760  ASP761  ALA762  ILE779  LEU786  VAL792 
 PHE793  MET794  SER795  GLU796  ALA797  LYS798  CYS799  TRP800  GLU811  SER814 

> <Gold.Protein.RotatedAtoms>
  152.5235  134.3356  159.9198 H   0  0  0  0  0  0  0  0  0  0  0  0  # atno 6907 bound_to 6896
  151.3305  133.3996  159.2670 H   0  0  0  0  0  0  0  0  0  0  0  0  # atno 6908 bound_to 6896
  150.9884  134.9242  159.7943 H   0  0  0  0  0  0  0  0  0  0  0  0  # atno 6909 bound_to 6896
  144.9622  139.4698  143.5474 H   0  0  0  0  0  0  0  0  0  0  0  0  # atno 7974 bound_to 7965
  155.8879  140.3440  155.5935 H   0  0  0  0  0  0  0  0  0  0  0  0  # atno 8008 bound_to 7997
  155.7645  140.0837  157.2158 H   0  0  0  0  0  0  0  0  0  0  0  0  # atno 8009 bound_to 7997
  154.4030  140.1530  156.2858 H   0  0  0  0  0  0  0  0  0  0  0  0  # atno 8010 bound_to 7997
  139.5425  144.6744  151.4577 H   0  0  0  0  0  0  0  0  0  0  0  0  # atno 10167 bound_to 10162
  156.0084  130.5194  150.6375 H   0  0  0  0  0  0  0  0  0  0  0  0  # atno 10718 bound_to 10713
  154.5380  135.2804  155.1121 H   0  0  0  0  0  0  0  0  0  0  0  0  # atno 10763 bound_to 10752
  154.2615  135.6321  153.5280 H   0  0  0  0  0  0  0  0  0  0  0  0  # atno 10764 bound_to 10752
  152.9972  135.5606  154.5912 H   0  0  0  0  0  0  0  0  0  0  0  0  # atno 10765 bound_to 10752
  140.1664  134.8573  157.2637 H   0  0  0  0  0  0  0  0  0  0  0  0  # atno 11005 bound_to 11000
  146.3356  139.8779  142.8829 LP  0  0  0  0  0  0  0  0  0  0  0  0  # atno 17320 bound_to 7965
  145.2683  141.0100  143.3786 LP  0  0  0  0  0  0  0  0  0  0  0  0  # atno 17321 bound_to 7965
  140.6661  143.8394  150.6944 LP  0  0  0  0  0  0  0  0  0  0  0  0  # atno 17342 bound_to 10162
  140.1804  143.4120  152.1937 LP  0  0  0  0  0  0  0  0  0  0  0  0  # atno 17343 bound_to 10162
  157.4161  131.0830  151.1175 LP  0  0  0  0  0  0  0  0  0  0  0  0  # atno 17370 bound_to 10713
  157.1791  130.6301  149.5666 LP  0  0  0  0  0  0  0  0  0  0  0  0  # atno 17371 bound_to 10713
  140.2429  134.3775  155.7473 LP  0  0  0  0  0  0  0  0  0  0  0  0  # atno 17394 bound_to 11000
  141.2214  133.7274  156.8816 LP  0  0  0  0  0  0  0  0  0  0  0  0  # atno 17395 bound_to 11000

$$$$
