AV-unprocessed.smi:2698|AV-procd|sdf|10419|dock6
  -GOLD-   2272014453D 1   1.00000     0.00000
 Structure written by MMmdl.
 33 33  0  0  0  0  0  0  0  0  2 V2000
  152.7728  142.6241  160.9803 C   0  0  0  0  0  0  0  0  0  0  0  0
  153.0477  141.6899  159.7872 C   0  0  0  0  0  0  0  0  0  0  0  0
  152.2056  142.1078  158.5725 C   0  0  0  0  0  0  0  0  0  0  0  0
  152.8209  140.1960  160.1152 C   0  0  0  0  0  0  0  0  0  0  0  0
  153.4154  139.2515  159.0684 C   0  0  0  0  0  0  0  0  0  0  0  0
  154.6125  139.3156  158.7893 O   0  0  0  0  0  0  0  0  0  0  0  0
  152.5610  138.3880  158.4989 N   0  0  0  0  0  0  0  0  0  0  0  0
  152.8839  137.4088  157.4617 C   0  0  2  0  0  0  0  0  0  0  0  0
  151.5820  136.9666  156.7572 C   0  0  0  0  0  0  0  0  0  0  0  0
  151.1034  137.8718  155.6441 C   0  0  0  0  0  0  0  0  0  0  0  0
  151.1394  139.2409  155.4786 C   0  0  0  0  0  0  0  0  0  0  0  0
  150.5694  139.5881  154.2513 N   0  0  0  0  0  0  0  0  0  0  0  0
  150.2236  138.4235  153.7159 C   0  0  0  0  0  0  0  0  0  0  0  0
  150.5205  137.3768  154.4905 N   0  0  0  0  0  0  0  0  0  0  0  0
  153.5849  136.2045  158.1048 C   0  0  0  0  0  0  0  0  0  0  0  0
  153.6337  136.1606  159.3548 O   0  0  0  0  0  0  0  0  0  0  0  0
  154.0618  135.3444  157.3326 O   0  5  0  0  0  0  0  0  0  0  0  0
  150.3462  136.4049  154.2780 H   0  0  0  0  0  0  0  0  0  0  0  0
  151.7499  142.5139  161.3415 H   0  0  0  0  0  0  0  0  0  0  0  0
  152.9154  143.6680  160.6997 H   0  0  0  0  0  0  0  0  0  0  0  0
  153.4450  142.4246  161.8146 H   0  0  0  0  0  0  0  0  0  0  0  0
  154.0950  141.8175  159.5082 H   0  0  0  0  0  0  0  0  0  0  0  0
  151.1392  142.0067  158.7768 H   0  0  0  0  0  0  0  0  0  0  0  0
  152.4379  141.4931  157.7023 H   0  0  0  0  0  0  0  0  0  0  0  0
  152.3955  143.1462  158.2995 H   0  0  0  0  0  0  0  0  0  0  0  0
  153.2502  139.9574  161.0893 H   0  0  0  0  0  0  0  0  0  0  0  0
  151.7524  139.9912  160.1980 H   0  0  0  0  0  0  0  0  0  0  0  0
  151.6014  138.3989  158.8123 H   0  0  0  0  0  0  0  0  0  0  0  0
  153.5589  137.8360  156.7174 H   0  0  0  0  0  0  0  0  0  0  0  0
  151.7119  135.9701  156.3325 H   0  0  0  0  0  0  0  0  0  0  0  0
  150.7770  136.8829  157.4895 H   0  0  0  0  0  0  0  0  0  0  0  0
  151.5279  139.9993  156.1421 H   0  0  0  0  0  0  0  0  0  0  0  0
  149.7515  138.3317  152.7490 H   0  0  0  0  0  0  0  0  0  0  0  0
  1  2  1  0  0  0  0
  1 19  1  0  0  0  0
  1 20  1  0  0  0  0
  1 21  1  0  0  0  0
  2  3  1  0  0  0  0
  2  4  1  0  0  0  0
  2 22  1  0  0  0  0
  3 23  1  0  0  0  0
  3 24  1  0  0  0  0
  3 25  1  0  0  0  0
  4  5  1  0  0  0  0
  4 26  1  0  0  0  0
  4 27  1  0  0  0  0
  5  6  2  0  0  0  0
  5  7  1  0  0  0  0
  7  8  1  0  0  0  0
  7 28  1  0  0  0  0
  8  9  1  0  0  0  0
  8 15  1  0  0  0  0
  8 29  1  0  0  0  0
  9 30  1  0  0  0  0
  9 31  1  0  0  0  0
  9 10  1  0  0  0  0
 10 11  2  0  0  0  0
 10 14  1  0  0  0  0
 11 32  1  0  0  0  0
 11 12  1  0  0  0  0
 12 13  2  0  0  0  0
 13 14  1  0  0  0  0
 13 33  1  0  0  0  0
 14 18  1  0  0  0  0
 15 16  2  0  0  0  0
 15 17  1  0  0  0  0
M  CHG  1  17  -1
M  END
> <s_m_source_file>
AV-unprocessed.smi

> <i_m_source_file_index>
2698

> <i_lp_mmshare_version>
43012

> <i_f3d_flags>
0

> <s_epik_input>
W0NIM11bQ0hdKFtDSDNdKVtDSDJdQyg9TylbTkhdW0NAQEhdKEMoPU8pW09IXSlbQ0gyXWMxW2NIXVtuSF1bY0hdbjE=

> <s_epik_cmdline>
J2VwaWtfcHl0aG9uJywgJy1waCcsICc3LjAnLCAnLXRuJywgJzgnLCAnLW1hJywgJzIwMCcsICctbWV0YWxfYmluZGluZycsICctaW1hZScsICc8aW5maWxlLm1hZT4nLCAnLW9tYWUnLCAnPG91dGZpbGUubWFlPic=

> <r_lp_tautomer_probability>
0.5

> <r_epik_Ionization_Penalty>
0.536153

> <r_epik_Ionization_Penalty_Charging>
0.536153

> <r_epik_Ionization_Penalty_Neutral>
4.95393e-08

> <r_epik_State_Penalty>
0.778213

> <r_epik_Charging_Adjusted_Penalty>
1.31437

> <i_epik_Tot_Q>
-1

> <i_epik_Tot_abs_Q>
1

> <r_epik_Metal_State_Penalty>
0.658344

> <b_epik_Metal_Only>
0

> <s_lp_Force_Field>
OPLS_2005

> <r_lp_Energy>
3.7745

> <b_lp_Chiralities_Consistent>
1

> <s_lp_Variant>
AV-unprocessed.smi:2698-3

> <Gold.Version>
5.8.1

> <Gold.Id.Protein>
6NUR|6NUR_protein|mol2

> <Gold.PLP.Fitness>
46.0123

> <Gold.PLP.PLP>
-24.3766

> <Gold.PLP.part.hbond>
-4.0000

> <Gold.PLP.part.metal>
0.0000

> <Gold.PLP.part.buried>
-3.5435

> <Gold.PLP.part.nonpolar>
-18.0993

> <Gold.PLP.part.repulsive>
0.2876

> <Gold.PLP.ligand.clash>
0.0000

> <Gold.PLP.ligand.torsion>
1.0460

> <Gold.PLP.Chemscore.Hbond>
6.0000

> <Gold.PLP.Chemscore.CHOScore>
1.8887

> <Gold.PLP.Chemscore.Metal>
0.0000

> <Gold.Chemscore.Hbonds>
donor molecule, donor type, donor heavy atom, donor atom, acceptor molecule, acceptor atom, score
      P1  H  6896  6909       L1    16  2.00
      P1  H  7989  7998       L1    12  1.00
      P1  H  7997  8010       L1     6  1.00
      P1  H 10752 10763       L1    17  2.00
      L1  C    13    33       P1  7948  0.87
      L1  C    13    33       P1  7957  0.92

> <Gold.PLP.Chemscore.Internal.Correction>
0.0616

> <Gold.Rescore>
     Score         DG    S(hbond)    S(metal)    S(lipo)     H(rot)  DE(clash)    DE(int)     intcor
     15.87     -17.33       3.84        0.00      57.65       3.01       0.19       1.26       ----

> <Gold.Chemscore.Fitness>
15.8731

> <Gold.Chemscore.DG>
-17.3319

> <Gold.Chemscore.ZeroCoef>
-5.4800

> <Gold.Chemscore.Hbond>
3.8394

> <Gold.Chemscore.Metal>
0.0000

> <Gold.Chemscore.Lipo>
57.6528

> <Gold.Chemscore.Internal_Hbond>
0.0000

> <Gold.Chemscore.DEClash>
0.1941

> <Gold.Chemscore.DEInternal>
1.2647

> <Gold.Chemscore.Rot>
3.0145

> <Gold.Chemscore.Internal.Correction>
   9.000000E+99

> <Gold.Chemscore.Hbonds>
donor molecule, donor type, donor heavy atom, donor atom, acceptor molecule, acceptor atom, score
      P1  H  6896  6909       L1    16  0.67
      P1  H  7989  7998       L1    12  0.65
      P1  H  7997  8010       L1     6  0.91
      P1  H 10752 10763       L1    17  0.99

> <Gold.Chemscore.Hbond.Weighted>
-12.8236

> <Gold.Chemscore.Metal.Weighted>
-0.0000

> <Gold.Chemscore.Lipo.Weighted>
-6.7454

> <Gold.Chemscore.Internal_Hbond.Weighted>
0.0000

> <Gold.Chemscore.DEClash.Weighted>
0.1941

> <Gold.Chemscore.DEInternal.Weighted>
1.2647

> <Gold.Chemscore.Rot.Weighted>
7.7171

> <Gold.Chemscore.Internal.Correction.Weighted>
   9.000000E+99

> <Gold.Protein.RotatedTorsions>
[ 6907 6896 6895 6894 ] final  171.02 input  -60.11 | X-H torsion
[ 7974 7965 7964 7962 ] final   26.83 input  175.53 | X-H torsion
[ 8008 7997 7996 7995 ] final    9.71 input   59.86 | X-H torsion
[ 10167 10162 10161 10158 ] final   15.33 input  -65.29 | X-H torsion
[ 10718 10713 10712 10709 ] final   -8.58 input   66.30 | X-H torsion
[ 10763 10752 10751 10750 ] final  135.87 input  -60.55 | X-H torsion
[ 11005 11000 10999 10996 ] final  -21.27 input  -57.11 | X-H torsion

> <Gold.Protein.ActiveResidues>
 VAL166  LYS551  ARG553  GLY616  TRP617  ASP618  TYR619  PRO620  LYS621  CYS622 
 ASP623  PHE694  ASN695  SER759  ASP760  ASP761  ALA762  ILE779  LEU786  VAL792 
 PHE793  MET794  SER795  GLU796  ALA797  LYS798  CYS799  TRP800  GLU811  SER814 

> <Gold.Protein.RotatedAtoms>
  151.8069  133.3377  159.3543 H   0  0  0  0  0  0  0  0  0  0  0  0  # atno 6907 bound_to 6896
  150.7339  134.5701  159.5895 H   0  0  0  0  0  0  0  0  0  0  0  0  # atno 6908 bound_to 6896
  152.3103  134.7506  160.0389 H   0  0  0  0  0  0  0  0  0  0  0  0  # atno 6909 bound_to 6896
  146.1817  139.7274  142.8896 H   0  0  0  0  0  0  0  0  0  0  0  0  # atno 7974 bound_to 7965
  154.7837  140.2823  155.6044 H   0  0  0  0  0  0  0  0  0  0  0  0  # atno 8008 bound_to 7997
  156.2954  140.2618  156.2597 H   0  0  0  0  0  0  0  0  0  0  0  0  # atno 8009 bound_to 7997
  154.9753  140.0375  157.2243 H   0  0  0  0  0  0  0  0  0  0  0  0  # atno 8010 bound_to 7997
  140.5875  143.8861  150.6843 H   0  0  0  0  0  0  0  0  0  0  0  0  # atno 10167 bound_to 10162
  156.7006  130.5092  149.5918 H   0  0  0  0  0  0  0  0  0  0  0  0  # atno 10718 bound_to 10713
  153.8472  135.3084  155.3430 H   0  0  0  0  0  0  0  0  0  0  0  0  # atno 10763 bound_to 10752
  154.7907  135.4784  154.0049 H   0  0  0  0  0  0  0  0  0  0  0  0  # atno 10764 bound_to 10752
  153.1540  135.6848  153.8933 H   0  0  0  0  0  0  0  0  0  0  0  0  # atno 10765 bound_to 10752
  140.8545  133.7833  156.0003 H   0  0  0  0  0  0  0  0  0  0  0  0  # atno 11005 bound_to 11000
  145.4058  141.0390  143.3045 LP  0  0  0  0  0  0  0  0  0  0  0  0  # atno 17320 bound_to 7965
  144.8326  139.5603  143.6937 LP  0  0  0  0  0  0  0  0  0  0  0  0  # atno 17321 bound_to 7965
  140.2376  143.3688  152.1513 LP  0  0  0  0  0  0  0  0  0  0  0  0  # atno 17342 bound_to 10162
  139.5206  144.7035  151.5422 LP  0  0  0  0  0  0  0  0  0  0  0  0  # atno 17343 bound_to 10162
  156.1731  130.6450  151.0862 LP  0  0  0  0  0  0  0  0  0  0  0  0  # atno 17370 bound_to 10713
  157.6974  131.0789  150.6926 LP  0  0  0  0  0  0  0  0  0  0  0  0  # atno 17371 bound_to 10713
  140.8753  134.2677  157.5171 LP  0  0  0  0  0  0  0  0  0  0  0  0  # atno 17394 bound_to 11000
  139.8705  134.9588  156.4311 LP  0  0  0  0  0  0  0  0  0  0  0  0  # atno 17395 bound_to 11000

$$$$
