AV-unprocessed.smi:1458|AV-procd|sdf|5922|dock4
  -GOLD-   22720 6 03D 1   1.00000     0.00000
 Structure written by MMmdl.
 46 47  0  0  0  0  0  0  0  0  1 V2000
  144.6453  135.2695  150.7136 C   0  0  0  0  0  0  0  0  0  0  0  0
  145.4989  136.2524  151.2724 O   0  0  0  0  0  0  0  0  0  0  0  0
  145.9599  137.1855  150.3087 C   0  0  0  0  0  0  0  0  0  0  0  0
  146.2463  138.5238  150.9990 C   0  0  0  0  0  0  0  0  0  0  0  0
  147.3775  138.4015  151.9085 N   0  0  0  0  0  0  0  0  0  0  0  0
  147.6832  139.2908  152.8616 C   0  0  0  0  0  0  0  0  0  0  0  0
  147.0232  140.3073  153.0751 O   0  0  0  0  0  0  0  0  0  0  0  0
  148.7969  138.9293  153.5216 N   0  0  0  0  0  0  0  0  0  0  0  0
  149.4695  139.6130  154.5704 C   0  0  0  0  0  0  0  0  0  0  0  0
  148.8217  140.7150  155.1604 C   0  0  0  0  0  0  0  0  0  0  0  0
  149.4634  141.4188  156.1964 C   0  0  0  0  0  0  0  0  0  0  0  0
  150.7487  141.0055  156.6183 C   0  0  0  0  0  0  0  0  0  0  0  0
  151.4057  141.6885  157.6648 N   0  0  0  0  0  0  0  0  0  0  0  0
  150.7849  142.9412  158.0874 C   0  0  0  0  0  0  0  0  0  0  0  0
  151.7372  143.7578  158.9827 C   0  0  2  0  0  0  0  0  0  0  0  0
  152.8696  144.4490  158.2024 C   0  0  0  0  0  0  0  0  0  0  0  0
  152.2325  142.9456  160.0493 O   0  0  0  0  0  0  0  0  0  0  0  0
  152.8868  141.7477  159.6334 C   0  0  1  0  0  0  0  0  0  0  0  0
  153.3455  140.9991  160.8892 C   0  0  0  0  0  0  0  0  0  0  0  0
  151.9245  140.9018  158.7804 C   0  0  0  0  0  0  0  0  0  0  0  0
  151.3824  139.9596  156.0335 N   0  0  0  0  0  0  0  0  0  0  0  0
  150.7633  139.2860  155.0407 C   0  0  0  0  0  0  0  0  0  0  0  0
  144.3194  134.5817  151.4938 H   0  0  0  0  0  0  0  0  0  0  0  0
  145.1608  134.6891  149.9475 H   0  0  0  0  0  0  0  0  0  0  0  0
  143.7573  135.7233  150.2719 H   0  0  0  0  0  0  0  0  0  0  0  0
  146.8734  136.8115  149.8438 H   0  0  0  0  0  0  0  0  0  0  0  0
  145.2203  137.3162  149.5169 H   0  0  0  0  0  0  0  0  0  0  0  0
  146.4435  139.2943  150.2519 H   0  0  0  0  0  0  0  0  0  0  0  0
  145.3707  138.8422  151.5664 H   0  0  0  0  0  0  0  0  0  0  0  0
  147.9747  137.5962  151.7905 H   0  0  0  0  0  0  0  0  0  0  0  0
  149.2577  138.0967  153.1850 H   0  0  0  0  0  0  0  0  0  0  0  0
  147.8400  141.0197  154.8278 H   0  0  0  0  0  0  0  0  0  0  0  0
  148.9702  142.2687  156.6437 H   0  0  0  0  0  0  0  0  0  0  0  0
  150.4737  143.5524  157.2415 H   0  0  0  0  0  0  0  0  0  0  0  0
  149.8791  142.6990  158.6446 H   0  0  0  0  0  0  0  0  0  0  0  0
  151.1519  144.5489  159.4520 H   0  0  0  0  0  0  0  0  0  0  0  0
  152.4633  145.1633  157.4861 H   0  0  0  0  0  0  0  0  0  0  0  0
  153.4782  143.7410  157.6406 H   0  0  0  0  0  0  0  0  0  0  0  0
  153.5280  144.9970  158.8765 H   0  0  0  0  0  0  0  0  0  0  0  0
  153.7717  141.9967  159.0475 H   0  0  0  0  0  0  0  0  0  0  0  0
  153.8612  140.0746  160.6288 H   0  0  0  0  0  0  0  0  0  0  0  0
  152.4988  140.7426  161.5266 H   0  0  0  0  0  0  0  0  0  0  0  0
  154.0320  141.6088  161.4772 H   0  0  0  0  0  0  0  0  0  0  0  0
  151.0897  140.5502  159.3888 H   0  0  0  0  0  0  0  0  0  0  0  0
  152.4517  140.0218  158.4096 H   0  0  0  0  0  0  0  0  0  0  0  0
  151.3431  138.4819  154.6160 H   0  0  0  0  0  0  0  0  0  0  0  0
  1  2  1  0  0  0  0
  1 23  1  0  0  0  0
  1 24  1  0  0  0  0
  1 25  1  0  0  0  0
  2  3  1  0  0  0  0
  3  4  1  0  0  0  0
  3 26  1  0  0  0  0
  3 27  1  0  0  0  0
  4  5  1  0  0  0  0
  4 28  1  0  0  0  0
  4 29  1  0  0  0  0
  5  6  1  0  0  0  0
  5 30  1  0  0  0  0
  6  7  2  0  0  0  0
  6  8  1  0  0  0  0
  8  9  1  0  0  0  0
  8 31  1  0  0  0  0
  9 22  1  0  0  0  0
  9 10  2  0  0  0  0
 10 11  1  0  0  0  0
 10 32  1  0  0  0  0
 11 12  2  0  0  0  0
 11 33  1  0  0  0  0
 12 13  1  0  0  0  0
 12 21  1  0  0  0  0
 13 20  1  0  0  0  0
 13 14  1  0  0  0  0
 14 15  1  0  0  0  0
 14 34  1  0  0  0  0
 14 35  1  0  0  0  0
 15 16  1  0  0  0  0
 15 17  1  0  0  0  0
 15 36  1  0  0  0  0
 16 37  1  0  0  0  0
 16 38  1  0  0  0  0
 16 39  1  0  0  0  0
 17 18  1  0  0  0  0
 18 19  1  0  0  0  0
 18 20  1  0  0  0  0
 18 40  1  0  0  0  0
 19 41  1  0  0  0  0
 19 42  1  0  0  0  0
 19 43  1  0  0  0  0
 20 44  1  0  0  0  0
 20 45  1  0  0  0  0
 21 22  2  0  0  0  0
 22 46  1  0  0  0  0
M  END
> <s_m_source_file>
AV-unprocessed.smi

> <i_m_source_file_index>
1458

> <i_lp_mmshare_version>
43012

> <i_f3d_flags>
0

> <s_epik_input>
W0NIM11PW0NIMl1bQ0gyXVtOSF1DKD1PKVtOSF1jMVtjSF1bY0hdYyhuW2NIXTEpTjJbQ0gyXVtDQEBIXShbQ0gzXSlPW0NAQEhdKFtDSDNdKVtDSDJdMg==

> <s_epik_cmdline>
J2VwaWtfcHl0aG9uJywgJy1waCcsICc3LjAnLCAnLXRuJywgJzgnLCAnLW1hJywgJzIwMCcsICctbWV0YWxfYmluZGluZycsICctaW1hZScsICc8aW5maWxlLm1hZT4nLCAnLW9tYWUnLCAnPG91dGZpbGUubWFlPic=

> <r_lp_tautomer_probability>
1

> <r_epik_Ionization_Penalty>
0.00266072

> <r_epik_Ionization_Penalty_Charging>
0

> <r_epik_Ionization_Penalty_Neutral>
0.00266072

> <r_epik_State_Penalty>
0.00182795

> <r_epik_Charging_Adjusted_Penalty>
0.00182795

> <i_epik_Tot_Q>
0

> <i_epik_Tot_abs_Q>
0

> <r_epik_Metal_State_Penalty>
-0

> <b_epik_Metal_Only>
0

> <s_lp_Force_Field>
OPLS_2005

> <r_lp_Energy>
22.687

> <b_lp_Chiralities_Consistent>
1

> <s_lp_Variant>
AV-unprocessed.smi:1458-2

> <Gold.Version>
5.8.1

> <Gold.Id.Protein>
6NUR|6NUR_protein|mol2

> <Gold.PLP.Fitness>
46.3504

> <Gold.PLP.PLP>
-43.0704

> <Gold.PLP.part.hbond>
-3.6905

> <Gold.PLP.part.metal>
0.0000

> <Gold.PLP.part.buried>
3.8656

> <Gold.PLP.part.nonpolar>
-44.1220

> <Gold.PLP.part.repulsive>
0.6403

> <Gold.PLP.ligand.clash>
0.0000

> <Gold.PLP.ligand.torsion>
0.4714

> <Gold.PLP.Chemscore.Hbond>
1.2917

> <Gold.PLP.Chemscore.CHOScore>
0.0000

> <Gold.PLP.Chemscore.Metal>
0.0000

> <Gold.Chemscore.Hbonds>
donor molecule, donor type, donor heavy atom, donor atom, acceptor molecule, acceptor atom, score
      L1  H     5    30       P1  7948  1.00
      L1  H     8    31       P1  7948  0.34

> <Gold.PLP.Chemscore.Internal.Correction>
0.3475

> <Gold.Rescore>
     Score         DG    S(hbond)    S(metal)    S(lipo)     H(rot)  DE(clash)    DE(int)     intcor
     14.87     -20.34       1.82        0.00     110.46       1.62       3.55       1.92       ----

> <Gold.Chemscore.Fitness>
14.8749

> <Gold.Chemscore.DG>
-20.3370

> <Gold.Chemscore.ZeroCoef>
-5.4800

> <Gold.Chemscore.Hbond>
1.8210

> <Gold.Chemscore.Metal>
0.0000

> <Gold.Chemscore.Lipo>
110.4577

> <Gold.Chemscore.Internal_Hbond>
0.0000

> <Gold.Chemscore.DEClash>
3.5464

> <Gold.Chemscore.DEInternal>
1.9157

> <Gold.Chemscore.Rot>
1.6206

> <Gold.Chemscore.Internal.Correction>
   9.000000E+99

> <Gold.Chemscore.Hbonds>
donor molecule, donor type, donor heavy atom, donor atom, acceptor molecule, acceptor atom, score
      L1  H     5    30       P1  7948  1.00
      L1  H     8    31       P1  7948  0.33

> <Gold.Chemscore.Hbond.Weighted>
-6.0821

> <Gold.Chemscore.Metal.Weighted>
-0.0000

> <Gold.Chemscore.Lipo.Weighted>
-12.9235

> <Gold.Chemscore.Internal_Hbond.Weighted>
0.0000

> <Gold.Chemscore.DEClash.Weighted>
3.5464

> <Gold.Chemscore.DEInternal.Weighted>
1.9157

> <Gold.Chemscore.Rot.Weighted>
4.1486

> <Gold.Chemscore.Internal.Correction.Weighted>
   9.000000E+99

> <Gold.Protein.RotatedTorsions>
[ 6907 6896 6895 6894 ] final  -45.40 input  -60.11 | X-H torsion
[ 7974 7965 7964 7962 ] final  163.09 input  175.53 | X-H torsion
[ 8008 7997 7996 7995 ] final   66.54 input   59.86 | X-H torsion
[ 10167 10162 10161 10158 ] final  -41.11 input  -65.29 | X-H torsion
[ 10718 10713 10712 10709 ] final  -75.16 input   66.30 | X-H torsion
[ 10763 10752 10751 10750 ] final   71.19 input  -60.55 | X-H torsion
[ 11005 11000 10999 10996 ] final   44.72 input  -57.11 | X-H torsion

> <Gold.Protein.ActiveResidues>
 VAL166  LYS551  ARG553  GLY616  TRP617  ASP618  TYR619  PRO620  LYS621  CYS622 
 ASP623  PHE694  ASN695  SER759  ASP760  ASP761  ALA762  ILE779  LEU786  VAL792 
 PHE793  MET794  SER795  GLU796  ALA797  LYS798  CYS799  TRP800  GLU811  SER814 

> <Gold.Protein.RotatedAtoms>
  150.9224  134.8641  159.7497 H   0  0  0  0  0  0  0  0  0  0  0  0  # atno 6907 bound_to 6896
  152.4999  134.4199  159.9487 H   0  0  0  0  0  0  0  0  0  0  0  0  # atno 6908 bound_to 6896
  151.4232  133.3652  159.2794 H   0  0  0  0  0  0  0  0  0  0  0  0  # atno 6909 bound_to 6896
  144.7606  139.8132  143.6334 H   0  0  0  0  0  0  0  0  0  0  0  0  # atno 7974 bound_to 7965
  155.6790  140.3496  155.4848 H   0  0  0  0  0  0  0  0  0  0  0  0  # atno 8008 bound_to 7997
  155.9623  140.1139  157.0907 H   0  0  0  0  0  0  0  0  0  0  0  0  # atno 8009 bound_to 7997
  154.4146  140.1173  156.5182 H   0  0  0  0  0  0  0  0  0  0  0  0  # atno 8010 bound_to 7997
  140.7013  143.3113  151.3020 H   0  0  0  0  0  0  0  0  0  0  0  0  # atno 10167 bound_to 10162
  156.0217  130.4434  150.3000 H   0  0  0  0  0  0  0  0  0  0  0  0  # atno 10718 bound_to 10713
  153.0384  135.5146  154.7555 H   0  0  0  0  0  0  0  0  0  0  0  0  # atno 10763 bound_to 10752
  154.6513  135.2925  154.9986 H   0  0  0  0  0  0  0  0  0  0  0  0  # atno 10764 bound_to 10752
  154.0869  135.6656  153.4899 H   0  0  0  0  0  0  0  0  0  0  0  0  # atno 10765 bound_to 10752
  140.1526  134.4443  155.8371 H   0  0  0  0  0  0  0  0  0  0  0  0  # atno 11005 bound_to 11000
  146.1664  139.4798  142.9955 LP  0  0  0  0  0  0  0  0  0  0  0  0  # atno 17320 bound_to 7965
  145.6633  141.0235  143.1697 LP  0  0  0  0  0  0  0  0  0  0  0  0  # atno 17321 bound_to 7965
  139.6537  144.0315  152.2644 LP  0  0  0  0  0  0  0  0  0  0  0  0  # atno 17342 bound_to 10162
  139.9860  144.6395  150.7857 LP  0  0  0  0  0  0  0  0  0  0  0  0  # atno 17343 bound_to 10162
  157.1103  131.0219  151.3050 LP  0  0  0  0  0  0  0  0  0  0  0  0  # atno 17370 bound_to 10713
  157.4710  130.7708  149.7323 LP  0  0  0  0  0  0  0  0  0  0  0  0  # atno 17371 bound_to 10713
  141.2201  133.6879  156.7449 LP  0  0  0  0  0  0  0  0  0  0  0  0  # atno 17394 bound_to 11000
  140.2586  134.8484  157.3737 LP  0  0  0  0  0  0  0  0  0  0  0  0  # atno 17395 bound_to 11000

$$$$
