AV-unprocessed.smi:1033|AV-procd|sdf|4492|dock5
  -GOLD-   22720 2473D 1   1.00000     0.00000
 Structure written by MMmdl.
 56 58  0  0  0  0  0  0  0  0  2 V2000
  152.8011  143.3263  160.8637 C   0  0  0  0  0  0  0  0  0  0  0  0
  152.1682  142.6919  159.6379 C   0  0  0  0  0  0  0  0  0  0  0  0
  152.6948  141.4773  159.1434 C   0  0  0  0  0  0  0  0  0  0  0  0
  152.1391  140.8585  158.0024 C   0  0  0  0  0  0  0  0  0  0  0  0
  152.4936  139.6895  157.3511 N   0  0  0  0  0  0  0  0  0  0  0  0
  151.6105  139.6570  156.3577 C   0  0  0  0  0  0  0  0  0  0  0  0
  150.7258  140.6700  156.2857 N   0  0  0  0  0  0  0  0  0  0  0  0
  149.6891  140.8525  155.2850 C   0  0  0  0  0  0  0  0  0  0  0  0
  149.3527  139.5413  154.5488 C   0  0  2  0  0  0  0  0  0  0  0  0
  150.3885  139.2385  153.6338 O   0  0  0  0  0  0  0  0  0  0  0  0
  148.0252  139.6395  153.7712 C   0  0  0  0  0  0  0  0  0  0  0  0
  147.4854  138.3088  153.3922 N   0  3  0  0  0  0  0  0  0  0  0  0
  146.3406  138.4040  152.4503 C   0  0  0  0  0  0  0  0  0  0  0  0
  145.8778  136.9954  152.0227 C   0  0  0  0  0  0  0  0  0  0  0  0
  145.5173  136.1369  153.1511 N   0  0  0  0  0  0  0  0  0  0  0  0
  144.2492  136.5302  153.7821 C   0  0  0  0  0  0  0  0  0  0  0  0
  143.0175  136.6414  152.8554 C   0  0  1  0  0  0  0  0  0  0  0  0
  141.7452  135.9699  153.3958 C   0  0  0  0  0  0  0  0  0  0  0  0
  142.7625  137.9908  152.5229 O   0  0  0  0  0  0  0  0  0  0  0  0
  146.6629  136.0653  154.0613 C   0  0  0  0  0  0  0  0  0  0  0  0
  147.1380  137.4464  154.5529 C   0  0  0  0  0  0  0  0  0  0  0  0
  151.0334  141.4931  157.3644 C   0  0  0  0  0  0  0  0  0  0  0  0
  150.4975  142.6989  157.8498 C   0  0  0  0  0  0  0  0  0  0  0  0
  151.0650  143.3041  158.9906 C   0  0  0  0  0  0  0  0  0  0  0  0
  150.4819  144.6087  159.5045 C   0  0  0  0  0  0  0  0  0  0  0  0
  153.6361  142.7310  161.2345 H   0  0  0  0  0  0  0  0  0  0  0  0
  152.0709  143.4159  161.6682 H   0  0  0  0  0  0  0  0  0  0  0  0
  153.1798  144.3208  160.6261 H   0  0  0  0  0  0  0  0  0  0  0  0
  153.5354  141.0110  159.6360 H   0  0  0  0  0  0  0  0  0  0  0  0
  151.6103  138.8531  155.6362 H   0  0  0  0  0  0  0  0  0  0  0  0
  148.8003  141.2419  155.7836 H   0  0  0  0  0  0  0  0  0  0  0  0
  150.0124  141.6209  154.5811 H   0  0  0  0  0  0  0  0  0  0  0  0
  149.3029  138.7398  155.2849 H   0  0  0  0  0  0  0  0  0  0  0  0
  150.0196  139.2013  152.7636 H   0  0  0  0  0  0  0  0  0  0  0  0
  147.2773  140.1796  154.3535 H   0  0  0  0  0  0  0  0  0  0  0  0
  148.1964  140.2317  152.8705 H   0  0  0  0  0  0  0  0  0  0  0  0
  145.5240  138.9618  152.9103 H   0  0  0  0  0  0  0  0  0  0  0  0
  146.6433  138.9640  151.5648 H   0  0  0  0  0  0  0  0  0  0  0  0
  145.0370  137.0746  151.3324 H   0  0  0  0  0  0  0  0  0  0  0  0
  146.6795  136.5184  151.4573 H   0  0  0  0  0  0  0  0  0  0  0  0
  144.0150  135.8833  154.6273 H   0  0  0  0  0  0  0  0  0  0  0  0
  144.3940  137.5209  154.2155 H   0  0  0  0  0  0  0  0  0  0  0  0
  143.2739  136.1535  151.9143 H   0  0  0  0  0  0  0  0  0  0  0  0
  141.9302  134.9237  153.6404 H   0  0  0  0  0  0  0  0  0  0  0  0
  140.9444  135.9990  152.6562 H   0  0  0  0  0  0  0  0  0  0  0  0
  141.3771  136.4624  154.2962 H   0  0  0  0  0  0  0  0  0  0  0  0
  143.5776  138.4677  152.5546 H   0  0  0  0  0  0  0  0  0  0  0  0
  146.4394  135.4215  154.9104 H   0  0  0  0  0  0  0  0  0  0  0  0
  147.4908  135.5772  153.5454 H   0  0  0  0  0  0  0  0  0  0  0  0
  148.0064  137.3069  155.1952 H   0  0  0  0  0  0  0  0  0  0  0  0
  146.3725  137.9273  155.1630 H   0  0  0  0  0  0  0  0  0  0  0  0
  149.6593  143.1567  157.3452 H   0  0  0  0  0  0  0  0  0  0  0  0
  149.6449  144.9403  158.8894 H   0  0  0  0  0  0  0  0  0  0  0  0
  151.2365  145.3957  159.4941 H   0  0  0  0  0  0  0  0  0  0  0  0
  150.1196  144.4892  160.5258 H   0  0  0  0  0  0  0  0  0  0  0  0
  148.2239  137.8391  152.8873 H   0  0  0  0  0  0  0  0  0  0  0  0
  1  2  1  0  0  0  0
  1 26  1  0  0  0  0
  1 27  1  0  0  0  0
  1 28  1  0  0  0  0
  2 24  1  0  0  0  0
  2  3  2  0  0  0  0
  3  4  1  0  0  0  0
  3 29  1  0  0  0  0
  4 22  2  0  0  0  0
  4  5  1  0  0  0  0
  5  6  2  0  0  0  0
  6  7  1  0  0  0  0
  6 30  1  0  0  0  0
  7  8  1  0  0  0  0
  7 22  1  0  0  0  0
  8  9  1  0  0  0  0
  8 31  1  0  0  0  0
  8 32  1  0  0  0  0
  9 10  1  0  0  0  0
  9 11  1  0  0  0  0
  9 33  1  0  0  0  0
 10 34  1  0  0  0  0
 11 12  1  0  0  0  0
 11 35  1  0  0  0  0
 11 36  1  0  0  0  0
 12 21  1  0  0  0  0
 12 13  1  0  0  0  0
 12 56  1  0  0  0  0
 13 14  1  0  0  0  0
 13 37  1  0  0  0  0
 13 38  1  0  0  0  0
 14 15  1  0  0  0  0
 14 39  1  0  0  0  0
 14 40  1  0  0  0  0
 15 16  1  0  0  0  0
 15 20  1  0  0  0  0
 16 17  1  0  0  0  0
 16 41  1  0  0  0  0
 16 42  1  0  0  0  0
 17 18  1  0  0  0  0
 17 19  1  0  0  0  0
 17 43  1  0  0  0  0
 18 44  1  0  0  0  0
 18 45  1  0  0  0  0
 18 46  1  0  0  0  0
 19 47  1  0  0  0  0
 20 21  1  0  0  0  0
 20 48  1  0  0  0  0
 20 49  1  0  0  0  0
 21 50  1  0  0  0  0
 21 51  1  0  0  0  0
 22 23  1  0  0  0  0
 23 24  2  0  0  0  0
 23 52  1  0  0  0  0
 24 25  1  0  0  0  0
 25 53  1  0  0  0  0
 25 54  1  0  0  0  0
 25 55  1  0  0  0  0
M  CHG  1  12   1
M  END
> <s_m_source_file>
AV-unprocessed.smi

> <i_m_source_file_index>
1033

> <i_lp_mmshare_version>
43012

> <i_f3d_flags>
0

> <s_epik_input>
W0NIM11jKFtjSF0xKWMoW0NIM10pW2NIXWMoYzEyKW4oW2NIXW4yKVtDSDJdW0NASF0oW09IXSlbQ0gyXU4zW0NIMl1bQ0gyXU4oW0NIMl1bQ0gyXTMpW0NIMl1bQ0BIXShbQ0gzXSlbT0hd

> <s_epik_cmdline>
J2VwaWtfcHl0aG9uJywgJy1waCcsICc3LjAnLCAnLXRuJywgJzgnLCAnLW1hJywgJzIwMCcsICctbWV0YWxfYmluZGluZycsICctaW1hZScsICc8aW5maWxlLm1hZT4nLCAnLW9tYWUnLCAnPG91dGZpbGUubWFlPic=

> <r_epik_Ionization_Penalty>
0.131893

> <r_epik_Ionization_Penalty_Charging>
0.00208556

> <r_epik_Ionization_Penalty_Neutral>
0.129808

> <r_epik_State_Penalty>
0.452125

> <r_epik_Charging_Adjusted_Penalty>
0.454211

> <i_epik_Tot_Q>
1

> <i_epik_Tot_abs_Q>
1

> <r_epik_Metal_State_Penalty>
0.376389

> <b_epik_Metal_Only>
0

> <s_lp_Force_Field>
OPLS_2005

> <r_lp_Energy>
36.4064

> <b_lp_Chiralities_Consistent>
1

> <s_lp_Variant>
AV-unprocessed.smi:1033-3

> <Gold.Version>
5.8.1

> <Gold.Id.Protein>
6NUR|6NUR_protein|mol2

> <Gold.PLP.Fitness>
57.3187

> <Gold.PLP.PLP>
-43.3386

> <Gold.PLP.part.hbond>
-6.0000

> <Gold.PLP.part.metal>
0.0000

> <Gold.PLP.part.buried>
-2.5117

> <Gold.PLP.part.nonpolar>
-36.2077

> <Gold.PLP.part.repulsive>
0.1297

> <Gold.PLP.ligand.clash>
0.0000

> <Gold.PLP.ligand.torsion>
1.1563

> <Gold.PLP.Chemscore.Hbond>
5.3280

> <Gold.PLP.Chemscore.CHOScore>
0.0000

> <Gold.PLP.Chemscore.Metal>
0.0000

> <Gold.Chemscore.Hbonds>
donor molecule, donor type, donor heavy atom, donor atom, acceptor molecule, acceptor atom, score
      L1  H    10    34       P1  7957  1.00
      L1  H    12    56       P1  7948  2.00
      L1  H    19    47       P1 10175  0.43
      P1  H  7989  7998       L1    10  0.90
      P1  H  7997  8009       L1     5  0.96

> <Gold.PLP.Chemscore.Internal.Correction>
0.3087

> <Gold.Rescore>
     Score         DG    S(hbond)    S(metal)    S(lipo)     H(rot)  DE(clash)    DE(int)     intcor
     17.91     -21.16       2.91        0.00     117.94       3.07       1.37       1.88       ----

> <Gold.Chemscore.Fitness>
17.9136

> <Gold.Chemscore.DG>
-21.1606

> <Gold.Chemscore.ZeroCoef>
-5.4800

> <Gold.Chemscore.Hbond>
2.9128

> <Gold.Chemscore.Metal>
0.0000

> <Gold.Chemscore.Lipo>
117.9350

> <Gold.Chemscore.Internal_Hbond>
0.0000

> <Gold.Chemscore.DEClash>
1.3681

> <Gold.Chemscore.DEInternal>
1.8788

> <Gold.Chemscore.Rot>
3.0650

> <Gold.Chemscore.Internal.Correction>
   9.000000E+99

> <Gold.Chemscore.Hbonds>
donor molecule, donor type, donor heavy atom, donor atom, acceptor molecule, acceptor atom, score
      L1  H    10    34       P1  7957  0.83
      L1  H    12    56       P1  7948  0.90
      L1  H    19    47       P1 10175  0.41
      P1  H  7989  7998       L1    10  0.17
      P1  H  7997  8009       L1     5  0.31

> <Gold.Chemscore.Hbond.Weighted>
-9.7287

> <Gold.Chemscore.Metal.Weighted>
-0.0000

> <Gold.Chemscore.Lipo.Weighted>
-13.7984

> <Gold.Chemscore.Internal_Hbond.Weighted>
0.0000

> <Gold.Chemscore.DEClash.Weighted>
1.3681

> <Gold.Chemscore.DEInternal.Weighted>
1.8788

> <Gold.Chemscore.Rot.Weighted>
7.8465

> <Gold.Chemscore.Internal.Correction.Weighted>
   9.000000E+99

> <Gold.Protein.RotatedTorsions>
[ 6907 6896 6895 6894 ] final   44.90 input  -60.11 | X-H torsion
[ 7974 7965 7964 7962 ] final -134.65 input  175.53 | X-H torsion
[ 8008 7997 7996 7995 ] final  175.22 input   59.86 | X-H torsion
[ 10167 10162 10161 10158 ] final -169.00 input  -65.29 | X-H torsion
[ 10718 10713 10712 10709 ] final -101.52 input   66.30 | X-H torsion
[ 10763 10752 10751 10750 ] final  -55.32 input  -60.55 | X-H torsion
[ 11005 11000 10999 10996 ] final   46.08 input  -57.11 | X-H torsion

> <Gold.Protein.ActiveResidues>
 VAL166  LYS551  ARG553  GLY616  TRP617  ASP618  TYR619  PRO620  LYS621  CYS622 
 ASP623  PHE694  ASN695  SER759  ASP760  ASP761  ALA762  ILE779  LEU786  VAL792 
 PHE793  MET794  SER795  GLU796  ALA797  LYS798  CYS799  TRP800  GLU811  SER814 

> <Gold.Protein.RotatedAtoms>
  152.2381  134.8255  160.0463 H   0  0  0  0  0  0  0  0  0  0  0  0  # atno 6907 bound_to 6896
  151.8980  133.3526  159.3829 H   0  0  0  0  0  0  0  0  0  0  0  0  # atno 6908 bound_to 6896
  150.7045  134.4783  159.5502 H   0  0  0  0  0  0  0  0  0  0  0  0  # atno 6909 bound_to 6896
  144.9084  140.6863  143.5040 H   0  0  0  0  0  0  0  0  0  0  0  0  # atno 7974 bound_to 7965
  156.0893  140.1414  156.9612 H   0  0  0  0  0  0  0  0  0  0  0  0  # atno 8008 bound_to 7997
  154.4632  140.0935  156.6997 H   0  0  0  0  0  0  0  0  0  0  0  0  # atno 8009 bound_to 7997
  155.4946  140.3449  155.4363 H   0  0  0  0  0  0  0  0  0  0  0  0  # atno 8010 bound_to 7997
  139.5950  144.1131  152.1679 H   0  0  0  0  0  0  0  0  0  0  0  0  # atno 10167 bound_to 10162
  156.0197  130.5377  150.6975 H   0  0  0  0  0  0  0  0  0  0  0  0  # atno 10718 bound_to 10713
  154.1889  135.6430  153.5054 H   0  0  0  0  0  0  0  0  0  0  0  0  # atno 10763 bound_to 10752
  153.0040  135.5424  154.6435 H   0  0  0  0  0  0  0  0  0  0  0  0  # atno 10764 bound_to 10752
  154.5819  135.2926  155.0697 H   0  0  0  0  0  0  0  0  0  0  0  0  # atno 10765 bound_to 10752
  140.1401  134.4594  155.8456 H   0  0  0  0  0  0  0  0  0  0  0  0  # atno 11005 bound_to 11000
  145.3496  139.1710  143.4442 LP  0  0  0  0  0  0  0  0  0  0  0  0  # atno 17320 bound_to 7965
  146.3146  140.3547  142.8659 LP  0  0  0  0  0  0  0  0  0  0  0  0  # atno 17321 bound_to 7965
  140.0714  144.5776  150.7189 LP  0  0  0  0  0  0  0  0  0  0  0  0  # atno 17342 bound_to 10162
  140.7204  143.2584  151.4296 LP  0  0  0  0  0  0  0  0  0  0  0  0  # atno 17343 bound_to 10162
  157.4642  131.0886  151.0712 LP  0  0  0  0  0  0  0  0  0  0  0  0  # atno 17370 bound_to 10713
  157.1191  130.6054  149.5500 LP  0  0  0  0  0  0  0  0  0  0  0  0  # atno 17371 bound_to 10713
  141.2184  133.6830  156.7231 LP  0  0  0  0  0  0  0  0  0  0  0  0  # atno 17394 bound_to 11000
  140.2732  134.8375  157.3867 LP  0  0  0  0  0  0  0  0  0  0  0  0  # atno 17395 bound_to 11000

$$$$
