AV-unprocessed.smi:3282|AV-procd|sdf|12565|dock6
  -GOLD-   2272018483D 1   1.00000     0.00000
 Structure written by MMmdl.
 34 35  0  0  0  0  0  0  0  0  1 V2000
  152.3631  144.7334  158.0054 C   0  0  0  0  0  0  0  0  0  0  0  0
  151.7062  143.5880  158.7930 C   0  0  0  0  0  0  0  0  0  0  0  0
  152.6539  142.4118  159.0827 C   0  0  0  0  0  0  0  0  0  0  0  0
  153.7057  142.6074  159.6937 O   0  0  0  0  0  0  0  0  0  0  0  0
  152.2965  141.1848  158.6495 N   0  0  0  0  0  0  0  0  0  0  0  0
  153.1145  139.9909  158.8454 C   0  0  0  0  0  0  0  0  0  0  0  0
  152.4664  138.8933  158.0018 C   0  0  0  0  0  0  0  0  0  0  0  0
  151.0103  139.3265  157.8572 C   0  0  2  0  0  0  0  0  0  0  0  0
  150.4301  138.8549  156.6037 N   0  0  0  0  0  0  0  0  0  0  0  0
  150.9188  139.1111  155.3810 C   0  0  0  0  0  0  0  0  0  0  0  0
  151.9298  139.8007  155.2143 O   0  0  0  0  0  0  0  0  0  0  0  0
  150.1149  138.5427  154.4073 N   0  0  0  0  0  0  0  0  0  0  0  0
  149.0061  139.1418  154.1022 C   0  0  0  0  0  0  0  0  0  0  0  0
  148.0702  138.7657  153.1521 N   0  0  0  0  0  0  0  0  0  0  0  0
  147.0507  139.6770  153.1762 C   0  0  0  0  0  0  0  0  0  0  0  0
  147.3315  140.5887  154.1030 C   0  0  0  0  0  0  0  0  0  0  0  0
  148.5237  140.2891  154.6901 O   0  0  0  0  0  0  0  0  0  0  0  0
  151.0647  140.8587  157.9337 C   0  0  0  0  0  0  0  0  0  0  0  0
  151.6450  145.5318  157.8182 H   0  0  0  0  0  0  0  0  0  0  0  0
  152.7331  144.3908  157.0382 H   0  0  0  0  0  0  0  0  0  0  0  0
  153.1999  145.1670  158.5543 H   0  0  0  0  0  0  0  0  0  0  0  0
  151.3278  143.9760  159.7393 H   0  0  0  0  0  0  0  0  0  0  0  0
  150.8461  143.2215  158.2319 H   0  0  0  0  0  0  0  0  0  0  0  0
  154.1536  140.1527  158.5543 H   0  0  0  0  0  0  0  0  0  0  0  0
  153.0971  139.7203  159.9022 H   0  0  0  0  0  0  0  0  0  0  0  0
  152.9498  138.8660  157.0236 H   0  0  0  0  0  0  0  0  0  0  0  0
  152.5694  137.9040  158.4486 H   0  0  0  0  0  0  0  0  0  0  0  0
  150.4452  138.9402  158.7076 H   0  0  0  0  0  0  0  0  0  0  0  0
  149.5919  138.2955  156.6700 H   0  0  0  0  0  0  0  0  0  0  0  0
  148.0929  137.9681  152.5331 H   0  0  0  0  0  0  0  0  0  0  0  0
  146.2083  139.5718  152.5087 H   0  0  0  0  0  0  0  0  0  0  0  0
  146.8098  141.4690  154.4485 H   0  0  0  0  0  0  0  0  0  0  0  0
  150.1798  141.2525  158.4354 H   0  0  0  0  0  0  0  0  0  0  0  0
  151.1141  141.3010  156.9370 H   0  0  0  0  0  0  0  0  0  0  0  0
  1  2  1  0  0  0  0
  1 19  1  0  0  0  0
  1 20  1  0  0  0  0
  1 21  1  0  0  0  0
  2  3  1  0  0  0  0
  2 22  1  0  0  0  0
  2 23  1  0  0  0  0
  3  4  2  0  0  0  0
  3  5  1  0  0  0  0
  5 18  1  0  0  0  0
  5  6  1  0  0  0  0
  6  7  1  0  0  0  0
  6 24  1  0  0  0  0
  6 25  1  0  0  0  0
  7  8  1  0  0  0  0
  7 26  1  0  0  0  0
  7 27  1  0  0  0  0
  8  9  1  0  0  0  0
  8 18  1  0  0  0  0
  8 28  1  0  0  0  0
  9 29  1  0  0  0  0
  9 10  1  0  0  0  0
 10 12  1  0  0  0  0
 10 11  2  0  0  0  0
 12 13  2  0  0  0  0
 13 17  1  0  0  0  0
 13 14  1  0  0  0  0
 14 30  1  0  0  0  0
 14 15  1  0  0  0  0
 15 31  1  0  0  0  0
 15 16  2  0  0  0  0
 16 32  1  0  0  0  0
 16 17  1  0  0  0  0
 18 33  1  0  0  0  0
 18 34  1  0  0  0  0
M  END
> <s_m_source_file>
AV-unprocessed.smi

> <i_m_source_file_index>
3282

> <i_lp_mmshare_version>
43012

> <i_f3d_flags>
0

> <s_epik_input>
W0NIM11bQ0gyXUMoPU8pTjFbQ0gyXVtDSDJdW0NASF0oW0NIMl0xKVtOSF1DKD1PKVtOSF1jMm5bY0hdW2NIXW8y

> <s_epik_cmdline>
J2VwaWtfcHl0aG9uJywgJy1waCcsICc3LjAnLCAnLXRuJywgJzgnLCAnLW1hJywgJzIwMCcsICctbWV0YWxfYmluZGluZycsICctaW1hZScsICc8aW5maWxlLm1hZT4nLCAnLW9tYWUnLCAnPG91dGZpbGUubWFlPic=

> <r_lp_tautomer_probability>
0.107061

> <r_epik_Ionization_Penalty>
0.434703

> <r_epik_Ionization_Penalty_Charging>
0.434345

> <r_epik_Ionization_Penalty_Neutral>
0.000358141

> <r_epik_State_Penalty>
2.49584

> <r_epik_Charging_Adjusted_Penalty>
2.93019

> <i_epik_Tot_Q>
0

> <i_epik_Tot_abs_Q>
0

> <r_epik_Metal_State_Penalty>
4.06361

> <b_epik_Metal_Only>
0

> <s_lp_Force_Field>
OPLS_2005

> <r_lp_Energy>
49.1525

> <b_lp_Chiralities_Consistent>
1

> <s_lp_Variant>
AV-unprocessed.smi:3282-6

> <Gold.Version>
5.8.1

> <Gold.Id.Protein>
6NUR|6NUR_protein|mol2

> <Gold.PLP.Fitness>
38.2310

> <Gold.PLP.PLP>
-31.9119

> <Gold.PLP.part.hbond>
-3.0000

> <Gold.PLP.part.metal>
0.0000

> <Gold.PLP.part.buried>
-5.1482

> <Gold.PLP.part.nonpolar>
-24.6434

> <Gold.PLP.part.repulsive>
0.3567

> <Gold.PLP.ligand.clash>
0.0000

> <Gold.PLP.ligand.torsion>
0.7354

> <Gold.PLP.Chemscore.Hbond>
1.9193

> <Gold.PLP.Chemscore.CHOScore>
0.6745

> <Gold.PLP.Chemscore.Metal>
0.0000

> <Gold.Chemscore.Hbonds>
donor molecule, donor type, donor heavy atom, donor atom, acceptor molecule, acceptor atom, score
      L1  H    14    30       P1  7948  1.00
      P1  H  7989  7998       L1    11  0.90
      L1  C    15    31       P1 10175  0.63

> <Gold.PLP.Chemscore.Internal.Correction>
0.0087

> <Gold.Rescore>
     Score         DG    S(hbond)    S(metal)    S(lipo)     H(rot)  DE(clash)    DE(int)     intcor
     13.06     -15.14       1.92        0.00      56.74       1.32       0.05       2.03       ----

> <Gold.Chemscore.Fitness>
13.0618

> <Gold.Chemscore.DG>
-15.1402

> <Gold.Chemscore.ZeroCoef>
-5.4800

> <Gold.Chemscore.Hbond>
1.9163

> <Gold.Chemscore.Metal>
0.0000

> <Gold.Chemscore.Lipo>
56.7411

> <Gold.Chemscore.Internal_Hbond>
0.0000

> <Gold.Chemscore.DEClash>
0.0532

> <Gold.Chemscore.DEInternal>
2.0252

> <Gold.Chemscore.Rot>
1.3199

> <Gold.Chemscore.Internal.Correction>
   9.000000E+99

> <Gold.Chemscore.Hbonds>
donor molecule, donor type, donor heavy atom, donor atom, acceptor molecule, acceptor atom, score
      L1  H    14    30       P1  7948  0.90
      P1  H  7989  7998       L1    11  0.55

> <Gold.Chemscore.Hbond.Weighted>
-6.4004

> <Gold.Chemscore.Metal.Weighted>
-0.0000

> <Gold.Chemscore.Lipo.Weighted>
-6.6387

> <Gold.Chemscore.Internal_Hbond.Weighted>
0.0000

> <Gold.Chemscore.DEClash.Weighted>
0.0532

> <Gold.Chemscore.DEInternal.Weighted>
2.0252

> <Gold.Chemscore.Rot.Weighted>
3.3789

> <Gold.Chemscore.Internal.Correction.Weighted>
   9.000000E+99

> <Gold.Protein.RotatedTorsions>
[ 6907 6896 6895 6894 ] final -175.51 input  -60.11 | X-H torsion
[ 7974 7965 7964 7962 ] final -155.00 input  175.53 | X-H torsion
[ 8008 7997 7996 7995 ] final  -84.12 input   59.86 | X-H torsion
[ 10167 10162 10161 10158 ] final  -35.91 input  -65.29 | X-H torsion
[ 10718 10713 10712 10709 ] final -154.78 input   66.30 | X-H torsion
[ 10763 10752 10751 10750 ] final -110.52 input  -60.55 | X-H torsion
[ 11005 11000 10999 10996 ] final  -41.55 input  -57.11 | X-H torsion

> <Gold.Protein.ActiveResidues>
 VAL166  LYS551  ARG553  GLY616  TRP617  ASP618  TYR619  PRO620  LYS621  CYS622 
 ASP623  PHE694  ASN695  SER759  ASP760  ASP761  ALA762  ILE779  LEU786  VAL792 
 PHE793  MET794  SER795  GLU796  ALA797  LYS798  CYS799  TRP800  GLU811  SER814 

> <Gold.Protein.RotatedAtoms>
  151.5897  133.3368  159.3024 H   0  0  0  0  0  0  0  0  0  0  0  0  # atno 6907 bound_to 6896
  150.8267  134.7505  159.6830 H   0  0  0  0  0  0  0  0  0  0  0  0  # atno 6908 bound_to 6896
  152.4356  134.5700  159.9970 H   0  0  0  0  0  0  0  0  0  0  0  0  # atno 6909 bound_to 6896
  144.7661  140.4310  143.5941 H   0  0  0  0  0  0  0  0  0  0  0  0  # atno 7974 bound_to 7965
  154.6264  140.0609  156.9678 H   0  0  0  0  0  0  0  0  0  0  0  0  # atno 8008 bound_to 7997
  155.1736  140.3293  155.4370 H   0  0  0  0  0  0  0  0  0  0  0  0  # atno 8009 bound_to 7997
  156.2459  140.1910  156.6836 H   0  0  0  0  0  0  0  0  0  0  0  0  # atno 8010 bound_to 7997
  140.7154  143.3445  151.2286 H   0  0  0  0  0  0  0  0  0  0  0  0  # atno 10167 bound_to 10162
  156.5039  130.8404  151.2620 H   0  0  0  0  0  0  0  0  0  0  0  0  # atno 10718 bound_to 10713
  154.8252  135.4561  154.0897 H   0  0  0  0  0  0  0  0  0  0  0  0  # atno 10763 bound_to 10752
  153.2217  135.6895  153.7998 H   0  0  0  0  0  0  0  0  0  0  0  0  # atno 10764 bound_to 10752
  153.7413  135.3312  155.3281 H   0  0  0  0  0  0  0  0  0  0  0  0  # atno 10765 bound_to 10752
  141.0254  133.6844  156.2473 H   0  0  0  0  0  0  0  0  0  0  0  0  # atno 11005 bound_to 11000
  145.6465  139.1558  143.2886 LP  0  0  0  0  0  0  0  0  0  0  0  0  # atno 17320 bound_to 7965
  146.1770  140.6557  142.9207 LP  0  0  0  0  0  0  0  0  0  0  0  0  # atno 17321 bound_to 7965
  139.6961  143.9611  152.2883 LP  0  0  0  0  0  0  0  0  0  0  0  0  # atno 17342 bound_to 10162
  139.9289  144.6754  150.8384 LP  0  0  0  0  0  0  0  0  0  0  0  0  # atno 17343 bound_to 10162
  157.7459  130.9972  150.2808 LP  0  0  0  0  0  0  0  0  0  0  0  0  # atno 17370 bound_to 10713
  156.3305  130.3799  149.7495 LP  0  0  0  0  0  0  0  0  0  0  0  0  # atno 17371 bound_to 10713
  140.6501  134.5076  157.5577 LP  0  0  0  0  0  0  0  0  0  0  0  0  # atno 17394 bound_to 11000
  139.9172  134.8221  156.1327 LP  0  0  0  0  0  0  0  0  0  0  0  0  # atno 17395 bound_to 11000

$$$$
