AV-unprocessed.smi:3133|AV-procd|sdf|11938|dock1
  -GOLD-   2272017323D 1   1.00000     0.00000
 Structure written by MMmdl.
 32 33  0  0  0  0  0  0  0  0  1 V2000
  148.6369  140.2900  156.8204 C   0  0  0  0  0  0  0  0  0  0  0  0
  149.8542  140.9237  156.1159 C   0  0  1  0  0  0  0  0  0  0  0  0
  150.7309  141.7380  157.0777 C   0  0  0  0  0  0  0  0  0  0  0  0
  151.4019  141.1742  157.9426 O   0  0  0  0  0  0  0  0  0  0  0  0
  150.7351  143.0673  156.8917 N   0  0  0  0  0  0  0  0  0  0  0  0
  151.5766  144.0201  157.6065 C   0  0  0  0  0  0  0  0  0  0  0  0
  151.4324  143.8549  159.1286 C   0  0  2  0  0  0  0  0  0  0  0  0
  151.8089  145.0843  159.9553 C   0  0  0  0  0  0  0  0  0  0  0  0
  152.1772  144.4986  161.3087 C   0  0  0  0  0  0  0  0  0  0  0  0
  152.3942  143.0083  161.0261 C   0  0  0  0  0  0  0  0  0  0  0  0
  152.3389  142.8779  159.6119 O   0  0  0  0  0  0  0  0  0  0  0  0
  150.6758  139.9407  155.4189 N   0  0  0  0  0  0  0  0  0  0  0  0
  151.9708  139.6515  155.5649 C   0  0  0  0  0  0  0  0  0  0  0  0
  152.3887  138.6480  154.8062 N   0  0  0  0  0  0  0  0  0  0  0  0
  151.2158  138.3309  154.1819 C   0  0  0  0  0  0  0  0  0  0  0  0
  150.1565  139.0646  154.5223 N   0  0  0  0  0  0  0  0  0  0  0  0
  148.0174  141.0530  157.2927 H   0  0  0  0  0  0  0  0  0  0  0  0
  148.9311  139.5804  157.5949 H   0  0  0  0  0  0  0  0  0  0  0  0
  148.0089  139.7573  156.1058 H   0  0  0  0  0  0  0  0  0  0  0  0
  149.4665  141.6076  155.3591 H   0  0  0  0  0  0  0  0  0  0  0  0
  150.1459  143.4438  156.1634 H   0  0  0  0  0  0  0  0  0  0  0  0
  152.6115  143.8363  157.3170 H   0  0  0  0  0  0  0  0  0  0  0  0
  151.3548  145.0466  157.3093 H   0  0  0  0  0  0  0  0  0  0  0  0
  150.4171  143.5383  159.3762 H   0  0  0  0  0  0  0  0  0  0  0  0
  152.6809  145.5760  159.5222 H   0  0  0  0  0  0  0  0  0  0  0  0
  151.0041  145.8181  160.0137 H   0  0  0  0  0  0  0  0  0  0  0  0
  153.0745  144.9721  161.7084 H   0  0  0  0  0  0  0  0  0  0  0  0
  151.3732  144.6368  162.0325 H   0  0  0  0  0  0  0  0  0  0  0  0
  153.3456  142.6432  161.4134 H   0  0  0  0  0  0  0  0  0  0  0  0
  151.5951  142.4144  161.4720 H   0  0  0  0  0  0  0  0  0  0  0  0
  152.6197  140.1816  156.2463 H   0  0  0  0  0  0  0  0  0  0  0  0
  151.1384  137.5304  153.4609 H   0  0  0  0  0  0  0  0  0  0  0  0
  1  2  1  0  0  0  0
  1 17  1  0  0  0  0
  1 18  1  0  0  0  0
  1 19  1  0  0  0  0
  2  3  1  0  0  0  0
  2 12  1  0  0  0  0
  2 20  1  0  0  0  0
  3  4  2  0  0  0  0
  3  5  1  0  0  0  0
  5  6  1  0  0  0  0
  5 21  1  0  0  0  0
  6  7  1  0  0  0  0
  6 22  1  0  0  0  0
  6 23  1  0  0  0  0
  7 11  1  0  0  0  0
  7  8  1  0  0  0  0
  7 24  1  0  0  0  0
  8  9  1  0  0  0  0
  8 25  1  0  0  0  0
  8 26  1  0  0  0  0
  9 10  1  0  0  0  0
  9 27  1  0  0  0  0
  9 28  1  0  0  0  0
 10 11  1  0  0  0  0
 10 29  1  0  0  0  0
 10 30  1  0  0  0  0
 12 16  1  0  0  0  0
 12 13  1  0  0  0  0
 13 14  2  0  0  0  0
 13 31  1  0  0  0  0
 14 15  1  0  0  0  0
 15 16  2  0  0  0  0
 15 32  1  0  0  0  0
M  END
> <s_m_source_file>
AV-unprocessed.smi

> <i_m_source_file_index>
3133

> <i_lp_mmshare_version>
43012

> <i_f3d_flags>
0

> <s_epik_input>
bjFbY0hdbltjSF1uMVtDQEhdKFtDSDNdKUMoPU8pW05IXVtDSDJdW0NAQEhdMltDSDJdW0NIMl1bQ0gyXU8y

> <s_epik_cmdline>
J2VwaWtfcHl0aG9uJywgJy1waCcsICc3LjAnLCAnLXRuJywgJzgnLCAnLW1hJywgJzIwMCcsICctbWV0YWxfYmluZGluZycsICctaW1hZScsICc8aW5maWxlLm1hZT4nLCAnLW9tYWUnLCAnPG91dGZpbGUubWFlPic=

> <r_lp_tautomer_probability>
1

> <r_epik_Ionization_Penalty>
1.2027e-05

> <r_epik_Ionization_Penalty_Charging>
0

> <r_epik_Ionization_Penalty_Neutral>
1.2027e-05

> <r_epik_State_Penalty>
-0

> <r_epik_Charging_Adjusted_Penalty>
0

> <i_epik_Tot_Q>
0

> <i_epik_Tot_abs_Q>
0

> <r_epik_Metal_State_Penalty>
-0

> <b_epik_Metal_Only>
0

> <s_lp_Force_Field>
OPLS_2005

> <r_lp_Energy>
22.7356

> <b_lp_Chiralities_Consistent>
1

> <s_lp_Variant>
AV-unprocessed.smi:3133-2

> <Gold.Version>
5.8.1

> <Gold.Id.Protein>
6NUR|6NUR_protein|mol2

> <Gold.PLP.Fitness>
40.7322

> <Gold.PLP.PLP>
-35.3370

> <Gold.PLP.part.hbond>
-1.0000

> <Gold.PLP.part.metal>
0.0000

> <Gold.PLP.part.buried>
-7.2795

> <Gold.PLP.part.nonpolar>
-27.8957

> <Gold.PLP.part.repulsive>
0.2417

> <Gold.PLP.ligand.clash>
0.0000

> <Gold.PLP.ligand.torsion>
0.4278

> <Gold.PLP.Chemscore.Hbond>
0.9760

> <Gold.PLP.Chemscore.CHOScore>
1.0643

> <Gold.PLP.Chemscore.Metal>
0.0000

> <Gold.Chemscore.Hbonds>
donor molecule, donor type, donor heavy atom, donor atom, acceptor molecule, acceptor atom, score
      L1  H     5    21       P1  8028  0.94
      L1  C    15    32       P1  7949  1.00

> <Gold.PLP.Chemscore.Internal.Correction>
0.1299

> <Gold.Rescore>
     Score         DG    S(hbond)    S(metal)    S(lipo)     H(rot)  DE(clash)    DE(int)     intcor
      6.90     -10.93       0.99        0.00      67.70       2.26       0.13       3.90       ----

> <Gold.Chemscore.Fitness>
6.8983

> <Gold.Chemscore.DG>
-10.9293

> <Gold.Chemscore.ZeroCoef>
-5.4800

> <Gold.Chemscore.Hbond>
0.9891

> <Gold.Chemscore.Metal>
0.0000

> <Gold.Chemscore.Lipo>
67.6969

> <Gold.Chemscore.Internal_Hbond>
0.0000

> <Gold.Chemscore.DEClash>
0.1273

> <Gold.Chemscore.DEInternal>
3.9038

> <Gold.Chemscore.Rot>
2.2558

> <Gold.Chemscore.Internal.Correction>
   9.000000E+99

> <Gold.Chemscore.Hbonds>
donor molecule, donor type, donor heavy atom, donor atom, acceptor molecule, acceptor atom, score
      L1  H     5    21       P1  8028  0.91

> <Gold.Chemscore.Hbond.Weighted>
-3.3035

> <Gold.Chemscore.Metal.Weighted>
-0.0000

> <Gold.Chemscore.Lipo.Weighted>
-7.9205

> <Gold.Chemscore.Internal_Hbond.Weighted>
0.0000

> <Gold.Chemscore.DEClash.Weighted>
0.1273

> <Gold.Chemscore.DEInternal.Weighted>
3.9038

> <Gold.Chemscore.Rot.Weighted>
5.7747

> <Gold.Chemscore.Internal.Correction.Weighted>
   9.000000E+99

> <Gold.Protein.RotatedTorsions>
[ 6907 6896 6895 6894 ] final  125.90 input  -60.11 | X-H torsion
[ 7974 7965 7964 7962 ] final -120.28 input  175.53 | X-H torsion
[ 8008 7997 7996 7995 ] final  125.82 input   59.86 | X-H torsion
[ 10167 10162 10161 10158 ] final  105.98 input  -65.29 | X-H torsion
[ 10718 10713 10712 10709 ] final  -13.68 input   66.30 | X-H torsion
[ 10763 10752 10751 10750 ] final  -89.78 input  -60.55 | X-H torsion
[ 11005 11000 10999 10996 ] final   44.90 input  -57.11 | X-H torsion

> <Gold.Protein.ActiveResidues>
 VAL166  LYS551  ARG553  GLY616  TRP617  ASP618  TYR619  PRO620  LYS621  CYS622 
 ASP623  PHE694  ASN695  SER759  ASP760  ASP761  ALA762  ILE779  LEU786  VAL792 
 PHE793  MET794  SER795  GLU796  ALA797  LYS798  CYS799  TRP800  GLU811  SER814 

> <Gold.Protein.RotatedAtoms>
  152.3951  133.6736  159.6269 H   0  0  0  0  0  0  0  0  0  0  0  0  # atno 6907 bound_to 6896
  150.7852  133.8887  159.3316 H   0  0  0  0  0  0  0  0  0  0  0  0  # atno 6908 bound_to 6896
  151.6665  135.0983  160.0241 H   0  0  0  0  0  0  0  0  0  0  0  0  # atno 6909 bound_to 6896
  145.0531  140.8234  143.4197 H   0  0  0  0  0  0  0  0  0  0  0  0  # atno 7974 bound_to 7965
  156.2846  140.2707  156.2012 H   0  0  0  0  0  0  0  0  0  0  0  0  # atno 8008 bound_to 7997
  155.0359  140.0386  157.2509 H   0  0  0  0  0  0  0  0  0  0  0  0  # atno 8009 bound_to 7997
  154.7315  140.2707  155.6457 H   0  0  0  0  0  0  0  0  0  0  0  0  # atno 8010 bound_to 7997
  139.7047  144.7088  151.1127 H   0  0  0  0  0  0  0  0  0  0  0  0  # atno 10167 bound_to 10162
  156.6268  130.4890  149.6144 H   0  0  0  0  0  0  0  0  0  0  0  0  # atno 10718 bound_to 10713
  154.6589  135.5328  153.7993 H   0  0  0  0  0  0  0  0  0  0  0  0  # atno 10763 bound_to 10752
  153.0430  135.6501  154.0903 H   0  0  0  0  0  0  0  0  0  0  0  0  # atno 10764 bound_to 10752
  154.0813  135.2947  155.3269 H   0  0  0  0  0  0  0  0  0  0  0  0  # atno 10765 bound_to 10752
  140.1509  134.4463  155.8383 H   0  0  0  0  0  0  0  0  0  0  0  0  # atno 11005 bound_to 11000
  145.1502  139.2519  143.5445 LP  0  0  0  0  0  0  0  0  0  0  0  0  # atno 17320 bound_to 7965
  146.3519  140.1202  142.8600 LP  0  0  0  0  0  0  0  0  0  0  0  0  # atno 17321 bound_to 7965
  140.7718  143.5375  150.9351 LP  0  0  0  0  0  0  0  0  0  0  0  0  # atno 17342 bound_to 10162
  139.9058  143.6780  152.3124 LP  0  0  0  0  0  0  0  0  0  0  0  0  # atno 17343 bound_to 10162
  156.2267  130.6770  151.1423 LP  0  0  0  0  0  0  0  0  0  0  0  0  # atno 17370 bound_to 10713
  157.7212  131.0680  150.6128 LP  0  0  0  0  0  0  0  0  0  0  0  0  # atno 17371 bound_to 10713
  141.2199  133.6872  156.7419 LP  0  0  0  0  0  0  0  0  0  0  0  0  # atno 17394 bound_to 11000
  140.2606  134.8469  157.3755 LP  0  0  0  0  0  0  0  0  0  0  0  0  # atno 17395 bound_to 11000

$$$$
