AV-unprocessed.smi:872|AV-procd|sdf|4012|dock3
  -GOLD-   22720 1503D 1   1.00000     0.00000
 Structure written by MMmdl.
 26 27  0  0  0  0  0  0  0  0  2 V2000
  153.7182  138.5535  154.9076 O   0  0  0  0  0  0  0  0  0  0  0  0
  152.4830  138.4424  154.7435 C   0  0  0  0  0  0  0  0  0  0  0  0
  151.9647  137.4298  154.2223 O   0  5  0  0  0  0  0  0  0  0  0  0
  151.5891  139.5657  155.1880 C   0  0  0  0  0  0  0  0  0  0  0  0
  150.3661  139.8326  154.5307 C   0  0  0  0  0  0  0  0  0  0  0  0
  149.5258  140.8275  154.8894 N   0  0  0  0  0  0  0  0  0  0  0  0
  149.8778  141.6069  155.9331 C   0  0  0  0  0  0  0  0  0  0  0  0
  151.0716  141.4370  156.6641 C   0  0  0  0  0  0  0  0  0  0  0  0
  151.3580  142.2933  157.7370 N   0  0  0  0  0  0  0  0  0  0  0  0
  152.4561  141.8226  158.5719 C   0  0  0  0  0  0  0  0  0  0  0  0
  152.6281  142.7511  159.7867 C   0  0  0  0  0  0  0  0  0  0  0  0
  152.8212  144.0912  159.3422 O   0  0  0  0  0  0  0  0  0  0  0  0
  151.7117  144.5688  158.5858 C   0  0  0  0  0  0  0  0  0  0  0  0
  151.5172  143.6867  157.3401 C   0  0  0  0  0  0  0  0  0  0  0  0
  151.9420  140.3920  156.2784 C   0  0  0  0  0  0  0  0  0  0  0  0
  150.0414  139.2360  153.6907 H   0  0  0  0  0  0  0  0  0  0  0  0
  149.1827  142.3921  156.1930 H   0  0  0  0  0  0  0  0  0  0  0  0
  152.2574  140.8032  158.9048 H   0  0  0  0  0  0  0  0  0  0  0  0
  153.3800  141.7991  157.9922 H   0  0  0  0  0  0  0  0  0  0  0  0
  151.7587  142.6967  160.4437 H   0  0  0  0  0  0  0  0  0  0  0  0
  153.4927  142.4439  160.3753 H   0  0  0  0  0  0  0  0  0  0  0  0
  150.8121  144.5730  159.2034 H   0  0  0  0  0  0  0  0  0  0  0  0
  151.9008  145.6008  158.2902 H   0  0  0  0  0  0  0  0  0  0  0  0
  152.3783  143.7895  156.6784 H   0  0  0  0  0  0  0  0  0  0  0  0
  150.6395  144.0151  156.7819 H   0  0  0  0  0  0  0  0  0  0  0  0
  152.8652  140.2315  156.8162 H   0  0  0  0  0  0  0  0  0  0  0  0
  1  2  2  0  0  0  0
  2  3  1  0  0  0  0
  2  4  1  0  0  0  0
  4 15  1  0  0  0  0
  4  5  2  0  0  0  0
  5  6  1  0  0  0  0
  5 16  1  0  0  0  0
  6  7  2  0  0  0  0
  7  8  1  0  0  0  0
  7 17  1  0  0  0  0
  8  9  1  0  0  0  0
  8 15  2  0  0  0  0
  9 14  1  0  0  0  0
  9 10  1  0  0  0  0
 10 11  1  0  0  0  0
 10 18  1  0  0  0  0
 10 19  1  0  0  0  0
 11 12  1  0  0  0  0
 11 20  1  0  0  0  0
 11 21  1  0  0  0  0
 12 13  1  0  0  0  0
 13 14  1  0  0  0  0
 13 22  1  0  0  0  0
 13 23  1  0  0  0  0
 14 24  1  0  0  0  0
 14 25  1  0  0  0  0
 15 26  1  0  0  0  0
M  CHG  1   3  -1
M  END
> <s_m_source_file>
AV-unprocessed.smi

> <i_m_source_file_index>
872

> <i_lp_mmshare_version>
43012

> <i_f3d_flags>
0

> <s_epik_input>
Tz1DKFtPSF0pYzFbY0hdbltjSF1jKFtjSF0xKU4yW0NIMl1bQ0gyXU9bQ0gyXVtDSDJdMg==

> <s_epik_cmdline>
J2VwaWtfcHl0aG9uJywgJy1waCcsICc3LjAnLCAnLXRuJywgJzgnLCAnLW1hJywgJzIwMCcsICctbWV0YWxfYmluZGluZycsICctaW1hZScsICc8aW5maWxlLm1hZT4nLCAnLW9tYWUnLCAnPG91dGZpbGUubWFlPic=

> <r_epik_Ionization_Penalty>
0.0365058

> <r_epik_Ionization_Penalty_Charging>
0.000173346

> <r_epik_Ionization_Penalty_Neutral>
0.0363324

> <r_epik_State_Penalty>
0.0303445

> <r_epik_Charging_Adjusted_Penalty>
0.0305178

> <i_epik_Tot_Q>
-1

> <i_epik_Tot_abs_Q>
1

> <r_epik_Metal_State_Penalty>
3.11342e-05

> <b_epik_Metal_Only>
0

> <s_lp_Force_Field>
OPLS_2005

> <r_lp_Energy>
23.1788

> <b_lp_Chiralities_Consistent>
1

> <s_lp_Variant>
AV-unprocessed.smi:872-1

> <Gold.Version>
5.8.1

> <Gold.Id.Protein>
6NUR|6NUR_protein|mol2

> <Gold.PLP.Fitness>
48.5296

> <Gold.PLP.PLP>
-33.2401

> <Gold.PLP.part.hbond>
-2.8276

> <Gold.PLP.part.metal>
0.0000

> <Gold.PLP.part.buried>
-0.9693

> <Gold.PLP.part.nonpolar>
-28.2909

> <Gold.PLP.part.repulsive>
0.3515

> <Gold.PLP.ligand.clash>
0.0000

> <Gold.PLP.ligand.torsion>
0.5308

> <Gold.PLP.Chemscore.Hbond>
3.4371

> <Gold.PLP.Chemscore.CHOScore>
1.9807

> <Gold.PLP.Chemscore.Metal>
0.0000

> <Gold.Chemscore.Hbonds>
donor molecule, donor type, donor heavy atom, donor atom, acceptor molecule, acceptor atom, score
      P1  H  7997  8008       L1     1  1.70
      P1  H 10752 10765       L1     3  1.89
      L1  C     5    16       P1  7957  0.60
      L1  C     7    17       P1  8028  1.00

> <Gold.PLP.Chemscore.Internal.Correction>
0.0978

> <Gold.Rescore>
     Score         DG    S(hbond)    S(metal)    S(lipo)     H(rot)  DE(clash)    DE(int)     intcor
     16.61     -17.70       1.54        0.00      82.48       1.00       0.72       0.36       ----

> <Gold.Chemscore.Fitness>
16.6132

> <Gold.Chemscore.DG>
-17.6997

> <Gold.Chemscore.ZeroCoef>
-5.4800

> <Gold.Chemscore.Hbond>
1.5356

> <Gold.Chemscore.Metal>
0.0000

> <Gold.Chemscore.Lipo>
82.4849

> <Gold.Chemscore.Internal_Hbond>
0.0000

> <Gold.Chemscore.DEClash>
0.7233

> <Gold.Chemscore.DEInternal>
0.3633

> <Gold.Chemscore.Rot>
1.0000

> <Gold.Chemscore.Internal.Correction>
   9.000000E+99

> <Gold.Chemscore.Hbonds>
donor molecule, donor type, donor heavy atom, donor atom, acceptor molecule, acceptor atom, score
      P1  H  7997  8008       L1     1  0.77
      P1  H 10752 10765       L1     3  0.86

> <Gold.Chemscore.Hbond.Weighted>
-5.1290

> <Gold.Chemscore.Metal.Weighted>
-0.0000

> <Gold.Chemscore.Lipo.Weighted>
-9.6507

> <Gold.Chemscore.Internal_Hbond.Weighted>
0.0000

> <Gold.Chemscore.DEClash.Weighted>
0.7233

> <Gold.Chemscore.DEInternal.Weighted>
0.3633

> <Gold.Chemscore.Rot.Weighted>
2.5600

> <Gold.Chemscore.Internal.Correction.Weighted>
   9.000000E+99

> <Gold.Protein.RotatedTorsions>
[ 6907 6896 6895 6894 ] final -160.36 input  -60.11 | X-H torsion
[ 7974 7965 7964 7962 ] final   82.56 input  175.53 | X-H torsion
[ 8008 7997 7996 7995 ] final   -7.39 input   59.86 | X-H torsion
[ 10167 10162 10161 10158 ] final  -60.62 input  -65.29 | X-H torsion
[ 10718 10713 10712 10709 ] final -168.10 input   66.30 | X-H torsion
[ 10763 10752 10751 10750 ] final  155.82 input  -60.55 | X-H torsion
[ 11005 11000 10999 10996 ] final -163.89 input  -57.11 | X-H torsion

> <Gold.Protein.ActiveResidues>
 VAL166  LYS551  ARG553  GLY616  TRP617  ASP618  TYR619  PRO620  LYS621  CYS622 
 ASP623  PHE694  ASN695  SER759  ASP760  ASP761  ALA762  ILE779  LEU786  VAL792 
 PHE793  MET794  SER795  GLU796  ALA797  LYS798  CYS799  TRP800  GLU811  SER814 

> <Gold.Protein.RotatedAtoms>
  151.3478  133.3937  159.2677 H   0  0  0  0  0  0  0  0  0  0  0  0  # atno 6907 bound_to 6896
  150.9825  134.9178  159.7863 H   0  0  0  0  0  0  0  0  0  0  0  0  # atno 6908 bound_to 6896
  152.5222  134.3442  159.9280 H   0  0  0  0  0  0  0  0  0  0  0  0  # atno 6909 bound_to 6896
  145.6235  139.2390  143.2125 H   0  0  0  0  0  0  0  0  0  0  0  0  # atno 7974 bound_to 7965
  154.5843  140.2408  155.8009 H   0  0  0  0  0  0  0  0  0  0  0  0  # atno 8008 bound_to 7997
  156.2202  140.3000  155.9889 H   0  0  0  0  0  0  0  0  0  0  0  0  # atno 8009 bound_to 7997
  155.2485  140.0410  157.2974 H   0  0  0  0  0  0  0  0  0  0  0  0  # atno 8010 bound_to 7997
  140.6059  143.2373  151.5821 H   0  0  0  0  0  0  0  0  0  0  0  0  # atno 10167 bound_to 10162
  156.6920  130.9163  151.3070 H   0  0  0  0  0  0  0  0  0  0  0  0  # atno 10718 bound_to 10713
  154.1745  135.2803  155.3071 H   0  0  0  0  0  0  0  0  0  0  0  0  # atno 10763 bound_to 10752
  154.6049  135.5517  153.7416 H   0  0  0  0  0  0  0  0  0  0  0  0  # atno 10764 bound_to 10752
  153.0155  135.6401  154.1885 H   0  0  0  0  0  0  0  0  0  0  0  0  # atno 10765 bound_to 10752
  140.5931  134.5025  157.5195 H   0  0  0  0  0  0  0  0  0  0  0  0  # atno 11005 bound_to 11000
  146.1413  140.7054  142.9366 LP  0  0  0  0  0  0  0  0  0  0  0  0  # atno 17320 bound_to 7965
  144.7222  140.4409  143.7000 LP  0  0  0  0  0  0  0  0  0  0  0  0  # atno 17321 bound_to 7965
  139.5325  144.2875  152.1179 LP  0  0  0  0  0  0  0  0  0  0  0  0  # atno 17342 bound_to 10162
  140.2065  144.4605  150.6406 LP  0  0  0  0  0  0  0  0  0  0  0  0  # atno 17343 bound_to 10162
  157.7005  130.9328  150.0772 LP  0  0  0  0  0  0  0  0  0  0  0  0  # atno 17370 bound_to 10713
  156.1791  130.3649  149.9060 LP  0  0  0  0  0  0  0  0  0  0  0  0  # atno 17371 bound_to 10713
  139.9265  134.8045  156.1053 LP  0  0  0  0  0  0  0  0  0  0  0  0  # atno 17394 bound_to 11000
  141.0922  133.6710  156.2565 LP  0  0  0  0  0  0  0  0  0  0  0  0  # atno 17395 bound_to 11000

$$$$
