AV-unprocessed.smi:467|AV-procd|sdf|2650|dock7
  -GOLD-   2262023 63D 1   1.00000     0.00000
 Structure written by MMmdl.
 46 48  0  0  0  0  0  0  0  0  3 V2000
  155.0610  141.9789  164.7312 C   0  0  0  0  0  0  0  0  0  0  0  0
  154.3133  142.2747  163.4421 C   0  0  0  0  0  0  0  0  0  0  0  0
  153.4554  143.3968  163.4024 C   0  0  0  0  0  0  0  0  0  0  0  0
  152.7880  143.6434  162.2086 C   0  0  0  0  0  0  0  0  0  0  0  0
  151.8914  144.6540  161.8559 N   0  3  0  0  0  0  0  0  0  0  0  0
  151.4993  144.4827  160.5635 C   0  0  0  0  0  0  0  0  0  0  0  0
  152.1323  143.3772  160.0840 N   0  0  0  0  0  0  0  0  0  0  0  0
  152.0588  142.7619  158.7503 C   0  0  0  0  0  0  0  0  0  0  0  0
  150.6165  142.6706  158.2142 C   0  0  1  0  0  0  0  0  0  0  0  0
  150.1257  143.9703  157.9455 O   0  0  0  0  0  0  0  0  0  0  0  0
  150.5364  141.8338  156.9218 C   0  0  0  0  0  0  0  0  0  0  0  0
  149.2499  142.0178  156.2018 N   0  3  0  0  0  0  0  0  0  0  0  0
  149.2538  141.3862  154.8607 C   0  0  0  0  0  0  0  0  0  0  0  0
  147.9232  141.6502  154.1351 C   0  0  0  0  0  0  0  0  0  0  0  0
  146.8434  141.1740  154.9286 O   0  0  0  0  0  0  0  0  0  0  0  0
  146.7738  141.8373  156.1844 C   0  0  0  0  0  0  0  0  0  0  0  0
  148.0649  141.5750  156.9783 C   0  0  0  0  0  0  0  0  0  0  0  0
  152.9467  142.8185  161.0775 C   0  0  0  0  0  0  0  0  0  0  0  0
  153.7868  141.7071  161.1014 C   0  0  0  0  0  0  0  0  0  0  0  0
  154.4757  141.4399  162.3063 C   0  0  0  0  0  0  0  0  0  0  0  0
  155.4003  140.2354  162.3602 C   0  0  0  0  0  0  0  0  0  0  0  0
  154.8675  142.7396  165.4881 H   0  0  0  0  0  0  0  0  0  0  0  0
  156.1366  141.9522  164.5549 H   0  0  0  0  0  0  0  0  0  0  0  0
  154.7520  141.0165  165.1397 H   0  0  0  0  0  0  0  0  0  0  0  0
  153.3261  144.0363  164.2635 H   0  0  0  0  0  0  0  0  0  0  0  0
  150.8112  145.1120  160.0175 H   0  0  0  0  0  0  0  0  0  0  0  0
  152.7076  143.3044  158.0623 H   0  0  0  0  0  0  0  0  0  0  0  0
  152.4823  141.7606  158.8403 H   0  0  0  0  0  0  0  0  0  0  0  0
  149.9915  142.2294  158.9901 H   0  0  0  0  0  0  0  0  0  0  0  0
  149.8085  143.9969  157.0555 H   0  0  0  0  0  0  0  0  0  0  0  0
  151.3672  142.1173  156.2731 H   0  0  0  0  0  0  0  0  0  0  0  0
  150.6740  140.7738  157.1414 H   0  0  0  0  0  0  0  0  0  0  0  0
  150.0778  141.7832  154.2664 H   0  0  0  0  0  0  0  0  0  0  0  0
  149.4186  140.3121  154.9620 H   0  0  0  0  0  0  0  0  0  0  0  0
  147.7963  142.7140  153.9269 H   0  0  0  0  0  0  0  0  0  0  0  0
  147.9096  141.1342  153.1748 H   0  0  0  0  0  0  0  0  0  0  0  0
  146.6166  142.9072  156.0375 H   0  0  0  0  0  0  0  0  0  0  0  0
  145.9111  141.4612  156.7347 H   0  0  0  0  0  0  0  0  0  0  0  0
  148.1505  140.5109  157.2040 H   0  0  0  0  0  0  0  0  0  0  0  0
  148.0125  142.0994  157.9317 H   0  0  0  0  0  0  0  0  0  0  0  0
  153.9160  141.0708  160.2390 H   0  0  0  0  0  0  0  0  0  0  0  0
  155.3656  139.6635  161.4324 H   0  0  0  0  0  0  0  0  0  0  0  0
  155.1143  139.5668  163.1726 H   0  0  0  0  0  0  0  0  0  0  0  0
  156.4315  140.5528  162.5186 H   0  0  0  0  0  0  0  0  0  0  0  0
  149.1492  143.0111  156.0456 H   0  0  0  0  0  0  0  0  0  0  0  0
  151.5697  145.4064  162.4516 H   0  0  0  0  0  0  0  0  0  0  0  0
  1  2  1  0  0  0  0
  1 22  1  0  0  0  0
  1 23  1  0  0  0  0
  1 24  1  0  0  0  0
  2 20  1  0  0  0  0
  2  3  2  0  0  0  0
  3  4  1  0  0  0  0
  3 25  1  0  0  0  0
  4 18  2  0  0  0  0
  4  5  1  0  0  0  0
  5  6  2  0  0  0  0
  5 46  1  0  0  0  0
  6  7  1  0  0  0  0
  6 26  1  0  0  0  0
  7  8  1  0  0  0  0
  7 18  1  0  0  0  0
  8  9  1  0  0  0  0
  8 27  1  0  0  0  0
  8 28  1  0  0  0  0
  9 10  1  0  0  0  0
  9 11  1  0  0  0  0
  9 29  1  0  0  0  0
 10 30  1  0  0  0  0
 11 12  1  0  0  0  0
 11 31  1  0  0  0  0
 11 32  1  0  0  0  0
 12 17  1  0  0  0  0
 12 13  1  0  0  0  0
 12 45  1  0  0  0  0
 13 14  1  0  0  0  0
 13 33  1  0  0  0  0
 13 34  1  0  0  0  0
 14 15  1  0  0  0  0
 14 35  1  0  0  0  0
 14 36  1  0  0  0  0
 15 16  1  0  0  0  0
 16 17  1  0  0  0  0
 16 37  1  0  0  0  0
 16 38  1  0  0  0  0
 17 39  1  0  0  0  0
 17 40  1  0  0  0  0
 18 19  1  0  0  0  0
 19 20  2  0  0  0  0
 19 41  1  0  0  0  0
 20 21  1  0  0  0  0
 21 42  1  0  0  0  0
 21 43  1  0  0  0  0
 21 44  1  0  0  0  0
M  CHG  1   5   1
M  CHG  1  12   1
M  END
> <s_m_source_file>
AV-unprocessed.smi

> <i_m_source_file_index>
467

> <i_lp_mmshare_version>
43012

> <i_f3d_flags>
0

> <s_epik_input>
W0NIM11jKFtjSF0xKWMoW0NIM10pW2NIXWMoYzEyKW4oW2NIXW4yKVtDSDJdW0NASF0oW09IXSlbQ0gyXU4zW0NIMl1bQ0gyXU9bQ0gyXVtDSDJdMw==

> <s_epik_cmdline>
J2VwaWtfcHl0aG9uJywgJy1waCcsICc3LjAnLCAnLXRuJywgJzgnLCAnLW1hJywgJzIwMCcsICctbWV0YWxfYmluZGluZycsICctaW1hZScsICc8aW5maWxlLm1hZT4nLCAnLW9tYWUnLCAnPG91dGZpbGUubWFlPic=

> <r_epik_Ionization_Penalty>
1.88533

> <r_epik_Ionization_Penalty_Charging>
1.88531

> <r_epik_Ionization_Penalty_Neutral>
1.42224e-05

> <r_epik_State_Penalty>
1.94609

> <r_epik_Charging_Adjusted_Penalty>
3.8314

> <i_epik_Tot_Q>
2

> <i_epik_Tot_abs_Q>
2

> <r_epik_Metal_State_Penalty>
5.95915

> <b_epik_Metal_Only>
0

> <s_lp_Force_Field>
OPLS_2005

> <r_lp_Energy>
30.7546

> <b_lp_Chiralities_Consistent>
1

> <s_lp_Variant>
AV-unprocessed.smi:467-8

> <Gold.Version>
5.8.1

> <Gold.Id.Protein>
6NUR|6NUR_protein|mol2

> <Gold.PLP.Fitness>
60.5156

> <Gold.PLP.PLP>
-52.2441

> <Gold.PLP.part.hbond>
-3.9437

> <Gold.PLP.part.metal>
0.0000

> <Gold.PLP.part.buried>
-2.8923

> <Gold.PLP.part.nonpolar>
-44.3362

> <Gold.PLP.part.repulsive>
0.2357

> <Gold.PLP.ligand.clash>
0.0000

> <Gold.PLP.ligand.torsion>
0.3800

> <Gold.PLP.Chemscore.Hbond>
3.0000

> <Gold.PLP.Chemscore.CHOScore>
0.0000

> <Gold.PLP.Chemscore.Metal>
0.0000

> <Gold.Chemscore.Hbonds>
donor molecule, donor type, donor heavy atom, donor atom, acceptor molecule, acceptor atom, score
      L1  H    10    30       P1  8028  1.00
      L1  H    12    45       P1  8028  2.00

> <Gold.PLP.Chemscore.Internal.Correction>
0.0316

> <Gold.Rescore>
     Score         DG    S(hbond)    S(metal)    S(lipo)     H(rot)  DE(clash)    DE(int)     intcor
     19.14     -20.88       1.92        0.00     123.93       2.16       0.39       1.35       ----

> <Gold.Chemscore.Fitness>
19.1369

> <Gold.Chemscore.DG>
-20.8812

> <Gold.Chemscore.ZeroCoef>
-5.4800

> <Gold.Chemscore.Hbond>
1.9250

> <Gold.Chemscore.Metal>
0.0000

> <Gold.Chemscore.Lipo>
123.9260

> <Gold.Chemscore.Internal_Hbond>
0.0000

> <Gold.Chemscore.DEClash>
0.3902

> <Gold.Chemscore.DEInternal>
1.3542

> <Gold.Chemscore.Rot>
2.1592

> <Gold.Chemscore.Internal.Correction>
   9.000000E+99

> <Gold.Chemscore.Hbonds>
donor molecule, donor type, donor heavy atom, donor atom, acceptor molecule, acceptor atom, score
      L1  H    10    30       P1  8028  0.83
      L1  H    12    45       P1  8028  1.00

> <Gold.Chemscore.Hbond.Weighted>
-6.4294

> <Gold.Chemscore.Metal.Weighted>
-0.0000

> <Gold.Chemscore.Lipo.Weighted>
-14.4993

> <Gold.Chemscore.Internal_Hbond.Weighted>
0.0000

> <Gold.Chemscore.DEClash.Weighted>
0.3902

> <Gold.Chemscore.DEInternal.Weighted>
1.3542

> <Gold.Chemscore.Rot.Weighted>
5.5275

> <Gold.Chemscore.Internal.Correction.Weighted>
   9.000000E+99

> <Gold.Protein.RotatedTorsions>
[ 6907 6896 6895 6894 ] final  156.55 input  -60.11 | X-H torsion
[ 7974 7965 7964 7962 ] final  115.52 input  175.53 | X-H torsion
[ 8008 7997 7996 7995 ] final   56.07 input   59.86 | X-H torsion
[ 10167 10162 10161 10158 ] final   31.15 input  -65.29 | X-H torsion
[ 10718 10713 10712 10709 ] final -173.55 input   66.30 | X-H torsion
[ 10763 10752 10751 10750 ] final -150.57 input  -60.55 | X-H torsion
[ 11005 11000 10999 10996 ] final  -19.41 input  -57.11 | X-H torsion

> <Gold.Protein.ActiveResidues>
 VAL166  LYS551  ARG553  GLY616  TRP617  ASP618  TYR619  PRO620  LYS621  CYS622 
 ASP623  PHE694  ASN695  SER759  ASP760  ASP761  ALA762  ILE779  LEU786  VAL792 
 PHE793  MET794  SER795  GLU796  ALA797  LYS798  CYS799  TRP800  GLU811  SER814 

> <Gold.Protein.RotatedAtoms>
  152.0280  133.3925  159.4285 H   0  0  0  0  0  0  0  0  0  0  0  0  # atno 6907 bound_to 6896
  150.6884  134.3552  159.4935 H   0  0  0  0  0  0  0  0  0  0  0  0  # atno 6908 bound_to 6896
  152.1335  134.9117  160.0608 H   0  0  0  0  0  0  0  0  0  0  0  0  # atno 6909 bound_to 6896
  145.1910  139.3000  143.4368 H   0  0  0  0  0  0  0  0  0  0  0  0  # atno 7974 bound_to 7965
  155.5114  140.3477  155.4389 H   0  0  0  0  0  0  0  0  0  0  0  0  # atno 8008 bound_to 7997
  156.0846  140.1395  156.9696 H   0  0  0  0  0  0  0  0  0  0  0  0  # atno 8009 bound_to 7997
  154.4599  140.0939  156.6841 H   0  0  0  0  0  0  0  0  0  0  0  0  # atno 8010 bound_to 7997
  140.4614  144.0901  150.6214 H   0  0  0  0  0  0  0  0  0  0  0  0  # atno 10167 bound_to 10162
  156.7720  130.9452  151.3120 H   0  0  0  0  0  0  0  0  0  0  0  0  # atno 10718 bound_to 10713
  154.8111  135.3281  154.7302 H   0  0  0  0  0  0  0  0  0  0  0  0  # atno 10763 bound_to 10752
  153.7951  135.6908  153.4869 H   0  0  0  0  0  0  0  0  0  0  0  0  # atno 10764 bound_to 10752
  153.1891  135.4558  155.0072 H   0  0  0  0  0  0  0  0  0  0  0  0  # atno 10765 bound_to 10752
  140.8364  133.7958  155.9813 H   0  0  0  0  0  0  0  0  0  0  0  0  # atno 11005 bound_to 11000
  146.3436  140.2122  142.8590 LP  0  0  0  0  0  0  0  0  0  0  0  0  # atno 17320 bound_to 7965
  145.0042  140.8658  143.5263 LP  0  0  0  0  0  0  0  0  0  0  0  0  # atno 17321 bound_to 7965
  140.4089  143.2667  151.9857 LP  0  0  0  0  0  0  0  0  0  0  0  0  # atno 17342 bound_to 10162
  139.4807  144.5933  151.7734 LP  0  0  0  0  0  0  0  0  0  0  0  0  # atno 17343 bound_to 10162
  157.6687  130.9031  149.9990 LP  0  0  0  0  0  0  0  0  0  0  0  0  # atno 17370 bound_to 10713
  156.1272  130.3644  149.9790 LP  0  0  0  0  0  0  0  0  0  0  0  0  # atno 17371 bound_to 10713
  140.8942  134.2457  157.5077 LP  0  0  0  0  0  0  0  0  0  0  0  0  # atno 17394 bound_to 11000
  139.8704  134.9676  156.4603 LP  0  0  0  0  0  0  0  0  0  0  0  0  # atno 17395 bound_to 11000

$$$$
