AV-unprocessed.smi:1812|AV-procd|sdf|7336|dock1
  -GOLD-   22720 8593D 1   1.00000     0.00000
 Structure written by MMmdl.
 34 36  0  0  0  0  0  0  0  0  1 V2000
  146.7586  139.5112  153.9810 O   0  0  0  0  0  0  0  0  0  0  0  0
  147.4912  138.6707  153.4584 C   0  0  0  0  0  0  0  0  0  0  0  0
  147.0420  137.7022  152.6475 N   0  0  0  0  0  0  0  0  0  0  0  0
  145.6483  137.5177  152.2590 C   0  0  0  0  0  0  0  0  0  0  0  0
  145.4618  136.2511  151.4075 C   0  0  2  0  0  0  0  0  0  0  0  0
  144.0070  135.8004  151.2871 C   0  0  0  0  0  0  0  0  0  0  0  0
  144.1685  134.3244  151.0049 C   0  0  0  0  0  0  0  0  0  0  0  0
  145.3470  133.9657  151.9047 C   0  0  0  0  0  0  0  0  0  0  0  0
  146.1427  135.1449  151.9971 O   0  0  0  0  0  0  0  0  0  0  0  0
  148.8249  138.5968  153.6127 N   0  0  0  0  0  0  0  0  0  0  0  0
  149.6693  139.4391  154.3836 C   0  0  0  0  0  0  0  0  0  0  0  0
  151.0001  139.2976  154.4531 N   0  0  0  0  0  0  0  0  0  0  0  0
  151.5802  140.2531  155.2755 N   0  0  0  0  0  0  0  0  0  0  0  0
  150.6758  141.0876  155.8019 C   0  0  0  0  0  0  0  0  0  0  0  0
  151.0592  142.2009  156.7190 C   0  0  0  0  0  0  0  0  0  0  0  0
  151.7835  141.9417  158.0221 C   0  0  0  0  0  0  0  0  0  0  0  0
  150.3462  142.3958  158.0375 C   0  0  0  0  0  0  0  0  0  0  0  0
  149.0111  140.7646  155.3274 S   0  0  0  0  0  0  0  0  0  0  0  0
  147.7114  137.0555  152.2568 H   0  0  0  0  0  0  0  0  0  0  0  0
  145.0439  137.4534  153.1641 H   0  0  0  0  0  0  0  0  0  0  0  0
  145.2967  138.3952  151.7136 H   0  0  0  0  0  0  0  0  0  0  0  0
  145.8667  136.3989  150.4048 H   0  0  0  0  0  0  0  0  0  0  0  0
  143.4779  135.9433  152.2306 H   0  0  0  0  0  0  0  0  0  0  0  0
  143.4619  136.3292  150.5048 H   0  0  0  0  0  0  0  0  0  0  0  0
  143.2721  133.7428  151.2216 H   0  0  0  0  0  0  0  0  0  0  0  0
  144.4331  134.1704  149.9579 H   0  0  0  0  0  0  0  0  0  0  0  0
  144.9975  133.7071  152.9051 H   0  0  0  0  0  0  0  0  0  0  0  0
  145.9233  133.1243  151.5196 H   0  0  0  0  0  0  0  0  0  0  0  0
  149.2921  137.8517  153.1177 H   0  0  0  0  0  0  0  0  0  0  0  0
  151.3341  143.0882  156.1521 H   0  0  0  0  0  0  0  0  0  0  0  0
  151.9807  140.9104  158.3072 H   0  0  0  0  0  0  0  0  0  0  0  0
  152.5406  142.6616  158.3265 H   0  0  0  0  0  0  0  0  0  0  0  0
  150.1448  143.4178  158.3524 H   0  0  0  0  0  0  0  0  0  0  0  0
  149.5918  141.6634  158.3177 H   0  0  0  0  0  0  0  0  0  0  0  0
  1  2  2  0  0  0  0
  2  3  1  0  0  0  0
  2 10  1  0  0  0  0
  3  4  1  0  0  0  0
  3 19  1  0  0  0  0
  4  5  1  0  0  0  0
  4 20  1  0  0  0  0
  4 21  1  0  0  0  0
  5  9  1  0  0  0  0
  5  6  1  0  0  0  0
  5 22  1  0  0  0  0
  6  7  1  0  0  0  0
  6 23  1  0  0  0  0
  6 24  1  0  0  0  0
  7  8  1  0  0  0  0
  7 25  1  0  0  0  0
  7 26  1  0  0  0  0
  8  9  1  0  0  0  0
  8 27  1  0  0  0  0
  8 28  1  0  0  0  0
 10 11  1  0  0  0  0
 10 29  1  0  0  0  0
 11 18  1  0  0  0  0
 11 12  2  0  0  0  0
 12 13  1  0  0  0  0
 13 14  2  0  0  0  0
 14 15  1  0  0  0  0
 14 18  1  0  0  0  0
 15 17  1  0  0  0  0
 15 16  1  0  0  0  0
 15 30  1  0  0  0  0
 16 17  1  0  0  0  0
 16 31  1  0  0  0  0
 16 32  1  0  0  0  0
 17 33  1  0  0  0  0
 17 34  1  0  0  0  0
M  END
> <s_m_source_file>
AV-unprocessed.smi

> <i_m_source_file_index>
1812

> <i_lp_mmshare_version>
43012

> <i_f3d_flags>
0

> <s_epik_input>
TzFbQ0gyXVtDSDJdW0NIMl1bQ0BIXTFbQ0gyXVtOSF1DKD1PKVtOSF1jMm5uYyhzMilbQ0hdM1tDSDJdW0NIMl0z

> <s_epik_cmdline>
J2VwaWtfcHl0aG9uJywgJy1waCcsICc3LjAnLCAnLXRuJywgJzgnLCAnLW1hJywgJzIwMCcsICctbWV0YWxfYmluZGluZycsICctaW1hZScsICc8aW5maWxlLm1hZT4nLCAnLW9tYWUnLCAnPG91dGZpbGUubWFlPic=

> <r_lp_tautomer_probability>
1

> <r_epik_Ionization_Penalty>
0.000281817

> <r_epik_Ionization_Penalty_Charging>
0

> <r_epik_Ionization_Penalty_Neutral>
0.000281817

> <r_epik_State_Penalty>
-0

> <r_epik_Charging_Adjusted_Penalty>
0

> <i_epik_Tot_Q>
0

> <i_epik_Tot_abs_Q>
0

> <r_epik_Metal_State_Penalty>
0.157535

> <b_epik_Metal_Only>
0

> <s_lp_Force_Field>
OPLS_2005

> <r_lp_Energy>
14.57

> <b_lp_Chiralities_Consistent>
1

> <s_lp_Variant>
AV-unprocessed.smi:1812-1

> <Gold.Version>
5.8.1

> <Gold.Id.Protein>
6NUR|6NUR_protein|mol2

> <Gold.PLP.Fitness>
36.0726

> <Gold.PLP.PLP>
-30.9889

> <Gold.PLP.part.hbond>
-4.9962

> <Gold.PLP.part.metal>
0.0000

> <Gold.PLP.part.buried>
-5.0722

> <Gold.PLP.part.nonpolar>
-22.1212

> <Gold.PLP.part.repulsive>
1.5665

> <Gold.PLP.ligand.clash>
0.0000

> <Gold.PLP.ligand.torsion>
0.2138

> <Gold.PLP.Chemscore.Hbond>
1.7865

> <Gold.PLP.Chemscore.CHOScore>
0.0000

> <Gold.PLP.Chemscore.Metal>
0.0000

> <Gold.Chemscore.Hbonds>
donor molecule, donor type, donor heavy atom, donor atom, acceptor molecule, acceptor atom, score
      L1  H     3    19       P1  7948  0.99
      L1  H    10    29       P1  7948  0.84

> <Gold.PLP.Chemscore.Internal.Correction>
0.1518

> <Gold.Rescore>
     Score         DG    S(hbond)    S(metal)    S(lipo)     H(rot)  DE(clash)    DE(int)     intcor
     13.72     -15.30       1.87        0.00      62.67       1.47       0.24       1.35       ----

> <Gold.Chemscore.Fitness>
13.7194

> <Gold.Chemscore.DG>
-15.3043

> <Gold.Chemscore.ZeroCoef>
-5.4800

> <Gold.Chemscore.Hbond>
1.8746

> <Gold.Chemscore.Metal>
0.0000

> <Gold.Chemscore.Lipo>
62.6732

> <Gold.Chemscore.Internal_Hbond>
0.0000

> <Gold.Chemscore.DEClash>
0.2354

> <Gold.Chemscore.DEInternal>
1.3496

> <Gold.Chemscore.Rot>
1.4725

> <Gold.Chemscore.Internal.Correction>
   9.000000E+99

> <Gold.Chemscore.Hbonds>
donor molecule, donor type, donor heavy atom, donor atom, acceptor molecule, acceptor atom, score
      L1  H     3    19       P1  7948  0.92
      L1  H    10    29       P1  7948  0.77

> <Gold.Chemscore.Hbond.Weighted>
-6.2611

> <Gold.Chemscore.Metal.Weighted>
-0.0000

> <Gold.Chemscore.Lipo.Weighted>
-7.3328

> <Gold.Chemscore.Internal_Hbond.Weighted>
0.0000

> <Gold.Chemscore.DEClash.Weighted>
0.2354

> <Gold.Chemscore.DEInternal.Weighted>
1.3496

> <Gold.Chemscore.Rot.Weighted>
3.7695

> <Gold.Chemscore.Internal.Correction.Weighted>
   9.000000E+99

> <Gold.Protein.RotatedTorsions>
[ 6907 6896 6895 6894 ] final  -56.25 input  -60.11 | X-H torsion
[ 7974 7965 7964 7962 ] final  172.47 input  175.53 | X-H torsion
[ 8008 7997 7996 7995 ] final   50.46 input   59.86 | X-H torsion
[ 10167 10162 10161 10158 ] final   72.74 input  -65.29 | X-H torsion
[ 10718 10713 10712 10709 ] final  -45.93 input   66.30 | X-H torsion
[ 10763 10752 10751 10750 ] final   81.66 input  -60.55 | X-H torsion
[ 11005 11000 10999 10996 ] final  170.95 input  -57.11 | X-H torsion

> <Gold.Protein.ActiveResidues>
 VAL166  LYS551  ARG553  GLY616  TRP617  ASP618  TYR619  PRO620  LYS621  CYS622 
 ASP623  PHE694  ASN695  SER759  ASP760  ASP761  ALA762  ILE779  LEU786  VAL792 
 PHE793  MET794  SER795  GLU796  ALA797  LYS798  CYS799  TRP800  GLU811  SER814 

> <Gold.Protein.RotatedAtoms>
  150.8183  134.7377  159.6749 H   0  0  0  0  0  0  0  0  0  0  0  0  # atno 6907 bound_to 6896
  152.4300  134.5792  159.9953 H   0  0  0  0  0  0  0  0  0  0  0  0  # atno 6908 bound_to 6896
  151.5983  133.3322  159.3078 H   0  0  0  0  0  0  0  0  0  0  0  0  # atno 6909 bound_to 6896
  144.7267  139.9504  143.6432 H   0  0  0  0  0  0  0  0  0  0  0  0  # atno 7974 bound_to 7965
  155.4192  140.3445  155.4270 H   0  0  0  0  0  0  0  0  0  0  0  0  # atno 8008 bound_to 7997
  156.1403  140.1540  156.8962 H   0  0  0  0  0  0  0  0  0  0  0  0  # atno 8009 bound_to 7997
  154.4965  140.0826  156.7689 H   0  0  0  0  0  0  0  0  0  0  0  0  # atno 8010 bound_to 7997
  140.0321  144.5457  150.7499 H   0  0  0  0  0  0  0  0  0  0  0  0  # atno 10167 bound_to 10162
  156.2234  130.4167  149.8964 H   0  0  0  0  0  0  0  0  0  0  0  0  # atno 10718 bound_to 10713
  153.1135  135.4757  154.9076 H   0  0  0  0  0  0  0  0  0  0  0  0  # atno 10763 bound_to 10752
  154.7505  135.3105  154.8568 H   0  0  0  0  0  0  0  0  0  0  0  0  # atno 10764 bound_to 10752
  153.9151  135.6861  153.4803 H   0  0  0  0  0  0  0  0  0  0  0  0  # atno 10765 bound_to 10752
  140.3138  134.7494  157.4012 H   0  0  0  0  0  0  0  0  0  0  0  0  # atno 11005 bound_to 11000
  146.0716  139.3705  143.0519 LP  0  0  0  0  0  0  0  0  0  0  0  0  # atno 17320 bound_to 7965
  145.7960  140.9792  143.1024 LP  0  0  0  0  0  0  0  0  0  0  0  0  # atno 17321 bound_to 7965
  140.7297  143.2676  151.3994 LP  0  0  0  0  0  0  0  0  0  0  0  0  # atno 17342 bound_to 10162
  139.6069  144.1178  152.2259 LP  0  0  0  0  0  0  0  0  0  0  0  0  # atno 17343 bound_to 10162
  156.6603  130.8779  151.3546 LP  0  0  0  0  0  0  0  0  0  0  0  0  # atno 17370 bound_to 10713
  157.7099  130.9428  150.1053 LP  0  0  0  0  0  0  0  0  0  0  0  0  # atno 17371 bound_to 10713
  140.1001  134.5484  155.8361 LP  0  0  0  0  0  0  0  0  0  0  0  0  # atno 17394 bound_to 11000
  141.2102  133.6692  156.6493 LP  0  0  0  0  0  0  0  0  0  0  0  0  # atno 17395 bound_to 11000

$$$$
