AV-unprocessed.smi:2159|AV-procd|sdf|8792|dock10
  -GOLD-   2272011573D 1   1.00000     0.00000
 Structure written by MMmdl.
 47 49  0  0  0  0  0  0  0  0  1 V2000
  152.3479  135.6280  156.9653 O   0  0  0  0  0  0  0  0  0  0  0  0
  152.3804  136.8432  157.1609 C   0  0  0  0  0  0  0  0  0  0  0  0
  153.1919  137.4259  158.3219 C   0  0  0  0  0  0  0  0  0  0  0  0
  152.3267  138.1910  159.3433 C   0  0  0  0  0  0  0  0  0  0  0  0
  152.4038  139.6394  159.1240 N   0  0  0  0  0  0  0  0  0  0  0  0
  151.5528  140.3258  158.3484 C   0  0  0  0  0  0  0  0  0  0  0  0
  150.5959  139.8590  157.7304 O   0  0  0  0  0  0  0  0  0  0  0  0
  151.9200  141.8070  158.3034 C   0  0  1  0  0  0  0  0  0  0  0  0
  150.7588  142.7082  158.7735 C   0  0  0  0  0  0  0  0  0  0  0  0
  151.2387  144.1444  159.0467 C   0  0  0  0  0  0  0  0  0  0  0  0
  152.4838  144.2175  159.9589 C   0  0  0  0  0  0  0  0  0  0  0  0
  152.9976  142.8394  160.4110 C   0  0  0  0  0  0  0  0  0  0  0  0
  153.1645  141.8798  159.2140 C   0  0  1  0  0  0  0  0  0  0  0  0
  153.3435  140.4308  159.6602 C   0  0  0  0  0  0  0  0  0  0  0  0
  154.2522  140.0733  160.4098 O   0  0  0  0  0  0  0  0  0  0  0  0
  151.7199  137.7287  156.3995 N   0  0  0  0  0  0  0  0  0  0  0  0
  150.8743  137.3939  155.2591 C   0  0  0  0  0  0  0  0  0  0  0  0
  150.9011  138.4935  154.1845 C   0  0  0  0  0  0  0  0  0  0  0  0
  149.8644  139.5713  154.4422 C   0  0  0  0  0  0  0  0  0  0  0  0
  148.4929  139.3145  154.2305 C   0  0  0  0  0  0  0  0  0  0  0  0
  147.5706  140.3507  154.4734 C   0  0  0  0  0  0  0  0  0  0  0  0
  148.0526  141.5978  154.9155 C   0  0  0  0  0  0  0  0  0  0  0  0
  149.4415  141.7536  155.0964 C   0  0  0  0  0  0  0  0  0  0  0  0
  150.3342  140.7664  154.8661 N   0  0  0  0  0  0  0  0  0  0  0  0
  153.7209  136.6159  158.8265 H   0  0  0  0  0  0  0  0  0  0  0  0
  153.9541  138.0868  157.9079 H   0  0  0  0  0  0  0  0  0  0  0  0
  151.2873  137.8638  159.2794 H   0  0  0  0  0  0  0  0  0  0  0  0
  152.6455  137.9507  160.3594 H   0  0  0  0  0  0  0  0  0  0  0  0
  152.1972  142.0691  157.2813 H   0  0  0  0  0  0  0  0  0  0  0  0
  149.9674  142.7220  158.0229 H   0  0  0  0  0  0  0  0  0  0  0  0
  150.3082  142.3015  159.6807 H   0  0  0  0  0  0  0  0  0  0  0  0
  151.4698  144.6270  158.0962 H   0  0  0  0  0  0  0  0  0  0  0  0
  150.4242  144.7232  159.4835 H   0  0  0  0  0  0  0  0  0  0  0  0
  153.2817  144.7349  159.4249 H   0  0  0  0  0  0  0  0  0  0  0  0
  152.2667  144.8297  160.8348 H   0  0  0  0  0  0  0  0  0  0  0  0
  153.9480  142.9554  160.9335 H   0  0  0  0  0  0  0  0  0  0  0  0
  152.3017  142.4179  161.1388 H   0  0  0  0  0  0  0  0  0  0  0  0
  154.0331  142.1765  158.6244 H   0  0  0  0  0  0  0  0  0  0  0  0
  151.8011  138.7076  156.6338 H   0  0  0  0  0  0  0  0  0  0  0  0
  151.1780  136.4347  154.8361 H   0  0  0  0  0  0  0  0  0  0  0  0
  149.8560  137.2630  155.6262 H   0  0  0  0  0  0  0  0  0  0  0  0
  151.8903  138.9518  154.1453 H   0  0  0  0  0  0  0  0  0  0  0  0
  150.7239  138.0630  153.1977 H   0  0  0  0  0  0  0  0  0  0  0  0
  148.1545  138.3472  153.8890 H   0  0  0  0  0  0  0  0  0  0  0  0
  146.5132  140.1917  154.3217 H   0  0  0  0  0  0  0  0  0  0  0  0
  147.3745  142.4150  155.1115 H   0  0  0  0  0  0  0  0  0  0  0  0
  149.8463  142.6962  155.4342 H   0  0  0  0  0  0  0  0  0  0  0  0
  1  2  2  0  0  0  0
  2  3  1  0  0  0  0
  2 16  1  0  0  0  0
  3  4  1  0  0  0  0
  3 25  1  0  0  0  0
  3 26  1  0  0  0  0
  4  5  1  0  0  0  0
  4 27  1  0  0  0  0
  4 28  1  0  0  0  0
  5 14  1  0  0  0  0
  5  6  1  0  0  0  0
  6  7  2  0  0  0  0
  6  8  1  0  0  0  0
  8 13  1  0  0  0  0
  8  9  1  0  0  0  0
  8 29  1  0  0  0  0
  9 10  1  0  0  0  0
  9 30  1  0  0  0  0
  9 31  1  0  0  0  0
 10 11  1  0  0  0  0
 10 32  1  0  0  0  0
 10 33  1  0  0  0  0
 11 12  1  0  0  0  0
 11 34  1  0  0  0  0
 11 35  1  0  0  0  0
 12 13  1  0  0  0  0
 12 36  1  0  0  0  0
 12 37  1  0  0  0  0
 13 14  1  0  0  0  0
 13 38  1  0  0  0  0
 14 15  2  0  0  0  0
 16 17  1  0  0  0  0
 16 39  1  0  0  0  0
 17 18  1  0  0  0  0
 17 40  1  0  0  0  0
 17 41  1  0  0  0  0
 18 19  1  0  0  0  0
 18 42  1  0  0  0  0
 18 43  1  0  0  0  0
 19 24  1  0  0  0  0
 19 20  2  0  0  0  0
 20 21  1  0  0  0  0
 20 44  1  0  0  0  0
 21 22  2  0  0  0  0
 21 45  1  0  0  0  0
 22 23  1  0  0  0  0
 22 46  1  0  0  0  0
 23 24  2  0  0  0  0
 23 47  1  0  0  0  0
M  END
> <s_m_source_file>
AV-unprocessed.smi

> <i_m_source_file_index>
2159

> <i_lp_mmshare_version>
43012

> <i_f3d_flags>
0

> <s_epik_input>
bjFbY0hdW2NIXVtjSF1bY0hdYzFbQ0gyXVtDSDJdW05IXUMoPU8pW0NIMl1bQ0gyXU4oQzI9TylDKD1PKVtDQEhdKFtDQEBIXTIzKVtDSDJdW0NIMl1bQ0gyXVtDSDJdMw==

> <s_epik_cmdline>
J2VwaWtfcHl0aG9uJywgJy1waCcsICc3LjAnLCAnLXRuJywgJzgnLCAnLW1hJywgJzIwMCcsICctbWV0YWxfYmluZGluZycsICctaW1hZScsICc8aW5maWxlLm1hZT4nLCAnLW9tYWUnLCAnPG91dGZpbGUubWFlPic=

> <r_lp_tautomer_probability>
1

> <r_epik_Ionization_Penalty>
0.026624

> <r_epik_Ionization_Penalty_Charging>
0

> <r_epik_Ionization_Penalty_Neutral>
0.026624

> <r_epik_State_Penalty>
0.0217444

> <r_epik_Charging_Adjusted_Penalty>
0.0217444

> <i_epik_Tot_Q>
0

> <i_epik_Tot_abs_Q>
0

> <r_epik_Metal_State_Penalty>
0.0208054

> <b_epik_Metal_Only>
0

> <s_lp_Force_Field>
OPLS_2005

> <r_lp_Energy>
25.0147

> <b_lp_Chiralities_Consistent>
1

> <s_lp_Variant>
AV-unprocessed.smi:2159-2

> <Gold.Version>
5.8.1

> <Gold.Id.Protein>
6NUR|6NUR_protein|mol2

> <Gold.PLP.Fitness>
53.1516

> <Gold.PLP.PLP>
-46.3805

> <Gold.PLP.part.hbond>
-2.2034

> <Gold.PLP.part.metal>
0.0000

> <Gold.PLP.part.buried>
-6.5128

> <Gold.PLP.part.nonpolar>
-37.1091

> <Gold.PLP.part.repulsive>
0.1893

> <Gold.PLP.ligand.clash>
0.0000

> <Gold.PLP.ligand.torsion>
1.1410

> <Gold.PLP.Chemscore.Hbond>
2.0000

> <Gold.PLP.Chemscore.CHOScore>
1.0000

> <Gold.PLP.Chemscore.Metal>
0.0000

> <Gold.Chemscore.Hbonds>
donor molecule, donor type, donor heavy atom, donor atom, acceptor molecule, acceptor atom, score
      P1  H  7989  7998       L1    24  0.58
      P1  H 10752 10764       L1     1  1.00
      L1  C    23    47       P1  8028  1.00

> <Gold.PLP.Chemscore.Internal.Correction>
0.0530

> <Gold.Rescore>
     Score         DG    S(hbond)    S(metal)    S(lipo)     H(rot)  DE(clash)    DE(int)     intcor
     18.39     -19.39       1.56        0.00     117.52       1.97       0.07       0.93       ----

> <Gold.Chemscore.Fitness>
18.3872

> <Gold.Chemscore.DG>
-19.3852

> <Gold.Chemscore.ZeroCoef>
-5.4800

> <Gold.Chemscore.Hbond>
1.5568

> <Gold.Chemscore.Metal>
0.0000

> <Gold.Chemscore.Lipo>
117.5199

> <Gold.Chemscore.Internal_Hbond>
0.0000

> <Gold.Chemscore.DEClash>
0.0729

> <Gold.Chemscore.DEInternal>
0.9251

> <Gold.Chemscore.Rot>
1.9704

> <Gold.Chemscore.Internal.Correction>
   9.000000E+99

> <Gold.Chemscore.Hbonds>
donor molecule, donor type, donor heavy atom, donor atom, acceptor molecule, acceptor atom, score
      P1  H  7989  7998       L1    24  0.06
      P1  H 10752 10764       L1     1  0.42

> <Gold.Chemscore.Hbond.Weighted>
-5.1996

> <Gold.Chemscore.Metal.Weighted>
-0.0000

> <Gold.Chemscore.Lipo.Weighted>
-13.7498

> <Gold.Chemscore.Internal_Hbond.Weighted>
0.0000

> <Gold.Chemscore.DEClash.Weighted>
0.0729

> <Gold.Chemscore.DEInternal.Weighted>
0.9251

> <Gold.Chemscore.Rot.Weighted>
5.0443

> <Gold.Chemscore.Internal.Correction.Weighted>
   9.000000E+99

> <Gold.Protein.RotatedTorsions>
[ 6907 6896 6895 6894 ] final    0.28 input  -60.11 | X-H torsion
[ 7974 7965 7964 7962 ] final  106.20 input  175.53 | X-H torsion
[ 8008 7997 7996 7995 ] final  -11.49 input   59.86 | X-H torsion
[ 10167 10162 10161 10158 ] final  118.80 input  -65.29 | X-H torsion
[ 10718 10713 10712 10709 ] final  -54.97 input   66.30 | X-H torsion
[ 10763 10752 10751 10750 ] final   -2.86 input  -60.55 | X-H torsion
[ 11005 11000 10999 10996 ] final  163.41 input  -57.11 | X-H torsion

> <Gold.Protein.ActiveResidues>
 VAL166  LYS551  ARG553  GLY616  TRP617  ASP618  TYR619  PRO620  LYS621  CYS622 
 ASP623  PHE694  ASN695  SER759  ASP760  ASP761  ALA762  ILE779  LEU786  VAL792 
 PHE793  MET794  SER795  GLU796  ALA797  LYS798  CYS799  TRP800  GLU811  SER814 

> <Gold.Protein.RotatedAtoms>
  151.5739  135.1061  160.0001 H   0  0  0  0  0  0  0  0  0  0  0  0  # atno 6907 bound_to 6896
  152.4387  133.7404  159.6648 H   0  0  0  0  0  0  0  0  0  0  0  0  # atno 6908 bound_to 6896
  150.8289  133.8055  159.3130 H   0  0  0  0  0  0  0  0  0  0  0  0  # atno 6909 bound_to 6896
  145.3097  139.2544  143.3769 H   0  0  0  0  0  0  0  0  0  0  0  0  # atno 7974 bound_to 7965
  154.5460  140.2301  155.8563 H   0  0  0  0  0  0  0  0  0  0  0  0  # atno 8008 bound_to 7997
  156.1903  140.3079  155.9280 H   0  0  0  0  0  0  0  0  0  0  0  0  # atno 8009 bound_to 7997
  155.3164  140.0438  157.3028 H   0  0  0  0  0  0  0  0  0  0  0  0  # atno 8010 bound_to 7997
  139.6088  144.7076  151.2892 H   0  0  0  0  0  0  0  0  0  0  0  0  # atno 10167 bound_to 10162
  156.1407  130.4154  150.0108 H   0  0  0  0  0  0  0  0  0  0  0  0  # atno 10718 bound_to 10713
  153.3636  135.6991  153.6692 H   0  0  0  0  0  0  0  0  0  0  0  0  # atno 10763 bound_to 10752
  153.5371  135.3580  155.2702 H   0  0  0  0  0  0  0  0  0  0  0  0  # atno 10764 bound_to 10752
  154.8671  135.4194  154.2899 H   0  0  0  0  0  0  0  0  0  0  0  0  # atno 10765 bound_to 10752
  140.2355  134.8091  157.3359 H   0  0  0  0  0  0  0  0  0  0  0  0  # atno 11005 bound_to 11000
  146.3122  140.3631  142.8667 LP  0  0  0  0  0  0  0  0  0  0  0  0  # atno 17320 bound_to 7965
  144.9025  140.7660  143.5858 LP  0  0  0  0  0  0  0  0  0  0  0  0  # atno 17321 bound_to 7965
  140.7304  143.6881  150.7945 LP  0  0  0  0  0  0  0  0  0  0  0  0  # atno 17342 bound_to 10162
  140.0471  143.5287  152.2691 LP  0  0  0  0  0  0  0  0  0  0  0  0  # atno 17343 bound_to 10162
  156.7994  130.9285  151.3646 LP  0  0  0  0  0  0  0  0  0  0  0  0  # atno 17370 bound_to 10713
  157.6573  130.8935  149.9755 LP  0  0  0  0  0  0  0  0  0  0  0  0  # atno 17371 bound_to 10713
  140.1707  134.4612  155.7834 LP  0  0  0  0  0  0  0  0  0  0  0  0  # atno 17394 bound_to 11000
  141.2215  133.6940  156.7702 LP  0  0  0  0  0  0  0  0  0  0  0  0  # atno 17395 bound_to 11000

$$$$
