AV-unprocessed.smi:2025|AV-procd|sdf|8198|dock9
  -GOLD-   2272010453D 1   1.00000     0.00000
 Structure written by MMmdl.
 39 40  0  0  0  0  0  0  0  0  1 V2000
  148.2089  146.0217  160.9584 C   0  0  0  0  0  0  0  0  0  0  0  0
  148.7239  144.6276  160.5725 C   0  0  1  0  0  0  0  0  0  0  0  0
  148.0227  144.1844  159.3686 N   0  0  0  0  0  0  0  0  0  0  0  0
  147.0823  143.2288  159.3094 C   0  0  0  0  0  0  0  0  0  0  0  0
  146.7075  142.5832  160.2889 O   0  0  0  0  0  0  0  0  0  0  0  0
  146.5006  142.9454  157.9181 C   0  0  0  0  0  0  0  0  0  0  0  0
  147.4457  142.2527  157.0330 N   0  0  0  0  0  0  0  0  0  0  0  0
  148.6853  141.8740  157.5150 C   0  0  0  0  0  0  0  0  0  0  0  0
  149.6037  141.2174  156.7733 C   0  0  0  0  0  0  0  0  0  0  0  0
  149.3326  140.8661  155.3846 C   0  0  0  0  0  0  0  0  0  0  0  0
  150.1329  140.2502  154.6799 O   0  0  0  0  0  0  0  0  0  0  0  0
  148.0640  141.2795  154.9119 N   0  0  0  0  0  0  0  0  0  0  0  0
  147.6973  140.9592  153.5479 C   0  0  0  0  0  0  0  0  0  0  0  0
  147.1005  141.9495  155.6984 C   0  0  0  0  0  0  0  0  0  0  0  0
  145.9930  142.2578  155.2511 O   0  0  0  0  0  0  0  0  0  0  0  0
  150.2487  144.6206  160.3404 C   0  0  2  0  0  0  0  0  0  0  0  0
  150.6931  145.0963  158.9558 C   0  0  0  0  0  0  0  0  0  0  0  0
  152.0547  144.4524  158.8347 C   0  0  0  0  0  0  0  0  0  0  0  0
  151.8229  143.1002  159.5030 C   0  0  0  0  0  0  0  0  0  0  0  0
  150.7653  143.2954  160.4391 O   0  0  0  0  0  0  0  0  0  0  0  0
  148.6773  146.3744  161.8777 H   0  0  0  0  0  0  0  0  0  0  0  0
  147.1314  146.0086  161.1257 H   0  0  0  0  0  0  0  0  0  0  0  0
  148.4163  146.7540  160.1775 H   0  0  0  0  0  0  0  0  0  0  0  0
  148.5006  143.9549  161.4022 H   0  0  0  0  0  0  0  0  0  0  0  0
  148.2689  144.6517  158.5081 H   0  0  0  0  0  0  0  0  0  0  0  0
  145.5803  142.3658  158.0096 H   0  0  0  0  0  0  0  0  0  0  0  0
  146.2053  143.8971  157.4747 H   0  0  0  0  0  0  0  0  0  0  0  0
  148.9324  142.1074  158.5404 H   0  0  0  0  0  0  0  0  0  0  0  0
  150.5514  140.9450  157.2143 H   0  0  0  0  0  0  0  0  0  0  0  0
  147.1540  141.8053  153.1240 H   0  0  0  0  0  0  0  0  0  0  0  0
  147.0750  140.0643  153.5894 H   0  0  0  0  0  0  0  0  0  0  0  0
  148.5890  140.7929  152.9430 H   0  0  0  0  0  0  0  0  0  0  0  0
  150.7464  145.2273  161.0989 H   0  0  0  0  0  0  0  0  0  0  0  0
  150.0271  144.7087  158.1834 H   0  0  0  0  0  0  0  0  0  0  0  0
  150.7256  146.1826  158.8670 H   0  0  0  0  0  0  0  0  0  0  0  0
  152.4002  144.3657  157.8044 H   0  0  0  0  0  0  0  0  0  0  0  0
  152.7910  145.0290  159.3960 H   0  0  0  0  0  0  0  0  0  0  0  0
  151.5012  142.3607  158.7690 H   0  0  0  0  0  0  0  0  0  0  0  0
  152.7211  142.7232  159.9921 H   0  0  0  0  0  0  0  0  0  0  0  0
  1  2  1  0  0  0  0
  1 21  1  0  0  0  0
  1 22  1  0  0  0  0
  1 23  1  0  0  0  0
  2  3  1  0  0  0  0
  2 16  1  0  0  0  0
  2 24  1  0  0  0  0
  3  4  1  0  0  0  0
  3 25  1  0  0  0  0
  4  5  2  0  0  0  0
  4  6  1  0  0  0  0
  6  7  1  0  0  0  0
  6 26  1  0  0  0  0
  6 27  1  0  0  0  0
  7 14  1  0  0  0  0
  7  8  1  0  0  0  0
  8  9  2  0  0  0  0
  8 28  1  0  0  0  0
  9 10  1  0  0  0  0
  9 29  1  0  0  0  0
 10 11  2  0  0  0  0
 10 12  1  0  0  0  0
 12 13  1  0  0  0  0
 12 14  1  0  0  0  0
 13 30  1  0  0  0  0
 13 31  1  0  0  0  0
 13 32  1  0  0  0  0
 14 15  2  0  0  0  0
 16 20  1  0  0  0  0
 16 17  1  0  0  0  0
 16 33  1  0  0  0  0
 17 18  1  0  0  0  0
 17 34  1  0  0  0  0
 17 35  1  0  0  0  0
 18 19  1  0  0  0  0
 18 36  1  0  0  0  0
 18 37  1  0  0  0  0
 19 20  1  0  0  0  0
 19 38  1  0  0  0  0
 19 39  1  0  0  0  0
M  END
> <s_m_source_file>
AV-unprocessed.smi

> <i_m_source_file_index>
2025

> <i_lp_mmshare_version>
43012

> <i_f3d_flags>
0

> <s_epik_input>
TzFbQ0gyXVtDSDJdW0NIMl1bQ0BIXTFbQ0BIXShbQ0gzXSlbTkhdQyg9TylbQ0gyXW4yW2NIXVtjSF1jKD1PKW4oW0NIM10pYzI9Tw==

> <s_epik_cmdline>
J2VwaWtfcHl0aG9uJywgJy1waCcsICc3LjAnLCAnLXRuJywgJzgnLCAnLW1hJywgJzIwMCcsICctbWV0YWxfYmluZGluZycsICctaW1hZScsICc8aW5maWxlLm1hZT4nLCAnLW9tYWUnLCAnPG91dGZpbGUubWFlPic=

> <r_lp_tautomer_probability>
1

> <r_epik_Ionization_Penalty>
3.54787e-08

> <r_epik_Ionization_Penalty_Charging>
1.24654e-08

> <r_epik_Ionization_Penalty_Neutral>
2.30132e-08

> <r_epik_State_Penalty>
-0

> <r_epik_Charging_Adjusted_Penalty>
1.24654e-08

> <i_epik_Tot_Q>
0

> <i_epik_Tot_abs_Q>
0

> <r_epik_Metal_State_Penalty>
-0

> <b_epik_Metal_Only>
0

> <s_lp_Force_Field>
OPLS_2005

> <r_lp_Energy>
25.7305

> <b_lp_Chiralities_Consistent>
1

> <s_lp_Variant>
AV-unprocessed.smi:2025-2

> <Gold.Version>
5.8.1

> <Gold.Id.Protein>
6NUR|6NUR_protein|mol2

> <Gold.PLP.Fitness>
44.5528

> <Gold.PLP.PLP>
-34.9354

> <Gold.PLP.part.hbond>
-5.0000

> <Gold.PLP.part.metal>
0.0000

> <Gold.PLP.part.buried>
0.0222

> <Gold.PLP.part.nonpolar>
-29.4260

> <Gold.PLP.part.repulsive>
0.4908

> <Gold.PLP.ligand.clash>
0.0000

> <Gold.PLP.ligand.torsion>
0.6400

> <Gold.PLP.Chemscore.Hbond>
3.6263

> <Gold.PLP.Chemscore.CHOScore>
0.0000

> <Gold.PLP.Chemscore.Metal>
0.0000

> <Gold.Chemscore.Hbonds>
donor molecule, donor type, donor heavy atom, donor atom, acceptor molecule, acceptor atom, score
      L1  H     3    25       P1  8029  0.98
      P1  H  6933  6944       L1     5  0.55
      P1  H  6934  6946       L1     5  1.00
      P1  H  7989  7998       L1    11  1.00

> <Gold.PLP.Chemscore.Internal.Correction>
0.0185

> <Gold.Rescore>
     Score         DG    S(hbond)    S(metal)    S(lipo)     H(rot)  DE(clash)    DE(int)     intcor
     18.41     -19.42       3.16        0.00      68.79       1.82       0.58       0.43       ----

> <Gold.Chemscore.Fitness>
18.4136

> <Gold.Chemscore.DG>
-19.4193

> <Gold.Chemscore.ZeroCoef>
-5.4800

> <Gold.Chemscore.Hbond>
3.1610

> <Gold.Chemscore.Metal>
0.0000

> <Gold.Chemscore.Lipo>
68.7853

> <Gold.Chemscore.Internal_Hbond>
0.0000

> <Gold.Chemscore.DEClash>
0.5752

> <Gold.Chemscore.DEInternal>
0.4305

> <Gold.Chemscore.Rot>
1.8228

> <Gold.Chemscore.Internal.Correction>
   9.000000E+99

> <Gold.Chemscore.Hbonds>
donor molecule, donor type, donor heavy atom, donor atom, acceptor molecule, acceptor atom, score
      L1  H     3    25       P1  8029  0.87
      P1  H  6933  6944       L1     5  0.25
      P1  H  6934  6946       L1     5  0.96
      P1  H  7989  7998       L1    11  0.92

> <Gold.Chemscore.Hbond.Weighted>
-10.5579

> <Gold.Chemscore.Metal.Weighted>
-0.0000

> <Gold.Chemscore.Lipo.Weighted>
-8.0479

> <Gold.Chemscore.Internal_Hbond.Weighted>
0.0000

> <Gold.Chemscore.DEClash.Weighted>
0.5752

> <Gold.Chemscore.DEInternal.Weighted>
0.4305

> <Gold.Chemscore.Rot.Weighted>
4.6665

> <Gold.Chemscore.Internal.Correction.Weighted>
   9.000000E+99

> <Gold.Protein.RotatedTorsions>
[ 6907 6896 6895 6894 ] final -145.86 input  -60.11 | X-H torsion
[ 7974 7965 7964 7962 ] final -120.56 input  175.53 | X-H torsion
[ 8008 7997 7996 7995 ] final   86.06 input   59.86 | X-H torsion
[ 10167 10162 10161 10158 ] final  163.13 input  -65.29 | X-H torsion
[ 10718 10713 10712 10709 ] final  110.44 input   66.30 | X-H torsion
[ 10763 10752 10751 10750 ] final  179.03 input  -60.55 | X-H torsion
[ 11005 11000 10999 10996 ] final   86.37 input  -57.11 | X-H torsion

> <Gold.Protein.ActiveResidues>
 VAL166  LYS551  ARG553  GLY616  TRP617  ASP618  TYR619  PRO620  LYS621  CYS622 
 ASP623  PHE694  ASN695  SER759  ASP760  ASP761  ALA762  ILE779  LEU786  VAL792 
 PHE793  MET794  SER795  GLU796  ALA797  LYS798  CYS799  TRP800  GLU811  SER814 

> <Gold.Protein.RotatedAtoms>
  151.1336  133.5020  159.2598 H   0  0  0  0  0  0  0  0  0  0  0  0  # atno 6907 bound_to 6896
  151.1731  135.0326  159.8770 H   0  0  0  0  0  0  0  0  0  0  0  0  # atno 6908 bound_to 6896
  152.5460  134.1196  159.8447 H   0  0  0  0  0  0  0  0  0  0  0  0  # atno 6909 bound_to 6896
  145.0500  140.8211  143.4215 H   0  0  0  0  0  0  0  0  0  0  0  0  # atno 7974 bound_to 7965
  155.9579  140.3396  155.6465 H   0  0  0  0  0  0  0  0  0  0  0  0  # atno 8008 bound_to 7997
  155.6836  140.0740  157.2493 H   0  0  0  0  0  0  0  0  0  0  0  0  # atno 8009 bound_to 7997
  154.4136  140.1670  156.1996 H   0  0  0  0  0  0  0  0  0  0  0  0  # atno 8010 bound_to 7997
  139.4870  144.4367  151.9003 H   0  0  0  0  0  0  0  0  0  0  0  0  # atno 10167 bound_to 10162
  157.6494  131.0932  150.6601 H   0  0  0  0  0  0  0  0  0  0  0  0  # atno 10718 bound_to 10713
  154.5154  135.2791  155.1308 H   0  0  0  0  0  0  0  0  0  0  0  0  # atno 10763 bound_to 10752
  154.2886  135.6271  153.5380 H   0  0  0  0  0  0  0  0  0  0  0  0  # atno 10764 bound_to 10752
  152.9926  135.5668  154.5629 H   0  0  0  0  0  0  0  0  0  0  0  0  # atno 10765 bound_to 10752
  139.8946  134.8351  156.2711 H   0  0  0  0  0  0  0  0  0  0  0  0  # atno 11005 bound_to 11000
  145.1539  139.2498  143.5426 LP  0  0  0  0  0  0  0  0  0  0  0  0  # atno 17320 bound_to 7965
  146.3517  140.1249  142.8599 LP  0  0  0  0  0  0  0  0  0  0  0  0  # atno 17321 bound_to 7965
  140.3817  144.2727  150.5908 LP  0  0  0  0  0  0  0  0  0  0  0  0  # atno 17342 bound_to 10162
  140.5227  143.2262  151.8364 LP  0  0  0  0  0  0  0  0  0  0  0  0  # atno 17343 bound_to 10162
  156.6914  130.4596  149.5598 LP  0  0  0  0  0  0  0  0  0  0  0  0  # atno 17370 bound_to 10713
  156.1859  130.6528  151.1005 LP  0  0  0  0  0  0  0  0  0  0  0  0  # atno 17371 bound_to 10713
  141.0100  133.7101  156.1096 LP  0  0  0  0  0  0  0  0  0  0  0  0  # atno 17394 bound_to 11000
  140.7381  134.4181  157.5558 LP  0  0  0  0  0  0  0  0  0  0  0  0  # atno 17395 bound_to 11000

$$$$
