AV-unprocessed.smi:2953|AV-procd|sdf|11295|dock10
  -GOLD-   2272016193D 1   1.00000     0.00000
 Structure written by MMmdl.
 46 48  0  0  0  0  0  0  0  0  2 V2000
  153.9705  136.5679  161.0044 C   0  0  0  0  0  0  0  0  0  0  0  0
  154.3232  137.9528  161.5139 C   0  0  0  0  0  0  0  0  0  0  0  0
  155.0491  138.0874  162.7161 C   0  0  0  0  0  0  0  0  0  0  0  0
  155.3826  139.3635  163.2043 C   0  0  0  0  0  0  0  0  0  0  0  0
  154.9904  140.5097  162.4907 C   0  0  0  0  0  0  0  0  0  0  0  0
  154.2656  140.3812  161.2907 C   0  0  0  0  0  0  0  0  0  0  0  0
  153.9226  139.0995  160.7886 C   0  0  0  0  0  0  0  0  0  0  0  0
  153.2120  138.8991  159.6227 O   0  0  0  0  0  0  0  0  0  0  0  0
  152.9439  140.0195  158.7929 C   0  0  0  0  0  0  0  0  0  0  0  0
  151.4266  140.2333  158.7421 C   0  0  0  0  0  0  0  0  0  0  0  0
  151.0820  141.6146  158.3806 N   0  0  0  0  0  0  0  0  0  0  0  0
  150.3818  142.1016  157.3152 C   0  0  0  0  0  0  0  0  0  0  0  0
  149.7406  141.2904  156.2238 C   0  0  2  0  0  0  0  0  0  0  0  0
  150.7343  140.3343  155.5366 C   0  0  0  0  0  0  0  0  0  0  0  0
  149.0407  142.1239  155.2489 N   0  0  0  0  0  0  0  0  0  0  0  0
  148.2997  141.6722  154.2276 C   0  0  0  0  0  0  0  0  0  0  0  0
  148.1288  140.4780  153.9987 O   0  0  0  0  0  0  0  0  0  0  0  0
  150.3332  143.4583  157.4574 N   0  3  0  0  0  0  0  0  0  0  0  0
  151.0234  143.8409  158.6079 C   0  0  0  0  0  0  0  0  0  0  0  0
  151.2528  145.0980  159.1585 C   0  0  0  0  0  0  0  0  0  0  0  0
  152.0028  145.1383  160.3525 C   0  0  0  0  0  0  0  0  0  0  0  0
  152.4926  143.9598  160.9521 C   0  0  0  0  0  0  0  0  0  0  0  0
  152.2521  142.6907  160.3850 C   0  0  0  0  0  0  0  0  0  0  0  0
  151.5090  142.6605  159.2055 C   0  0  0  0  0  0  0  0  0  0  0  0
  154.4483  135.7898  161.6000 H   0  0  0  0  0  0  0  0  0  0  0  0
  154.2953  136.4472  159.9707 H   0  0  0  0  0  0  0  0  0  0  0  0
  152.8921  136.4144  161.0467 H   0  0  0  0  0  0  0  0  0  0  0  0
  155.3530  137.2112  163.2700 H   0  0  0  0  0  0  0  0  0  0  0  0
  155.9378  139.4627  164.1253 H   0  0  0  0  0  0  0  0  0  0  0  0
  155.2454  141.4903  162.8647 H   0  0  0  0  0  0  0  0  0  0  0  0
  153.9834  141.2857  160.7742 H   0  0  0  0  0  0  0  0  0  0  0  0
  153.4310  140.9103  159.1924 H   0  0  0  0  0  0  0  0  0  0  0  0
  153.3246  139.8429  157.7854 H   0  0  0  0  0  0  0  0  0  0  0  0
  150.9773  139.5688  158.0038 H   0  0  0  0  0  0  0  0  0  0  0  0
  150.9615  139.9905  159.6982 H   0  0  0  0  0  0  0  0  0  0  0  0
  148.9748  140.6719  156.6933 H   0  0  0  0  0  0  0  0  0  0  0  0
  151.1802  139.6499  156.2591 H   0  0  0  0  0  0  0  0  0  0  0  0
  151.5455  140.8714  155.0440 H   0  0  0  0  0  0  0  0  0  0  0  0
  150.2334  139.7289  154.7802 H   0  0  0  0  0  0  0  0  0  0  0  0
  149.1399  143.1238  155.3506 H   0  0  0  0  0  0  0  0  0  0  0  0
  147.8736  142.4945  153.6318 H   0  0  0  0  0  0  0  0  0  0  0  0
  150.8790  146.0022  158.7010 H   0  0  0  0  0  0  0  0  0  0  0  0
  152.2063  146.0921  160.8174 H   0  0  0  0  0  0  0  0  0  0  0  0
  153.0642  144.0298  161.8663 H   0  0  0  0  0  0  0  0  0  0  0  0
  152.6322  141.7938  160.8518 H   0  0  0  0  0  0  0  0  0  0  0  0
  149.8604  144.0756  156.8097 H   0  0  0  0  0  0  0  0  0  0  0  0
  1  2  1  0  0  0  0
  1 25  1  0  0  0  0
  1 26  1  0  0  0  0
  1 27  1  0  0  0  0
  2  7  1  0  0  0  0
  2  3  2  0  0  0  0
  3  4  1  0  0  0  0
  3 28  1  0  0  0  0
  4  5  2  0  0  0  0
  4 29  1  0  0  0  0
  5  6  1  0  0  0  0
  5 30  1  0  0  0  0
  6  7  2  0  0  0  0
  6 31  1  0  0  0  0
  7  8  1  0  0  0  0
  8  9  1  0  0  0  0
  9 10  1  0  0  0  0
  9 32  1  0  0  0  0
  9 33  1  0  0  0  0
 10 11  1  0  0  0  0
 10 34  1  0  0  0  0
 10 35  1  0  0  0  0
 11 24  1  0  0  0  0
 11 12  1  0  0  0  0
 12 13  1  0  0  0  0
 12 18  2  0  0  0  0
 13 14  1  0  0  0  0
 13 15  1  0  0  0  0
 13 36  1  0  0  0  0
 14 37  1  0  0  0  0
 14 38  1  0  0  0  0
 14 39  1  0  0  0  0
 15 16  1  0  0  0  0
 15 40  1  0  0  0  0
 16 17  2  0  0  0  0
 16 41  1  0  0  0  0
 18 19  1  0  0  0  0
 18 46  1  0  0  0  0
 19 24  2  0  0  0  0
 19 20  1  0  0  0  0
 20 21  2  0  0  0  0
 20 42  1  0  0  0  0
 21 22  1  0  0  0  0
 21 43  1  0  0  0  0
 22 23  2  0  0  0  0
 22 44  1  0  0  0  0
 23 24  1  0  0  0  0
 23 45  1  0  0  0  0
M  CHG  1  18   1
M  END
> <s_m_source_file>
AV-unprocessed.smi

> <i_m_source_file_index>
2953

> <i_lp_mmshare_version>
43012

> <i_f3d_flags>
0

> <s_epik_input>
W0NIM11jMVtjSF1bY0hdW2NIXVtjSF1jMU9bQ0gyXVtDSDJdbihjKG4yKVtDQEhdKFtDSDNdKVtOSF1bQ0hdPU8pYyhjMjMpW2NIXVtjSF1bY0hdW2NIXTM=

> <s_epik_cmdline>
J2VwaWtfcHl0aG9uJywgJy1waCcsICc3LjAnLCAnLXRuJywgJzgnLCAnLW1hJywgJzIwMCcsICctbWV0YWxfYmluZGluZycsICctaW1hZScsICc8aW5maWxlLm1hZT4nLCAnLW9tYWUnLCAnPG91dGZpbGUubWFlPic=

> <r_lp_tautomer_probability>
1

> <r_epik_Ionization_Penalty>
1.14644

> <r_epik_Ionization_Penalty_Charging>
1.14644

> <r_epik_Ionization_Penalty_Neutral>
5.5802e-08

> <r_epik_State_Penalty>
1.20743

> <r_epik_Charging_Adjusted_Penalty>
2.35387

> <i_epik_Tot_Q>
1

> <i_epik_Tot_abs_Q>
1

> <r_epik_Metal_State_Penalty>
1.28856

> <b_epik_Metal_Only>
0

> <s_lp_Force_Field>
OPLS_2005

> <r_lp_Energy>
18.7543

> <b_lp_Chiralities_Consistent>
1

> <s_lp_Variant>
AV-unprocessed.smi:2953-3

> <Gold.Version>
5.8.1

> <Gold.Id.Protein>
6NUR|6NUR_protein|mol2

> <Gold.PLP.Fitness>
57.5118

> <Gold.PLP.PLP>
-49.6378

> <Gold.PLP.part.hbond>
-2.0000

> <Gold.PLP.part.metal>
0.0000

> <Gold.PLP.part.buried>
-5.6357

> <Gold.PLP.part.nonpolar>
-42.2212

> <Gold.PLP.part.repulsive>
0.3205

> <Gold.PLP.ligand.clash>
0.0000

> <Gold.PLP.ligand.torsion>
0.6121

> <Gold.PLP.Chemscore.Hbond>
3.0000

> <Gold.PLP.Chemscore.CHOScore>
0.0000

> <Gold.PLP.Chemscore.Metal>
0.0000

> <Gold.Chemscore.Hbonds>
donor molecule, donor type, donor heavy atom, donor atom, acceptor molecule, acceptor atom, score
      L1  H    15    40       P1  8028  1.00
      L1  H    18    46       P1  8028  2.00

> <Gold.PLP.Chemscore.Internal.Correction>
0.0981

> <Gold.Rescore>
     Score         DG    S(hbond)    S(metal)    S(lipo)     H(rot)  DE(clash)    DE(int)     intcor
     21.56     -22.26       1.97        0.00     138.08       2.32       0.01       0.69       ----

> <Gold.Chemscore.Fitness>
21.5627

> <Gold.Chemscore.DG>
-22.2640

> <Gold.Chemscore.ZeroCoef>
-5.4800

> <Gold.Chemscore.Hbond>
1.9681

> <Gold.Chemscore.Metal>
0.0000

> <Gold.Chemscore.Lipo>
138.0820

> <Gold.Chemscore.Internal_Hbond>
0.0000

> <Gold.Chemscore.DEClash>
0.0112

> <Gold.Chemscore.DEInternal>
0.6901

> <Gold.Chemscore.Rot>
2.3223

> <Gold.Chemscore.Internal.Correction>
   9.000000E+99

> <Gold.Chemscore.Hbonds>
donor molecule, donor type, donor heavy atom, donor atom, acceptor molecule, acceptor atom, score
      L1  H    15    40       P1  8028  0.99
      L1  H    18    46       P1  8028  0.94

> <Gold.Chemscore.Hbond.Weighted>
-6.5734

> <Gold.Chemscore.Metal.Weighted>
-0.0000

> <Gold.Chemscore.Lipo.Weighted>
-16.1556

> <Gold.Chemscore.Internal_Hbond.Weighted>
0.0000

> <Gold.Chemscore.DEClash.Weighted>
0.0112

> <Gold.Chemscore.DEInternal.Weighted>
0.6901

> <Gold.Chemscore.Rot.Weighted>
5.9450

> <Gold.Chemscore.Internal.Correction.Weighted>
   9.000000E+99

> <Gold.Protein.RotatedTorsions>
[ 6907 6896 6895 6894 ] final  -20.91 input  -60.11 | X-H torsion
[ 7974 7965 7964 7962 ] final  -34.11 input  175.53 | X-H torsion
[ 8008 7997 7996 7995 ] final  129.81 input   59.86 | X-H torsion
[ 10167 10162 10161 10158 ] final   69.92 input  -65.29 | X-H torsion
[ 10718 10713 10712 10709 ] final   15.97 input   66.30 | X-H torsion
[ 10763 10752 10751 10750 ] final   70.47 input  -60.55 | X-H torsion
[ 11005 11000 10999 10996 ] final -115.57 input  -57.11 | X-H torsion

> <Gold.Protein.ActiveResidues>
 VAL166  LYS551  ARG553  GLY616  TRP617  ASP618  TYR619  PRO620  LYS621  CYS622 
 ASP623  PHE694  ASN695  SER759  ASP760  ASP761  ALA762  ILE779  LEU786  VAL792 
 PHE793  MET794  SER795  GLU796  ALA797  LYS798  CYS799  TRP800  GLU811  SER814 

> <Gold.Protein.RotatedAtoms>
  151.2412  135.0589  159.9025 H   0  0  0  0  0  0  0  0  0  0  0  0  # atno 6907 bound_to 6896
  152.5393  134.0432  159.8087 H   0  0  0  0  0  0  0  0  0  0  0  0  # atno 6908 bound_to 6896
  151.0626  133.5482  159.2664 H   0  0  0  0  0  0  0  0  0  0  0  0  # atno 6909 bound_to 6896
  146.0856  140.5998  142.8888 H   0  0  0  0  0  0  0  0  0  0  0  0  # atno 7974 bound_to 7965
  156.2943  140.2611  156.2659 H   0  0  0  0  0  0  0  0  0  0  0  0  # atno 8008 bound_to 7997
  154.9743  140.0390  157.2267 H   0  0  0  0  0  0  0  0  0  0  0  0  # atno 8009 bound_to 7997
  154.7830  140.2798  155.6054 H   0  0  0  0  0  0  0  0  0  0  0  0  # atno 8010 bound_to 7997
  140.0625  144.5220  150.7284 H   0  0  0  0  0  0  0  0  0  0  0  0  # atno 10167 bound_to 10162
  157.0611  130.6309  149.5786 H   0  0  0  0  0  0  0  0  0  0  0  0  # atno 10718 bound_to 10713
  153.0344  135.5172  154.7446 H   0  0  0  0  0  0  0  0  0  0  0  0  # atno 10763 bound_to 10752
  154.6435  135.2915  155.0077 H   0  0  0  0  0  0  0  0  0  0  0  0  # atno 10764 bound_to 10752
  154.0986  135.6639  153.4917 H   0  0  0  0  0  0  0  0  0  0  0  0  # atno 10765 bound_to 10752
  141.0479  133.9734  157.2887 H   0  0  0  0  0  0  0  0  0  0  0  0  # atno 11005 bound_to 11000
  144.7323  140.4709  143.6928 LP  0  0  0  0  0  0  0  0  0  0  0  0  # atno 17320 bound_to 7965
  145.6136  139.1516  143.3062 LP  0  0  0  0  0  0  0  0  0  0  0  0  # atno 17321 bound_to 7965
  140.7165  143.2549  151.4418 LP  0  0  0  0  0  0  0  0  0  0  0  0  # atno 17342 bound_to 10162
  139.5885  144.1552  152.2058 LP  0  0  0  0  0  0  0  0  0  0  0  0  # atno 17343 bound_to 10162
  155.9978  130.5050  150.7548 LP  0  0  0  0  0  0  0  0  0  0  0  0  # atno 17370 bound_to 10713
  157.4954  131.0914  151.0378 LP  0  0  0  0  0  0  0  0  0  0  0  0  # atno 17371 bound_to 10713
  139.9326  135.0199  156.8452 LP  0  0  0  0  0  0  0  0  0  0  0  0  # atno 17394 bound_to 11000
  140.6112  134.0081  155.7577 LP  0  0  0  0  0  0  0  0  0  0  0  0  # atno 17395 bound_to 11000

$$$$
