AV-unprocessed.smi:188|AV-procd|sdf|1472|dock10
  -GOLD-   2262019293D 1   1.00000     0.00000
 Structure written by MMmdl.
 49 53  0  0  0  0  0  0  0  0  1 V2000
  143.8027  131.8881  149.5405 O   0  0  0  0  0  0  0  0  0  0  0  0
  144.2304  132.6990  150.3586 C   0  0  0  0  0  0  0  0  0  0  0  0
  145.3613  132.5859  151.0612 N   0  0  0  0  0  0  0  0  0  0  0  0
  145.5646  133.6228  151.8716 C   0  0  0  0  0  0  0  0  0  0  0  0
  146.5206  133.7807  152.6289 O   0  0  0  0  0  0  0  0  0  0  0  0
  144.3981  134.5959  151.7030 C   0  0  0  0  0  0  0  0  0  0  0  0
  144.8306  135.9753  151.1541 C   0  0  0  0  0  0  0  0  0  0  0  0
  145.5073  136.8496  152.2267 C   0  0  0  0  0  0  0  0  0  0  0  0
  144.6731  136.9531  153.4239 N   0  0  0  0  0  0  0  0  0  0  0  0
  145.0222  137.9589  154.2664 C   0  0  0  0  0  0  0  0  0  0  0  0
  144.1579  138.3644  155.2353 N   0  0  0  0  0  0  0  0  0  0  0  0
  144.4984  139.3435  156.0782 C   0  0  0  0  0  0  0  0  0  0  0  0
  145.6319  140.0453  156.1270 N   0  0  0  0  0  0  0  0  0  0  0  0
  146.4990  139.6547  155.1502 C   0  0  0  0  0  0  0  0  0  0  0  0
  146.2772  138.6269  154.1894 C   0  0  0  0  0  0  0  0  0  0  0  0
  147.3821  138.5158  153.3535 N   0  0  0  0  0  0  0  0  0  0  0  0
  148.2123  139.4178  153.8007 C   0  0  0  0  0  0  0  0  0  0  0  0
  147.7592  140.1553  154.8717 N   0  0  0  0  0  0  0  0  0  0  0  0
  148.4776  141.2202  155.5565 C   0  0  0  0  0  0  0  0  0  0  0  0
  149.8072  140.7760  156.2024 C   0  0  0  0  0  0  0  0  0  0  0  0
  150.4395  141.9272  157.0046 C   0  0  0  0  0  0  0  0  0  0  0  0
  150.6887  143.0515  156.1847 O   0  0  0  0  0  0  0  0  0  0  0  0
  149.7803  139.4305  156.9424 C   0  0  0  0  0  0  0  0  0  0  0  0
  150.9437  138.9552  156.2335 O   0  0  0  0  0  0  0  0  0  0  0  0
  150.7791  140.0263  155.2804 C   0  0  0  0  0  0  0  0  0  0  0  0
  144.2793  135.6768  154.0241 C   0  0  0  0  0  0  0  0  0  0  0  0
  143.5691  134.7783  152.9950 C   0  0  0  0  0  0  0  0  0  0  0  0
  143.6448  133.8533  150.7041 N   0  0  0  0  0  0  0  0  0  0  0  0
  145.9920  131.8011  150.9863 H   0  0  0  0  0  0  0  0  0  0  0  0
  145.5036  135.8573  150.3035 H   0  0  0  0  0  0  0  0  0  0  0  0
  143.9541  136.5014  150.7730 H   0  0  0  0  0  0  0  0  0  0  0  0
  146.4729  136.4281  152.5072 H   0  0  0  0  0  0  0  0  0  0  0  0
  145.7151  137.8315  151.8028 H   0  0  0  0  0  0  0  0  0  0  0  0
  143.7561  139.6012  156.8191 H   0  0  0  0  0  0  0  0  0  0  0  0
  149.1819  139.5778  153.3519 H   0  0  0  0  0  0  0  0  0  0  0  0
  148.6499  142.0212  154.8366 H   0  0  0  0  0  0  0  0  0  0  0  0
  147.8142  141.6466  156.3099 H   0  0  0  0  0  0  0  0  0  0  0  0
  149.8124  142.2269  157.8442 H   0  0  0  0  0  0  0  0  0  0  0  0
  151.3901  141.6143  157.4380 H   0  0  0  0  0  0  0  0  0  0  0  0
  149.8740  143.5113  156.0501 H   0  0  0  0  0  0  0  0  0  0  0  0
  149.9427  139.5090  158.0180 H   0  0  0  0  0  0  0  0  0  0  0  0
  148.9060  138.8159  156.7245 H   0  0  0  0  0  0  0  0  0  0  0  0
  150.3269  139.6746  154.3515 H   0  0  0  0  0  0  0  0  0  0  0  0
  151.7095  140.5599  155.0829 H   0  0  0  0  0  0  0  0  0  0  0  0
  145.1624  135.1754  154.4213 H   0  0  0  0  0  0  0  0  0  0  0  0
  143.6088  135.8537  154.8663 H   0  0  0  0  0  0  0  0  0  0  0  0
  142.6052  135.2231  152.7437 H   0  0  0  0  0  0  0  0  0  0  0  0
  143.3450  133.8120  153.4492 H   0  0  0  0  0  0  0  0  0  0  0  0
  142.7720  134.1853  150.3200 H   0  0  0  0  0  0  0  0  0  0  0  0
  1  2  2  0  0  0  0
  2 28  1  0  0  0  0
  2  3  1  0  0  0  0
  3  4  1  0  0  0  0
  3 29  1  0  0  0  0
  4  5  2  0  0  0  0
  4  6  1  0  0  0  0
  6 27  1  0  0  0  0
  6  7  1  0  0  0  0
  6 28  1  0  0  0  0
  7  8  1  0  0  0  0
  7 30  1  0  0  0  0
  7 31  1  0  0  0  0
  8  9  1  0  0  0  0
  8 32  1  0  0  0  0
  8 33  1  0  0  0  0
  9 10  1  0  0  0  0
  9 26  1  0  0  0  0
 10 15  1  0  0  0  0
 10 11  2  0  0  0  0
 11 12  1  0  0  0  0
 12 13  2  0  0  0  0
 12 34  1  0  0  0  0
 13 14  1  0  0  0  0
 14 18  1  0  0  0  0
 14 15  2  0  0  0  0
 15 16  1  0  0  0  0
 16 17  2  0  0  0  0
 17 18  1  0  0  0  0
 17 35  1  0  0  0  0
 18 19  1  0  0  0  0
 19 20  1  0  0  0  0
 19 36  1  0  0  0  0
 19 37  1  0  0  0  0
 20 25  1  0  0  0  0
 20 21  1  0  0  0  0
 20 23  1  0  0  0  0
 21 22  1  0  0  0  0
 21 38  1  0  0  0  0
 21 39  1  0  0  0  0
 22 40  1  0  0  0  0
 23 24  1  0  0  0  0
 23 41  1  0  0  0  0
 23 42  1  0  0  0  0
 24 25  1  0  0  0  0
 25 43  1  0  0  0  0
 25 44  1  0  0  0  0
 26 27  1  0  0  0  0
 26 45  1  0  0  0  0
 26 46  1  0  0  0  0
 27 47  1  0  0  0  0
 27 48  1  0  0  0  0
 28 49  1  0  0  0  0
M  END
> <s_m_source_file>
AV-unprocessed.smi

> <i_m_source_file_index>
188

> <i_lp_mmshare_version>
43012

> <i_f3d_flags>
0

> <s_epik_input>
Tz1DKFtOSF0xKVtOSF1DKD1PKUMxMltDSDJdW0NIMl1OKFtDSDJdW0NIMl0yKWMobltjSF1uMyljKGMzNCluW2NIXW40W0NIMl1DNShbQ0gyXVtPSF0pW0NIMl1PW0NIMl01

> <s_epik_cmdline>
J2VwaWtfcHl0aG9uJywgJy1waCcsICc3LjAnLCAnLXRuJywgJzgnLCAnLW1hJywgJzIwMCcsICctbWV0YWxfYmluZGluZycsICctaW1hZScsICc8aW5maWxlLm1hZT4nLCAnLW9tYWUnLCAnPG91dGZpbGUubWFlPic=

> <r_lp_tautomer_probability>
1

> <r_epik_Ionization_Penalty>
0.00868263

> <r_epik_Ionization_Penalty_Charging>
0

> <r_epik_Ionization_Penalty_Neutral>
0.00868263

> <r_epik_State_Penalty>
0.00519311

> <r_epik_Charging_Adjusted_Penalty>
0.00519311

> <i_epik_Tot_Q>
0

> <i_epik_Tot_abs_Q>
0

> <r_epik_Metal_State_Penalty>
0.404007

> <b_epik_Metal_Only>
0

> <s_lp_Force_Field>
OPLS_2005

> <r_lp_Energy>
48.5208

> <b_lp_Chiralities_Consistent>
1

> <s_lp_Variant>
AV-unprocessed.smi:188-1

> <Gold.Version>
5.8.1

> <Gold.Id.Protein>
6NUR|6NUR_protein|mol2

> <Gold.PLP.Fitness>
40.4419

> <Gold.PLP.PLP>
-29.2662

> <Gold.PLP.part.hbond>
-2.9661

> <Gold.PLP.part.metal>
0.0000

> <Gold.PLP.part.buried>
-5.1381

> <Gold.PLP.part.nonpolar>
-22.1517

> <Gold.PLP.part.repulsive>
0.8197

> <Gold.PLP.ligand.clash>
0.0123

> <Gold.PLP.ligand.torsion>
0.4042

> <Gold.PLP.Chemscore.Hbond>
2.8480

> <Gold.PLP.Chemscore.CHOScore>
0.9077

> <Gold.PLP.Chemscore.Metal>
0.0000

> <Gold.Chemscore.Hbonds>
donor molecule, donor type, donor heavy atom, donor atom, acceptor molecule, acceptor atom, score
      L1  H    22    40       P1  8028  1.00
      L1  H    28    49       P1 10186  1.00
      P1  H 10785 10796       L1     1  0.85
      L1  C    17    35       P1  7957  0.93

> <Gold.PLP.Chemscore.Internal.Correction>
0.7293

> <Gold.Rescore>
     Score         DG    S(hbond)    S(metal)    S(lipo)     H(rot)  DE(clash)    DE(int)     intcor
     10.59     -12.65       2.76        0.00      45.53       2.88       0.08       1.99       ----

> <Gold.Chemscore.Fitness>
10.5927

> <Gold.Chemscore.DG>
-12.6548

> <Gold.Chemscore.ZeroCoef>
-5.4800

> <Gold.Chemscore.Hbond>
2.7582

> <Gold.Chemscore.Metal>
0.0000

> <Gold.Chemscore.Lipo>
45.5344

> <Gold.Chemscore.Internal_Hbond>
0.0000

> <Gold.Chemscore.DEClash>
0.0754

> <Gold.Chemscore.DEInternal>
1.9868

> <Gold.Chemscore.Rot>
2.8770

> <Gold.Chemscore.Internal.Correction>
   9.000000E+99

> <Gold.Chemscore.Hbonds>
donor molecule, donor type, donor heavy atom, donor atom, acceptor molecule, acceptor atom, score
      L1  H    22    40       P1  8028  0.98
      L1  H    28    49       P1 10186  0.88
      P1  H 10785 10796       L1     1  0.79

> <Gold.Chemscore.Hbond.Weighted>
-9.2124

> <Gold.Chemscore.Metal.Weighted>
-0.0000

> <Gold.Chemscore.Lipo.Weighted>
-5.3275

> <Gold.Chemscore.Internal_Hbond.Weighted>
0.0000

> <Gold.Chemscore.DEClash.Weighted>
0.0754

> <Gold.Chemscore.DEInternal.Weighted>
1.9868

> <Gold.Chemscore.Rot.Weighted>
7.3651

> <Gold.Chemscore.Internal.Correction.Weighted>
   9.000000E+99

> <Gold.Protein.RotatedTorsions>
[ 6907 6896 6895 6894 ] final  141.80 input  -60.11 | X-H torsion
[ 7974 7965 7964 7962 ] final   28.62 input  175.53 | X-H torsion
[ 8008 7997 7996 7995 ] final   30.20 input   59.86 | X-H torsion
[ 10167 10162 10161 10158 ] final  -46.36 input  -65.29 | X-H torsion
[ 10718 10713 10712 10709 ] final   92.76 input   66.30 | X-H torsion
[ 10763 10752 10751 10750 ] final  -50.32 input  -60.55 | X-H torsion
[ 11005 11000 10999 10996 ] final -108.82 input  -57.11 | X-H torsion

> <Gold.Protein.ActiveResidues>
 VAL166  LYS551  ARG553  GLY616  TRP617  ASP618  TYR619  PRO620  LYS621  CYS622 
 ASP623  PHE694  ASN695  SER759  ASP760  ASP761  ALA762  ILE779  LEU786  VAL792 
 PHE793  MET794  SER795  GLU796  ALA797  LYS798  CYS799  TRP800  GLU811  SER814 

> <Gold.Protein.RotatedAtoms>
  152.2266  133.5025  159.5191 H   0  0  0  0  0  0  0  0  0  0  0  0  # atno 6907 bound_to 6896
  150.7026  134.1272  159.4065 H   0  0  0  0  0  0  0  0  0  0  0  0  # atno 6908 bound_to 6896
  151.9193  135.0305  160.0571 H   0  0  0  0  0  0  0  0  0  0  0  0  # atno 6909 bound_to 6896
  146.1718  139.7032  142.8962 H   0  0  0  0  0  0  0  0  0  0  0  0  # atno 7974 bound_to 7965
  155.0866  140.3215  155.4586 H   0  0  0  0  0  0  0  0  0  0  0  0  # atno 8008 bound_to 7997
  156.2753  140.2085  156.5940 H   0  0  0  0  0  0  0  0  0  0  0  0  # atno 8009 bound_to 7997
  154.6936  140.0514  157.0375 H   0  0  0  0  0  0  0  0  0  0  0  0  # atno 8010 bound_to 7997
  140.6821  143.2835  151.3771 H   0  0  0  0  0  0  0  0  0  0  0  0  # atno 10167 bound_to 10162
  157.6957  131.0454  150.3931 H   0  0  0  0  0  0  0  0  0  0  0  0  # atno 10718 bound_to 10713
  154.1084  135.6553  153.4880 H   0  0  0  0  0  0  0  0  0  0  0  0  # atno 10763 bound_to 10752
  153.0265  135.5241  154.7217 H   0  0  0  0  0  0  0  0  0  0  0  0  # atno 10764 bound_to 10752
  154.6389  135.2986  155.0096 H   0  0  0  0  0  0  0  0  0  0  0  0  # atno 10765 bound_to 10752
  141.0881  133.9103  157.2139 H   0  0  0  0  0  0  0  0  0  0  0  0  # atno 11005 bound_to 11000
  145.4318  141.0416  143.2906 LP  0  0  0  0  0  0  0  0  0  0  0  0  # atno 17320 bound_to 7965
  144.8175  139.5850  143.7002 LP  0  0  0  0  0  0  0  0  0  0  0  0  # atno 17321 bound_to 7965
  139.6151  144.1020  152.2337 LP  0  0  0  0  0  0  0  0  0  0  0  0  # atno 17342 bound_to 10162
  140.0446  144.5980  150.7383 LP  0  0  0  0  0  0  0  0  0  0  0  0  # atno 17343 bound_to 10162
  156.4332  130.3976  149.6746 LP  0  0  0  0  0  0  0  0  0  0  0  0  # atno 17370 bound_to 10713
  156.3956  130.7649  151.2653 LP  0  0  0  0  0  0  0  0  0  0  0  0  # atno 17371 bound_to 10713
  139.9702  135.0130  156.9493 LP  0  0  0  0  0  0  0  0  0  0  0  0  # atno 17394 bound_to 11000
  140.5316  134.0808  155.7317 LP  0  0  0  0  0  0  0  0  0  0  0  0  # atno 17395 bound_to 11000

$$$$
