AV-unprocessed.smi:3105|AV-procd|sdf|11819|dock2
  -GOLD-   2272017193D 1   1.00000     0.00000
 Structure written by MMmdl.
 34 34  0  0  0  0  0  0  0  0  2 V2000
  150.9458  138.8106  154.3842 C   0  0  0  0  0  0  0  0  0  0  0  0
  149.4255  138.8981  154.6224 C   0  0  2  0  0  0  0  0  0  0  0  0
  148.7035  138.7109  153.3418 N   0  3  0  0  0  0  0  0  0  0  0  0
  147.2558  139.0157  153.3754 C   0  0  0  0  0  0  0  0  0  0  0  0
  146.5393  138.5430  152.0951 C   0  0  0  0  0  0  0  0  0  0  0  0
  145.7803  137.2166  152.2407 C   0  0  0  0  0  0  0  0  0  0  0  0
  146.5238  136.1150  152.3653 N   0  0  0  0  0  0  0  0  0  0  0  0
  144.5509  137.1773  152.2429 O   0  0  0  0  0  0  0  0  0  0  0  0
  149.0052  140.2462  155.2707 C   0  0  2  0  0  0  0  0  0  0  0  0
  149.1113  141.4449  154.3095 C   0  0  0  0  0  0  0  0  0  0  0  0
  149.7698  140.5283  156.4813 N   0  0  0  0  0  0  0  0  0  0  0  0
  149.8010  141.6956  157.2164 C   0  0  0  0  0  0  0  0  0  0  0  0
  150.6707  141.5046  158.2515 C   0  0  0  0  0  0  0  0  0  0  0  0
  151.1401  140.1760  158.0584 C   0  0  0  0  0  0  0  0  0  0  0  0
  150.6023  139.5957  156.9982 N   0  0  0  0  0  0  0  0  0  0  0  0
  151.5033  138.8641  155.3186 H   0  0  0  0  0  0  0  0  0  0  0  0
  151.2934  139.6196  153.7411 H   0  0  0  0  0  0  0  0  0  0  0  0
  151.2286  137.8703  153.9118 H   0  0  0  0  0  0  0  0  0  0  0  0
  149.1369  138.0901  155.2967 H   0  0  0  0  0  0  0  0  0  0  0  0
  149.1216  139.3346  152.6659 H   0  0  0  0  0  0  0  0  0  0  0  0
  146.7917  138.5589  154.2497 H   0  0  0  0  0  0  0  0  0  0  0  0
  147.1279  140.0935  153.4806 H   0  0  0  0  0  0  0  0  0  0  0  0
  145.8236  139.3068  151.7878 H   0  0  0  0  0  0  0  0  0  0  0  0
  147.2593  138.4502  151.2807 H   0  0  0  0  0  0  0  0  0  0  0  0
  146.0816  135.2130  152.4703 H   0  0  0  0  0  0  0  0  0  0  0  0
  147.5315  136.1873  152.3600 H   0  0  0  0  0  0  0  0  0  0  0  0
  147.9601  140.1617  155.5732 H   0  0  0  0  0  0  0  0  0  0  0  0
  148.4159  141.3589  153.4753 H   0  0  0  0  0  0  0  0  0  0  0  0
  150.1174  141.5400  153.8998 H   0  0  0  0  0  0  0  0  0  0  0  0
  148.8741  142.3776  154.8226 H   0  0  0  0  0  0  0  0  0  0  0  0
  149.2079  142.5569  156.9458 H   0  0  0  0  0  0  0  0  0  0  0  0
  150.9366  142.2093  159.0253 H   0  0  0  0  0  0  0  0  0  0  0  0
  151.8518  139.6207  158.6516 H   0  0  0  0  0  0  0  0  0  0  0  0
  148.8367  137.7603  153.0266 H   0  0  0  0  0  0  0  0  0  0  0  0
  1  2  1  0  0  0  0
  1 16  1  0  0  0  0
  1 17  1  0  0  0  0
  1 18  1  0  0  0  0
  2  3  1  0  0  0  0
  2  9  1  0  0  0  0
  2 19  1  0  0  0  0
  3  4  1  0  0  0  0
  3 20  1  0  0  0  0
  3 34  1  0  0  0  0
  4  5  1  0  0  0  0
  4 21  1  0  0  0  0
  4 22  1  0  0  0  0
  5  6  1  0  0  0  0
  5 23  1  0  0  0  0
  5 24  1  0  0  0  0
  6  7  1  0  0  0  0
  6  8  2  0  0  0  0
  7 25  1  0  0  0  0
  7 26  1  0  0  0  0
  9 10  1  0  0  0  0
  9 11  1  0  0  0  0
  9 27  1  0  0  0  0
 10 28  1  0  0  0  0
 10 29  1  0  0  0  0
 10 30  1  0  0  0  0
 11 15  1  0  0  0  0
 11 12  1  0  0  0  0
 12 13  2  0  0  0  0
 12 31  1  0  0  0  0
 13 14  1  0  0  0  0
 13 32  1  0  0  0  0
 14 15  2  0  0  0  0
 14 33  1  0  0  0  0
M  CHG  1   3   1
M  END
> <s_m_source_file>
AV-unprocessed.smi

> <i_m_source_file_index>
3105

> <i_lp_mmshare_version>
43012

> <i_f3d_flags>
0

> <s_epik_input>
W05IMl1DKD1PKVtDSDJdW0NIMl1bTkhdW0NAQEhdKFtDSDNdKVtDQEhdKFtDSDNdKW4xW2NIXVtjSF1bY0hdbjE=

> <s_epik_cmdline>
J2VwaWtfcHl0aG9uJywgJy1waCcsICc3LjAnLCAnLXRuJywgJzgnLCAnLW1hJywgJzIwMCcsICctbWV0YWxfYmluZGluZycsICctaW1hZScsICc8aW5maWxlLm1hZT4nLCAnLW9tYWUnLCAnPG91dGZpbGUubWFlPic=

> <r_lp_tautomer_probability>
1

> <r_epik_Ionization_Penalty>
0.00475669

> <r_epik_Ionization_Penalty_Charging>
0.00474654

> <r_epik_Ionization_Penalty_Neutral>
1.01546e-05

> <r_epik_State_Penalty>
-0

> <r_epik_Charging_Adjusted_Penalty>
0.00474654

> <i_epik_Tot_Q>
1

> <i_epik_Tot_abs_Q>
1

> <r_epik_Metal_State_Penalty>
-0

> <b_epik_Metal_Only>
0

> <s_lp_Force_Field>
OPLS_2005

> <r_lp_Energy>
5.41696

> <b_lp_Chiralities_Consistent>
1

> <s_lp_Variant>
AV-unprocessed.smi:3105-1

> <Gold.Version>
5.8.1

> <Gold.Id.Protein>
6NUR|6NUR_protein|mol2

> <Gold.PLP.Fitness>
39.3296

> <Gold.PLP.PLP>
-25.6565

> <Gold.PLP.part.hbond>
-2.9348

> <Gold.PLP.part.metal>
0.0000

> <Gold.PLP.part.buried>
-3.7015

> <Gold.PLP.part.nonpolar>
-20.9804

> <Gold.PLP.part.repulsive>
1.3480

> <Gold.PLP.ligand.clash>
0.0000

> <Gold.PLP.ligand.torsion>
0.8294

> <Gold.PLP.Chemscore.Hbond>
4.0000

> <Gold.PLP.Chemscore.CHOScore>
1.0000

> <Gold.PLP.Chemscore.Metal>
0.0000

> <Gold.Chemscore.Hbonds>
donor molecule, donor type, donor heavy atom, donor atom, acceptor molecule, acceptor atom, score
      L1  H     3    20       P1  7957  1.00
      L1  H     3    34       P1  7948  2.00
      L1  H     7    26       P1  7948  0.91
      L1  C    12    31       P1  8028  0.99

> <Gold.PLP.Chemscore.Internal.Correction>
0.3318

> <Gold.Rescore>
     Score         DG    S(hbond)    S(metal)    S(lipo)     H(rot)  DE(clash)    DE(int)     intcor
     12.55     -15.16       2.99        0.00      59.70       2.85       0.36       2.25       ----

> <Gold.Chemscore.Fitness>
12.5523

> <Gold.Chemscore.DG>
-15.1581

> <Gold.Chemscore.ZeroCoef>
-5.4800

> <Gold.Chemscore.Hbond>
2.9886

> <Gold.Chemscore.Metal>
0.0000

> <Gold.Chemscore.Lipo>
59.7049

> <Gold.Chemscore.Internal_Hbond>
0.0000

> <Gold.Chemscore.DEClash>
0.3574

> <Gold.Chemscore.DEInternal>
2.2484

> <Gold.Chemscore.Rot>
2.8473

> <Gold.Chemscore.Internal.Correction>
   9.000000E+99

> <Gold.Chemscore.Hbonds>
donor molecule, donor type, donor heavy atom, donor atom, acceptor molecule, acceptor atom, score
      L1  H     3    20       P1  7957  1.00
      L1  H     3    34       P1  7948  0.99
      L1  H     7    26       P1  7948  0.87

> <Gold.Chemscore.Hbond.Weighted>
-9.9818

> <Gold.Chemscore.Metal.Weighted>
-0.0000

> <Gold.Chemscore.Lipo.Weighted>
-6.9855

> <Gold.Chemscore.Internal_Hbond.Weighted>
0.0000

> <Gold.Chemscore.DEClash.Weighted>
0.3574

> <Gold.Chemscore.DEInternal.Weighted>
2.2484

> <Gold.Chemscore.Rot.Weighted>
7.2892

> <Gold.Chemscore.Internal.Correction.Weighted>
   9.000000E+99

> <Gold.Protein.RotatedTorsions>
[ 6907 6896 6895 6894 ] final   -8.61 input  -60.11 | X-H torsion
[ 7974 7965 7964 7962 ] final -144.02 input  175.53 | X-H torsion
[ 8008 7997 7996 7995 ] final   59.34 input   59.86 | X-H torsion
[ 10167 10162 10161 10158 ] final   12.97 input  -65.29 | X-H torsion
[ 10718 10713 10712 10709 ] final -167.14 input   66.30 | X-H torsion
[ 10763 10752 10751 10750 ] final  -25.86 input  -60.55 | X-H torsion
[ 11005 11000 10999 10996 ] final   -5.90 input  -57.11 | X-H torsion

> <Gold.Protein.ActiveResidues>
 VAL166  LYS551  ARG553  GLY616  TRP617  ASP618  TYR619  PRO620  LYS621  CYS622 
 ASP623  PHE694  ASN695  SER759  ASP760  ASP761  ALA762  ILE779  LEU786  VAL792 
 PHE793  MET794  SER795  GLU796  ALA797  LYS798  CYS799  TRP800  GLU811  SER814 

> <Gold.Protein.RotatedAtoms>
  151.4309  135.1009  159.9641 H   0  0  0  0  0  0  0  0  0  0  0  0  # atno 6907 bound_to 6896
  152.4956  133.8618  159.7264 H   0  0  0  0  0  0  0  0  0  0  0  0  # atno 6908 bound_to 6896
  150.9156  133.6885  159.2872 H   0  0  0  0  0  0  0  0  0  0  0  0  # atno 6909 bound_to 6896
  144.8327  140.5762  143.5504 H   0  0  0  0  0  0  0  0  0  0  0  0  # atno 7974 bound_to 7965
  155.5645  140.3489  155.4499 H   0  0  0  0  0  0  0  0  0  0  0  0  # atno 8008 bound_to 7997
  156.0489  140.1313  157.0097 H   0  0  0  0  0  0  0  0  0  0  0  0  # atno 8009 bound_to 7997
  154.4425  140.1008  156.6332 H   0  0  0  0  0  0  0  0  0  0  0  0  # atno 8010 bound_to 7997
  140.6033  143.8559  150.6988 H   0  0  0  0  0  0  0  0  0  0  0  0  # atno 10167 bound_to 10162
  156.6781  130.9111  151.3053 H   0  0  0  0  0  0  0  0  0  0  0  0  # atno 10718 bound_to 10713
  153.7065  135.6953  153.5049 H   0  0  0  0  0  0  0  0  0  0  0  0  # atno 10763 bound_to 10752
  153.2303  135.4339  155.0587 H   0  0  0  0  0  0  0  0  0  0  0  0  # atno 10764 bound_to 10752
  154.8328  135.3482  154.6603 H   0  0  0  0  0  0  0  0  0  0  0  0  # atno 10765 bound_to 10752
  140.6962  133.9029  155.8652 H   0  0  0  0  0  0  0  0  0  0  0  0  # atno 11005 bound_to 11000
  145.4860  139.1492  143.3735 LP  0  0  0  0  0  0  0  0  0  0  0  0  # atno 17320 bound_to 7965
  146.2629  140.4998  142.8846 LP  0  0  0  0  0  0  0  0  0  0  0  0  # atno 17321 bound_to 7965
  140.2110  143.3883  152.1718 LP  0  0  0  0  0  0  0  0  0  0  0  0  # atno 17342 bound_to 10162
  139.5307  144.7155  151.5067 LP  0  0  0  0  0  0  0  0  0  0  0  0  # atno 17343 bound_to 10162
  157.7053  130.9378  150.0912 LP  0  0  0  0  0  0  0  0  0  0  0  0  # atno 17370 bound_to 10713
  156.1888  130.3653  149.8937 LP  0  0  0  0  0  0  0  0  0  0  0  0  # atno 17371 bound_to 10713
  141.0201  134.0901  157.4129 LP  0  0  0  0  0  0  0  0  0  0  0  0  # atno 17394 bound_to 11000
  139.8909  135.0115  156.6764 LP  0  0  0  0  0  0  0  0  0  0  0  0  # atno 17395 bound_to 11000

$$$$
