AV-unprocessed.smi:2895|AV-procd|sdf|11129|dock8
  -GOLD-   2272016 03D 1   1.00000     0.00000
 Structure written by MMmdl.
 53 56  0  0  0  0  0  0  0  0  2 V2000
  151.3191  140.0339  154.7036 O   0  0  0  0  0  0  0  0  0  0  0  0
  150.3461  139.8763  155.4430 C   0  0  0  0  0  0  0  0  0  0  0  0
  150.4636  139.3004  156.6529 N   0  0  0  0  0  0  0  0  0  0  0  0
  151.7050  138.8006  157.2328 C   0  0  0  0  0  0  0  0  0  0  0  0
  151.7691  139.0699  158.7442 C   0  0  0  0  0  0  0  0  0  0  0  0
  152.5968  140.2978  159.0696 C   0  0  0  0  0  0  0  0  0  0  0  0
  153.8057  140.1831  159.7862 C   0  0  0  0  0  0  0  0  0  0  0  0
  154.5378  141.3559  160.0595 C   0  0  0  0  0  0  0  0  0  0  0  0
  154.1414  142.5864  159.6684 N   0  0  0  0  0  0  0  0  0  0  0  0
  152.9836  142.6877  158.9808 C   0  0  0  0  0  0  0  0  0  0  0  0
  152.1765  141.5788  158.6563 C   0  0  0  0  0  0  0  0  0  0  0  0
  149.0900  140.2864  155.1184 N   0  0  0  0  0  0  0  0  0  0  0  0
  147.9013  139.9832  155.9499 C   0  0  0  0  0  0  0  0  0  0  0  0
  146.5616  140.0561  155.1977 C   0  0  0  0  0  0  0  0  0  0  0  0
  146.4419  141.2821  154.3760 N   0  3  0  0  0  0  0  0  0  0  0  0
  146.3482  142.5664  155.1401 C   0  0  1  0  0  0  0  0  0  0  0  0
  145.8520  143.7429  154.2580 C   0  0  0  0  0  0  0  0  0  0  0  0
  144.6611  144.3106  155.0474 C   0  0  2  0  0  0  0  0  0  0  0  0
  145.1640  144.9840  156.3358 C   0  0  0  0  0  0  0  0  0  0  0  0
  145.5744  143.7809  157.2027 C   0  0  0  0  0  0  0  0  0  0  0  0
  145.2918  142.5785  156.2803 C   0  0  1  0  0  0  0  0  0  0  0  0
  144.0196  143.0352  155.5752 C   0  0  0  0  0  0  0  0  0  0  0  0
  147.5203  141.2668  153.3595 C   0  0  0  0  0  0  0  0  0  0  0  0
  148.9273  141.2246  153.9867 C   0  0  0  0  0  0  0  0  0  0  0  0
  149.6310  139.2082  157.2165 H   0  0  0  0  0  0  0  0  0  0  0  0
  151.8153  137.7340  157.0286 H   0  0  0  0  0  0  0  0  0  0  0  0
  152.5349  139.2986  156.7308 H   0  0  0  0  0  0  0  0  0  0  0  0
  150.7633  139.2063  159.1438 H   0  0  0  0  0  0  0  0  0  0  0  0
  152.1925  138.2097  159.2647 H   0  0  0  0  0  0  0  0  0  0  0  0
  154.1666  139.2211  160.1192 H   0  0  0  0  0  0  0  0  0  0  0  0
  155.4673  141.3043  160.6071 H   0  0  0  0  0  0  0  0  0  0  0  0
  152.6911  143.6828  158.6793 H   0  0  0  0  0  0  0  0  0  0  0  0
  151.2589  141.7117  158.1023 H   0  0  0  0  0  0  0  0  0  0  0  0
  147.9591  138.9841  156.3841 H   0  0  0  0  0  0  0  0  0  0  0  0
  147.8894  140.6813  156.7880 H   0  0  0  0  0  0  0  0  0  0  0  0
  146.4898  139.1968  154.5292 H   0  0  0  0  0  0  0  0  0  0  0  0
  145.7259  139.9361  155.8834 H   0  0  0  0  0  0  0  0  0  0  0  0
  147.3290  142.7995  155.5557 H   0  0  0  0  0  0  0  0  0  0  0  0
  146.6294  144.4877  154.0831 H   0  0  0  0  0  0  0  0  0  0  0  0
  145.4960  143.4028  153.2848 H   0  0  0  0  0  0  0  0  0  0  0  0
  144.0039  144.9437  154.4505 H   0  0  0  0  0  0  0  0  0  0  0  0
  145.9939  145.6667  156.1490 H   0  0  0  0  0  0  0  0  0  0  0  0
  144.3656  145.5496  156.8181 H   0  0  0  0  0  0  0  0  0  0  0  0
  146.6162  143.8310  157.5216 H   0  0  0  0  0  0  0  0  0  0  0  0
  144.9566  143.7309  158.1003 H   0  0  0  0  0  0  0  0  0  0  0  0
  145.1889  141.6586  156.8510 H   0  0  0  0  0  0  0  0  0  0  0  0
  143.1884  143.2202  156.2579 H   0  0  0  0  0  0  0  0  0  0  0  0
  143.6917  142.3549  154.7875 H   0  0  0  0  0  0  0  0  0  0  0  0
  147.3844  140.3819  152.7359 H   0  0  0  0  0  0  0  0  0  0  0  0
  147.4419  142.1125  152.6774 H   0  0  0  0  0  0  0  0  0  0  0  0
  149.1923  142.2203  154.3449 H   0  0  0  0  0  0  0  0  0  0  0  0
  149.6312  140.9999  153.1834 H   0  0  0  0  0  0  0  0  0  0  0  0
  145.5708  141.2004  153.8713 H   0  0  0  0  0  0  0  0  0  0  0  0
  1  2  2  0  0  0  0
  2  3  1  0  0  0  0
  2 12  1  0  0  0  0
  3  4  1  0  0  0  0
  3 25  1  0  0  0  0
  4  5  1  0  0  0  0
  4 26  1  0  0  0  0
  4 27  1  0  0  0  0
  5  6  1  0  0  0  0
  5 28  1  0  0  0  0
  5 29  1  0  0  0  0
  6 11  1  0  0  0  0
  6  7  2  0  0  0  0
  7  8  1  0  0  0  0
  7 30  1  0  0  0  0
  8  9  2  0  0  0  0
  8 31  1  0  0  0  0
  9 10  1  0  0  0  0
 10 11  2  0  0  0  0
 10 32  1  0  0  0  0
 11 33  1  0  0  0  0
 12 24  1  0  0  0  0
 12 13  1  0  0  0  0
 13 14  1  0  0  0  0
 13 34  1  0  0  0  0
 13 35  1  0  0  0  0
 14 15  1  0  0  0  0
 14 36  1  0  0  0  0
 14 37  1  0  0  0  0
 15 16  1  0  0  0  0
 15 23  1  0  0  0  0
 15 53  1  0  0  0  0
 16 21  1  0  0  0  0
 16 17  1  0  0  0  0
 16 38  1  0  0  0  0
 17 18  1  0  0  0  0
 17 39  1  0  0  0  0
 17 40  1  0  0  0  0
 18 22  1  0  0  0  0
 18 19  1  0  0  0  0
 18 41  1  0  0  0  0
 19 20  1  0  0  0  0
 19 42  1  0  0  0  0
 19 43  1  0  0  0  0
 20 21  1  0  0  0  0
 20 44  1  0  0  0  0
 20 45  1  0  0  0  0
 21 22  1  0  0  0  0
 21 46  1  0  0  0  0
 22 47  1  0  0  0  0
 22 48  1  0  0  0  0
 23 24  1  0  0  0  0
 23 49  1  0  0  0  0
 23 50  1  0  0  0  0
 24 51  1  0  0  0  0
 24 52  1  0  0  0  0
M  CHG  1  15   1
M  END
> <s_m_source_file>
AV-unprocessed.smi

> <i_m_source_file_index>
2895

> <i_lp_mmshare_version>
43012

> <i_f3d_flags>
0

> <s_epik_input>
W0NIMl0xW0NIMl1bQ0BASF0oW0NIMl0yKVtDQEBIXShbQ0gyXVtDQEhdMTIpTihbQ0gyXVtDSDJdMylbQ0gyXVtDSDJdTjNDKD1PKVtOSF1bQ0gyXVtDSDJdYzRbY0hdW2NIXW5bY0hdW2NIXTQ=

> <s_epik_cmdline>
J2VwaWtfcHl0aG9uJywgJy1waCcsICc3LjAnLCAnLXRuJywgJzgnLCAnLW1hJywgJzIwMCcsICctbWV0YWxfYmluZGluZycsICctaW1hZScsICc8aW5maWxlLm1hZT4nLCAnLW9tYWUnLCAnPG91dGZpbGUubWFlPic=

> <r_epik_Ionization_Penalty>
0.0566172

> <r_epik_Ionization_Penalty_Charging>
0.00262064

> <r_epik_Ionization_Penalty_Neutral>
0.0539965

> <r_epik_State_Penalty>
0.0463959

> <r_epik_Charging_Adjusted_Penalty>
0.0490165

> <i_epik_Tot_Q>
1

> <i_epik_Tot_abs_Q>
1

> <r_epik_Metal_State_Penalty>
0.0424856

> <b_epik_Metal_Only>
0

> <s_lp_Force_Field>
OPLS_2005

> <r_lp_Energy>
101.263

> <b_lp_Chiralities_Consistent>
1

> <s_lp_Variant>
AV-unprocessed.smi:2895-2

> <Gold.Version>
5.8.1

> <Gold.Id.Protein>
6NUR|6NUR_protein|mol2

> <Gold.PLP.Fitness>
47.3286

> <Gold.PLP.PLP>
-39.6897

> <Gold.PLP.part.hbond>
-2.0000

> <Gold.PLP.part.metal>
0.0000

> <Gold.PLP.part.buried>
-6.2910

> <Gold.PLP.part.nonpolar>
-31.1329

> <Gold.PLP.part.repulsive>
0.0838

> <Gold.PLP.ligand.clash>
0.2406

> <Gold.PLP.ligand.torsion>
0.6267

> <Gold.PLP.Chemscore.Hbond>
3.0000

> <Gold.PLP.Chemscore.CHOScore>
0.0000

> <Gold.PLP.Chemscore.Metal>
0.0000

> <Gold.Chemscore.Hbonds>
donor molecule, donor type, donor heavy atom, donor atom, acceptor molecule, acceptor atom, score
      P1  H  7989  7998       L1     1  0.91

> <Gold.PLP.Chemscore.Internal.Correction>
0.1330

> <Gold.Rescore>
     Score         DG    S(hbond)    S(metal)    S(lipo)     H(rot)  DE(clash)    DE(int)     intcor
     18.77     -19.68       1.98        0.00      94.95       1.37       0.09       0.82       ----

> <Gold.Chemscore.Fitness>
18.7652

> <Gold.Chemscore.DG>
-19.6751

> <Gold.Chemscore.ZeroCoef>
-5.4800

> <Gold.Chemscore.Hbond>
1.9762

> <Gold.Chemscore.Metal>
0.0000

> <Gold.Chemscore.Lipo>
94.9549

> <Gold.Chemscore.Internal_Hbond>
0.0000

> <Gold.Chemscore.DEClash>
0.0923

> <Gold.Chemscore.DEInternal>
0.8176

> <Gold.Chemscore.Rot>
1.3731

> <Gold.Chemscore.Internal.Correction>
   9.000000E+99

> <Gold.Chemscore.Hbonds>
donor molecule, donor type, donor heavy atom, donor atom, acceptor molecule, acceptor atom, score
      L1  H    15    53       P1 10175  0.03
      P1  H  7989  7998       L1     1  0.88

> <Gold.Chemscore.Hbond.Weighted>
-6.6006

> <Gold.Chemscore.Metal.Weighted>
-0.0000

> <Gold.Chemscore.Lipo.Weighted>
-11.1097

> <Gold.Chemscore.Internal_Hbond.Weighted>
0.0000

> <Gold.Chemscore.DEClash.Weighted>
0.0923

> <Gold.Chemscore.DEInternal.Weighted>
0.8176

> <Gold.Chemscore.Rot.Weighted>
3.5152

> <Gold.Chemscore.Internal.Correction.Weighted>
   9.000000E+99

> <Gold.Protein.RotatedTorsions>
[ 6907 6896 6895 6894 ] final   71.76 input  -60.11 | X-H torsion
[ 7974 7965 7964 7962 ] final  -20.54 input  175.53 | X-H torsion
[ 8008 7997 7996 7995 ] final -173.35 input   59.86 | X-H torsion
[ 10167 10162 10161 10158 ] final  150.92 input  -65.29 | X-H torsion
[ 10718 10713 10712 10709 ] final  -82.88 input   66.30 | X-H torsion
[ 10763 10752 10751 10750 ] final   58.67 input  -60.55 | X-H torsion
[ 11005 11000 10999 10996 ] final  -83.50 input  -57.11 | X-H torsion

> <Gold.Protein.ActiveResidues>
 VAL166  LYS551  ARG553  GLY616  TRP617  ASP618  TYR619  PRO620  LYS621  CYS622 
 ASP623  PHE694  ASN695  SER759  ASP760  ASP761  ALA762  ILE779  LEU786  VAL792 
 PHE793  MET794  SER795  GLU796  ALA797  LYS798  CYS799  TRP800  GLU811  SER814 

> <Gold.Protein.RotatedAtoms>
  152.4829  134.4672  159.9623 H   0  0  0  0  0  0  0  0  0  0  0  0  # atno 6907 bound_to 6896
  151.4674  133.3571  159.2826 H   0  0  0  0  0  0  0  0  0  0  0  0  # atno 6908 bound_to 6896
  150.8915  134.8345  159.7357 H   0  0  0  0  0  0  0  0  0  0  0  0  # atno 6909 bound_to 6896
  146.1782  140.4217  142.8505 H   0  0  0  0  0  0  0  0  0  0  0  0  # atno 7974 bound_to 7965
  155.9563  140.1136  157.0934 H   0  0  0  0  0  0  0  0  0  0  0  0  # atno 8008 bound_to 7997
  154.4121  140.1190  156.5186 H   0  0  0  0  0  0  0  0  0  0  0  0  # atno 8009 bound_to 7997
  155.6777  140.3473  155.4845 H   0  0  0  0  0  0  0  0  0  0  0  0  # atno 8010 bound_to 7997
  139.4845  144.5483  151.7446 H   0  0  0  0  0  0  0  0  0  0  0  0  # atno 10167 bound_to 10162
  156.0026  130.4648  150.4172 H   0  0  0  0  0  0  0  0  0  0  0  0  # atno 10718 bound_to 10713
  152.9876  135.5598  154.5590 H   0  0  0  0  0  0  0  0  0  0  0  0  # atno 10763 bound_to 10752
  154.5012  135.2797  155.1421 H   0  0  0  0  0  0  0  0  0  0  0  0  # atno 10764 bound_to 10752
  154.2850  135.6337  153.5415 H   0  0  0  0  0  0  0  0  0  0  0  0  # atno 10765 bound_to 10752
  141.1657  133.7298  156.8730 H   0  0  0  0  0  0  0  0  0  0  0  0  # atno 11005 bound_to 11000
  144.8271  140.6647  143.6315 LP  0  0  0  0  0  0  0  0  0  0  0  0  # atno 17320 bound_to 7965
  145.4151  139.1573  143.4105 LP  0  0  0  0  0  0  0  0  0  0  0  0  # atno 17321 bound_to 7965
  140.5033  144.1136  150.5976 LP  0  0  0  0  0  0  0  0  0  0  0  0  # atno 17342 bound_to 10162
  140.4037  143.2691  151.9917 LP  0  0  0  0  0  0  0  0  0  0  0  0  # atno 17343 bound_to 10162
  157.2231  131.0487  151.2535 LP  0  0  0  0  0  0  0  0  0  0  0  0  # atno 17370 bound_to 10713
  157.3782  130.7217  149.6611 LP  0  0  0  0  0  0  0  0  0  0  0  0  # atno 17371 bound_to 10713
  140.1768  134.9061  157.2901 LP  0  0  0  0  0  0  0  0  0  0  0  0  # atno 17394 bound_to 11000
  140.2439  134.3762  155.7469 LP  0  0  0  0  0  0  0  0  0  0  0  0  # atno 17395 bound_to 11000

$$$$
