AV-unprocessed.smi:675|AV-procd|sdf|3304|dock7
  -GOLD-   22720 0263D 1   1.00000     0.00000
 Structure written by MMmdl.
 29 30  0  0  0  0  0  0  0  0  1 V2000
  146.8737  141.0203  152.3703 O   0  0  0  0  0  0  0  0  0  0  0  0
  147.4846  141.1549  153.4288 C   0  0  0  0  0  0  0  0  0  0  0  0
  148.6990  140.4891  153.6211 N   0  0  0  0  0  0  0  0  0  0  0  0
  149.4900  140.5554  154.7687 C   0  0  0  0  0  0  0  0  0  0  0  0
  150.5398  139.9156  154.8252 O   0  0  0  0  0  0  0  0  0  0  0  0
  149.0177  141.3747  155.8200 N   0  0  0  0  0  0  0  0  0  0  0  0
  149.7953  141.4490  157.0334 C   0  0  0  0  0  0  0  0  0  0  0  0
  151.1477  142.1708  156.8436 C   0  0  1  0  0  0  0  0  0  0  0  0
  150.9319  143.3754  156.1328 O   0  0  0  0  0  0  0  0  0  0  0  0
  151.8240  142.4175  158.1919 C   0  0  0  0  0  0  0  0  0  0  0  0
  152.0602  143.7402  158.6352 C   0  0  0  0  0  0  0  0  0  0  0  0
  152.6740  143.9822  159.8786 C   0  0  0  0  0  0  0  0  0  0  0  0
  153.0535  142.9036  160.6973 C   0  0  0  0  0  0  0  0  0  0  0  0
  152.8119  141.5841  160.2733 C   0  0  0  0  0  0  0  0  0  0  0  0
  152.1969  141.3355  159.0297 C   0  0  0  0  0  0  0  0  0  0  0  0
  151.9021  139.6933  158.5730 Cl  0  0  0  0  0  0  0  0  0  0  0  0
  147.8140  142.0475  155.6758 C   0  0  0  0  0  0  0  0  0  0  0  0
  147.0508  141.9753  154.5588 C   0  0  0  0  0  0  0  0  0  0  0  0
  145.5611  142.8437  154.4573 Cl  0  0  0  0  0  0  0  0  0  0  0  0
  149.0315  139.9083  152.8651 H   0  0  0  0  0  0  0  0  0  0  0  0
  149.1833  141.8596  157.8397 H   0  0  0  0  0  0  0  0  0  0  0  0
  149.9624  140.4043  157.3025 H   0  0  0  0  0  0  0  0  0  0  0  0
  151.8085  141.5668  156.2222 H   0  0  0  0  0  0  0  0  0  0  0  0
  150.0157  143.5986  156.1920 H   0  0  0  0  0  0  0  0  0  0  0  0
  151.7678  144.5832  158.0263 H   0  0  0  0  0  0  0  0  0  0  0  0
  152.8509  144.9965  160.2049 H   0  0  0  0  0  0  0  0  0  0  0  0
  153.5237  143.0878  161.6520 H   0  0  0  0  0  0  0  0  0  0  0  0
  153.0963  140.7583  160.9089 H   0  0  0  0  0  0  0  0  0  0  0  0
  147.4619  142.6584  156.4951 H   0  0  0  0  0  0  0  0  0  0  0  0
  1  2  2  0  0  0  0
  2 18  1  0  0  0  0
  2  3  1  0  0  0  0
  3 20  1  0  0  0  0
  3  4  1  0  0  0  0
  4  5  2  0  0  0  0
  4  6  1  0  0  0  0
  6  7  1  0  0  0  0
  6 17  1  0  0  0  0
  7  8  1  0  0  0  0
  7 21  1  0  0  0  0
  7 22  1  0  0  0  0
  8  9  1  0  0  0  0
  8 10  1  0  0  0  0
  8 23  1  0  0  0  0
  9 24  1  0  0  0  0
 10 15  1  0  0  0  0
 10 11  2  0  0  0  0
 11 12  1  0  0  0  0
 11 25  1  0  0  0  0
 12 13  2  0  0  0  0
 12 26  1  0  0  0  0
 13 14  1  0  0  0  0
 13 27  1  0  0  0  0
 14 15  2  0  0  0  0
 14 28  1  0  0  0  0
 15 16  1  0  0  0  0
 17 18  2  0  0  0  0
 17 29  1  0  0  0  0
 18 19  1  0  0  0  0
M  END
> <s_m_source_file>
AV-unprocessed.smi

> <i_m_source_file_index>
675

> <i_lp_mmshare_version>
43012

> <i_f3d_flags>
0

> <s_epik_input>
Tz1jMVtuSF1jKD1PKW4oW2NIXWMxQ2wpW0NIMl1bQ0BIXShbT0hdKWMyW2NIXVtjSF1bY0hdW2NIXWMyQ2w=

> <s_epik_cmdline>
J2VwaWtfcHl0aG9uJywgJy1waCcsICc3LjAnLCAnLXRuJywgJzgnLCAnLW1hJywgJzIwMCcsICctbWV0YWxfYmluZGluZycsICctaW1hZScsICc8aW5maWxlLm1hZT4nLCAnLW9tYWUnLCAnPG91dGZpbGUubWFlPic=

> <r_lp_tautomer_probability>
0.999537

> <r_epik_Ionization_Penalty>
0.029206

> <r_epik_Ionization_Penalty_Charging>
0.0292057

> <r_epik_Ionization_Penalty_Neutral>
2.68278e-07

> <r_epik_State_Penalty>
0.0240115

> <r_epik_Charging_Adjusted_Penalty>
0.0532172

> <i_epik_Tot_Q>
0

> <i_epik_Tot_abs_Q>
0

> <r_epik_Metal_State_Penalty>
2.21956

> <b_epik_Metal_Only>
0

> <s_lp_Force_Field>
OPLS_2005

> <r_lp_Energy>
14.2263

> <b_lp_Chiralities_Consistent>
1

> <s_lp_Variant>
AV-unprocessed.smi:675-2

> <Gold.Version>
5.8.1

> <Gold.Id.Protein>
6NUR|6NUR_protein|mol2

> <Gold.PLP.Fitness>
46.1910

> <Gold.PLP.PLP>
-38.5368

> <Gold.PLP.part.hbond>
-2.2043

> <Gold.PLP.part.metal>
0.0000

> <Gold.PLP.part.buried>
-2.3509

> <Gold.PLP.part.nonpolar>
-34.4683

> <Gold.PLP.part.repulsive>
0.5021

> <Gold.PLP.ligand.clash>
0.0000

> <Gold.PLP.ligand.torsion>
0.1375

> <Gold.PLP.Chemscore.Hbond>
2.6000

> <Gold.PLP.Chemscore.CHOScore>
0.0387

> <Gold.PLP.Chemscore.Metal>
0.0000

> <Gold.Chemscore.Hbonds>
donor molecule, donor type, donor heavy atom, donor atom, acceptor molecule, acceptor atom, score
      L1  H     3    20       P1  7957  0.82
      L1  H     9    24       P1  8028  0.83
      P1  H  7989  7998       L1     5  1.00
      L1  C    17    29       P1  8028  0.16

> <Gold.PLP.Chemscore.Internal.Correction>
0.0131

> <Gold.Rescore>
     Score         DG    S(hbond)    S(metal)    S(lipo)     H(rot)  DE(clash)    DE(int)     intcor
     18.32     -19.53       2.36        0.00     100.44       2.18       0.24       0.97       ----

> <Gold.Chemscore.Fitness>
18.3222

> <Gold.Chemscore.DG>
-19.5308

> <Gold.Chemscore.ZeroCoef>
-5.4800

> <Gold.Chemscore.Hbond>
2.3574

> <Gold.Chemscore.Metal>
0.0000

> <Gold.Chemscore.Lipo>
100.4413

> <Gold.Chemscore.Internal_Hbond>
0.0000

> <Gold.Chemscore.DEClash>
0.2384

> <Gold.Chemscore.DEInternal>
0.9702

> <Gold.Chemscore.Rot>
2.1775

> <Gold.Chemscore.Internal.Correction>
   9.000000E+99

> <Gold.Chemscore.Hbonds>
donor molecule, donor type, donor heavy atom, donor atom, acceptor molecule, acceptor atom, score
      L1  H     3    20       P1  7957  0.81
      L1  H     9    24       P1  8028  0.81
      P1  H  7989  7998       L1     5  0.29

> <Gold.Chemscore.Hbond.Weighted>
-7.8736

> <Gold.Chemscore.Metal.Weighted>
-0.0000

> <Gold.Chemscore.Lipo.Weighted>
-11.7516

> <Gold.Chemscore.Internal_Hbond.Weighted>
0.0000

> <Gold.Chemscore.DEClash.Weighted>
0.2384

> <Gold.Chemscore.DEInternal.Weighted>
0.9702

> <Gold.Chemscore.Rot.Weighted>
5.5745

> <Gold.Chemscore.Internal.Correction.Weighted>
   9.000000E+99

> <Gold.Protein.RotatedTorsions>
[ 6907 6896 6895 6894 ] final   34.62 input  -60.11 | X-H torsion
[ 7974 7965 7964 7962 ] final   59.16 input  175.53 | X-H torsion
[ 8008 7997 7996 7995 ] final -135.68 input   59.86 | X-H torsion
[ 10167 10162 10161 10158 ] final -125.63 input  -65.29 | X-H torsion
[ 10718 10713 10712 10709 ] final -151.69 input   66.30 | X-H torsion
[ 10763 10752 10751 10750 ] final   22.10 input  -60.55 | X-H torsion
[ 11005 11000 10999 10996 ] final  124.78 input  -57.11 | X-H torsion

> <Gold.Protein.ActiveResidues>
 VAL166  LYS551  ARG553  GLY616  TRP617  ASP618  TYR619  PRO620  LYS621  CYS622 
 ASP623  PHE694  ASN695  SER759  ASP760  ASP761  ALA762  ILE779  LEU786  VAL792 
 PHE793  MET794  SER795  GLU796  ALA797  LYS798  CYS799  TRP800  GLU811  SER814 

> <Gold.Protein.RotatedAtoms>
  152.1048  134.9316  160.0568 H   0  0  0  0  0  0  0  0  0  0  0  0  # atno 6907 bound_to 6896
  152.0516  133.4017  159.4388 H   0  0  0  0  0  0  0  0  0  0  0  0  # atno 6908 bound_to 6896
  150.6841  134.3222  159.4835 H   0  0  0  0  0  0  0  0  0  0  0  0  # atno 6909 bound_to 6896
  145.9102  139.3648  143.0540 H   0  0  0  0  0  0  0  0  0  0  0  0  # atno 7974 bound_to 7965
  155.3827  140.0495  157.3043 H   0  0  0  0  0  0  0  0  0  0  0  0  # atno 8008 bound_to 7997
  154.5074  140.2179  155.9185 H   0  0  0  0  0  0  0  0  0  0  0  0  # atno 8009 bound_to 7997
  156.1542  140.3129  155.8704 H   0  0  0  0  0  0  0  0  0  0  0  0  # atno 8010 bound_to 7997
  139.9801  143.5752  152.2381 H   0  0  0  0  0  0  0  0  0  0  0  0  # atno 10167 bound_to 10162
  156.4625  130.8220  151.2451 H   0  0  0  0  0  0  0  0  0  0  0  0  # atno 10718 bound_to 10713
  153.0942  135.6655  153.9794 H   0  0  0  0  0  0  0  0  0  0  0  0  # atno 10763 bound_to 10752
  153.9383  135.2996  155.3445 H   0  0  0  0  0  0  0  0  0  0  0  0  # atno 10764 bound_to 10752
  154.7360  135.5101  153.9116 H   0  0  0  0  0  0  0  0  0  0  0  0  # atno 10765 bound_to 10752
  139.9375  134.9638  156.8460 H   0  0  0  0  0  0  0  0  0  0  0  0  # atno 11005 bound_to 11000
  145.8681  140.9436  143.0665 LP  0  0  0  0  0  0  0  0  0  0  0  0  # atno 17320 bound_to 7965
  144.6742  140.0619  143.7476 LP  0  0  0  0  0  0  0  0  0  0  0  0  # atno 17321 bound_to 7965
  139.6416  144.7655  151.2327 LP  0  0  0  0  0  0  0  0  0  0  0  0  # atno 17342 bound_to 10162
  140.7492  143.6307  150.8426 LP  0  0  0  0  0  0  0  0  0  0  0  0  # atno 17343 bound_to 10162
  157.7497  131.0102  150.3298 LP  0  0  0  0  0  0  0  0  0  0  0  0  # atno 17370 bound_to 10713
  156.3701  130.3862  149.7182 LP  0  0  0  0  0  0  0  0  0  0  0  0  # atno 17371 bound_to 10713
  140.6038  134.0147  155.7548 LP  0  0  0  0  0  0  0  0  0  0  0  0  # atno 17394 bound_to 11000
  141.0995  133.9791  157.3103 LP  0  0  0  0  0  0  0  0  0  0  0  0  # atno 17395 bound_to 11000

$$$$
