AV-unprocessed.smi:2442|AV-procd|sdf|9630|dock4
  -GOLD-   2272013263D 1   1.00000     0.00000
 Structure written by MMmdl.
 47 48  0  0  0  0  0  0  0  0  2 V2000
  152.0464  139.6672  158.8815 C   0  0  0  0  0  0  0  0  0  0  0  0
  151.9152  140.7246  157.9446 O   0  0  0  0  0  0  0  0  0  0  0  0
  151.6537  141.9958  158.5287 C   0  0  1  0  0  0  0  0  0  0  0  0
  152.8072  142.3765  159.4812 C   0  0  0  0  0  0  0  0  0  0  0  0
  152.6447  143.8018  160.0293 C   0  0  0  0  0  0  0  0  0  0  0  0
  152.5271  144.8209  158.8877 C   0  0  0  0  0  0  0  0  0  0  0  0
  151.3711  144.4593  157.9438 C   0  0  0  0  0  0  0  0  0  0  0  0
  151.5133  143.0295  157.3871 C   0  0  2  0  0  0  0  0  0  0  0  0
  150.3392  142.7236  156.5725 N   0  0  0  0  0  0  0  0  0  0  0  0
  150.2110  141.6677  155.7570 C   0  0  0  0  0  0  0  0  0  0  0  0
  151.0863  140.8217  155.5727 O   0  0  0  0  0  0  0  0  0  0  0  0
  149.0065  141.6374  155.1699 N   0  0  0  0  0  0  0  0  0  0  0  0
  148.5621  140.6096  154.2363 C   0  0  0  0  0  0  0  0  0  0  0  0
  147.3995  141.1033  153.3578 C   0  0  0  0  0  0  0  0  0  0  0  0
  146.3871  141.9151  154.1508 C   0  0  0  0  0  0  0  0  0  0  0  0
  146.0385  143.2062  153.6942 C   0  0  0  0  0  0  0  0  0  0  0  0
  145.1048  143.9717  154.4198 C   0  0  0  0  0  0  0  0  0  0  0  0
  144.5514  143.4665  155.5423 N   0  3  0  0  0  0  0  0  0  0  0  0
  144.8545  142.2395  156.0181 C   0  0  0  0  0  0  0  0  0  0  0  0
  145.7853  141.4228  155.3388 C   0  0  0  0  0  0  0  0  0  0  0  0
  146.1129  140.0485  155.8945 C   0  0  0  0  0  0  0  0  0  0  0  0
  152.2263  138.7333  158.3497 H   0  0  0  0  0  0  0  0  0  0  0  0
  151.1345  139.5463  159.4672 H   0  0  0  0  0  0  0  0  0  0  0  0
  152.8820  139.8274  159.5625 H   0  0  0  0  0  0  0  0  0  0  0  0
  150.7149  141.9682  159.0866 H   0  0  0  0  0  0  0  0  0  0  0  0
  152.8634  141.6771  160.3150 H   0  0  0  0  0  0  0  0  0  0  0  0
  153.7573  142.2995  158.9510 H   0  0  0  0  0  0  0  0  0  0  0  0
  151.7570  143.8531  160.6608 H   0  0  0  0  0  0  0  0  0  0  0  0
  153.4933  144.0540  160.6660 H   0  0  0  0  0  0  0  0  0  0  0  0
  152.3751  145.8204  159.2960 H   0  0  0  0  0  0  0  0  0  0  0  0
  153.4620  144.8543  158.3269 H   0  0  0  0  0  0  0  0  0  0  0  0
  150.4268  144.5542  158.4820 H   0  0  0  0  0  0  0  0  0  0  0  0
  151.3314  145.1766  157.1231 H   0  0  0  0  0  0  0  0  0  0  0  0
  152.4147  142.9992  156.7716 H   0  0  0  0  0  0  0  0  0  0  0  0
  149.5581  143.3578  156.6517 H   0  0  0  0  0  0  0  0  0  0  0  0
  148.3527  142.3764  155.3836 H   0  0  0  0  0  0  0  0  0  0  0  0
  149.4112  140.3292  153.6128 H   0  0  0  0  0  0  0  0  0  0  0  0
  148.2722  139.7125  154.7865 H   0  0  0  0  0  0  0  0  0  0  0  0
  147.7824  141.7301  152.5511 H   0  0  0  0  0  0  0  0  0  0  0  0
  146.9114  140.2615  152.8667 H   0  0  0  0  0  0  0  0  0  0  0  0
  146.4843  143.6081  152.7956 H   0  0  0  0  0  0  0  0  0  0  0  0
  144.7862  144.9646  154.1378 H   0  0  0  0  0  0  0  0  0  0  0  0
  144.3448  141.9507  156.9260 H   0  0  0  0  0  0  0  0  0  0  0  0
  145.6706  139.9069  156.8812 H   0  0  0  0  0  0  0  0  0  0  0  0
  147.1904  139.9161  155.9922 H   0  0  0  0  0  0  0  0  0  0  0  0
  145.7246  139.2702  155.2373 H   0  0  0  0  0  0  0  0  0  0  0  0
  143.8761  144.0358  156.0533 H   0  0  0  0  0  0  0  0  0  0  0  0
  1  2  1  0  0  0  0
  1 22  1  0  0  0  0
  1 23  1  0  0  0  0
  1 24  1  0  0  0  0
  2  3  1  0  0  0  0
  3  8  1  0  0  0  0
  3  4  1  0  0  0  0
  3 25  1  0  0  0  0
  4  5  1  0  0  0  0
  4 26  1  0  0  0  0
  4 27  1  0  0  0  0
  5  6  1  0  0  0  0
  5 28  1  0  0  0  0
  5 29  1  0  0  0  0
  6  7  1  0  0  0  0
  6 30  1  0  0  0  0
  6 31  1  0  0  0  0
  7  8  1  0  0  0  0
  7 32  1  0  0  0  0
  7 33  1  0  0  0  0
  8  9  1  0  0  0  0
  8 34  1  0  0  0  0
  9 10  1  0  0  0  0
  9 35  1  0  0  0  0
 10 11  2  0  0  0  0
 10 12  1  0  0  0  0
 12 13  1  0  0  0  0
 12 36  1  0  0  0  0
 13 14  1  0  0  0  0
 13 37  1  0  0  0  0
 13 38  1  0  0  0  0
 14 15  1  0  0  0  0
 14 39  1  0  0  0  0
 14 40  1  0  0  0  0
 15 20  1  0  0  0  0
 15 16  2  0  0  0  0
 16 17  1  0  0  0  0
 16 41  1  0  0  0  0
 17 18  2  0  0  0  0
 17 42  1  0  0  0  0
 18 19  1  0  0  0  0
 18 47  1  0  0  0  0
 19 20  2  0  0  0  0
 19 43  1  0  0  0  0
 20 21  1  0  0  0  0
 21 44  1  0  0  0  0
 21 45  1  0  0  0  0
 21 46  1  0  0  0  0
M  CHG  1  18   1
M  END
> <s_m_source_file>
AV-unprocessed.smi

> <i_m_source_file_index>
2442

> <i_lp_mmshare_version>
43012

> <i_f3d_flags>
0

> <s_epik_input>
W0NIM11PW0NAQEhdMVtDSDJdW0NIMl1bQ0gyXVtDSDJdW0NASF0xW05IXUMoPU8pW05IXVtDSDJdW0NIMl1jMltjSF1bY0hdbltjSF1jMltDSDNd

> <s_epik_cmdline>
J2VwaWtfcHl0aG9uJywgJy1waCcsICc3LjAnLCAnLXRuJywgJzgnLCAnLW1hJywgJzIwMCcsICctbWV0YWxfYmluZGluZycsICctaW1hZScsICc8aW5maWxlLm1hZT4nLCAnLW9tYWUnLCAnPG91dGZpbGUubWFlPic=

> <r_epik_Ionization_Penalty>
1.07145

> <r_epik_Ionization_Penalty_Charging>
1.0714

> <r_epik_Ionization_Penalty_Neutral>
4.9109e-05

> <r_epik_State_Penalty>
1.12601

> <r_epik_Charging_Adjusted_Penalty>
2.19741

> <i_epik_Tot_Q>
1

> <i_epik_Tot_abs_Q>
1

> <r_epik_Metal_State_Penalty>
1.2173

> <b_epik_Metal_Only>
0

> <s_lp_Force_Field>
OPLS_2005

> <r_lp_Energy>
14.6153

> <b_lp_Chiralities_Consistent>
1

> <s_lp_Variant>
AV-unprocessed.smi:2442-8

> <Gold.Version>
5.8.1

> <Gold.Id.Protein>
6NUR|6NUR_protein|mol2

> <Gold.PLP.Fitness>
48.5655

> <Gold.PLP.PLP>
-45.0914

> <Gold.PLP.part.hbond>
-2.7667

> <Gold.PLP.part.metal>
0.0000

> <Gold.PLP.part.buried>
-6.3490

> <Gold.PLP.part.nonpolar>
-35.3256

> <Gold.PLP.part.repulsive>
0.2668

> <Gold.PLP.ligand.clash>
0.0000

> <Gold.PLP.ligand.torsion>
0.3773

> <Gold.PLP.Chemscore.Hbond>
1.3939

> <Gold.PLP.Chemscore.CHOScore>
0.0000

> <Gold.PLP.Chemscore.Metal>
0.0000

> <Gold.Chemscore.Hbonds>
donor molecule, donor type, donor heavy atom, donor atom, acceptor molecule, acceptor atom, score
      L1  H     9    35       P1  8028  0.72
      L1  H    12    36       P1  8028  0.04
      P1  H  7989  7998       L1    11  0.55

> <Gold.PLP.Chemscore.Internal.Correction>
0.0472

> <Gold.Rescore>
     Score         DG    S(hbond)    S(metal)    S(lipo)     H(rot)  DE(clash)    DE(int)     intcor
     16.22     -19.31       1.34        0.00     117.69       1.72       0.32       2.77       ----

> <Gold.Chemscore.Fitness>
16.2229

> <Gold.Chemscore.DG>
-19.3129

> <Gold.Chemscore.ZeroCoef>
-5.4800

> <Gold.Chemscore.Hbond>
1.3408

> <Gold.Chemscore.Metal>
0.0000

> <Gold.Chemscore.Lipo>
117.6852

> <Gold.Chemscore.Internal_Hbond>
0.0000

> <Gold.Chemscore.DEClash>
0.3233

> <Gold.Chemscore.DEInternal>
2.7666

> <Gold.Chemscore.Rot>
1.7244

> <Gold.Chemscore.Internal.Correction>
   9.000000E+99

> <Gold.Chemscore.Hbonds>
donor molecule, donor type, donor heavy atom, donor atom, acceptor molecule, acceptor atom, score
      L1  H     9    35       P1  8028  0.72
      L1  H    12    36       P1  8028  0.06
      P1  H  7989  7998       L1    11  0.36

> <Gold.Chemscore.Hbond.Weighted>
-4.4782

> <Gold.Chemscore.Metal.Weighted>
-0.0000

> <Gold.Chemscore.Lipo.Weighted>
-13.7692

> <Gold.Chemscore.Internal_Hbond.Weighted>
0.0000

> <Gold.Chemscore.DEClash.Weighted>
0.3233

> <Gold.Chemscore.DEInternal.Weighted>
2.7666

> <Gold.Chemscore.Rot.Weighted>
4.4145

> <Gold.Chemscore.Internal.Correction.Weighted>
   9.000000E+99

> <Gold.Protein.RotatedTorsions>
[ 6907 6896 6895 6894 ] final  -58.26 input  -60.11 | X-H torsion
[ 7974 7965 7964 7962 ] final -173.52 input  175.53 | X-H torsion
[ 8008 7997 7996 7995 ] final  169.18 input   59.86 | X-H torsion
[ 10167 10162 10161 10158 ] final -175.00 input  -65.29 | X-H torsion
[ 10718 10713 10712 10709 ] final -116.36 input   66.30 | X-H torsion
[ 10763 10752 10751 10750 ] final -106.53 input  -60.55 | X-H torsion
[ 11005 11000 10999 10996 ] final   -0.41 input  -57.11 | X-H torsion

> <Gold.Protein.ActiveResidues>
 VAL166  LYS551  ARG553  GLY616  TRP617  ASP618  TYR619  PRO620  LYS621  CYS622 
 ASP623  PHE694  ASN695  SER759  ASP760  ASP761  ALA762  ILE779  LEU786  VAL792 
 PHE793  MET794  SER795  GLU796  ALA797  LYS798  CYS799  TRP800  GLU811  SER814 

> <Gold.Protein.RotatedAtoms>
  150.8021  134.7121  159.6609 H   0  0  0  0  0  0  0  0  0  0  0  0  # atno 6907 bound_to 6896
  152.4138  134.6074  160.0026 H   0  0  0  0  0  0  0  0  0  0  0  0  # atno 6908 bound_to 6896
  151.6309  133.3295  159.3145 H   0  0  0  0  0  0  0  0  0  0  0  0  # atno 6909 bound_to 6896
  144.7137  140.1610  143.6376 H   0  0  0  0  0  0  0  0  0  0  0  0  # atno 7974 bound_to 7965
  156.1481  140.1571  156.8814 H   0  0  0  0  0  0  0  0  0  0  0  0  # atno 8008 bound_to 7997
  154.5046  140.0816  156.7905 H   0  0  0  0  0  0  0  0  0  0  0  0  # atno 8009 bound_to 7997
  155.3950  140.3411  155.4256 H   0  0  0  0  0  0  0  0  0  0  0  0  # atno 8010 bound_to 7997
  139.5604  144.1884  152.1229 H   0  0  0  0  0  0  0  0  0  0  0  0  # atno 10167 bound_to 10162
  156.0958  130.6131  150.9025 H   0  0  0  0  0  0  0  0  0  0  0  0  # atno 10718 bound_to 10713
  154.8018  135.4708  154.0294 H   0  0  0  0  0  0  0  0  0  0  0  0  # atno 10763 bound_to 10752
  153.1794  135.6838  153.8506 H   0  0  0  0  0  0  0  0  0  0  0  0  # atno 10764 bound_to 10752
  153.8061  135.3223  155.3373 H   0  0  0  0  0  0  0  0  0  0  0  0  # atno 10765 bound_to 10752
  140.6360  133.9532  155.8300 H   0  0  0  0  0  0  0  0  0  0  0  0  # atno 11005 bound_to 11000
  145.9031  139.2442  143.1482 LP  0  0  0  0  0  0  0  0  0  0  0  0  # atno 17320 bound_to 7965
  145.9791  140.8697  143.0123 LP  0  0  0  0  0  0  0  0  0  0  0  0  # atno 17321 bound_to 7965
  140.1397  144.5213  150.6752 LP  0  0  0  0  0  0  0  0  0  0  0  0  # atno 17342 bound_to 10162
  140.6883  143.2362  151.5201 LP  0  0  0  0  0  0  0  0  0  0  0  0  # atno 17343 bound_to 10162
  157.6118  131.0936  150.8781 LP  0  0  0  0  0  0  0  0  0  0  0  0  # atno 17370 bound_to 10713
  156.8919  130.5216  149.5286 LP  0  0  0  0  0  0  0  0  0  0  0  0  # atno 17371 bound_to 10713
  141.0641  134.0302  157.3618 LP  0  0  0  0  0  0  0  0  0  0  0  0  # atno 17394 bound_to 11000
  139.9098  135.0188  156.7643 LP  0  0  0  0  0  0  0  0  0  0  0  0  # atno 17395 bound_to 11000

$$$$
