AV-unprocessed.smi:2004|AV-procd|sdf|8123|dock6
  -GOLD-   2272010353D 1   1.00000     0.00000
 Structure written by MMmdl.
 40 42  0  0  0  0  0  0  0  0  2 V2000
  153.2240  139.2221  157.4331 O   0  0  0  0  0  0  0  0  0  0  0  0
  152.5420  139.2663  158.6684 C   0  0  2  0  0  0  0  0  0  0  0  0
  152.6668  137.8944  159.3599 C   0  0  0  0  0  0  0  0  0  0  0  0
  153.9811  137.7840  159.8775 O   0  0  0  0  0  0  0  0  0  0  0  0
  154.1188  138.1837  161.2272 C   0  0  0  0  0  0  0  0  0  0  0  0
  154.1709  136.9681  162.1306 C   0  0  0  0  0  0  0  0  0  0  0  0
  154.5755  135.7223  161.6073 C   0  0  0  0  0  0  0  0  0  0  0  0
  154.6510  134.5929  162.4451 C   0  0  0  0  0  0  0  0  0  0  0  0
  154.3201  134.7048  163.8093 C   0  0  0  0  0  0  0  0  0  0  0  0
  153.9106  135.9458  164.3345 C   0  0  0  0  0  0  0  0  0  0  0  0
  153.8336  137.0754  163.4964 C   0  0  0  0  0  0  0  0  0  0  0  0
  151.0902  139.7420  158.4108 C   0  0  0  0  0  0  0  0  0  0  0  0
  150.9860  141.1340  157.9494 N   0  0  0  0  0  0  0  0  0  0  0  0
  150.3284  141.6499  156.8751 C   0  0  0  0  0  0  0  0  0  0  0  0
  150.4899  143.0017  156.9033 N   0  3  0  0  0  0  0  0  0  0  0  0
  151.2666  143.3554  158.0083 C   0  0  0  0  0  0  0  0  0  0  0  0
  151.6863  144.6005  158.4654 C   0  0  0  0  0  0  0  0  0  0  0  0
  152.4691  144.6120  159.6383 C   0  0  0  0  0  0  0  0  0  0  0  0
  152.8114  143.4174  160.3052 C   0  0  0  0  0  0  0  0  0  0  0  0
  152.3831  142.1601  159.8305 C   0  0  0  0  0  0  0  0  0  0  0  0
  151.6022  142.1586  158.6761 C   0  0  0  0  0  0  0  0  0  0  0  0
  152.9353  138.4593  156.9559 H   0  0  0  0  0  0  0  0  0  0  0  0
  153.0596  140.0043  159.2816 H   0  0  0  0  0  0  0  0  0  0  0  0
  151.9162  137.7965  160.1459 H   0  0  0  0  0  0  0  0  0  0  0  0
  152.5072  137.0835  158.6476 H   0  0  0  0  0  0  0  0  0  0  0  0
  155.0309  138.7692  161.3537 H   0  0  0  0  0  0  0  0  0  0  0  0
  153.2789  138.8173  161.5158 H   0  0  0  0  0  0  0  0  0  0  0  0
  154.8360  135.6325  160.5628 H   0  0  0  0  0  0  0  0  0  0  0  0
  154.9635  133.6412  162.0414 H   0  0  0  0  0  0  0  0  0  0  0  0
  154.3784  133.8388  164.4522 H   0  0  0  0  0  0  0  0  0  0  0  0
  153.6556  136.0307  165.3807 H   0  0  0  0  0  0  0  0  0  0  0  0
  153.5234  138.0243  163.9088 H   0  0  0  0  0  0  0  0  0  0  0  0
  150.5877  139.0972  157.6887 H   0  0  0  0  0  0  0  0  0  0  0  0
  150.5126  139.6812  159.3346 H   0  0  0  0  0  0  0  0  0  0  0  0
  149.7640  141.0899  156.1437 H   0  0  0  0  0  0  0  0  0  0  0  0
  151.4237  145.5169  157.9576 H   0  0  0  0  0  0  0  0  0  0  0  0
  152.8135  145.5564  160.0344 H   0  0  0  0  0  0  0  0  0  0  0  0
  153.4131  143.4665  161.2011 H   0  0  0  0  0  0  0  0  0  0  0  0
  152.6463  141.2508  160.3499 H   0  0  0  0  0  0  0  0  0  0  0  0
  150.0932  143.6348  156.2210 H   0  0  0  0  0  0  0  0  0  0  0  0
  1  2  1  0  0  0  0
  1 22  1  0  0  0  0
  2  3  1  0  0  0  0
  2 12  1  0  0  0  0
  2 23  1  0  0  0  0
  3  4  1  0  0  0  0
  3 24  1  0  0  0  0
  3 25  1  0  0  0  0
  4  5  1  0  0  0  0
  5  6  1  0  0  0  0
  5 26  1  0  0  0  0
  5 27  1  0  0  0  0
  6 11  1  0  0  0  0
  6  7  2  0  0  0  0
  7  8  1  0  0  0  0
  7 28  1  0  0  0  0
  8  9  2  0  0  0  0
  8 29  1  0  0  0  0
  9 10  1  0  0  0  0
  9 30  1  0  0  0  0
 10 11  2  0  0  0  0
 10 31  1  0  0  0  0
 11 32  1  0  0  0  0
 12 13  1  0  0  0  0
 12 33  1  0  0  0  0
 12 34  1  0  0  0  0
 13 21  1  0  0  0  0
 13 14  1  0  0  0  0
 14 15  2  0  0  0  0
 14 35  1  0  0  0  0
 15 16  1  0  0  0  0
 15 40  1  0  0  0  0
 16 21  2  0  0  0  0
 16 17  1  0  0  0  0
 17 18  2  0  0  0  0
 17 36  1  0  0  0  0
 18 19  1  0  0  0  0
 18 37  1  0  0  0  0
 19 20  2  0  0  0  0
 19 38  1  0  0  0  0
 20 21  1  0  0  0  0
 20 39  1  0  0  0  0
M  CHG  1  15   1
M  END
> <s_m_source_file>
AV-unprocessed.smi

> <i_m_source_file_index>
2004

> <i_lp_mmshare_version>
43012

> <i_f3d_flags>
0

> <s_epik_input>
W2NIXTFbY0hdW2NIXVtjSF1jKGMxMiluKFtjSF1uMilbQ0gyXVtDQEhdKFtPSF0pW0NIMl1PW0NIMl1jM1tjSF1bY0hdW2NIXVtjSF1bY0hdMw==

> <s_epik_cmdline>
J2VwaWtfcHl0aG9uJywgJy1waCcsICc3LjAnLCAnLXRuJywgJzgnLCAnLW1hJywgJzIwMCcsICctbWV0YWxfYmluZGluZycsICctaW1hZScsICc8aW5maWxlLm1hZT4nLCAnLW9tYWUnLCAnPG91dGZpbGUubWFlPic=

> <r_epik_Ionization_Penalty>
1.28975

> <r_epik_Ionization_Penalty_Charging>
1.28975

> <r_epik_Ionization_Penalty_Neutral>
1.07667e-06

> <r_epik_State_Penalty>
1.36276

> <r_epik_Charging_Adjusted_Penalty>
2.65251

> <i_epik_Tot_Q>
1

> <i_epik_Tot_abs_Q>
1

> <r_epik_Metal_State_Penalty>
5.39298

> <b_epik_Metal_Only>
0

> <s_lp_Force_Field>
OPLS_2005

> <r_lp_Energy>
17.8954

> <b_lp_Chiralities_Consistent>
1

> <s_lp_Variant>
AV-unprocessed.smi:2004-3

> <Gold.Version>
5.8.1

> <Gold.Id.Protein>
6NUR|6NUR_protein|mol2

> <Gold.PLP.Fitness>
55.8126

> <Gold.PLP.PLP>
-48.8395

> <Gold.PLP.part.hbond>
-2.0000

> <Gold.PLP.part.metal>
0.0000

> <Gold.PLP.part.buried>
-6.1403

> <Gold.PLP.part.nonpolar>
-40.3541

> <Gold.PLP.part.repulsive>
0.0423

> <Gold.PLP.ligand.clash>
0.0000

> <Gold.PLP.ligand.torsion>
1.0608

> <Gold.PLP.Chemscore.Hbond>
2.9840

> <Gold.PLP.Chemscore.CHOScore>
0.0000

> <Gold.PLP.Chemscore.Metal>
0.0000

> <Gold.Chemscore.Hbonds>
donor molecule, donor type, donor heavy atom, donor atom, acceptor molecule, acceptor atom, score
      L1  H    15    40       P1  8028  2.00
      P1  H  7997  8008       L1     1  1.00

> <Gold.PLP.Chemscore.Internal.Correction>
0.1429

> <Gold.Rescore>
     Score         DG    S(hbond)    S(metal)    S(lipo)     H(rot)  DE(clash)    DE(int)     intcor
     20.83     -21.54       1.94        0.00     135.10       2.43       0.01       0.70       ----

> <Gold.Chemscore.Fitness>
20.8298

> <Gold.Chemscore.DG>
-21.5426

> <Gold.Chemscore.ZeroCoef>
-5.4800

> <Gold.Chemscore.Hbond>
1.9368

> <Gold.Chemscore.Metal>
0.0000

> <Gold.Chemscore.Lipo>
135.0974

> <Gold.Chemscore.Internal_Hbond>
0.0000

> <Gold.Chemscore.DEClash>
0.0089

> <Gold.Chemscore.DEInternal>
0.7040

> <Gold.Chemscore.Rot>
2.4269

> <Gold.Chemscore.Internal.Correction>
   9.000000E+99

> <Gold.Chemscore.Hbonds>
donor molecule, donor type, donor heavy atom, donor atom, acceptor molecule, acceptor atom, score
      L1  H    15    40       P1  8028  0.97
      P1  H  7997  8008       L1     1  0.80

> <Gold.Chemscore.Hbond.Weighted>
-6.4690

> <Gold.Chemscore.Metal.Weighted>
-0.0000

> <Gold.Chemscore.Lipo.Weighted>
-15.8064

> <Gold.Chemscore.Internal_Hbond.Weighted>
0.0000

> <Gold.Chemscore.DEClash.Weighted>
0.0089

> <Gold.Chemscore.DEInternal.Weighted>
0.7040

> <Gold.Chemscore.Rot.Weighted>
6.2127

> <Gold.Chemscore.Internal.Correction.Weighted>
   9.000000E+99

> <Gold.Protein.RotatedTorsions>
[ 6907 6896 6895 6894 ] final   31.46 input  -60.11 | X-H torsion
[ 7974 7965 7964 7962 ] final  151.06 input  175.53 | X-H torsion
[ 8008 7997 7996 7995 ] final  -56.01 input   59.86 | X-H torsion
[ 10167 10162 10161 10158 ] final  153.82 input  -65.29 | X-H torsion
[ 10718 10713 10712 10709 ] final   88.21 input   66.30 | X-H torsion
[ 10763 10752 10751 10750 ] final  176.85 input  -60.55 | X-H torsion
[ 11005 11000 10999 10996 ] final   78.77 input  -57.11 | X-H torsion

> <Gold.Protein.ActiveResidues>
 VAL166  LYS551  ARG553  GLY616  TRP617  ASP618  TYR619  PRO620  LYS621  CYS622 
 ASP623  PHE694  ASN695  SER759  ASP760  ASP761  ALA762  ILE779  LEU786  VAL792 
 PHE793  MET794  SER795  GLU796  ALA797  LYS798  CYS799  TRP800  GLU811  SER814 

> <Gold.Protein.RotatedAtoms>
  152.0607  134.9596  160.0574 H   0  0  0  0  0  0  0  0  0  0  0  0  # atno 6907 bound_to 6896
  152.0961  133.4220  159.4574 H   0  0  0  0  0  0  0  0  0  0  0  0  # atno 6908 bound_to 6896
  150.6838  134.2735  159.4641 H   0  0  0  0  0  0  0  0  0  0  0  0  # atno 6909 bound_to 6896
  144.8319  139.6489  143.6055 H   0  0  0  0  0  0  0  0  0  0  0  0  # atno 7974 bound_to 7965
  154.4215  140.1139  156.5569 H   0  0  0  0  0  0  0  0  0  0  0  0  # atno 8008 bound_to 7997
  155.6352  140.3496  155.4677 H   0  0  0  0  0  0  0  0  0  0  0  0  # atno 8009 bound_to 7997
  155.9916  140.1180  157.0623 H   0  0  0  0  0  0  0  0  0  0  0  0  # atno 8010 bound_to 7997
  139.4825  144.5240  151.7830 H   0  0  0  0  0  0  0  0  0  0  0  0  # atno 10167 bound_to 10162
  157.6947  131.0286  150.3240 H   0  0  0  0  0  0  0  0  0  0  0  0  # atno 10718 bound_to 10713
  154.4866  135.2777  155.1529 H   0  0  0  0  0  0  0  0  0  0  0  0  # atno 10763 bound_to 10752
  154.3218  135.6208  153.5515 H   0  0  0  0  0  0  0  0  0  0  0  0  # atno 10764 bound_to 10752
  152.9882  135.5744  154.5278 H   0  0  0  0  0  0  0  0  0  0  0  0  # atno 10765 bound_to 10752
  139.9199  134.7790  156.1692 H   0  0  0  0  0  0  0  0  0  0  0  0  # atno 11005 bound_to 11000
  146.2621  139.6435  142.9354 LP  0  0  0  0  0  0  0  0  0  0  0  0  # atno 17320 bound_to 7965
  145.4877  141.0438  143.2610 LP  0  0  0  0  0  0  0  0  0  0  0  0  # atno 17321 bound_to 7965
  140.4758  144.1522  150.5924 LP  0  0  0  0  0  0  0  0  0  0  0  0  # atno 17342 bound_to 10162
  140.4333  143.2558  151.9568 LP  0  0  0  0  0  0  0  0  0  0  0  0  # atno 17343 bound_to 10162
  156.3724  130.3866  149.7165 LP  0  0  0  0  0  0  0  0  0  0  0  0  # atno 17370 bound_to 10713
  156.4575  130.7936  151.2957 LP  0  0  0  0  0  0  0  0  0  0  0  0  # atno 17371 bound_to 10713
  141.0710  133.6797  156.2141 LP  0  0  0  0  0  0  0  0  0  0  0  0  # atno 17394 bound_to 11000
  140.6506  134.5071  157.5577 LP  0  0  0  0  0  0  0  0  0  0  0  0  # atno 17395 bound_to 11000

$$$$
