AV-unprocessed.smi:1288|AV-procd|sdf|5384|dock2
  -GOLD-   22720 4533D 1   1.00000     0.00000
 Structure written by MMmdl.
 43 45  0  0  0  0  0  0  0  0  2 V2000
  150.5039  141.3082  155.7834 C   0  0  0  0  0  0  0  0  0  0  0  0
  150.9935  141.9260  157.0499 C   0  0  0  0  0  0  0  0  0  0  0  0
  150.7294  143.1922  157.4789 N   0  3  0  0  0  0  0  0  0  0  0  0
  151.3568  143.4156  158.7052 C   0  0  0  0  0  0  0  0  0  0  0  0
  151.3798  144.5404  159.5241 C   0  0  0  0  0  0  0  0  0  0  0  0
  152.1243  144.4392  160.7174 C   0  0  0  0  0  0  0  0  0  0  0  0
  152.8094  143.2545  161.0568 C   0  0  0  0  0  0  0  0  0  0  0  0
  152.7780  142.1204  160.2188 C   0  0  0  0  0  0  0  0  0  0  0  0
  152.0378  142.2272  159.0413 C   0  0  0  0  0  0  0  0  0  0  0  0
  151.7836  141.3356  157.9915 N   0  0  0  0  0  0  0  0  0  0  0  0
  152.3542  139.9791  158.0274 C   0  0  0  0  0  0  0  0  0  0  0  0
  151.4947  138.9880  158.8375 C   0  0  1  0  0  0  0  0  0  0  0  0
  150.4918  138.4462  158.0012 O   0  0  0  0  0  0  0  0  0  0  0  0
  152.3330  137.8298  159.4002 C   0  0  0  0  0  0  0  0  0  0  0  0
  153.2185  138.3395  160.3835 O   0  0  0  0  0  0  0  0  0  0  0  0
  153.6178  137.3596  161.3268 C   0  0  0  0  0  0  0  0  0  0  0  0
  154.3808  137.9848  162.4780 C   0  0  0  0  0  0  0  0  0  0  0  0
  154.9259  139.2790  162.3409 C   0  0  0  0  0  0  0  0  0  0  0  0
  155.6307  139.8680  163.4088 C   0  0  0  0  0  0  0  0  0  0  0  0
  155.7935  139.1650  164.6178 C   0  0  0  0  0  0  0  0  0  0  0  0
  155.2490  137.8741  164.7596 C   0  0  0  0  0  0  0  0  0  0  0  0
  154.5420  137.2842  163.6933 C   0  0  0  0  0  0  0  0  0  0  0  0
  154.0177  136.0440  163.8431 F   0  0  0  0  0  0  0  0  0  0  0  0
  149.9264  142.0282  155.2031 H   0  0  0  0  0  0  0  0  0  0  0  0
  149.8680  140.4511  156.0051 H   0  0  0  0  0  0  0  0  0  0  0  0
  151.3456  140.9714  155.1783 H   0  0  0  0  0  0  0  0  0  0  0  0
  150.8575  145.4498  159.2651 H   0  0  0  0  0  0  0  0  0  0  0  0
  152.1722  145.2877  161.3847 H   0  0  0  0  0  0  0  0  0  0  0  0
  153.3722  143.2146  161.9781 H   0  0  0  0  0  0  0  0  0  0  0  0
  153.3129  141.2212  160.4859 H   0  0  0  0  0  0  0  0  0  0  0  0
  152.5148  139.6254  157.0089 H   0  0  0  0  0  0  0  0  0  0  0  0
  153.3449  140.0622  158.4757 H   0  0  0  0  0  0  0  0  0  0  0  0
  151.0166  139.5234  159.6588 H   0  0  0  0  0  0  0  0  0  0  0  0
  150.8796  138.2496  157.1616 H   0  0  0  0  0  0  0  0  0  0  0  0
  151.6965  137.0407  159.8047 H   0  0  0  0  0  0  0  0  0  0  0  0
  152.9291  137.3862  158.6009 H   0  0  0  0  0  0  0  0  0  0  0  0
  152.7434  136.8354  161.7158 H   0  0  0  0  0  0  0  0  0  0  0  0
  154.2464  136.6106  160.8426 H   0  0  0  0  0  0  0  0  0  0  0  0
  154.8035  139.8246  161.4167 H   0  0  0  0  0  0  0  0  0  0  0  0
  156.0455  140.8593  163.3005 H   0  0  0  0  0  0  0  0  0  0  0  0
  156.3344  139.6161  165.4366 H   0  0  0  0  0  0  0  0  0  0  0  0
  155.3721  137.3360  165.6878 H   0  0  0  0  0  0  0  0  0  0  0  0
  150.1609  143.8546  156.9672 H   0  0  0  0  0  0  0  0  0  0  0  0
  1  2  1  0  0  0  0
  1 24  1  0  0  0  0
  1 25  1  0  0  0  0
  1 26  1  0  0  0  0
  2 10  1  0  0  0  0
  2  3  2  0  0  0  0
  3  4  1  0  0  0  0
  3 43  1  0  0  0  0
  4  9  2  0  0  0  0
  4  5  1  0  0  0  0
  5  6  2  0  0  0  0
  5 27  1  0  0  0  0
  6  7  1  0  0  0  0
  6 28  1  0  0  0  0
  7  8  2  0  0  0  0
  7 29  1  0  0  0  0
  8  9  1  0  0  0  0
  8 30  1  0  0  0  0
  9 10  1  0  0  0  0
 10 11  1  0  0  0  0
 11 12  1  0  0  0  0
 11 31  1  0  0  0  0
 11 32  1  0  0  0  0
 12 13  1  0  0  0  0
 12 14  1  0  0  0  0
 12 33  1  0  0  0  0
 13 34  1  0  0  0  0
 14 15  1  0  0  0  0
 14 35  1  0  0  0  0
 14 36  1  0  0  0  0
 15 16  1  0  0  0  0
 16 17  1  0  0  0  0
 16 37  1  0  0  0  0
 16 38  1  0  0  0  0
 17 22  1  0  0  0  0
 17 18  2  0  0  0  0
 18 19  1  0  0  0  0
 18 39  1  0  0  0  0
 19 20  2  0  0  0  0
 19 40  1  0  0  0  0
 20 21  1  0  0  0  0
 20 41  1  0  0  0  0
 21 22  2  0  0  0  0
 21 42  1  0  0  0  0
 22 23  1  0  0  0  0
M  CHG  1   3   1
M  END
> <s_m_source_file>
AV-unprocessed.smi

> <i_m_source_file_index>
1288

> <i_lp_mmshare_version>
43012

> <i_f3d_flags>
0

> <s_epik_input>
W2NIXTFbY0hdW2NIXVtjSF1jKGMxMiluKGMobjIpW0NIM10pW0NIMl1bQ0BIXShbT0hdKVtDSDJdT1tDSDJdYzNbY0hdW2NIXVtjSF1bY0hdYzNG

> <s_epik_cmdline>
J2VwaWtfcHl0aG9uJywgJy1waCcsICc3LjAnLCAnLXRuJywgJzgnLCAnLW1hJywgJzIwMCcsICctbWV0YWxfYmluZGluZycsICctaW1hZScsICc8aW5maWxlLm1hZT4nLCAnLW9tYWUnLCAnPG91dGZpbGUubWFlPic=

> <r_epik_Ionization_Penalty>
0.952

> <r_epik_Ionization_Penalty_Charging>
0.951999

> <r_epik_Ionization_Penalty_Neutral>
1.07667e-06

> <r_epik_State_Penalty>
0.996343

> <r_epik_Charging_Adjusted_Penalty>
1.94834

> <i_epik_Tot_Q>
1

> <i_epik_Tot_abs_Q>
1

> <r_epik_Metal_State_Penalty>
4.96724

> <b_epik_Metal_Only>
0

> <s_lp_Force_Field>
OPLS_2005

> <r_lp_Energy>
19.2213

> <b_lp_Chiralities_Consistent>
1

> <s_lp_Variant>
AV-unprocessed.smi:1288-4

> <Gold.Version>
5.8.1

> <Gold.Id.Protein>
6NUR|6NUR_protein|mol2

> <Gold.PLP.Fitness>
56.1305

> <Gold.PLP.PLP>
-52.1538

> <Gold.PLP.part.hbond>
-1.0000

> <Gold.PLP.part.metal>
0.0000

> <Gold.PLP.part.buried>
-7.0685

> <Gold.PLP.part.nonpolar>
-44.5241

> <Gold.PLP.part.repulsive>
0.0056

> <Gold.PLP.ligand.clash>
0.0000

> <Gold.PLP.ligand.torsion>
1.0668

> <Gold.PLP.Chemscore.Hbond>
2.0000

> <Gold.PLP.Chemscore.CHOScore>
0.0000

> <Gold.PLP.Chemscore.Metal>
0.0000

> <Gold.Chemscore.Hbonds>
donor molecule, donor type, donor heavy atom, donor atom, acceptor molecule, acceptor atom, score
      L1  H     3    43       P1  8028  2.00

> <Gold.PLP.Chemscore.Internal.Correction>
0.1103

> <Gold.Rescore>
     Score         DG    S(hbond)    S(metal)    S(lipo)     H(rot)  DE(clash)    DE(int)     intcor
     18.11     -19.09       1.00        0.00     139.91       2.38       0.05       0.93       ----

> <Gold.Chemscore.Fitness>
18.1132

> <Gold.Chemscore.DG>
-19.0925

> <Gold.Chemscore.ZeroCoef>
-5.4800

> <Gold.Chemscore.Hbond>
0.9994

> <Gold.Chemscore.Metal>
0.0000

> <Gold.Chemscore.Lipo>
139.9101

> <Gold.Chemscore.Internal_Hbond>
0.0000

> <Gold.Chemscore.DEClash>
0.0502

> <Gold.Chemscore.DEInternal>
0.9292

> <Gold.Chemscore.Rot>
2.3809

> <Gold.Chemscore.Internal.Correction>
   9.000000E+99

> <Gold.Chemscore.Hbonds>
donor molecule, donor type, donor heavy atom, donor atom, acceptor molecule, acceptor atom, score
      L1  H     3    43       P1  8028  0.94

> <Gold.Chemscore.Hbond.Weighted>
-3.3381

> <Gold.Chemscore.Metal.Weighted>
-0.0000

> <Gold.Chemscore.Lipo.Weighted>
-16.3695

> <Gold.Chemscore.Internal_Hbond.Weighted>
0.0000

> <Gold.Chemscore.DEClash.Weighted>
0.0502

> <Gold.Chemscore.DEInternal.Weighted>
0.9292

> <Gold.Chemscore.Rot.Weighted>
6.0951

> <Gold.Chemscore.Internal.Correction.Weighted>
   9.000000E+99

> <Gold.Protein.RotatedTorsions>
[ 6907 6896 6895 6894 ] final    6.87 input  -60.11 | X-H torsion
[ 7974 7965 7964 7962 ] final -152.83 input  175.53 | X-H torsion
[ 8008 7997 7996 7995 ] final    0.46 input   59.86 | X-H torsion
[ 10167 10162 10161 10158 ] final  -96.39 input  -65.29 | X-H torsion
[ 10718 10713 10712 10709 ] final  105.83 input   66.30 | X-H torsion
[ 10763 10752 10751 10750 ] final  -10.29 input  -60.55 | X-H torsion
[ 11005 11000 10999 10996 ] final  142.60 input  -57.11 | X-H torsion

> <Gold.Protein.ActiveResidues>
 VAL166  LYS551  ARG553  GLY616  TRP617  ASP618  TYR619  PRO620  LYS621  CYS622 
 ASP623  PHE694  ASN695  SER759  ASP760  ASP761  ALA762  ILE779  LEU786  VAL792 
 PHE793  MET794  SER795  GLU796  ALA797  LYS798  CYS799  TRP800  GLU811  SER814 

> <Gold.Protein.RotatedAtoms>
  151.6807  135.0962  160.0215 H   0  0  0  0  0  0  0  0  0  0  0  0  # atno 6907 bound_to 6896
  152.3837  133.6577  159.6190 H   0  0  0  0  0  0  0  0  0  0  0  0  # atno 6908 bound_to 6896
  150.7768  133.8988  159.3376 H   0  0  0  0  0  0  0  0  0  0  0  0  # atno 6909 bound_to 6896
  144.7773  140.4609  143.5864 H   0  0  0  0  0  0  0  0  0  0  0  0  # atno 7974 bound_to 7965
  154.6684  140.2606  155.7033 H   0  0  0  0  0  0  0  0  0  0  0  0  # atno 8008 bound_to 7997
  156.2648  140.2834  156.1105 H   0  0  0  0  0  0  0  0  0  0  0  0  # atno 8009 bound_to 7997
  155.1205  140.0377  157.2739 H   0  0  0  0  0  0  0  0  0  0  0  0  # atno 8010 bound_to 7997
  140.2943  143.3202  152.0314 H   0  0  0  0  0  0  0  0  0  0  0  0  # atno 10167 bound_to 10162
  157.6691  131.0837  150.5916 H   0  0  0  0  0  0  0  0  0  0  0  0  # atno 10718 bound_to 10713
  153.4671  135.7016  153.6015 H   0  0  0  0  0  0  0  0  0  0  0  0  # atno 10763 bound_to 10752
  153.4285  135.3808  155.2156 H   0  0  0  0  0  0  0  0  0  0  0  0  # atno 10764 bound_to 10752
  154.8726  135.3945  154.4104 H   0  0  0  0  0  0  0  0  0  0  0  0  # atno 10765 bound_to 10752
  140.0490  134.9266  157.0982 H   0  0  0  0  0  0  0  0  0  0  0  0  # atno 11005 bound_to 11000
  145.6149  139.1517  143.3055 LP  0  0  0  0  0  0  0  0  0  0  0  0  # atno 17320 bound_to 7965
  146.1960  140.6263  142.9124 LP  0  0  0  0  0  0  0  0  0  0  0  0  # atno 17321 bound_to 7965
  139.4930  144.6502  151.6691 LP  0  0  0  0  0  0  0  0  0  0  0  0  # atno 17342 bound_to 10162
  140.5706  144.0116  150.6214 LP  0  0  0  0  0  0  0  0  0  0  0  0  # atno 17343 bound_to 10162
  156.6216  130.4407  149.5820 LP  0  0  0  0  0  0  0  0  0  0  0  0  # atno 17370 bound_to 10713
  156.2351  130.6818  151.1501 LP  0  0  0  0  0  0  0  0  0  0  0  0  # atno 17371 bound_to 10713
  140.3948  134.2145  155.7165 LP  0  0  0  0  0  0  0  0  0  0  0  0  # atno 17394 bound_to 11000
  141.1921  133.8181  157.0853 LP  0  0  0  0  0  0  0  0  0  0  0  0  # atno 17395 bound_to 11000

$$$$
