#       Name:                AV-unprocessed.smi:1852
#       Creating user name   scv26
#       Creation time:       Fri Mar 27 09:23:31 2020


#       File generated by GOLD software.
#

@<TRIPOS>MOLECULE
AV-unprocessed.smi:1852
    50    52     1
SMALL
NO_CHARGES


@<TRIPOS>ATOM
      1 ****        -0.1580   5.5421   1.3246 C.3            1 S1                 0.0000
      2 ****        -0.9177   4.2405   1.1705 C.ar           1 S1                 0.0000
      3 ****        -2.3193   4.2464   1.0315 C.ar           1 S1                 0.0000
      4 ****        -3.0159   3.0329   0.8883 C.ar           1 S1                 0.0000
      5 ****        -2.3174   1.8078   0.8823 C.ar           1 S1                 0.0000
      6 ****        -3.0838   0.5082   0.7223 C.3            1 S1                 0.0000
      7 ****        -0.9102   1.7879   1.0195 C.ar           1 S1                 0.0000
      8 ****        -0.2899   0.5563   1.0067 O.3            1 S1                 0.0000
      9 ****         1.1299   0.5070   1.0444 C.3            1 S1                 0.0000
     10 ****         1.5873  -0.9558   0.9492 C.3            1 S1                 0.0000
     11 ****         1.0846  -1.6107  -0.2504 N.pl3          1 S1                 0.0000
     12 ****         1.6608  -1.6775  -1.4773 C.2            1 S1                 0.0000
     13 ****         2.9919  -1.0502  -1.7749 C.3            1 S1                 0.0000
     14 ****         4.0557  -1.9202  -1.2832 N.am           1 S1                 0.0000
     15 ****         4.5549  -2.9765  -1.9406 C.2            1 S1                 0.0000
     16 ****         4.1823  -3.3447  -3.0533 O.2            1 S1                 0.0000
     17 ****         0.9688  -2.3367  -2.4074 N.2            1 S1                 0.0000
     18 ****        -0.1598  -2.7381  -1.7204 C.ar           1 S1                 0.0000
     19 ****        -1.2835  -3.4779  -2.1528 C.ar           1 S1                 0.0000
     20 ****        -2.3344  -3.7681  -1.2581 C.ar           1 S1                 0.0000
     21 ****        -2.2765  -3.3247   0.0790 C.ar           1 S1                 0.0000
     22 ****        -1.1642  -2.5891   0.5307 C.ar           1 S1                 0.0000
     23 ****        -0.1185  -2.3005  -0.3666 C.ar           1 S1                 0.0000
     24 ****        -0.2177   3.0171   1.1635 C.ar           1 S1                 0.0000
     25 ****        -0.8364   6.3900   1.4237 H              1 S1                 0.0000
     26 ****         0.4770   5.7124   0.4550 H              1 S1                 0.0000
     27 ****         0.4752   5.5099   2.2117 H              1 S1                 0.0000
     28 ****        -2.8650   5.1787   1.0337 H              1 S1                 0.0000
     29 ****        -4.0907   3.0476   0.7816 H              1 S1                 0.0000
     30 ****        -2.9086  -0.1435   1.5788 H              1 S1                 0.0000
     31 ****        -2.7594  -0.0134  -0.1788 H              1 S1                 0.0000
     32 ****        -4.1571   0.6834   0.6446 H              1 S1                 0.0000
     33 ****         1.5473   1.0781   0.2138 H              1 S1                 0.0000
     34 ****         1.4990   0.9427   1.9738 H              1 S1                 0.0000
     35 ****         2.6751  -1.0168   0.9702 H              1 S1                 0.0000
     36 ****         1.2353  -1.5116   1.8187 H              1 S1                 0.0000
     37 ****         3.0913  -0.8795  -2.8483 H              1 S1                 0.0000
     38 ****         3.0634  -0.0755  -1.2933 H              1 S1                 0.0000
     39 ****         4.4352  -1.7068  -0.3725 H              1 S1                 0.0000
     40 ****         5.3424  -3.4690  -1.3496 H              1 S1                 0.0000
     41 ****        -1.3374  -3.8214  -3.1752 H              1 S1                 0.0000
     42 ****        -3.1893  -4.3332  -1.5995 H              1 S1                 0.0000
     43 ****        -3.0863  -3.5486   0.7575 H              1 S1                 0.0000
     44 ****        -1.1184  -2.2446   1.5530 H              1 S1                 0.0000
     45 ****         0.8558   3.0464   1.2725 H              1 S1                 0.0000
     46 ****        -0.5785   0.0900   0.1705 LP             1 S1                 0.0000
     47 ****        -0.6232   0.0505   1.8024 LP             1 S1                 0.0000
     48 ****         3.4589  -2.8445  -3.5292 LP             1 S1                 0.0000
     49 ****         4.6028  -4.1443  -3.4821 LP             1 S1                 0.0000
     50 ****         1.2079  -2.4998  -3.3646 LP             1 S1                 0.0000
@<TRIPOS>BOND
    1    1    2 1     
    2    1   25 1     
    3    1   26 1     
    4    1   27 1     
    5    2   24 ar    
    6    2    3 ar    
    7    3    4 ar    
    8    3   28 1     
    9    4    5 ar    
   10    4   29 1     
   11    5    6 1     
   12    5    7 ar    
   13    6   30 1     
   14    6   31 1     
   15    6   32 1     
   16    7    8 1     
   17    7   24 ar    
   18    8    9 1     
   19    9   10 1     
   20    9   33 1     
   21    9   34 1     
   22   10   11 1     
   23   10   35 1     
   24   10   36 1     
   25   11   23 1     
   26   11   12 1     
   27   12   13 1     
   28   12   17 2     
   29   13   14 1     
   30   13   37 1     
   31   13   38 1     
   32   14   15 am    
   33   14   39 1     
   34   15   16 2     
   35   15   40 1     
   36   17   18 1     
   37   18   23 ar    
   38   18   19 ar    
   39   19   20 ar    
   40   19   41 1     
   41   20   21 ar    
   42   20   42 1     
   43   21   22 ar    
   44   21   43 1     
   45   22   23 ar    
   46   22   44 1     
   47   24   45 1     
   48    8   46 1     
   49    8   47 1     
   50   16   48 1     
   51   16   49 1     
   52   17   50 1     
@<TRIPOS>SUBSTRUCTURE
      1 S1             1
@<TRIPOS>SET
LONE_PAIRS      STATIC     ATOMS    <user>   **** ""
5 46 47 48 49 50
DONOR_HYDROGENS      STATIC     ATOMS    <user>   **** ""
1 39
ATOM$BLUE        STATIC     ATOMS    COLORGROUP SYSTEM
5 46 47 48 49 50
ATOM$RED        STATIC     ATOMS    COLORGROUP SYSTEM
1 39
