AV-unprocessed.smi:1696|AV-procd|sdf|6802|dock1
  -GOLD-   22720 7573D 1   1.00000     0.00000
 Structure written by MMmdl.
 38 39  0  0  0  0  0  0  0  0  3 V2000
  149.8867  131.6295  154.5729 C   0  0  0  0  0  0  0  0  0  0  0  0
  148.7596  132.4540  155.2148 C   0  0  0  0  0  0  0  0  0  0  0  0
  148.7338  133.9507  154.8014 C   0  0  1  0  0  0  0  0  0  0  0  0
  150.1474  134.5874  154.7738 C   0  0  0  0  0  0  0  0  0  0  0  0
  150.1031  135.9971  154.3954 N   0  0  0  0  0  0  0  0  0  0  0  0
  150.8630  136.9832  154.8925 C   0  0  0  0  0  0  0  0  0  0  0  0
  151.7207  136.7372  155.7432 O   0  0  0  0  0  0  0  0  0  0  0  0
  150.5765  138.1970  154.3714 N   0  5  0  0  0  0  0  0  0  0  0  0
  150.6192  139.2897  155.1510 C   0  0  0  0  0  0  0  0  0  0  0  0
  150.1284  140.4758  154.7733 N   0  0  0  0  0  0  0  0  0  0  0  0
  150.2851  141.4733  155.7373 C   0  0  0  0  0  0  0  0  0  0  0  0
  150.9181  141.0390  156.8717 C   0  0  0  0  0  0  0  0  0  0  0  0
  151.3384  139.3534  156.7625 S   0  0  0  0  0  0  0  0  0  0  0  0
  148.0145  134.1348  153.5066 N   0  3  0  0  0  0  0  0  0  0  0  0
  148.1726  133.0268  152.5297 C   0  0  0  0  0  0  0  0  0  0  0  0
  146.8243  132.8513  151.8170 C   0  0  0  0  0  0  0  0  0  0  0  0
  146.0080  134.0726  152.2232 C   0  0  0  0  0  0  0  0  0  0  0  0
  146.5643  134.4104  153.6011 C   0  0  0  0  0  0  0  0  0  0  0  0
  149.8293  130.5892  154.8936 H   0  0  0  0  0  0  0  0  0  0  0  0
  150.8706  132.0014  154.8566 H   0  0  0  0  0  0  0  0  0  0  0  0
  149.8235  131.6413  153.4849 H   0  0  0  0  0  0  0  0  0  0  0  0
  147.8061  131.9828  154.9781 H   0  0  0  0  0  0  0  0  0  0  0  0
  148.8420  132.3723  156.2989 H   0  0  0  0  0  0  0  0  0  0  0  0
  148.1608  134.4862  155.5604 H   0  0  0  0  0  0  0  0  0  0  0  0
  150.6484  134.4377  155.7311 H   0  0  0  0  0  0  0  0  0  0  0  0
  150.7746  134.0997  154.0279 H   0  0  0  0  0  0  0  0  0  0  0  0
  149.4215  136.2573  153.6975 H   0  0  0  0  0  0  0  0  0  0  0  0
  149.9175  142.4675  155.5303 H   0  0  0  0  0  0  0  0  0  0  0  0
  151.1629  141.6032  157.7588 H   0  0  0  0  0  0  0  0  0  0  0  0
  148.9638  133.2829  151.8244 H   0  0  0  0  0  0  0  0  0  0  0  0
  148.4524  132.0920  153.0179 H   0  0  0  0  0  0  0  0  0  0  0  0
  146.9290  132.7608  150.7353 H   0  0  0  0  0  0  0  0  0  0  0  0
  146.3339  131.9462  152.1786 H   0  0  0  0  0  0  0  0  0  0  0  0
  146.2008  134.8953  151.5332 H   0  0  0  0  0  0  0  0  0  0  0  0
  144.9341  133.8837  152.2326 H   0  0  0  0  0  0  0  0  0  0  0  0
  146.1126  133.7572  154.3498 H   0  0  0  0  0  0  0  0  0  0  0  0
  146.3620  135.4450  153.8801 H   0  0  0  0  0  0  0  0  0  0  0  0
  148.4158  134.9512  153.0674 H   0  0  0  0  0  0  0  0  0  0  0  0
  1  2  1  0  0  0  0
  1 19  1  0  0  0  0
  1 20  1  0  0  0  0
  1 21  1  0  0  0  0
  2  3  1  0  0  0  0
  2 22  1  0  0  0  0
  2 23  1  0  0  0  0
  3  4  1  0  0  0  0
  3 14  1  0  0  0  0
  3 24  1  0  0  0  0
  4  5  1  0  0  0  0
  4 25  1  0  0  0  0
  4 26  1  0  0  0  0
  5  6  1  0  0  0  0
  5 27  1  0  0  0  0
  6  7  2  0  0  0  0
  6  8  1  0  0  0  0
  8  9  1  0  0  0  0
  9 13  1  0  0  0  0
  9 10  2  0  0  0  0
 10 11  1  0  0  0  0
 11 12  2  0  0  0  0
 11 28  1  0  0  0  0
 12 13  1  0  0  0  0
 12 29  1  0  0  0  0
 14 18  1  0  0  0  0
 14 15  1  0  0  0  0
 14 38  1  0  0  0  0
 15 16  1  0  0  0  0
 15 30  1  0  0  0  0
 15 31  1  0  0  0  0
 16 17  1  0  0  0  0
 16 32  1  0  0  0  0
 16 33  1  0  0  0  0
 17 18  1  0  0  0  0
 17 34  1  0  0  0  0
 17 35  1  0  0  0  0
 18 36  1  0  0  0  0
 18 37  1  0  0  0  0
M  CHG  1   8  -1
M  CHG  1  14   1
M  END
> <s_m_source_file>
AV-unprocessed.smi

> <i_m_source_file_index>
1696

> <i_lp_mmshare_version>
43012

> <i_f3d_flags>
0

> <s_epik_input>
W0NIMl0xW0NIMl1bQ0gyXVtDSDJdTjFbQ0BIXShbQ0gyXVtDSDNdKVtDSDJdW05IXUMoPU8pW05IXWMybltjSF1bY0hdczI=

> <s_epik_cmdline>
J2VwaWtfcHl0aG9uJywgJy1waCcsICc3LjAnLCAnLXRuJywgJzgnLCAnLW1hJywgJzIwMCcsICctbWV0YWxfYmluZGluZycsICctaW1hZScsICc8aW5maWxlLm1hZT4nLCAnLW9tYWUnLCAnPG91dGZpbGUubWFlPic=

> <r_lp_tautomer_probability>
1

> <r_epik_Ionization_Penalty>
7.71903

> <r_epik_Ionization_Penalty_Charging>
6.3282

> <r_epik_Ionization_Penalty_Neutral>
1.39083

> <r_epik_State_Penalty>
6.32705

> <r_epik_Charging_Adjusted_Penalty>
12.6552

> <i_epik_Tot_Q>
0

> <i_epik_Tot_abs_Q>
2

> <r_epik_Metal_State_Penalty>
2.26116

> <b_epik_Metal_Only>
1

> <s_lp_Force_Field>
OPLS_2005

> <r_lp_Energy>
23.2163

> <b_lp_Chiralities_Consistent>
1

> <s_lp_Variant>
AV-unprocessed.smi:1696-4

> <Gold.Version>
5.8.1

> <Gold.Id.Protein>
6NUR|6NUR_protein|mol2

> <Gold.PLP.Fitness>
45.4419

> <Gold.PLP.PLP>
-30.4549

> <Gold.PLP.part.hbond>
-4.8169

> <Gold.PLP.part.metal>
0.0000

> <Gold.PLP.part.buried>
-3.6313

> <Gold.PLP.part.nonpolar>
-23.2905

> <Gold.PLP.part.repulsive>
0.4156

> <Gold.PLP.ligand.clash>
0.0000

> <Gold.PLP.ligand.torsion>
1.5008

> <Gold.PLP.Chemscore.Hbond>
4.8712

> <Gold.PLP.Chemscore.CHOScore>
0.9685

> <Gold.PLP.Chemscore.Metal>
0.0000

> <Gold.Chemscore.Hbonds>
donor molecule, donor type, donor heavy atom, donor atom, acceptor molecule, acceptor atom, score
      L1  H     5    27       P1  7948  0.90
      L1  H    14    38       P1  7948  2.00
      P1  H  7989  7998       L1    10  0.71
      P1  H 10752 10763       L1     7  1.00
      L1  C    11    28       P1  8028  1.00

> <Gold.PLP.Chemscore.Internal.Correction>
0.4695

> <Gold.Rescore>
     Score         DG    S(hbond)    S(metal)    S(lipo)     H(rot)  DE(clash)    DE(int)     intcor
     15.82     -18.55       3.38        0.00      52.92       1.73       0.09       2.64       ----

> <Gold.Chemscore.Fitness>
15.8207

> <Gold.Chemscore.DG>
-18.5498

> <Gold.Chemscore.ZeroCoef>
-5.4800

> <Gold.Chemscore.Hbond>
3.3831

> <Gold.Chemscore.Metal>
0.0000

> <Gold.Chemscore.Lipo>
52.9174

> <Gold.Chemscore.Internal_Hbond>
0.0000

> <Gold.Chemscore.DEClash>
0.0928

> <Gold.Chemscore.DEInternal>
2.6363

> <Gold.Chemscore.Rot>
1.7270

> <Gold.Chemscore.Internal.Correction>
   9.000000E+99

> <Gold.Chemscore.Hbonds>
donor molecule, donor type, donor heavy atom, donor atom, acceptor molecule, acceptor atom, score
      L1  H     5    27       P1  7948  0.66
      L1  H    14    38       P1  7948  0.74
      P1  H  7989  7998       L1    10  0.03
      P1  H 10752 10763       L1     7  0.71

> <Gold.Chemscore.Hbond.Weighted>
-11.2997

> <Gold.Chemscore.Metal.Weighted>
-0.0000

> <Gold.Chemscore.Lipo.Weighted>
-6.1913

> <Gold.Chemscore.Internal_Hbond.Weighted>
0.0000

> <Gold.Chemscore.DEClash.Weighted>
0.0928

> <Gold.Chemscore.DEInternal.Weighted>
2.6363

> <Gold.Chemscore.Rot.Weighted>
4.4212

> <Gold.Chemscore.Internal.Correction.Weighted>
   9.000000E+99

> <Gold.Protein.RotatedTorsions>
[ 6907 6896 6895 6894 ] final -141.22 input  -60.11 | X-H torsion
[ 7974 7965 7964 7962 ] final -149.86 input  175.53 | X-H torsion
[ 8008 7997 7996 7995 ] final  -67.57 input   59.86 | X-H torsion
[ 10167 10162 10161 10158 ] final   23.34 input  -65.29 | X-H torsion
[ 10718 10713 10712 10709 ] final  129.66 input   66.30 | X-H torsion
[ 10763 10752 10751 10750 ] final   84.59 input  -60.55 | X-H torsion
[ 11005 11000 10999 10996 ] final   -4.86 input  -57.11 | X-H torsion

> <Gold.Protein.ActiveResidues>
 VAL166  LYS551  ARG553  GLY616  TRP617  ASP618  TYR619  PRO620  LYS621  CYS622 
 ASP623  PHE694  ASN695  SER759  ASP760  ASP761  ALA762  ILE779  LEU786  VAL792 
 PHE793  MET794  SER795  GLU796  ALA797  LYS798  CYS799  TRP800  GLU811  SER814 

> <Gold.Protein.RotatedAtoms>
  151.0709  133.5467  159.2626 H   0  0  0  0  0  0  0  0  0  0  0  0  # atno 6907 bound_to 6896
  151.2406  135.0587  159.9033 H   0  0  0  0  0  0  0  0  0  0  0  0  # atno 6908 bound_to 6896
  152.5411  134.0485  159.8153 H   0  0  0  0  0  0  0  0  0  0  0  0  # atno 6909 bound_to 6896
  144.7942  140.5009  143.5752 H   0  0  0  0  0  0  0  0  0  0  0  0  # atno 7974 bound_to 7965
  154.4809  140.0890  156.7374 H   0  0  0  0  0  0  0  0  0  0  0  0  # atno 8008 bound_to 7997
  155.4474  140.3456  155.4278 H   0  0  0  0  0  0  0  0  0  0  0  0  # atno 8009 bound_to 7997
  156.1189  140.1468  156.9221 H   0  0  0  0  0  0  0  0  0  0  0  0  # atno 8010 bound_to 7997
  140.5276  143.9896  150.6449 H   0  0  0  0  0  0  0  0  0  0  0  0  # atno 10167 bound_to 10162
  157.5134  131.1097  150.9260 H   0  0  0  0  0  0  0  0  0  0  0  0  # atno 10718 bound_to 10713
  153.1396  135.4648  154.9476 H   0  0  0  0  0  0  0  0  0  0  0  0  # atno 10763 bound_to 10752
  154.7736  135.3166  154.8141 H   0  0  0  0  0  0  0  0  0  0  0  0  # atno 10764 bound_to 10752
  153.8667  135.6907  153.4832 H   0  0  0  0  0  0  0  0  0  0  0  0  # atno 10765 bound_to 10752
  140.6849  133.9121  155.8579 H   0  0  0  0  0  0  0  0  0  0  0  0  # atno 11005 bound_to 11000
  145.5716  139.1484  143.3285 LP  0  0  0  0  0  0  0  0  0  0  0  0  # atno 17320 bound_to 7965
  146.2204  140.5849  142.9019 LP  0  0  0  0  0  0  0  0  0  0  0  0  # atno 17321 bound_to 7965
  140.3262  143.3106  152.0734 LP  0  0  0  0  0  0  0  0  0  0  0  0  # atno 17342 bound_to 10162
  139.4943  144.6540  151.6613 LP  0  0  0  0  0  0  0  0  0  0  0  0  # atno 17343 bound_to 10162
  156.9893  130.5557  149.5302 LP  0  0  0  0  0  0  0  0  0  0  0  0  # atno 17370 bound_to 10713
  156.0304  130.5395  150.8519 LP  0  0  0  0  0  0  0  0  0  0  0  0  # atno 17371 bound_to 10713
  141.0288  134.0785  157.4038 LP  0  0  0  0  0  0  0  0  0  0  0  0  # atno 17394 bound_to 11000
  139.8940  135.0134  156.6931 LP  0  0  0  0  0  0  0  0  0  0  0  0  # atno 17395 bound_to 11000

$$$$
