AV-unprocessed.smi:1605|AV-procd|sdf|6454|dock10
  -GOLD-   22720 7103D 1   1.00000     0.00000
 Structure written by MMmdl.
 51 53  0  0  0  0  0  0  0  0  2 V2000
  142.8114  136.1777  152.9074 C   0  0  0  0  0  0  0  0  0  0  0  0
  143.9917  136.3495  153.6765 O   0  0  0  0  0  0  0  0  0  0  0  0
  145.1634  135.8014  153.0835 C   0  0  2  0  0  0  0  0  0  0  0  0
  146.2608  135.7534  154.1572 C   0  0  0  0  0  0  0  0  0  0  0  0
  146.7185  137.1643  154.5661 C   0  0  0  0  0  0  0  0  0  0  0  0
  147.1741  137.9425  153.3860 N   0  3  2  0  0  0  0  0  0  0  0  0
  147.7812  139.2444  153.7641 C   0  0  0  0  0  0  0  0  0  0  0  0
  149.1521  139.1159  154.4725 C   0  0  1  0  0  0  0  0  0  0  0  0
  149.9863  138.3446  153.6346 O   0  0  0  0  0  0  0  0  0  0  0  0
  149.8784  140.4528  154.7420 C   0  0  0  0  0  0  0  0  0  0  0  0
  150.8565  140.3590  155.8105 N   0  0  0  0  0  0  0  0  0  0  0  0
  151.7548  139.3735  156.0001 C   0  0  0  0  0  0  0  0  0  0  0  0
  152.5409  139.4650  157.0683 N   0  0  0  0  0  0  0  0  0  0  0  0
  152.1146  140.6561  157.6291 C   0  0  0  0  0  0  0  0  0  0  0  0
  152.5385  141.3222  158.7994 C   0  0  0  0  0  0  0  0  0  0  0  0
  151.9406  142.5391  159.1969 C   0  0  0  0  0  0  0  0  0  0  0  0
  152.4226  143.2179  160.4669 C   0  0  0  0  0  0  0  0  0  0  0  0
  150.9046  143.1107  158.4154 C   0  0  0  0  0  0  0  0  0  0  0  0
  150.2440  144.4149  158.8255 C   0  0  0  0  0  0  0  0  0  0  0  0
  150.4715  142.4600  157.2417 C   0  0  0  0  0  0  0  0  0  0  0  0
  151.0691  141.2460  156.8607 C   0  0  0  0  0  0  0  0  0  0  0  0
  146.1085  138.0497  152.3555 C   0  0  0  0  0  0  0  0  0  0  0  0
  145.6470  136.6560  151.8966 C   0  0  0  0  0  0  0  0  0  0  0  0
  141.9651  136.6056  153.4445 H   0  0  0  0  0  0  0  0  0  0  0  0
  142.5997  135.1206  152.7410 H   0  0  0  0  0  0  0  0  0  0  0  0
  142.8765  136.6781  151.9416 H   0  0  0  0  0  0  0  0  0  0  0  0
  144.9624  134.7812  152.7519 H   0  0  0  0  0  0  0  0  0  0  0  0
  145.9065  135.2062  155.0312 H   0  0  0  0  0  0  0  0  0  0  0  0
  147.1150  135.1953  153.7736 H   0  0  0  0  0  0  0  0  0  0  0  0
  145.9095  137.6983  155.0670 H   0  0  0  0  0  0  0  0  0  0  0  0
  147.5326  137.0756  155.2861 H   0  0  0  0  0  0  0  0  0  0  0  0
  147.8715  139.8573  152.8655 H   0  0  0  0  0  0  0  0  0  0  0  0
  147.1041  139.7815  154.4302 H   0  0  0  0  0  0  0  0  0  0  0  0
  149.0559  138.5585  155.4033 H   0  0  0  0  0  0  0  0  0  0  0  0
  149.4958  137.6005  153.3194 H   0  0  0  0  0  0  0  0  0  0  0  0
  150.4015  140.7829  153.8433 H   0  0  0  0  0  0  0  0  0  0  0  0
  149.1610  141.2373  154.9867 H   0  0  0  0  0  0  0  0  0  0  0  0
  151.8236  138.5330  155.3248 H   0  0  0  0  0  0  0  0  0  0  0  0
  153.3280  140.8871  159.3945 H   0  0  0  0  0  0  0  0  0  0  0  0
  152.8711  144.1840  160.2349 H   0  0  0  0  0  0  0  0  0  0  0  0
  153.1715  142.6154  160.9813 H   0  0  0  0  0  0  0  0  0  0  0  0
  151.5929  143.3768  161.1559 H   0  0  0  0  0  0  0  0  0  0  0  0
  149.5082  144.7373  158.0882 H   0  0  0  0  0  0  0  0  0  0  0  0
  150.9866  145.2068  158.9241 H   0  0  0  0  0  0  0  0  0  0  0  0
  149.7323  144.2981  159.7810 H   0  0  0  0  0  0  0  0  0  0  0  0
  149.6785  142.8825  156.6423 H   0  0  0  0  0  0  0  0  0  0  0  0
  145.2660  138.6156  152.7554 H   0  0  0  0  0  0  0  0  0  0  0  0
  146.4711  138.5970  151.4869 H   0  0  0  0  0  0  0  0  0  0  0  0
  146.4791  136.1484  151.4071 H   0  0  0  0  0  0  0  0  0  0  0  0
  144.8702  136.7500  151.1387 H   0  0  0  0  0  0  0  0  0  0  0  0
  147.9206  137.4010  152.9736 H   0  0  0  0  0  0  0  0  0  0  0  0
  1  2  1  0  0  0  0
  1 24  1  0  0  0  0
  1 25  1  0  0  0  0
  1 26  1  0  0  0  0
  2  3  1  0  0  0  0
  3 23  1  0  0  0  0
  3  4  1  0  0  0  0
  3 27  1  0  0  0  0
  4  5  1  0  0  0  0
  4 28  1  0  0  0  0
  4 29  1  0  0  0  0
  5  6  1  0  0  0  0
  5 30  1  0  0  0  0
  5 31  1  0  0  0  0
  6  7  1  0  0  0  0
  6 22  1  0  0  0  0
  6 51  1  0  0  0  0
  7  8  1  0  0  0  0
  7 32  1  0  0  0  0
  7 33  1  0  0  0  0
  8  9  1  0  0  0  0
  8 10  1  0  0  0  0
  8 34  1  0  0  0  0
  9 35  1  0  0  0  0
 10 11  1  0  0  0  0
 10 36  1  0  0  0  0
 10 37  1  0  0  0  0
 11 21  1  0  0  0  0
 11 12  1  0  0  0  0
 12 13  2  0  0  0  0
 12 38  1  0  0  0  0
 13 14  1  0  0  0  0
 14 21  2  0  0  0  0
 14 15  1  0  0  0  0
 15 16  2  0  0  0  0
 15 39  1  0  0  0  0
 16 17  1  0  0  0  0
 16 18  1  0  0  0  0
 17 40  1  0  0  0  0
 17 41  1  0  0  0  0
 17 42  1  0  0  0  0
 18 19  1  0  0  0  0
 18 20  2  0  0  0  0
 19 43  1  0  0  0  0
 19 44  1  0  0  0  0
 19 45  1  0  0  0  0
 20 21  1  0  0  0  0
 20 46  1  0  0  0  0
 22 23  1  0  0  0  0
 22 47  1  0  0  0  0
 22 48  1  0  0  0  0
 23 49  1  0  0  0  0
 23 50  1  0  0  0  0
M  CHG  1   6   1
M  END
> <s_m_source_file>
AV-unprocessed.smi

> <i_m_source_file_index>
1605

> <i_lp_mmshare_version>
43012

> <i_f3d_flags>
0

> <s_epik_input>
W0NIM11PW0NIXTFbQ0gyXVtDSDJdTihbQ0gyXVtDSDJdMSlbQ0gyXVtDQEhdKFtPSF0pW0NIMl1uKFtjSF1uMiljKGMyMylbY0hdYyhbQ0gzXSljKFtjSF0zKVtDSDNd

> <s_epik_cmdline>
J2VwaWtfcHl0aG9uJywgJy1waCcsICc3LjAnLCAnLXRuJywgJzgnLCAnLW1hJywgJzIwMCcsICctbWV0YWxfYmluZGluZycsICctaW1hZScsICc8aW5maWxlLm1hZT4nLCAnLW9tYWUnLCAnPG91dGZpbGUubWFlPic=

> <r_epik_Ionization_Penalty>
0.110943

> <r_epik_Ionization_Penalty_Charging>
0.0229283

> <r_epik_Ionization_Penalty_Neutral>
0.0880146

> <r_epik_State_Penalty>
0.0947554

> <r_epik_Charging_Adjusted_Penalty>
0.117684

> <i_epik_Tot_Q>
1

> <i_epik_Tot_abs_Q>
1

> <r_epik_Metal_State_Penalty>
0.0192456

> <b_epik_Metal_Only>
0

> <s_lp_Force_Field>
OPLS_2005

> <r_lp_Energy>
21.431

> <b_lp_Chiralities_Consistent>
1

> <s_lp_Variant>
AV-unprocessed.smi:1605-4

> <Gold.Version>
5.8.1

> <Gold.Id.Protein>
6NUR|6NUR_protein|mol2

> <Gold.PLP.Fitness>
51.7127

> <Gold.PLP.PLP>
-41.4952

> <Gold.PLP.part.hbond>
-4.0000

> <Gold.PLP.part.metal>
0.0000

> <Gold.PLP.part.buried>
-1.9667

> <Gold.PLP.part.nonpolar>
-35.8112

> <Gold.PLP.part.repulsive>
0.0901

> <Gold.PLP.ligand.clash>
0.0000

> <Gold.PLP.ligand.torsion>
0.6436

> <Gold.PLP.Chemscore.Hbond>
3.8000

> <Gold.PLP.Chemscore.CHOScore>
0.0000

> <Gold.PLP.Chemscore.Metal>
0.0000

> <Gold.Chemscore.Hbonds>
donor molecule, donor type, donor heavy atom, donor atom, acceptor molecule, acceptor atom, score
      L1  H     6    51       P1  7948  2.00
      L1  H     9    35       P1  7948  0.98
      P1  H  7997  8009       L1    13  0.75

> <Gold.PLP.Chemscore.Internal.Correction>
0.1048

> <Gold.Rescore>
     Score         DG    S(hbond)    S(metal)    S(lipo)     H(rot)  DE(clash)    DE(int)     intcor
     18.57     -20.13       1.89        0.00     119.79       2.22       0.52       1.04       ----

> <Gold.Chemscore.Fitness>
18.5682

> <Gold.Chemscore.DG>
-20.1319

> <Gold.Chemscore.ZeroCoef>
-5.4800

> <Gold.Chemscore.Hbond>
1.8896

> <Gold.Chemscore.Metal>
0.0000

> <Gold.Chemscore.Lipo>
119.7937

> <Gold.Chemscore.Internal_Hbond>
0.0000

> <Gold.Chemscore.DEClash>
0.5223

> <Gold.Chemscore.DEInternal>
1.0414

> <Gold.Chemscore.Rot>
2.2169

> <Gold.Chemscore.Internal.Correction>
   9.000000E+99

> <Gold.Chemscore.Hbonds>
donor molecule, donor type, donor heavy atom, donor atom, acceptor molecule, acceptor atom, score
      L1  H     6    51       P1  7948  1.00
      L1  H     9    35       P1  7948  0.80
      P1  H  7997  8009       L1    13  0.09

> <Gold.Chemscore.Hbond.Weighted>
-6.3113

> <Gold.Chemscore.Metal.Weighted>
-0.0000

> <Gold.Chemscore.Lipo.Weighted>
-14.0159

> <Gold.Chemscore.Internal_Hbond.Weighted>
0.0000

> <Gold.Chemscore.DEClash.Weighted>
0.5223

> <Gold.Chemscore.DEInternal.Weighted>
1.0414

> <Gold.Chemscore.Rot.Weighted>
5.6753

> <Gold.Chemscore.Internal.Correction.Weighted>
   9.000000E+99

> <Gold.Protein.RotatedTorsions>
[ 6907 6896 6895 6894 ] final   86.07 input  -60.11 | X-H torsion
[ 7974 7965 7964 7962 ] final -100.39 input  175.53 | X-H torsion
[ 8008 7997 7996 7995 ] final  169.86 input   59.86 | X-H torsion
[ 10167 10162 10161 10158 ] final  132.91 input  -65.29 | X-H torsion
[ 10718 10713 10712 10709 ] final  -13.43 input   66.30 | X-H torsion
[ 10763 10752 10751 10750 ] final  -86.82 input  -60.55 | X-H torsion
[ 11005 11000 10999 10996 ] final  113.54 input  -57.11 | X-H torsion

> <Gold.Protein.ActiveResidues>
 VAL166  LYS551  ARG553  GLY616  TRP617  ASP618  TYR619  PRO620  LYS621  CYS622 
 ASP623  PHE694  ASN695  SER759  ASP760  ASP761  ALA762  ILE779  LEU786  VAL792 
 PHE793  MET794  SER795  GLU796  ALA797  LYS798  CYS799  TRP800  GLU811  SER814 

> <Gold.Protein.RotatedAtoms>
  152.5387  134.2489  159.8890 H   0  0  0  0  0  0  0  0  0  0  0  0  # atno 6907 bound_to 6896
  151.2453  133.4371  159.2616 H   0  0  0  0  0  0  0  0  0  0  0  0  # atno 6908 bound_to 6896
  151.0589  134.9737  159.8306 H   0  0  0  0  0  0  0  0  0  0  0  0  # atno 6909 bound_to 6896
  145.2951  140.9363  143.2855 H   0  0  0  0  0  0  0  0  0  0  0  0  # atno 7974 bound_to 7965
  156.1419  140.1553  156.8908 H   0  0  0  0  0  0  0  0  0  0  0  0  # atno 8008 bound_to 7997
  154.4994  140.0829  156.7805 H   0  0  0  0  0  0  0  0  0  0  0  0  # atno 8009 bound_to 7997
  155.4063  140.3417  155.4262 H   0  0  0  0  0  0  0  0  0  0  0  0  # atno 8010 bound_to 7997
  139.5319  144.6640  151.4920 H   0  0  0  0  0  0  0  0  0  0  0  0  # atno 10167 bound_to 10162
  156.6304  130.4900  149.6131 H   0  0  0  0  0  0  0  0  0  0  0  0  # atno 10718 bound_to 10713
  154.6267  135.5435  153.7635 H   0  0  0  0  0  0  0  0  0  0  0  0  # atno 10763 bound_to 10752
  153.0264  135.6426  154.1361 H   0  0  0  0  0  0  0  0  0  0  0  0  # atno 10764 bound_to 10752
  154.1293  135.2915  155.3169 H   0  0  0  0  0  0  0  0  0  0  0  0  # atno 10765 bound_to 10752
  139.8956  134.9551  156.6754 H   0  0  0  0  0  0  0  0  0  0  0  0  # atno 11005 bound_to 11000
  144.9140  139.4493  143.6573 LP  0  0  0  0  0  0  0  0  0  0  0  0  # atno 17320 bound_to 7965
  146.3171  139.7964  142.8974 LP  0  0  0  0  0  0  0  0  0  0  0  0  # atno 17321 bound_to 7965
  140.6502  143.8711  150.6778 LP  0  0  0  0  0  0  0  0  0  0  0  0  # atno 17342 bound_to 10162
  140.2073  143.3911  152.1745 LP  0  0  0  0  0  0  0  0  0  0  0  0  # atno 17343 bound_to 10162
  156.2239  130.6754  151.1396 LP  0  0  0  0  0  0  0  0  0  0  0  0  # atno 17370 bound_to 10713
  157.7201  131.0686  150.6168 LP  0  0  0  0  0  0  0  0  0  0  0  0  # atno 17371 bound_to 10713
  140.7340  133.9034  155.8231 LP  0  0  0  0  0  0  0  0  0  0  0  0  # atno 17394 bound_to 11000
  141.0130  134.0994  157.4201 LP  0  0  0  0  0  0  0  0  0  0  0  0  # atno 17395 bound_to 11000

$$$$
