AV-unprocessed.smi:2863|AV-procd|sdf|11012|dock6
  -GOLD-   2272015473D 1   1.00000     0.00000
 Structure written by MMmdl.
 42 43  0  0  0  0  0  0  0  0  1 V2000
  148.8266  140.8503  154.6886 C   0  0  0  0  0  0  0  0  0  0  0  0
  149.7059  139.6539  154.8080 C   0  0  0  0  0  0  0  0  0  0  0  0
  149.3324  138.3934  155.0187 N   0  0  0  0  0  0  0  0  0  0  0  0
  150.5185  137.6732  155.0480 C   0  0  0  0  0  0  0  0  0  0  0  0
  150.5457  136.1896  155.2539 C   0  0  0  0  0  0  0  0  0  0  0  0
  149.1397  135.6161  155.4930 C   0  0  0  0  0  0  0  0  0  0  0  0
  148.4773  135.2700  154.2410 N   0  0  0  0  0  0  0  0  0  0  0  0
  147.4582  134.4072  154.1254 C   0  0  0  0  0  0  0  0  0  0  0  0
  146.9518  133.8070  155.0737 O   0  0  0  0  0  0  0  0  0  0  0  0
  147.0573  134.2792  152.8527 N   0  0  0  0  0  0  0  0  0  0  0  0
  145.9759  133.4130  152.3929 C   0  0  0  0  0  0  0  0  0  0  0  0
  146.5532  132.2951  151.5039 C   0  0  0  0  0  0  0  0  0  0  0  0
  145.4430  131.3900  150.9456 C   0  0  0  0  0  0  0  0  0  0  0  0
  144.3898  132.2076  150.1815 C   0  0  0  0  0  0  0  0  0  0  0  0
  143.8062  133.3219  151.0644 C   0  0  0  0  0  0  0  0  0  0  0  0
  144.9135  134.2283  151.6263 C   0  0  0  0  0  0  0  0  0  0  0  0
  151.5550  138.5482  154.8451 C   0  0  0  0  0  0  0  0  0  0  0  0
  153.0335  138.3733  154.7620 C   0  0  0  0  0  0  0  0  0  0  0  0
  151.0521  139.8124  154.6942 O   0  0  0  0  0  0  0  0  0  0  0  0
  147.7790  140.5630  154.7830 H   0  0  0  0  0  0  0  0  0  0  0  0
  148.9742  141.3256  153.7190 H   0  0  0  0  0  0  0  0  0  0  0  0
  149.0658  141.5681  155.4731 H   0  0  0  0  0  0  0  0  0  0  0  0
  150.9995  135.7066  154.3878 H   0  0  0  0  0  0  0  0  0  0  0  0
  151.1874  135.9459  156.1014 H   0  0  0  0  0  0  0  0  0  0  0  0
  149.2046  134.7134  156.1010 H   0  0  0  0  0  0  0  0  0  0  0  0
  148.5290  136.3254  156.0547 H   0  0  0  0  0  0  0  0  0  0  0  0
  148.8238  135.7154  153.4038 H   0  0  0  0  0  0  0  0  0  0  0  0
  147.5382  134.8175  152.1471 H   0  0  0  0  0  0  0  0  0  0  0  0
  145.5036  132.9453  153.2592 H   0  0  0  0  0  0  0  0  0  0  0  0
  147.1120  132.7323  150.6751 H   0  0  0  0  0  0  0  0  0  0  0  0
  147.2637  131.6941  152.0728 H   0  0  0  0  0  0  0  0  0  0  0  0
  145.8751  130.6339  150.2892 H   0  0  0  0  0  0  0  0  0  0  0  0
  144.9646  130.8514  151.7643 H   0  0  0  0  0  0  0  0  0  0  0  0
  144.8420  132.6453  149.2907 H   0  0  0  0  0  0  0  0  0  0  0  0
  143.5911  131.5521  149.8330 H   0  0  0  0  0  0  0  0  0  0  0  0
  143.0946  133.9166  150.4909 H   0  0  0  0  0  0  0  0  0  0  0  0
  143.2451  132.8787  151.8881 H   0  0  0  0  0  0  0  0  0  0  0  0
  144.4706  134.9803  152.2804 H   0  0  0  0  0  0  0  0  0  0  0  0
  145.3855  134.7722  150.8070 H   0  0  0  0  0  0  0  0  0  0  0  0
  153.2867  137.3810  154.3882 H   0  0  0  0  0  0  0  0  0  0  0  0
  153.4912  138.4921  155.7441 H   0  0  0  0  0  0  0  0  0  0  0  0
  153.4757  139.1086  154.0895 H   0  0  0  0  0  0  0  0  0  0  0  0
  1  2  1  0  0  0  0
  1 20  1  0  0  0  0
  1 21  1  0  0  0  0
  1 22  1  0  0  0  0
  2 19  1  0  0  0  0
  2  3  2  0  0  0  0
  3  4  1  0  0  0  0
  4  5  1  0  0  0  0
  4 17  2  0  0  0  0
  5  6  1  0  0  0  0
  5 23  1  0  0  0  0
  5 24  1  0  0  0  0
  6  7  1  0  0  0  0
  6 25  1  0  0  0  0
  6 26  1  0  0  0  0
  7  8  1  0  0  0  0
  7 27  1  0  0  0  0
  8  9  2  0  0  0  0
  8 10  1  0  0  0  0
 10 11  1  0  0  0  0
 10 28  1  0  0  0  0
 11 16  1  0  0  0  0
 11 12  1  0  0  0  0
 11 29  1  0  0  0  0
 12 13  1  0  0  0  0
 12 30  1  0  0  0  0
 12 31  1  0  0  0  0
 13 14  1  0  0  0  0
 13 32  1  0  0  0  0
 13 33  1  0  0  0  0
 14 15  1  0  0  0  0
 14 34  1  0  0  0  0
 14 35  1  0  0  0  0
 15 16  1  0  0  0  0
 15 36  1  0  0  0  0
 15 37  1  0  0  0  0
 16 38  1  0  0  0  0
 16 39  1  0  0  0  0
 17 18  1  0  0  0  0
 17 19  1  0  0  0  0
 18 40  1  0  0  0  0
 18 41  1  0  0  0  0
 18 42  1  0  0  0  0
M  END
> <s_m_source_file>
AV-unprocessed.smi

> <i_m_source_file_index>
2863

> <i_lp_mmshare_version>
43012

> <i_f3d_flags>
0

> <s_epik_input>
W0NIM11jMW5jKGMobzEpW0NIM10pW0NIMl1bQ0gyXVtOSF1DKD1PKVtOSF1bQ0hdMltDSDJdW0NIMl1bQ0gyXVtDSDJdW0NIMl0y

> <s_epik_cmdline>
J2VwaWtfcHl0aG9uJywgJy1waCcsICc3LjAnLCAnLXRuJywgJzgnLCAnLW1hJywgJzIwMCcsICctbWV0YWxfYmluZGluZycsICctaW1hZScsICc8aW5maWxlLm1hZT4nLCAnLW9tYWUnLCAnPG91dGZpbGUubWFlPic=

> <r_lp_tautomer_probability>
1

> <r_epik_Ionization_Penalty>
0.000108106

> <r_epik_Ionization_Penalty_Charging>
0

> <r_epik_Ionization_Penalty_Neutral>
0.000108106

> <r_epik_State_Penalty>
-0

> <r_epik_Charging_Adjusted_Penalty>
0

> <i_epik_Tot_Q>
0

> <i_epik_Tot_abs_Q>
0

> <r_epik_Metal_State_Penalty>
-0

> <b_epik_Metal_Only>
0

> <s_lp_Force_Field>
OPLS_2005

> <r_lp_Energy>
1.15326

> <b_lp_Chiralities_Consistent>
1

> <s_lp_Variant>
AV-unprocessed.smi:2863-1

> <Gold.Version>
5.8.1

> <Gold.Id.Protein>
6NUR|6NUR_protein|mol2

> <Gold.PLP.Fitness>
42.9774

> <Gold.PLP.PLP>
-35.0984

> <Gold.PLP.part.hbond>
-3.0000

> <Gold.PLP.part.metal>
0.0000

> <Gold.PLP.part.buried>
-5.2349

> <Gold.PLP.part.nonpolar>
-28.4213

> <Gold.PLP.part.repulsive>
0.2718

> <Gold.PLP.ligand.clash>
0.0000

> <Gold.PLP.ligand.torsion>
0.3484

> <Gold.PLP.Chemscore.Hbond>
2.8553

> <Gold.PLP.Chemscore.CHOScore>
0.0000

> <Gold.PLP.Chemscore.Metal>
0.0000

> <Gold.Chemscore.Hbonds>
donor molecule, donor type, donor heavy atom, donor atom, acceptor molecule, acceptor atom, score
      L1  H     7    27       P1  7948  1.00
      L1  H    10    28       P1  7948  0.90
      P1  H  7989  7998       L1    19  1.00

> <Gold.PLP.Chemscore.Internal.Correction>
0.0101

> <Gold.Rescore>
     Score         DG    S(hbond)    S(metal)    S(lipo)     H(rot)  DE(clash)    DE(int)     intcor
     19.16     -19.53       2.64        0.00      80.08       1.61       0.00       0.38       ----

> <Gold.Chemscore.Fitness>
19.1556

> <Gold.Chemscore.DG>
-19.5317

> <Gold.Chemscore.ZeroCoef>
-5.4800

> <Gold.Chemscore.Hbond>
2.6382

> <Gold.Chemscore.Metal>
0.0000

> <Gold.Chemscore.Lipo>
80.0795

> <Gold.Chemscore.Internal_Hbond>
0.0000

> <Gold.Chemscore.DEClash>
0.0004

> <Gold.Chemscore.DEInternal>
0.3757

> <Gold.Chemscore.Rot>
1.6130

> <Gold.Chemscore.Internal.Correction>
   9.000000E+99

> <Gold.Chemscore.Hbonds>
donor molecule, donor type, donor heavy atom, donor atom, acceptor molecule, acceptor atom, score
      L1  H     7    27       P1  7948  0.95
      L1  H    10    28       P1  7948  0.74
      P1  H  7989  7998       L1    19  0.94

> <Gold.Chemscore.Hbond.Weighted>
-8.8117

> <Gold.Chemscore.Metal.Weighted>
-0.0000

> <Gold.Chemscore.Lipo.Weighted>
-9.3693

> <Gold.Chemscore.Internal_Hbond.Weighted>
0.0000

> <Gold.Chemscore.DEClash.Weighted>
0.0004

> <Gold.Chemscore.DEInternal.Weighted>
0.3757

> <Gold.Chemscore.Rot.Weighted>
4.1293

> <Gold.Chemscore.Internal.Correction.Weighted>
   9.000000E+99

> <Gold.Protein.RotatedTorsions>
[ 6907 6896 6895 6894 ] final  103.17 input  -60.11 | X-H torsion
[ 7974 7965 7964 7962 ] final -179.11 input  175.53 | X-H torsion
[ 8008 7997 7996 7995 ] final  166.55 input   59.86 | X-H torsion
[ 10167 10162 10161 10158 ] final -140.95 input  -65.29 | X-H torsion
[ 10718 10713 10712 10709 ] final  165.90 input   66.30 | X-H torsion
[ 10763 10752 10751 10750 ] final  -14.49 input  -60.55 | X-H torsion
[ 11005 11000 10999 10996 ] final -142.20 input  -57.11 | X-H torsion

> <Gold.Protein.ActiveResidues>
 VAL166  LYS551  ARG553  GLY616  TRP617  ASP618  TYR619  PRO620  LYS621  CYS622 
 ASP623  PHE694  ASN695  SER759  ASP760  ASP761  ALA762  ILE779  LEU786  VAL792 
 PHE793  MET794  SER795  GLU796  ALA797  LYS798  CYS799  TRP800  GLU811  SER814 

> <Gold.Protein.RotatedAtoms>
  152.5303  133.9866  159.7830 H   0  0  0  0  0  0  0  0  0  0  0  0  # atno 6907 bound_to 6896
  151.0109  133.5958  159.2690 H   0  0  0  0  0  0  0  0  0  0  0  0  # atno 6908 bound_to 6896
  151.3033  135.0781  159.9299 H   0  0  0  0  0  0  0  0  0  0  0  0  # atno 6909 bound_to 6896
  144.7134  140.0767  143.6427 H   0  0  0  0  0  0  0  0  0  0  0  0  # atno 7974 bound_to 7965
  156.1709  140.1640  156.8449 H   0  0  0  0  0  0  0  0  0  0  0  0  # atno 8008 bound_to 7997
  154.5256  140.0768  156.8286 H   0  0  0  0  0  0  0  0  0  0  0  0  # atno 8009 bound_to 7997
  155.3514  140.3390  155.4241 H   0  0  0  0  0  0  0  0  0  0  0  0  # atno 8010 bound_to 7997
  139.8232  143.7546  152.2666 H   0  0  0  0  0  0  0  0  0  0  0  0  # atno 10167 bound_to 10162
  157.0736  131.0373  151.2602 H   0  0  0  0  0  0  0  0  0  0  0  0  # atno 10718 bound_to 10713
  153.5291  135.7015  153.5692 H   0  0  0  0  0  0  0  0  0  0  0  0  # atno 10763 bound_to 10752
  153.3707  135.3945  155.1786 H   0  0  0  0  0  0  0  0  0  0  0  0  # atno 10764 bound_to 10752
  154.8686  135.3811  154.4786 H   0  0  0  0  0  0  0  0  0  0  0  0  # atno 10765 bound_to 10752
  140.8249  134.2587  157.4883 H   0  0  0  0  0  0  0  0  0  0  0  0  # atno 11005 bound_to 11000
  145.9737  139.2889  143.1083 LP  0  0  0  0  0  0  0  0  0  0  0  0  # atno 17320 bound_to 7965
  145.9088  140.9194  143.0465 LP  0  0  0  0  0  0  0  0  0  0  0  0  # atno 17321 bound_to 7965
  139.7731  144.7470  151.0196 LP  0  0  0  0  0  0  0  0  0  0  0  0  # atno 17342 bound_to 10162
  140.7812  143.4623  151.0260 LP  0  0  0  0  0  0  0  0  0  0  0  0  # atno 17343 bound_to 10162
  157.4858  130.7792  149.7458 LP  0  0  0  0  0  0  0  0  0  0  0  0  # atno 17370 bound_to 10713
  155.9943  130.3919  150.2863 LP  0  0  0  0  0  0  0  0  0  0  0  0  # atno 17371 bound_to 10713
  139.8707  134.9555  156.4209 LP  0  0  0  0  0  0  0  0  0  0  0  0  # atno 17394 bound_to 11000
  140.9060  133.7745  155.9735 LP  0  0  0  0  0  0  0  0  0  0  0  0  # atno 17395 bound_to 11000

$$$$
