AV-unprocessed.smi:2097|AV-procd|sdf|8564|dock10
  -GOLD-   2272011293D 1   1.00000     0.00000
 Structure written by MMmdl.
 41 42  0  0  0  0  0  0  0  0  1 V2000
  149.4095  132.6629  154.6830 C   0  0  0  0  0  0  0  0  0  0  0  0
  149.2607  133.9834  153.9134 C   0  0  1  0  0  0  0  0  0  0  0  0
  147.9369  134.0234  153.3857 O   0  0  0  0  0  0  0  0  0  0  0  0
  147.6940  133.1666  152.2743 C   0  0  0  0  0  0  0  0  0  0  0  0
  146.1826  132.9751  152.1014 C   0  0  0  0  0  0  0  0  0  0  0  0
  145.6250  134.1450  151.7911 F   0  0  0  0  0  0  0  0  0  0  0  0
  145.9363  132.1097  151.1183 F   0  0  0  0  0  0  0  0  0  0  0  0
  145.6418  132.5309  153.2355 F   0  0  0  0  0  0  0  0  0  0  0  0
  149.5073  135.1924  154.8305 C   0  0  0  0  0  0  0  0  0  0  0  0
  148.8569  135.3085  155.8685 O   0  0  0  0  0  0  0  0  0  0  0  0
  150.4214  136.0791  154.3939 N   0  0  0  0  0  0  0  0  0  0  0  0
  150.8547  137.2904  154.9992 C   0  0  0  0  0  0  0  0  0  0  0  0
  151.8128  138.1707  154.4411 C   0  0  0  0  0  0  0  0  0  0  0  0
  152.1483  139.3450  155.1422 C   0  0  0  0  0  0  0  0  0  0  0  0
  151.5134  139.6090  156.3728 C   0  0  0  0  0  0  0  0  0  0  0  0
  151.8558  140.7707  157.0790 N   0  0  0  0  0  0  0  0  0  0  0  0
  152.3665  140.5039  158.4180 C   0  0  0  0  0  0  0  0  0  0  0  0
  152.8373  141.8139  159.0726 C   0  0  0  0  0  0  0  0  0  0  0  0
  151.7685  142.7563  159.0779 O   0  0  0  0  0  0  0  0  0  0  0  0
  151.3229  143.0675  157.7606 C   0  0  0  0  0  0  0  0  0  0  0  0
  150.8129  141.7892  157.0726 C   0  0  0  0  0  0  0  0  0  0  0  0
  150.5847  138.7800  156.9053 N   0  0  0  0  0  0  0  0  0  0  0  0
  150.2676  137.6564  156.2283 C   0  0  0  0  0  0  0  0  0  0  0  0
  150.4033  132.5701  155.1226 H   0  0  0  0  0  0  0  0  0  0  0  0
  149.2633  131.8113  154.0184 H   0  0  0  0  0  0  0  0  0  0  0  0
  148.6772  132.5813  155.4874 H   0  0  0  0  0  0  0  0  0  0  0  0
  149.9788  133.9840  153.0909 H   0  0  0  0  0  0  0  0  0  0  0  0
  148.1119  133.5840  151.3577 H   0  0  0  0  0  0  0  0  0  0  0  0
  148.1726  132.2004  152.4404 H   0  0  0  0  0  0  0  0  0  0  0  0
  150.8206  135.8853  153.4869 H   0  0  0  0  0  0  0  0  0  0  0  0
  152.2890  137.9805  153.4923 H   0  0  0  0  0  0  0  0  0  0  0  0
  152.8802  140.0302  154.7400 H   0  0  0  0  0  0  0  0  0  0  0  0
  151.5851  140.0470  159.0270 H   0  0  0  0  0  0  0  0  0  0  0  0
  153.1922  139.7933  158.3639 H   0  0  0  0  0  0  0  0  0  0  0  0
  153.1534  141.6285  160.0993 H   0  0  0  0  0  0  0  0  0  0  0  0
  153.6975  142.2265  158.5427 H   0  0  0  0  0  0  0  0  0  0  0  0
  150.5244  143.8069  157.8210 H   0  0  0  0  0  0  0  0  0  0  0  0
  152.1348  143.5198  157.1889 H   0  0  0  0  0  0  0  0  0  0  0  0
  150.5162  142.0086  156.0462 H   0  0  0  0  0  0  0  0  0  0  0  0
  149.9293  141.4170  157.5930 H   0  0  0  0  0  0  0  0  0  0  0  0
  149.5225  137.0243  156.6892 H   0  0  0  0  0  0  0  0  0  0  0  0
  1  2  1  0  0  0  0
  1 24  1  0  0  0  0
  1 25  1  0  0  0  0
  1 26  1  0  0  0  0
  2  3  1  0  0  0  0
  2  9  1  0  0  0  0
  2 27  1  0  0  0  0
  3  4  1  0  0  0  0
  4  5  1  0  0  0  0
  4 28  1  0  0  0  0
  4 29  1  0  0  0  0
  5  6  1  0  0  0  0
  5  7  1  0  0  0  0
  5  8  1  0  0  0  0
  9 10  2  0  0  0  0
  9 11  1  0  0  0  0
 11 12  1  0  0  0  0
 11 30  1  0  0  0  0
 12 23  1  0  0  0  0
 12 13  2  0  0  0  0
 13 14  1  0  0  0  0
 13 31  1  0  0  0  0
 14 15  2  0  0  0  0
 14 32  1  0  0  0  0
 15 16  1  0  0  0  0
 15 22  1  0  0  0  0
 16 21  1  0  0  0  0
 16 17  1  0  0  0  0
 17 18  1  0  0  0  0
 17 33  1  0  0  0  0
 17 34  1  0  0  0  0
 18 19  1  0  0  0  0
 18 35  1  0  0  0  0
 18 36  1  0  0  0  0
 19 20  1  0  0  0  0
 20 21  1  0  0  0  0
 20 37  1  0  0  0  0
 20 38  1  0  0  0  0
 21 39  1  0  0  0  0
 21 40  1  0  0  0  0
 22 23  2  0  0  0  0
 23 41  1  0  0  0  0
M  END
> <s_m_source_file>
AV-unprocessed.smi

> <i_m_source_file_index>
2097

> <i_lp_mmshare_version>
43012

> <i_f3d_flags>
0

> <s_epik_input>
RkMoRikoRilbQ0gyXU9bQ0BASF0oW0NIM10pQyg9TylbTkhdYzFbY0hdW2NIXWMobltjSF0xKU4yW0NIMl1bQ0gyXU9bQ0gyXVtDSDJdMg==

> <s_epik_cmdline>
J2VwaWtfcHl0aG9uJywgJy1waCcsICc3LjAnLCAnLXRuJywgJzgnLCAnLW1hJywgJzIwMCcsICctbWV0YWxfYmluZGluZycsICctaW1hZScsICc8aW5maWxlLm1hZT4nLCAnLW9tYWUnLCAnPG91dGZpbGUubWFlPic=

> <r_lp_tautomer_probability>
1

> <r_epik_Ionization_Penalty>
0.000443452

> <r_epik_Ionization_Penalty_Charging>
0

> <r_epik_Ionization_Penalty_Neutral>
0.000443452

> <r_epik_State_Penalty>
0.00027288

> <r_epik_Charging_Adjusted_Penalty>
0.00027288

> <i_epik_Tot_Q>
0

> <i_epik_Tot_abs_Q>
0

> <r_epik_Metal_State_Penalty>
-0

> <b_epik_Metal_Only>
0

> <s_lp_Force_Field>
OPLS_2005

> <r_lp_Energy>
27.3588

> <b_lp_Chiralities_Consistent>
1

> <s_lp_Variant>
AV-unprocessed.smi:2097-2

> <Gold.Version>
5.8.1

> <Gold.Id.Protein>
6NUR|6NUR_protein|mol2

> <Gold.PLP.Fitness>
39.9227

> <Gold.PLP.PLP>
-38.1866

> <Gold.PLP.part.hbond>
-2.0000

> <Gold.PLP.part.metal>
0.0000

> <Gold.PLP.part.buried>
-2.2482

> <Gold.PLP.part.nonpolar>
-33.6111

> <Gold.PLP.part.repulsive>
1.2298

> <Gold.PLP.ligand.clash>
0.0000

> <Gold.PLP.ligand.torsion>
0.3901

> <Gold.PLP.Chemscore.Hbond>
0.7930

> <Gold.PLP.Chemscore.CHOScore>
0.0000

> <Gold.PLP.Chemscore.Metal>
0.0000

> <Gold.Chemscore.Hbonds>
donor molecule, donor type, donor heavy atom, donor atom, acceptor molecule, acceptor atom, score
      L1  H    11    30       P1  7949  0.65

> <Gold.PLP.Chemscore.Internal.Correction>
0.1373

> <Gold.Rescore>
     Score         DG    S(hbond)    S(metal)    S(lipo)     H(rot)  DE(clash)    DE(int)     intcor
      8.51     -10.63       0.17        0.00      81.79       1.95       0.11       2.00       ----

> <Gold.Chemscore.Fitness>
8.5141

> <Gold.Chemscore.DG>
-10.6256

> <Gold.Chemscore.ZeroCoef>
-5.4800

> <Gold.Chemscore.Hbond>
0.1693

> <Gold.Chemscore.Metal>
0.0000

> <Gold.Chemscore.Lipo>
81.7928

> <Gold.Chemscore.Internal_Hbond>
0.0000

> <Gold.Chemscore.DEClash>
0.1099

> <Gold.Chemscore.DEInternal>
2.0017

> <Gold.Chemscore.Rot>
1.9491

> <Gold.Chemscore.Internal.Correction>
   9.000000E+99

> <Gold.Chemscore.Hbonds>
donor molecule, donor type, donor heavy atom, donor atom, acceptor molecule, acceptor atom, score
      L1  H    11    30       P1  7949  0.05

> <Gold.Chemscore.Hbond.Weighted>
-0.5656

> <Gold.Chemscore.Metal.Weighted>
-0.0000

> <Gold.Chemscore.Lipo.Weighted>
-9.5698

> <Gold.Chemscore.Internal_Hbond.Weighted>
0.0000

> <Gold.Chemscore.DEClash.Weighted>
0.1099

> <Gold.Chemscore.DEInternal.Weighted>
2.0017

> <Gold.Chemscore.Rot.Weighted>
4.9897

> <Gold.Chemscore.Internal.Correction.Weighted>
   9.000000E+99

> <Gold.Protein.RotatedTorsions>
[ 6907 6896 6895 6894 ] final -126.29 input  -60.11 | X-H torsion
[ 7974 7965 7964 7962 ] final   49.10 input  175.53 | X-H torsion
[ 8008 7997 7996 7995 ] final   -1.81 input   59.86 | X-H torsion
[ 10167 10162 10161 10158 ] final   48.40 input  -65.29 | X-H torsion
[ 10718 10713 10712 10709 ] final  177.70 input   66.30 | X-H torsion
[ 10763 10752 10751 10750 ] final  -50.35 input  -60.55 | X-H torsion
[ 11005 11000 10999 10996 ] final  168.18 input  -57.11 | X-H torsion

> <Gold.Protein.ActiveResidues>
 VAL166  LYS551  ARG553  GLY616  TRP617  ASP618  TYR619  PRO620  LYS621  CYS622 
 ASP623  PHE694  ASN695  SER759  ASP760  ASP761  ALA762  ILE779  LEU786  VAL792 
 PHE793  MET794  SER795  GLU796  ALA797  LYS798  CYS799  TRP800  GLU811  SER814 

> <Gold.Protein.RotatedAtoms>
  150.8954  133.7188  159.2893 H   0  0  0  0  0  0  0  0  0  0  0  0  # atno 6907 bound_to 6896
  151.4724  135.1045  159.9765 H   0  0  0  0  0  0  0  0  0  0  0  0  # atno 6908 bound_to 6896
  152.4845  133.8291  159.7149 H   0  0  0  0  0  0  0  0  0  0  0  0  # atno 6909 bound_to 6896
  146.0141  139.4577  142.9937 H   0  0  0  0  0  0  0  0  0  0  0  0  # atno 7974 bound_to 7965
  154.6427  140.2550  155.7304 H   0  0  0  0  0  0  0  0  0  0  0  0  # atno 8008 bound_to 7997
  156.2537  140.2884  156.0748 H   0  0  0  0  0  0  0  0  0  0  0  0  # atno 8009 bound_to 7997
  155.1572  140.0383  157.2824 H   0  0  0  0  0  0  0  0  0  0  0  0  # atno 8010 bound_to 7997
  140.2937  144.3016  150.6234 H   0  0  0  0  0  0  0  0  0  0  0  0  # atno 10167 bound_to 10162
  156.9015  130.9880  151.3035 H   0  0  0  0  0  0  0  0  0  0  0  0  # atno 10718 bound_to 10713
  154.1089  135.6552  153.4881 H   0  0  0  0  0  0  0  0  0  0  0  0  # atno 10763 bound_to 10752
  153.0263  135.5243  154.7212 H   0  0  0  0  0  0  0  0  0  0  0  0  # atno 10764 bound_to 10752
  154.6386  135.2985  155.0100 H   0  0  0  0  0  0  0  0  0  0  0  0  # atno 10765 bound_to 10752
  140.2845  134.7723  157.3786 H   0  0  0  0  0  0  0  0  0  0  0  0  # atno 11005 bound_to 11000
  145.7295  141.0047  143.1359 LP  0  0  0  0  0  0  0  0  0  0  0  0  # atno 17320 bound_to 7965
  144.6964  139.8967  143.7456 LP  0  0  0  0  0  0  0  0  0  0  0  0  # atno 17321 bound_to 7965
  140.5710  143.2181  151.7598 LP  0  0  0  0  0  0  0  0  0  0  0  0  # atno 17342 bound_to 10162
  139.4931  144.4216  151.9971 LP  0  0  0  0  0  0  0  0  0  0  0  0  # atno 17343 bound_to 10162
  157.6023  130.8521  149.8821 LP  0  0  0  0  0  0  0  0  0  0  0  0  # atno 17370 bound_to 10713
  156.0579  130.3705  150.1048 LP  0  0  0  0  0  0  0  0  0  0  0  0  # atno 17371 bound_to 10713
  140.1252  134.5167  155.8150 LP  0  0  0  0  0  0  0  0  0  0  0  0  # atno 17394 bound_to 11000
  141.2157  133.6770  156.6939 LP  0  0  0  0  0  0  0  0  0  0  0  0  # atno 17395 bound_to 11000

$$$$
