AV-unprocessed.smi:2995|AV-procd|sdf|11409|dock2
  -GOLD-   2272016333D 1   1.00000     0.00000
 Structure written by MMmdl.
 50 52  0  0  0  0  0  0  0  0  3 V2000
  150.8924  137.8676  154.6953 C   0  0  0  0  0  0  0  0  0  0  0  0
  150.2884  139.2566  154.8101 C   0  0  0  0  0  0  0  0  0  0  0  0
  150.9748  140.2563  155.5348 C   0  0  0  0  0  0  0  0  0  0  0  0
  150.4144  141.5440  155.6386 C   0  0  0  0  0  0  0  0  0  0  0  0
  149.2331  141.8099  155.0440 N   0  3  0  0  0  0  0  0  0  0  0  0
  148.5405  140.8875  154.3421 C   0  0  0  0  0  0  0  0  0  0  0  0
  149.0424  139.5680  154.2067 C   0  0  0  0  0  0  0  0  0  0  0  0
  148.3713  138.5566  153.4613 N   0  0  0  0  0  0  0  0  0  0  0  0
  147.0804  138.5038  153.0893 C   0  0  0  0  0  0  0  0  0  0  0  0
  146.2293  139.3502  153.3603 O   0  0  0  0  0  0  0  0  0  0  0  0
  146.8239  137.3882  152.3905 N   0  0  0  0  0  0  0  0  0  0  0  0
  145.5243  137.0008  151.8462 C   0  0  2  0  0  0  0  0  0  0  0  0
  144.8947  135.9005  152.7192 C   0  0  0  0  0  0  0  0  0  0  0  0
  143.5931  135.3644  152.0916 C   0  0  0  0  0  0  0  0  0  0  0  0
  143.8023  134.8744  150.7005 N   0  3  2  0  0  0  0  0  0  0  0  0
  144.5275  133.5713  150.6070 C   0  0  0  0  0  0  0  0  0  0  0  0
  143.8898  132.4465  151.4341 C   0  0  0  0  0  0  0  0  0  0  0  0
  144.9968  131.4021  151.6003 C   0  0  0  0  0  0  0  0  0  0  0  0
  146.3220  132.1687  151.4948 C   0  0  0  0  0  0  0  0  0  0  0  0
  145.9532  133.6222  151.1759 C   0  0  0  0  0  0  0  0  0  0  0  0
  144.3588  135.9589  149.8445 C   0  0  0  0  0  0  0  0  0  0  0  0
  145.6878  136.5073  150.3982 C   0  0  0  0  0  0  0  0  0  0  0  0
  151.8407  137.7997  155.2291 H   0  0  0  0  0  0  0  0  0  0  0  0
  151.0759  137.6173  153.6500 H   0  0  0  0  0  0  0  0  0  0  0  0
  150.2160  137.1231  155.1163 H   0  0  0  0  0  0  0  0  0  0  0  0
  151.9229  140.0429  156.0072 H   0  0  0  0  0  0  0  0  0  0  0  0
  150.8738  142.3642  156.1710 H   0  0  0  0  0  0  0  0  0  0  0  0
  147.6218  141.2519  153.9084 H   0  0  0  0  0  0  0  0  0  0  0  0
  148.9310  137.7482  153.2313 H   0  0  0  0  0  0  0  0  0  0  0  0
  147.5897  136.7521  152.2224 H   0  0  0  0  0  0  0  0  0  0  0  0
  144.8433  137.8539  151.8355 H   0  0  0  0  0  0  0  0  0  0  0  0
  145.6013  135.0821  152.8616 H   0  0  0  0  0  0  0  0  0  0  0  0
  144.6841  136.2947  153.7143 H   0  0  0  0  0  0  0  0  0  0  0  0
  143.1551  134.5913  152.7216 H   0  0  0  0  0  0  0  0  0  0  0  0
  142.8552  136.1671  152.0616 H   0  0  0  0  0  0  0  0  0  0  0  0
  144.5795  133.2463  149.5675 H   0  0  0  0  0  0  0  0  0  0  0  0
  143.5966  132.8229  152.4155 H   0  0  0  0  0  0  0  0  0  0  0  0
  143.0043  132.0206  150.9614 H   0  0  0  0  0  0  0  0  0  0  0  0
  144.9055  130.8641  152.5444 H   0  0  0  0  0  0  0  0  0  0  0  0
  144.9358  130.6656  150.7980 H   0  0  0  0  0  0  0  0  0  0  0  0
  146.9013  132.1039  152.4166 H   0  0  0  0  0  0  0  0  0  0  0  0
  146.9329  131.7457  150.6963 H   0  0  0  0  0  0  0  0  0  0  0  0
  146.6668  134.0761  150.4876 H   0  0  0  0  0  0  0  0  0  0  0  0
  145.9658  134.2057  152.0979 H   0  0  0  0  0  0  0  0  0  0  0  0
  144.4799  135.6292  148.8135 H   0  0  0  0  0  0  0  0  0  0  0  0
  143.6284  136.7684  149.8043 H   0  0  0  0  0  0  0  0  0  0  0  0
  146.0354  137.3259  149.7668 H   0  0  0  0  0  0  0  0  0  0  0  0
  146.4571  135.7362  150.3461 H   0  0  0  0  0  0  0  0  0  0  0  0
  142.8801  134.6842  150.3346 H   0  0  0  0  0  0  0  0  0  0  0  0
  148.8466  142.7508  155.1244 H   0  0  0  0  0  0  0  0  0  0  0  0
  1  2  1  0  0  0  0
  1 23  1  0  0  0  0
  1 24  1  0  0  0  0
  1 25  1  0  0  0  0
  2  7  1  0  0  0  0
  2  3  2  0  0  0  0
  3  4  1  0  0  0  0
  3 26  1  0  0  0  0
  4  5  2  0  0  0  0
  4 27  1  0  0  0  0
  5  6  1  0  0  0  0
  5 50  1  0  0  0  0
  6  7  2  0  0  0  0
  6 28  1  0  0  0  0
  7  8  1  0  0  0  0
  8  9  1  0  0  0  0
  8 29  1  0  0  0  0
  9 10  2  0  0  0  0
  9 11  1  0  0  0  0
 11 12  1  0  0  0  0
 11 30  1  0  0  0  0
 12 22  1  0  0  0  0
 12 13  1  0  0  0  0
 12 31  1  0  0  0  0
 13 14  1  0  0  0  0
 13 32  1  0  0  0  0
 13 33  1  0  0  0  0
 14 15  1  0  0  0  0
 14 34  1  0  0  0  0
 14 35  1  0  0  0  0
 15 16  1  0  0  0  0
 15 21  1  0  0  0  0
 15 49  1  0  0  0  0
 16 20  1  0  0  0  0
 16 17  1  0  0  0  0
 16 36  1  0  0  0  0
 17 18  1  0  0  0  0
 17 37  1  0  0  0  0
 17 38  1  0  0  0  0
 18 19  1  0  0  0  0
 18 39  1  0  0  0  0
 18 40  1  0  0  0  0
 19 20  1  0  0  0  0
 19 41  1  0  0  0  0
 19 42  1  0  0  0  0
 20 43  1  0  0  0  0
 20 44  1  0  0  0  0
 21 22  1  0  0  0  0
 21 45  1  0  0  0  0
 21 46  1  0  0  0  0
 22 47  1  0  0  0  0
 22 48  1  0  0  0  0
M  CHG  1   5   1
M  CHG  1  15   1
M  END
> <s_m_source_file>
AV-unprocessed.smi

> <i_m_source_file_index>
2995

> <i_lp_mmshare_version>
43012

> <i_f3d_flags>
0

> <s_epik_input>
W0NIM11jMVtjSF1bY0hdbltjSF1jMVtOSF1DKD1PKVtOSF1bQ0hdMltDSDJdW0NIMl1OKFtDSDJdW0NIMl0yKVtDSF0zW0NIMl1bQ0gyXVtDSDJdW0NIMl0z

> <s_epik_cmdline>
J2VwaWtfcHl0aG9uJywgJy1waCcsICc3LjAnLCAnLXRuJywgJzgnLCAnLW1hJywgJzIwMCcsICctbWV0YWxfYmluZGluZycsICctaW1hZScsICc8aW5maWxlLm1hZT4nLCAnLW9tYWUnLCAnPG91dGZpbGUubWFlPic=

> <r_epik_Ionization_Penalty>
2.08537

> <r_epik_Ionization_Penalty_Charging>
2.08535

> <r_epik_Ionization_Penalty_Neutral>
2.13957e-05

> <r_epik_State_Penalty>
2.21824

> <r_epik_Charging_Adjusted_Penalty>
4.30358

> <i_epik_Tot_Q>
2

> <i_epik_Tot_abs_Q>
2

> <r_epik_Metal_State_Penalty>
2.23856

> <b_epik_Metal_Only>
0

> <s_lp_Force_Field>
OPLS_2005

> <r_lp_Energy>
50.6964

> <b_lp_Chiralities_Consistent>
1

> <s_lp_Variant>
AV-unprocessed.smi:2995-4

> <Gold.Version>
5.8.1

> <Gold.Id.Protein>
6NUR|6NUR_protein|mol2

> <Gold.PLP.Fitness>
49.6007

> <Gold.PLP.PLP>
-34.8127

> <Gold.PLP.part.hbond>
-4.7634

> <Gold.PLP.part.metal>
0.0000

> <Gold.PLP.part.buried>
4.3000

> <Gold.PLP.part.nonpolar>
-36.7034

> <Gold.PLP.part.repulsive>
1.8189

> <Gold.PLP.ligand.clash>
1.7134

> <Gold.PLP.ligand.torsion>
0.3042

> <Gold.PLP.Chemscore.Hbond>
5.6859

> <Gold.PLP.Chemscore.CHOScore>
0.0000

> <Gold.PLP.Chemscore.Metal>
0.0000

> <Gold.Chemscore.Hbonds>
donor molecule, donor type, donor heavy atom, donor atom, acceptor molecule, acceptor atom, score
      L1  H     5    50       P1  8028  2.00
      L1  H     8    29       P1  7948  0.78
      L1  H    11    30       P1  7948  0.89
      L1  H    15    49       P1 10186  1.98

> <Gold.PLP.Chemscore.Internal.Correction>
0.0523

> <Gold.Rescore>
     Score         DG    S(hbond)    S(metal)    S(lipo)     H(rot)  DE(clash)    DE(int)     intcor
     19.34     -24.85       3.04        0.00     104.64       1.19       2.58       2.93       ----

> <Gold.Chemscore.Fitness>
19.3443

> <Gold.Chemscore.DG>
-24.8546

> <Gold.Chemscore.ZeroCoef>
-5.4800

> <Gold.Chemscore.Hbond>
3.0443

> <Gold.Chemscore.Metal>
0.0000

> <Gold.Chemscore.Lipo>
104.6429

> <Gold.Chemscore.Internal_Hbond>
0.0000

> <Gold.Chemscore.DEClash>
2.5795

> <Gold.Chemscore.DEInternal>
2.9308

> <Gold.Chemscore.Rot>
1.1861

> <Gold.Chemscore.Internal.Correction>
   9.000000E+99

> <Gold.Chemscore.Hbonds>
donor molecule, donor type, donor heavy atom, donor atom, acceptor molecule, acceptor atom, score
      L1  H     5    50       P1  8028  0.92
      L1  H     8    29       P1  7948  0.73
      L1  H    11    30       P1  7948  0.87
      L1  H    15    49       P1 10186  0.41

> <Gold.Chemscore.Hbond.Weighted>
-10.1679

> <Gold.Chemscore.Metal.Weighted>
-0.0000

> <Gold.Chemscore.Lipo.Weighted>
-12.2432

> <Gold.Chemscore.Internal_Hbond.Weighted>
0.0000

> <Gold.Chemscore.DEClash.Weighted>
2.5795

> <Gold.Chemscore.DEInternal.Weighted>
2.9308

> <Gold.Chemscore.Rot.Weighted>
3.0364

> <Gold.Chemscore.Internal.Correction.Weighted>
   9.000000E+99

> <Gold.Protein.RotatedTorsions>
[ 6907 6896 6895 6894 ] final -130.37 input  -60.11 | X-H torsion
[ 7974 7965 7964 7962 ] final -124.50 input  175.53 | X-H torsion
[ 8008 7997 7996 7995 ] final  -91.43 input   59.86 | X-H torsion
[ 10167 10162 10161 10158 ] final  -37.71 input  -65.29 | X-H torsion
[ 10718 10713 10712 10709 ] final -159.61 input   66.30 | X-H torsion
[ 10763 10752 10751 10750 ] final  -81.57 input  -60.55 | X-H torsion
[ 11005 11000 10999 10996 ] final -103.09 input  -57.11 | X-H torsion

> <Gold.Protein.ActiveResidues>
 VAL166  LYS551  ARG553  GLY616  TRP617  ASP618  TYR619  PRO620  LYS621  CYS622 
 ASP623  PHE694  ASN695  SER759  ASP760  ASP761  ALA762  ILE779  LEU786  VAL792 
 PHE793  MET794  SER795  GLU796  ALA797  LYS798  CYS799  TRP800  GLU811  SER814 

> <Gold.Protein.RotatedAtoms>
  150.9390  133.6678  159.2794 H   0  0  0  0  0  0  0  0  0  0  0  0  # atno 6907 bound_to 6896
  151.4073  135.0979  159.9584 H   0  0  0  0  0  0  0  0  0  0  0  0  # atno 6908 bound_to 6896
  152.5061  133.8871  159.7430 H   0  0  0  0  0  0  0  0  0  0  0  0  # atno 6909 bound_to 6896
  145.0074  140.7875  143.4459 H   0  0  0  0  0  0  0  0  0  0  0  0  # atno 7974 bound_to 7965
  154.7106  140.0519  157.0546 H   0  0  0  0  0  0  0  0  0  0  0  0  # atno 8008 bound_to 7997
  155.0560  140.3184  155.4657 H   0  0  0  0  0  0  0  0  0  0  0  0  # atno 8009 bound_to 7997
  156.2788  140.2107  156.5686 H   0  0  0  0  0  0  0  0  0  0  0  0  # atno 8010 bound_to 7997
  140.7111  143.3324  151.2539 H   0  0  0  0  0  0  0  0  0  0  0  0  # atno 10167 bound_to 10162
  156.5705  130.8686  151.2836 H   0  0  0  0  0  0  0  0  0  0  0  0  # atno 10718 bound_to 10713
  154.5651  135.5622  153.7043 H   0  0  0  0  0  0  0  0  0  0  0  0  # atno 10763 bound_to 10752
  153.0030  135.6283  154.2191 H   0  0  0  0  0  0  0  0  0  0  0  0  # atno 10764 bound_to 10752
  154.2129  135.2873  155.2932 H   0  0  0  0  0  0  0  0  0  0  0  0  # atno 10765 bound_to 10752
  141.1161  133.8611  157.1442 H   0  0  0  0  0  0  0  0  0  0  0  0  # atno 11005 bound_to 11000
  145.2069  139.2224  143.5163 LP  0  0  0  0  0  0  0  0  0  0  0  0  # atno 17320 bound_to 7965
  146.3463  140.1899  142.8589 LP  0  0  0  0  0  0  0  0  0  0  0  0  # atno 17321 bound_to 7965
  139.6810  143.9855  152.2808 LP  0  0  0  0  0  0  0  0  0  0  0  0  # atno 17342 bound_to 10162
  139.9485  144.6636  150.8196 LP  0  0  0  0  0  0  0  0  0  0  0  0  # atno 17343 bound_to 10162
  157.7349  130.9754  150.2054 LP  0  0  0  0  0  0  0  0  0  0  0  0  # atno 17370 bound_to 10713
  156.2719  130.3723  149.8023 LP  0  0  0  0  0  0  0  0  0  0  0  0  # atno 17371 bound_to 10713
  140.0084  134.9998  157.0343 LP  0  0  0  0  0  0  0  0  0  0  0  0  # atno 17394 bound_to 11000
  140.4641  134.1453  155.7195 LP  0  0  0  0  0  0  0  0  0  0  0  0  # atno 17395 bound_to 11000

$$$$
