AV-unprocessed.smi:110|AV-procd|sdf|1072|dock1
  -GOLD-   2262018153D 1   1.00000     0.00000
 Structure written by MMmdl.
 46 50  0  0  0  0  0  0  0  0  1 V2000
  144.1967  142.0723  154.9365 O   0  0  0  0  0  0  0  0  0  0  0  0
  145.4145  142.5873  154.4395 C   0  0  0  0  0  0  0  0  0  0  0  0
  146.6152  141.6972  154.8076 C   0  0  2  0  0  0  0  0  0  0  0  0
  147.8137  142.2009  154.2388 O   0  0  0  0  0  0  0  0  0  0  0  0
  148.7849  141.2011  154.2797 C   0  0  1  0  0  0  0  0  0  0  0  0
  149.5855  141.3595  155.5373 N   0  0  0  0  0  0  0  0  0  0  0  0
  149.3987  142.2206  156.5978 C   0  0  0  0  0  0  0  0  0  0  0  0
  150.2827  142.1264  157.5538 N   0  0  0  0  0  0  0  0  0  0  0  0
  151.1707  141.1545  157.1080 C   0  0  0  0  0  0  0  0  0  0  0  0
  152.3542  140.5604  157.6329 C   0  0  0  0  0  0  0  0  0  0  0  0
  152.9101  140.8727  158.8268 N   0  0  0  0  0  0  0  0  0  0  0  0
  153.6314  139.8354  159.5780 C   0  0  0  0  0  0  0  0  0  0  0  0
  153.7329  140.3064  161.0409 C   0  0  0  0  0  0  0  0  0  0  0  0
  153.1459  141.6772  160.9401 C   0  0  0  0  0  0  0  0  0  0  0  0
  153.0428  142.6364  161.9622 C   0  0  0  0  0  0  0  0  0  0  0  0
  152.4739  143.8881  161.6445 C   0  0  0  0  0  0  0  0  0  0  0  0
  152.0333  144.1595  160.3283 C   0  0  0  0  0  0  0  0  0  0  0  0
  152.1486  143.1807  159.3166 C   0  0  0  0  0  0  0  0  0  0  0  0
  152.6977  141.9242  159.6461 C   0  0  0  0  0  0  0  0  0  0  0  0
  152.9379  139.5743  156.9047 N   0  0  0  0  0  0  0  0  0  0  0  0
  152.4277  139.2189  155.7226 C   0  0  0  0  0  0  0  0  0  0  0  0
  151.3489  139.6989  155.1015 N   0  0  0  0  0  0  0  0  0  0  0  0
  150.7372  140.6672  155.8431 C   0  0  0  0  0  0  0  0  0  0  0  0
  148.0463  139.8443  154.2827 C   0  0  2  0  0  0  0  0  0  0  0  0
  148.3090  139.1137  153.1020 O   0  0  0  0  0  0  0  0  0  0  0  0
  146.5684  140.2324  154.3577 C   0  0  1  0  0  0  0  0  0  0  0  0
  145.8934  139.4515  155.3241 O   0  0  0  0  0  0  0  0  0  0  0  0
  146.7432  141.7346  155.8910 H   0  0  0  0  0  0  0  0  0  0  0  0
  149.5171  141.3225  153.4801 H   0  0  0  0  0  0  0  0  0  0  0  0
  148.3511  139.2510  155.1466 H   0  0  0  0  0  0  0  0  0  0  0  0
  146.0911  140.1251  153.3831 H   0  0  0  0  0  0  0  0  0  0  0  0
  143.8150  141.5125  154.2776 H   0  0  0  0  0  0  0  0  0  0  0  0
  145.3458  142.7083  153.3581 H   0  0  0  0  0  0  0  0  0  0  0  0
  145.5531  143.5823  154.8632 H   0  0  0  0  0  0  0  0  0  0  0  0
  148.5815  142.9249  156.6509 H   0  0  0  0  0  0  0  0  0  0  0  0
  153.1171  138.8757  159.5104 H   0  0  0  0  0  0  0  0  0  0  0  0
  154.6262  139.7120  159.1483 H   0  0  0  0  0  0  0  0  0  0  0  0
  153.1371  139.6868  161.7117 H   0  0  0  0  0  0  0  0  0  0  0  0
  154.7631  140.3399  161.3956 H   0  0  0  0  0  0  0  0  0  0  0  0
  153.3942  142.4238  162.9611 H   0  0  0  0  0  0  0  0  0  0  0  0
  152.3826  144.6459  162.4085 H   0  0  0  0  0  0  0  0  0  0  0  0
  151.6100  145.1248  160.0933 H   0  0  0  0  0  0  0  0  0  0  0  0
  151.8253  143.4019  158.3105 H   0  0  0  0  0  0  0  0  0  0  0  0
  152.9583  138.4358  155.2015 H   0  0  0  0  0  0  0  0  0  0  0  0
  148.9543  139.5854  152.5978 H   0  0  0  0  0  0  0  0  0  0  0  0
  145.2810  138.8871  154.8777 H   0  0  0  0  0  0  0  0  0  0  0  0
  1  2  1  0  0  0  0
  1 32  1  0  0  0  0
  2  3  1  0  0  0  0
  2 33  1  0  0  0  0
  2 34  1  0  0  0  0
  3 28  1  0  0  0  0
  3 26  1  0  0  0  0
  3  4  1  0  0  0  0
  4  5  1  0  0  0  0
  5 29  1  0  0  0  0
  5  6  1  0  0  0  0
  5 24  1  0  0  0  0
  6 23  1  0  0  0  0
  6  7  1  0  0  0  0
  7  8  2  0  0  0  0
  7 35  1  0  0  0  0
  8  9  1  0  0  0  0
  9 23  2  0  0  0  0
  9 10  1  0  0  0  0
 10 11  1  0  0  0  0
 10 20  2  0  0  0  0
 11 19  1  0  0  0  0
 11 12  1  0  0  0  0
 12 13  1  0  0  0  0
 12 36  1  0  0  0  0
 12 37  1  0  0  0  0
 13 14  1  0  0  0  0
 13 38  1  0  0  0  0
 13 39  1  0  0  0  0
 14 19  2  0  0  0  0
 14 15  1  0  0  0  0
 15 16  2  0  0  0  0
 15 40  1  0  0  0  0
 16 17  1  0  0  0  0
 16 41  1  0  0  0  0
 17 18  2  0  0  0  0
 17 42  1  0  0  0  0
 18 19  1  0  0  0  0
 18 43  1  0  0  0  0
 20 21  1  0  0  0  0
 21 22  2  0  0  0  0
 21 44  1  0  0  0  0
 22 23  1  0  0  0  0
 24 30  1  0  0  0  0
 24 25  1  0  0  0  0
 24 26  1  0  0  0  0
 25 45  1  0  0  0  0
 26 31  1  0  0  0  0
 26 27  1  0  0  0  0
 27 46  1  0  0  0  0
M  END
> <s_m_source_file>
AV-unprocessed.smi

> <i_m_source_file_index>
110

> <i_lp_mmshare_version>
43012

> <i_f3d_flags>
0

> <s_epik_input>
W09IXVtDSDJdW0NASF0xT1tDQEhdKFtDQEhdKFtPSF0pW0NAQEhdMVtPSF0pbihbY0hdbjIpYyhjMjMpbltjSF1uYzNOKFtDSDJdW0NIMl00KWMoYzQ1KVtjSF1bY0hdW2NIXVtjSF01

> <s_epik_cmdline>
J2VwaWtfcHl0aG9uJywgJy1waCcsICc3LjAnLCAnLXRuJywgJzgnLCAnLW1hJywgJzIwMCcsICctbWV0YWxfYmluZGluZycsICctaW1hZScsICc8aW5maWxlLm1hZT4nLCAnLW9tYWUnLCAnPG91dGZpbGUubWFlPic=

> <r_lp_tautomer_probability>
1

> <r_epik_Ionization_Penalty>
0.00068475

> <r_epik_Ionization_Penalty_Charging>
0

> <r_epik_Ionization_Penalty_Neutral>
0.00068475

> <r_epik_State_Penalty>
0.000417442

> <r_epik_Charging_Adjusted_Penalty>
0.000417442

> <i_epik_Tot_Q>
0

> <i_epik_Tot_abs_Q>
0

> <r_epik_Metal_State_Penalty>
-0

> <b_epik_Metal_Only>
0

> <s_epik_Chemistry_Notes>
This compound contains an acetal/aminal-like group ( X-CH(R)-Y where X, Y are N, S, or O) that may be acid/base labile, releasing an aldehyde.

> <s_lp_Force_Field>
OPLS_2005

> <r_lp_Energy>
55.1552

> <b_lp_Chiralities_Consistent>
1

> <s_lp_Variant>
AV-unprocessed.smi:110-10

> <Gold.Version>
5.8.1

> <Gold.Id.Protein>
6NUR|6NUR_protein|mol2

> <Gold.PLP.Fitness>
64.6645

> <Gold.PLP.PLP>
-51.8466

> <Gold.PLP.part.hbond>
-4.9077

> <Gold.PLP.part.metal>
0.0000

> <Gold.PLP.part.buried>
-3.5061

> <Gold.PLP.part.nonpolar>
-45.6779

> <Gold.PLP.part.repulsive>
0.7497

> <Gold.PLP.ligand.clash>
0.0000

> <Gold.PLP.ligand.torsion>
0.3915

> <Gold.PLP.Chemscore.Hbond>
3.7920

> <Gold.PLP.Chemscore.CHOScore>
0.7151

> <Gold.PLP.Chemscore.Metal>
0.0000

> <Gold.Chemscore.Hbonds>
donor molecule, donor type, donor heavy atom, donor atom, acceptor molecule, acceptor atom, score
      L1  H     1    32       P1 10175  0.94
      L1  H    25    45       P1  7957  1.00
      P1  H  7989  7998       L1    22  0.75
      P1  H  7997  8009       L1    20  1.00
      L1  C     7    35       P1  8028  0.73

> <Gold.PLP.Chemscore.Internal.Correction>
0.0794

> <Gold.Rescore>
     Score         DG    S(hbond)    S(metal)    S(lipo)     H(rot)  DE(clash)    DE(int)     intcor
     13.65     -17.10       2.27        0.00     108.42       3.38       1.67       1.78       ----

> <Gold.Chemscore.Fitness>
13.6475

> <Gold.Chemscore.DG>
-17.1008

> <Gold.Chemscore.ZeroCoef>
-5.4800

> <Gold.Chemscore.Hbond>
2.2749

> <Gold.Chemscore.Metal>
0.0000

> <Gold.Chemscore.Lipo>
108.4156

> <Gold.Chemscore.Internal_Hbond>
0.0000

> <Gold.Chemscore.DEClash>
1.6745

> <Gold.Chemscore.DEInternal>
1.7788

> <Gold.Chemscore.Rot>
3.3837

> <Gold.Chemscore.Internal.Correction>
   9.000000E+99

> <Gold.Chemscore.Hbonds>
donor molecule, donor type, donor heavy atom, donor atom, acceptor molecule, acceptor atom, score
      L1  H     1    32       P1 10175  0.20
      L1  H    25    45       P1  7957  0.94
      P1  H  7989  7998       L1    22  0.08
      P1  H  7997  8009       L1    20  0.31

> <Gold.Chemscore.Hbond.Weighted>
-7.5983

> <Gold.Chemscore.Metal.Weighted>
-0.0000

> <Gold.Chemscore.Lipo.Weighted>
-12.6846

> <Gold.Chemscore.Internal_Hbond.Weighted>
0.0000

> <Gold.Chemscore.DEClash.Weighted>
1.6745

> <Gold.Chemscore.DEInternal.Weighted>
1.7788

> <Gold.Chemscore.Rot.Weighted>
8.6622

> <Gold.Chemscore.Internal.Correction.Weighted>
   9.000000E+99

> <Gold.Protein.RotatedTorsions>
[ 6907 6896 6895 6894 ] final  -44.82 input  -60.11 | X-H torsion
[ 7974 7965 7964 7962 ] final -101.94 input  175.53 | X-H torsion
[ 8008 7997 7996 7995 ] final  171.19 input   59.86 | X-H torsion
[ 10167 10162 10161 10158 ] final   43.12 input  -65.29 | X-H torsion
[ 10718 10713 10712 10709 ] final   88.91 input   66.30 | X-H torsion
[ 10763 10752 10751 10750 ] final   58.53 input  -60.55 | X-H torsion
[ 11005 11000 10999 10996 ] final  143.22 input  -57.11 | X-H torsion

> <Gold.Protein.ActiveResidues>
 VAL166  LYS551  ARG553  GLY616  TRP617  ASP618  TYR619  PRO620  LYS621  CYS622 
 ASP623  PHE694  ASN695  SER759  ASP760  ASP761  ALA762  ILE779  LEU786  VAL792 
 PHE793  MET794  SER795  GLU796  ALA797  LYS798  CYS799  TRP800  GLU811  SER814 

> <Gold.Protein.RotatedAtoms>
  150.9287  134.8702  159.7536 H   0  0  0  0  0  0  0  0  0  0  0  0  # atno 6907 bound_to 6896
  152.5027  134.4112  159.9459 H   0  0  0  0  0  0  0  0  0  0  0  0  # atno 6908 bound_to 6896
  151.4140  133.3679  159.2782 H   0  0  0  0  0  0  0  0  0  0  0  0  # atno 6909 bound_to 6896
  145.2751  140.9310  143.2964 H   0  0  0  0  0  0  0  0  0  0  0  0  # atno 7974 bound_to 7965
  156.1295  140.1518  156.9087 H   0  0  0  0  0  0  0  0  0  0  0  0  # atno 8008 bound_to 7997
  154.4897  140.0855  156.7608 H   0  0  0  0  0  0  0  0  0  0  0  0  # atno 8009 bound_to 7997
  155.4283  140.3426  155.4280 H   0  0  0  0  0  0  0  0  0  0  0  0  # atno 8010 bound_to 7997
  140.3475  144.2392  150.6149 H   0  0  0  0  0  0  0  0  0  0  0  0  # atno 10167 bound_to 10162
  157.6952  131.0313  150.3346 H   0  0  0  0  0  0  0  0  0  0  0  0  # atno 10718 bound_to 10713
  152.9873  135.5603  154.5566 H   0  0  0  0  0  0  0  0  0  0  0  0  # atno 10763 bound_to 10752
  154.4993  135.2796  155.1435 H   0  0  0  0  0  0  0  0  0  0  0  0  # atno 10764 bound_to 10752
  154.2872  135.6333  153.5424 H   0  0  0  0  0  0  0  0  0  0  0  0  # atno 10765 bound_to 10752
  140.0537  134.9242  157.1062 H   0  0  0  0  0  0  0  0  0  0  0  0  # atno 11005 bound_to 11000
  144.9301  139.4308  143.6499 LP  0  0  0  0  0  0  0  0  0  0  0  0  # atno 17320 bound_to 7965
  146.3234  139.8208  142.8927 LP  0  0  0  0  0  0  0  0  0  0  0  0  # atno 17321 bound_to 7965
  140.5250  143.2256  151.8329 LP  0  0  0  0  0  0  0  0  0  0  0  0  # atno 17342 bound_to 10162
  139.4831  144.4790  151.9330 LP  0  0  0  0  0  0  0  0  0  0  0  0  # atno 17343 bound_to 10162
  156.3815  130.3881  149.7098 LP  0  0  0  0  0  0  0  0  0  0  0  0  # atno 17370 bound_to 10713
  156.4479  130.7892  151.2914 LP  0  0  0  0  0  0  0  0  0  0  0  0  # atno 17371 bound_to 10713
  140.3877  134.2218  155.7167 LP  0  0  0  0  0  0  0  0  0  0  0  0  # atno 17394 bound_to 11000
  141.1942  133.8133  157.0767 LP  0  0  0  0  0  0  0  0  0  0  0  0  # atno 17395 bound_to 11000

$$$$
