AV-unprocessed.smi:2037|AV-procd|sdf|8276|dock9
  -GOLD-   2272010543D 1   1.00000     0.00000
 Structure written by MMmdl.
 39 40  0  0  0  0  0  0  0  0  2 V2000
  145.0197  136.1504  151.7460 C   0  0  0  0  0  0  0  0  0  0  0  0
  145.9249  137.2502  152.3182 C   0  0  2  0  0  0  0  0  0  0  0  0
  145.3178  137.8904  153.5774 C   0  0  0  0  0  0  0  0  0  0  0  0
  146.2191  139.0104  154.1240 C   0  0  0  0  0  0  0  0  0  0  0  0
  146.4760  140.0477  153.0916 N   0  3  1  0  0  0  0  0  0  0  0  0
  147.2381  141.2003  153.6338 C   0  0  0  0  0  0  0  0  0  0  0  0
  148.5455  140.7673  154.3259 C   0  0  0  0  0  0  0  0  0  0  0  0
  149.0390  141.7977  155.2323 N   0  0  0  0  0  0  0  0  0  0  0  0
  149.9732  141.6025  156.1745 C   0  0  0  0  0  0  0  0  0  0  0  0
  150.5107  140.5129  156.3755 O   0  0  0  0  0  0  0  0  0  0  0  0
  150.2310  142.7352  156.8514 N   0  0  0  0  0  0  0  0  0  0  0  0
  151.1396  142.9270  157.9254 C   0  0  0  0  0  0  0  0  0  0  0  0
  151.7993  141.9387  158.5410 N   0  0  0  0  0  0  0  0  0  0  0  0
  152.6238  142.4161  159.5631 C   0  0  0  0  0  0  0  0  0  0  0  0
  152.5780  143.7801  159.7136 C   0  0  0  0  0  0  0  0  0  0  0  0
  151.4911  144.5235  158.5709 S   0  0  0  0  0  0  0  0  0  0  0  0
  147.0953  139.4592  151.8737 C   0  0  0  0  0  0  0  0  0  0  0  0
  146.2108  138.3493  151.2814 C   0  0  0  0  0  0  0  0  0  0  0  0
  144.0485  136.5485  151.4502 H   0  0  0  0  0  0  0  0  0  0  0  0
  144.8468  135.3630  152.4802 H   0  0  0  0  0  0  0  0  0  0  0  0
  145.4713  135.6880  150.8678 H   0  0  0  0  0  0  0  0  0  0  0  0
  146.8738  136.7883  152.5954 H   0  0  0  0  0  0  0  0  0  0  0  0
  144.3310  138.2959  153.3485 H   0  0  0  0  0  0  0  0  0  0  0  0
  145.1685  137.1321  154.3470 H   0  0  0  0  0  0  0  0  0  0  0  0
  145.7358  139.4631  154.9908 H   0  0  0  0  0  0  0  0  0  0  0  0
  147.1679  138.5964  154.4698 H   0  0  0  0  0  0  0  0  0  0  0  0
  147.4996  141.8762  152.8184 H   0  0  0  0  0  0  0  0  0  0  0  0
  146.6002  141.7702  154.3111 H   0  0  0  0  0  0  0  0  0  0  0  0
  148.4178  139.8382  154.8821 H   0  0  0  0  0  0  0  0  0  0  0  0
  149.3158  140.5771  153.5780 H   0  0  0  0  0  0  0  0  0  0  0  0
  148.6490  142.7237  155.1302 H   0  0  0  0  0  0  0  0  0  0  0  0
  149.7170  143.5566  156.5684 H   0  0  0  0  0  0  0  0  0  0  0  0
  153.2108  141.7133  160.1358 H   0  0  0  0  0  0  0  0  0  0  0  0
  153.1153  144.3898  160.4246 H   0  0  0  0  0  0  0  0  0  0  0  0
  147.2500  140.2262  151.1157 H   0  0  0  0  0  0  0  0  0  0  0  0
  148.0804  139.0601  152.1212 H   0  0  0  0  0  0  0  0  0  0  0  0
  146.7002  137.9193  150.4067 H   0  0  0  0  0  0  0  0  0  0  0  0
  145.2727  138.7807  150.9286 H   0  0  0  0  0  0  0  0  0  0  0  0
  145.5710  140.4048  152.8206 H   0  0  0  0  0  0  0  0  0  0  0  0
  1  2  1  0  0  0  0
  1 19  1  0  0  0  0
  1 20  1  0  0  0  0
  1 21  1  0  0  0  0
  2 18  1  0  0  0  0
  2  3  1  0  0  0  0
  2 22  1  0  0  0  0
  3  4  1  0  0  0  0
  3 23  1  0  0  0  0
  3 24  1  0  0  0  0
  4  5  1  0  0  0  0
  4 25  1  0  0  0  0
  4 26  1  0  0  0  0
  5  6  1  0  0  0  0
  5 17  1  0  0  0  0
  5 39  1  0  0  0  0
  6  7  1  0  0  0  0
  6 27  1  0  0  0  0
  6 28  1  0  0  0  0
  7  8  1  0  0  0  0
  7 29  1  0  0  0  0
  7 30  1  0  0  0  0
  8  9  1  0  0  0  0
  8 31  1  0  0  0  0
  9 10  2  0  0  0  0
  9 11  1  0  0  0  0
 11 12  1  0  0  0  0
 11 32  1  0  0  0  0
 12 16  1  0  0  0  0
 12 13  2  0  0  0  0
 13 14  1  0  0  0  0
 14 15  2  0  0  0  0
 14 33  1  0  0  0  0
 15 16  1  0  0  0  0
 15 34  1  0  0  0  0
 17 18  1  0  0  0  0
 17 35  1  0  0  0  0
 17 36  1  0  0  0  0
 18 37  1  0  0  0  0
 18 38  1  0  0  0  0
M  CHG  1   5   1
M  END
> <s_m_source_file>
AV-unprocessed.smi

> <i_m_source_file_index>
2037

> <i_lp_mmshare_version>
43012

> <i_f3d_flags>
0

> <s_epik_input>
W0NIM11bQ0hdMVtDSDJdW0NIMl1OKFtDSDJdW0NIMl0xKVtDSDJdW0NIMl1bTkhdQyg9TylbTkhdYzJuW2NIXVtjSF1zMg==

> <s_epik_cmdline>
J2VwaWtfcHl0aG9uJywgJy1waCcsICc3LjAnLCAnLXRuJywgJzgnLCAnLW1hJywgJzIwMCcsICctbWV0YWxfYmluZGluZycsICctaW1hZScsICc8aW5maWxlLm1hZT4nLCAnLW9tYWUnLCAnPG91dGZpbGUubWFlPic=

> <r_lp_tautomer_probability>
0.999

> <r_epik_Ionization_Penalty>
0.00182893

> <r_epik_Ionization_Penalty_Charging>
0.00168873

> <r_epik_Ionization_Penalty_Neutral>
0.000140204

> <r_epik_State_Penalty>
0.00114045

> <r_epik_Charging_Adjusted_Penalty>
0.00282917

> <i_epik_Tot_Q>
1

> <i_epik_Tot_abs_Q>
1

> <r_epik_Metal_State_Penalty>
0.0569426

> <b_epik_Metal_Only>
0

> <s_lp_Force_Field>
OPLS_2005

> <r_lp_Energy>
13.393

> <b_lp_Chiralities_Consistent>
1

> <s_lp_Variant>
AV-unprocessed.smi:2037-1

> <Gold.Version>
5.8.1

> <Gold.Id.Protein>
6NUR|6NUR_protein|mol2

> <Gold.PLP.Fitness>
47.8365

> <Gold.PLP.PLP>
-36.6783

> <Gold.PLP.part.hbond>
-3.0000

> <Gold.PLP.part.metal>
0.0000

> <Gold.PLP.part.buried>
1.8585

> <Gold.PLP.part.nonpolar>
-36.1269

> <Gold.PLP.part.repulsive>
0.2783

> <Gold.PLP.ligand.clash>
0.0000

> <Gold.PLP.ligand.torsion>
0.2521

> <Gold.PLP.Chemscore.Hbond>
3.8800

> <Gold.PLP.Chemscore.CHOScore>
0.0000

> <Gold.PLP.Chemscore.Metal>
0.0000

> <Gold.Chemscore.Hbonds>
donor molecule, donor type, donor heavy atom, donor atom, acceptor molecule, acceptor atom, score
      L1  H     5    39       P1 10175  2.00
      L1  H     8    31       P1  8028  0.83
      L1  H    11    32       P1  8028  1.00

> <Gold.PLP.Chemscore.Internal.Correction>
0.0225

> <Gold.Rescore>
     Score         DG    S(hbond)    S(metal)    S(lipo)     H(rot)  DE(clash)    DE(int)     intcor
     17.00     -20.79       2.74        0.00      87.68       1.60       2.30       1.49       ----

> <Gold.Chemscore.Fitness>
17.0003

> <Gold.Chemscore.DG>
-20.7872

> <Gold.Chemscore.ZeroCoef>
-5.4800

> <Gold.Chemscore.Hbond>
2.7380

> <Gold.Chemscore.Metal>
0.0000

> <Gold.Chemscore.Lipo>
87.6798

> <Gold.Chemscore.Internal_Hbond>
0.0000

> <Gold.Chemscore.DEClash>
2.2974

> <Gold.Chemscore.DEInternal>
1.4896

> <Gold.Chemscore.Rot>
1.6001

> <Gold.Chemscore.Internal.Correction>
   9.000000E+99

> <Gold.Chemscore.Hbonds>
donor molecule, donor type, donor heavy atom, donor atom, acceptor molecule, acceptor atom, score
      L1  H     5    39       P1 10175  0.85
      L1  H     8    31       P1  8028  0.78
      L1  H    11    32       P1  8028  1.00

> <Gold.Chemscore.Hbond.Weighted>
-9.1450

> <Gold.Chemscore.Metal.Weighted>
-0.0000

> <Gold.Chemscore.Lipo.Weighted>
-10.2585

> <Gold.Chemscore.Internal_Hbond.Weighted>
0.0000

> <Gold.Chemscore.DEClash.Weighted>
2.2974

> <Gold.Chemscore.DEInternal.Weighted>
1.4896

> <Gold.Chemscore.Rot.Weighted>
4.0963

> <Gold.Chemscore.Internal.Correction.Weighted>
   9.000000E+99

> <Gold.Protein.RotatedTorsions>
[ 6907 6896 6895 6894 ] final  103.52 input  -60.11 | X-H torsion
[ 7974 7965 7964 7962 ] final  161.58 input  175.53 | X-H torsion
[ 8008 7997 7996 7995 ] final  -97.90 input   59.86 | X-H torsion
[ 10167 10162 10161 10158 ] final  -19.10 input  -65.29 | X-H torsion
[ 10718 10713 10712 10709 ] final   35.68 input   66.30 | X-H torsion
[ 10763 10752 10751 10750 ] final   33.62 input  -60.55 | X-H torsion
[ 11005 11000 10999 10996 ] final  -25.21 input  -57.11 | X-H torsion

> <Gold.Protein.ActiveResidues>
 VAL166  LYS551  ARG553  GLY616  TRP617  ASP618  TYR619  PRO620  LYS621  CYS622 
 ASP623  PHE694  ASN695  SER759  ASP760  ASP761  ALA762  ILE779  LEU786  VAL792 
 PHE793  MET794  SER795  GLU796  ALA797  LYS798  CYS799  TRP800  GLU811  SER814 

> <Gold.Protein.RotatedAtoms>
  152.5293  133.9813  159.7807 H   0  0  0  0  0  0  0  0  0  0  0  0  # atno 6907 bound_to 6896
  151.0066  133.5997  159.2695 H   0  0  0  0  0  0  0  0  0  0  0  0  # atno 6908 bound_to 6896
  151.3086  135.0795  159.9317 H   0  0  0  0  0  0  0  0  0  0  0  0  # atno 6909 bound_to 6896
  144.7678  139.7919  143.6308 H   0  0  0  0  0  0  0  0  0  0  0  0  # atno 7974 bound_to 7965
  154.7940  140.0459  157.1222 H   0  0  0  0  0  0  0  0  0  0  0  0  # atno 8008 bound_to 7997
  154.9557  140.3071  155.5034 H   0  0  0  0  0  0  0  0  0  0  0  0  # atno 8009 bound_to 7997
  156.2953  140.2280  156.4638 H   0  0  0  0  0  0  0  0  0  0  0  0  # atno 8010 bound_to 7997
  140.7265  143.4851  151.0065 H   0  0  0  0  0  0  0  0  0  0  0  0  # atno 10167 bound_to 10162
  157.3257  130.7471  149.6814 H   0  0  0  0  0  0  0  0  0  0  0  0  # atno 10718 bound_to 10713
  153.0203  135.6382  154.1540 H   0  0  0  0  0  0  0  0  0  0  0  0  # atno 10763 bound_to 10752
  154.1275  135.2842  155.3195 H   0  0  0  0  0  0  0  0  0  0  0  0  # atno 10764 bound_to 10752
  154.6218  135.5522  153.7646 H   0  0  0  0  0  0  0  0  0  0  0  0  # atno 10765 bound_to 10752
  140.8916  133.7584  156.0429 H   0  0  0  0  0  0  0  0  0  0  0  0  # atno 11005 bound_to 11000
  146.1801  139.4989  142.9872 LP  0  0  0  0  0  0  0  0  0  0  0  0  # atno 17320 bound_to 7965
  145.6415  141.0283  143.1809 LP  0  0  0  0  0  0  0  0  0  0  0  0  # atno 17321 bound_to 7965
  139.8552  143.7386  152.3176 LP  0  0  0  0  0  0  0  0  0  0  0  0  # atno 17342 bound_to 10162
  139.7582  144.7514  151.0404 LP  0  0  0  0  0  0  0  0  0  0  0  0  # atno 17343 bound_to 10162
  155.9690  130.4210  150.4448 LP  0  0  0  0  0  0  0  0  0  0  0  0  # atno 17370 bound_to 10713
  157.2472  131.0538  151.2401 LP  0  0  0  0  0  0  0  0  0  0  0  0  # atno 17371 bound_to 10713
  140.8339  134.3146  157.5339 LP  0  0  0  0  0  0  0  0  0  0  0  0  # atno 17394 bound_to 11000
  139.8730  134.9379  156.3699 LP  0  0  0  0  0  0  0  0  0  0  0  0  # atno 17395 bound_to 11000

$$$$
