#       Name:                AV-unprocessed.smi:2215
#       Creating user name   scv26
#       Creation time:       Fri Mar 27 12:18:03 2020


#       File generated by GOLD software.
#

@<TRIPOS>MOLECULE
AV-unprocessed.smi:2215
    45    46     1
SMALL
NO_CHARGES


@<TRIPOS>ATOM
      1 ****        -6.0442   3.8137  -1.1173 C.3            1 S1                 0.0000
      2 ****        -4.8975   2.8245  -1.0993 C.ar           1 S1                 0.0000
      3 ****        -5.1345   1.4375  -1.1336 C.ar           1 S1                 0.0000
      4 ****        -4.0329   0.5603  -1.1222 C.ar           1 S1                 0.0000
      5 ****        -2.7228   1.0882  -1.0780 C.ar           1 S1                 0.0000
      6 ****        -1.6843   0.1188  -1.0813 N.am           1 S1                 0.0000
      7 ****        -0.3555   0.3222  -1.0427 C.2            1 S1                 0.0000
      8 ****         0.1961   1.4186  -0.9419 O.2            1 S1                 0.0000
      9 ****         0.3141  -0.8366  -1.1260 N.am           1 S1                 0.0000
     10 ****         1.7677  -0.9691  -1.1282 C.3            1 S1                 0.0000
     11 ****         2.3721  -0.9443   0.2944 C.3            1 S1                 0.0000
     12 ****         1.8274  -2.0709   1.2025 C.3            1 S1                 0.0000
     13 ****         2.4209  -1.9950   2.6187 C.3            1 S1                 0.0000
     14 ****         3.9561  -2.0210   2.5860 C.3            1 S1                 0.0000
     15 ****         4.5140  -0.9030   1.6887 C.3            1 S1                 0.0000
     16 ****         3.9208  -0.9505   0.2673 C.3            1 S1                 0.0000
     17 ****         4.4178  -2.0937  -0.4039 O.3            1 S1                 0.0000
     18 ****        -2.5047   2.4267  -1.0443 N.ar           1 S1                 0.0000
     19 ****        -3.5611   3.2668  -1.0549 C.ar           1 S1                 0.0000
     20 ****        -6.9607   3.3563  -0.7433 H              1 S1                 0.0000
     21 ****        -6.2241   4.1618  -2.1345 H              1 S1                 0.0000
     22 ****        -5.8176   4.6781  -0.4923 H              1 S1                 0.0000
     23 ****        -6.1416   1.0490  -1.1695 H              1 S1                 0.0000
     24 ****        -4.1972  -0.5072  -1.1495 H              1 S1                 0.0000
     25 ****        -1.9888  -0.8415  -1.1436 H              1 S1                 0.0000
     26 ****        -0.2188  -1.6907  -1.2025 H              1 S1                 0.0000
     27 ****         2.0106  -1.9090  -1.6242 H              1 S1                 0.0000
     28 ****         2.2070  -0.1793  -1.7399 H              1 S1                 0.0000
     29 ****         2.0757   0.0020   0.7502 H              1 S1                 0.0000
     30 ****         0.7412  -2.0101   1.2727 H              1 S1                 0.0000
     31 ****         2.0520  -3.0435   0.7628 H              1 S1                 0.0000
     32 ****         2.0818  -1.0808   3.1074 H              1 S1                 0.0000
     33 ****         2.0488  -2.8235   3.2221 H              1 S1                 0.0000
     34 ****         4.3507  -1.9160   3.5969 H              1 S1                 0.0000
     35 ****         4.2970  -2.9914   2.2227 H              1 S1                 0.0000
     36 ****         4.2816   0.0626   2.1393 H              1 S1                 0.0000
     37 ****         5.6022  -0.9639   1.6474 H              1 S1                 0.0000
     38 ****         4.2722  -0.0786  -0.2858 H              1 S1                 0.0000
     39 ****         4.0902  -2.0876  -1.2901 H              1 S1                 0.0000
     40 ****        -3.3312   4.3220  -1.0304 H              1 S1                 0.0000
     41 ****        -0.3541   2.2514  -0.8811 LP             1 S1                 0.0000
     42 ****         1.1942   1.4761  -0.9209 LP             1 S1                 0.0000
     43 ****         4.1079  -2.9211   0.0645 LP             1 S1                 0.0000
     44 ****         5.4175  -2.0710  -0.4138 LP             1 S1                 0.0000
     45 ****        -1.5723   2.7867  -1.0120 LP             1 S1                 0.0000
@<TRIPOS>BOND
    1    1    2 1     
    2    1   20 1     
    3    1   21 1     
    4    1   22 1     
    5    2   19 ar    
    6    2    3 ar    
    7    3    4 ar    
    8    3   23 1     
    9    4    5 ar    
   10    4   24 1     
   11    5    6 1     
   12    5   18 ar    
   13    6    7 am    
   14    6   25 1     
   15    7    8 2     
   16    7    9 am    
   17    9   10 1     
   18    9   26 1     
   19   10   11 1     
   20   10   27 1     
   21   10   28 1     
   22   11   16 1     
   23   11   12 1     
   24   11   29 1     
   25   12   13 1     
   26   12   30 1     
   27   12   31 1     
   28   13   14 1     
   29   13   32 1     
   30   13   33 1     
   31   14   15 1     
   32   14   34 1     
   33   14   35 1     
   34   15   16 1     
   35   15   36 1     
   36   15   37 1     
   37   16   17 1     
   38   16   38 1     
   39   17   39 1     
   40   18   19 ar    
   41   19   40 1     
   42    8   41 1     
   43    8   42 1     
   44   17   43 1     
   45   17   44 1     
   46   18   45 1     
@<TRIPOS>SUBSTRUCTURE
      1 S1             1
@<TRIPOS>SET
LONE_PAIRS      STATIC     ATOMS    <user>   **** ""
5 41 42 43 44 45
DONOR_HYDROGENS      STATIC     ATOMS    <user>   **** ""
3 25 26 39
ATOM$BLUE        STATIC     ATOMS    COLORGROUP SYSTEM
5 41 42 43 44 45
ATOM$RED        STATIC     ATOMS    COLORGROUP SYSTEM
3 25 26 39
