AV-unprocessed.smi:3164|AV-procd|sdf|12079|dock7
  -GOLD-   2272017503D 1   1.00000     0.00000
 Structure written by MMmdl.
 40 41  0  0  0  0  0  0  0  0  3 V2000
  143.9352  132.4114  149.1290 C   0  0  0  0  0  0  0  0  0  0  0  0
  143.7478  133.5515  150.0521 N   0  3  1  0  0  0  0  0  0  0  0  0
  143.4659  133.1212  151.4401 C   0  0  0  0  0  0  0  0  0  0  0  0
  143.2453  134.3460  152.3428 C   0  0  0  0  0  0  0  0  0  0  0  0
  144.3821  135.1995  152.2735 O   0  0  0  0  0  0  0  0  0  0  0  0
  144.6084  135.7008  150.9593 C   0  0  1  0  0  0  0  0  0  0  0  0
  145.8010  136.6682  151.0158 C   0  0  0  0  0  0  0  0  0  0  0  0
  145.4259  137.9477  151.6517 N   0  3  0  0  0  0  0  0  0  0  0  0
  146.5766  138.7849  152.0432 C   0  0  0  0  0  0  0  0  0  0  0  0
  147.0461  138.4467  153.4647 C   0  0  0  0  0  0  0  0  0  0  0  0
  148.0615  139.4456  153.9855 C   0  0  0  0  0  0  0  0  0  0  0  0
  149.3764  139.0405  154.2991 C   0  0  0  0  0  0  0  0  0  0  0  0
  150.2781  140.0077  154.7840 C   0  0  0  0  0  0  0  0  0  0  0  0
  149.8316  141.3344  154.9369 C   0  0  0  0  0  0  0  0  0  0  0  0
  148.4980  141.6369  154.5968 C   0  0  0  0  0  0  0  0  0  0  0  0
  147.6252  140.7166  154.1317 N   0  0  0  0  0  0  0  0  0  0  0  0
  144.8775  134.5093  150.0171 C   0  0  0  0  0  0  0  0  0  0  0  0
  144.8041  131.8154  149.4114 H   0  0  0  0  0  0  0  0  0  0  0  0
  144.0785  132.7633  148.1068 H   0  0  0  0  0  0  0  0  0  0  0  0
  143.0585  131.7629  149.1373 H   0  0  0  0  0  0  0  0  0  0  0  0
  142.5816  132.4827  151.4565 H   0  0  0  0  0  0  0  0  0  0  0  0
  144.2994  132.5257  151.8165 H   0  0  0  0  0  0  0  0  0  0  0  0
  142.3466  134.8910  152.0495 H   0  0  0  0  0  0  0  0  0  0  0  0
  143.1027  134.0303  153.3764 H   0  0  0  0  0  0  0  0  0  0  0  0
  143.7245  136.2423  150.6160 H   0  0  0  0  0  0  0  0  0  0  0  0
  146.6301  136.2152  151.5616 H   0  0  0  0  0  0  0  0  0  0  0  0
  146.1566  136.8749  150.0054 H   0  0  0  0  0  0  0  0  0  0  0  0
  144.8523  138.4745  151.0085 H   0  0  0  0  0  0  0  0  0  0  0  0
  147.3903  138.6296  151.3330 H   0  0  0  0  0  0  0  0  0  0  0  0
  146.2934  139.8368  151.9855 H   0  0  0  0  0  0  0  0  0  0  0  0
  146.1925  138.4169  154.1433 H   0  0  0  0  0  0  0  0  0  0  0  0
  147.4899  137.4501  153.4865 H   0  0  0  0  0  0  0  0  0  0  0  0
  149.6903  138.0147  154.1724 H   0  0  0  0  0  0  0  0  0  0  0  0
  151.2932  139.7367  155.0345 H   0  0  0  0  0  0  0  0  0  0  0  0
  150.4958  142.1020  155.3058 H   0  0  0  0  0  0  0  0  0  0  0  0
  148.1222  142.6438  154.7015 H   0  0  0  0  0  0  0  0  0  0  0  0
  145.7967  133.9981  150.3091 H   0  0  0  0  0  0  0  0  0  0  0  0
  145.0197  134.8657  148.9959 H   0  0  0  0  0  0  0  0  0  0  0  0
  144.8828  137.7465  152.4797 H   0  0  0  0  0  0  0  0  0  0  0  0
  142.9301  134.0505  149.7309 H   0  0  0  0  0  0  0  0  0  0  0  0
  1  2  1  0  0  0  0
  1 18  1  0  0  0  0
  1 19  1  0  0  0  0
  1 20  1  0  0  0  0
  2 17  1  0  0  0  0
  2  3  1  0  0  0  0
  2 40  1  0  0  0  0
  3  4  1  0  0  0  0
  3 21  1  0  0  0  0
  3 22  1  0  0  0  0
  4  5  1  0  0  0  0
  4 23  1  0  0  0  0
  4 24  1  0  0  0  0
  5  6  1  0  0  0  0
  6  7  1  0  0  0  0
  6 17  1  0  0  0  0
  6 25  1  0  0  0  0
  7  8  1  0  0  0  0
  7 26  1  0  0  0  0
  7 27  1  0  0  0  0
  8  9  1  0  0  0  0
  8 28  1  0  0  0  0
  8 39  1  0  0  0  0
  9 10  1  0  0  0  0
  9 29  1  0  0  0  0
  9 30  1  0  0  0  0
 10 11  1  0  0  0  0
 10 31  1  0  0  0  0
 10 32  1  0  0  0  0
 11 16  1  0  0  0  0
 11 12  2  0  0  0  0
 12 13  1  0  0  0  0
 12 33  1  0  0  0  0
 13 14  2  0  0  0  0
 13 34  1  0  0  0  0
 14 15  1  0  0  0  0
 14 35  1  0  0  0  0
 15 16  2  0  0  0  0
 15 36  1  0  0  0  0
 17 37  1  0  0  0  0
 17 38  1  0  0  0  0
M  CHG  1   2   1
M  CHG  1   8   1
M  END
> <s_m_source_file>
AV-unprocessed.smi

> <i_m_source_file_index>
3164

> <i_lp_mmshare_version>
43012

> <i_f3d_flags>
0

> <s_epik_input>
W0NIM11OMVtDSDJdW0NIMl1PW0NASF0oW0NIMl0xKVtDSDJdW05IXVtDSDJdW0NIMl1jMltjSF1bY0hdW2NIXVtjSF1uMg==

> <s_epik_cmdline>
J2VwaWtfcHl0aG9uJywgJy1waCcsICc3LjAnLCAnLXRuJywgJzgnLCAnLW1hJywgJzIwMCcsICctbWV0YWxfYmluZGluZycsICctaW1hZScsICc8aW5maWxlLm1hZT4nLCAnLW9tYWUnLCAnPG91dGZpbGUubWFlPic=

> <r_epik_Ionization_Penalty>
0.294944

> <r_epik_Ionization_Penalty_Charging>
0.29381

> <r_epik_Ionization_Penalty_Neutral>
0.00113372

> <r_epik_State_Penalty>
0.271365

> <r_epik_Charging_Adjusted_Penalty>
0.565175

> <i_epik_Tot_Q>
2

> <i_epik_Tot_abs_Q>
2

> <r_epik_Metal_State_Penalty>
0.271365

> <b_epik_Metal_Only>
0

> <s_lp_Force_Field>
OPLS_2005

> <r_lp_Energy>
20.3644

> <b_lp_Chiralities_Consistent>
1

> <s_lp_Variant>
AV-unprocessed.smi:3164-1

> <Gold.Version>
5.8.1

> <Gold.Id.Protein>
6NUR|6NUR_protein|mol2

> <Gold.PLP.Fitness>
44.4484

> <Gold.PLP.PLP>
-33.1383

> <Gold.PLP.part.hbond>
-2.3008

> <Gold.PLP.part.metal>
0.0000

> <Gold.PLP.part.buried>
2.3176

> <Gold.PLP.part.nonpolar>
-33.3189

> <Gold.PLP.part.repulsive>
0.3354

> <Gold.PLP.ligand.clash>
0.0000

> <Gold.PLP.ligand.torsion>
0.3563

> <Gold.PLP.Chemscore.Hbond>
3.0000

> <Gold.PLP.Chemscore.CHOScore>
1.0000

> <Gold.PLP.Chemscore.Metal>
0.0000

> <Gold.Chemscore.Hbonds>
donor molecule, donor type, donor heavy atom, donor atom, acceptor molecule, acceptor atom, score
      L1  H     2    40       P1 10186  2.00
      L1  H     8    28       P1 10171  1.00
      L1  C    15    36       P1  8028  1.00

> <Gold.PLP.Chemscore.Internal.Correction>
0.0228

> <Gold.Rescore>
     Score         DG    S(hbond)    S(metal)    S(lipo)     H(rot)  DE(clash)    DE(int)     intcor
     16.86     -17.67       1.90        0.00      86.01       1.65       0.28       0.54       ----

> <Gold.Chemscore.Fitness>
16.8575

> <Gold.Chemscore.DG>
-17.6715

> <Gold.Chemscore.ZeroCoef>
-5.4800

> <Gold.Chemscore.Hbond>
1.8985

> <Gold.Chemscore.Metal>
0.0000

> <Gold.Chemscore.Lipo>
86.0063

> <Gold.Chemscore.Internal_Hbond>
0.0000

> <Gold.Chemscore.DEClash>
0.2759

> <Gold.Chemscore.DEInternal>
0.5381

> <Gold.Chemscore.Rot>
1.6454

> <Gold.Chemscore.Internal.Correction>
   9.000000E+99

> <Gold.Chemscore.Hbonds>
donor molecule, donor type, donor heavy atom, donor atom, acceptor molecule, acceptor atom, score
      L1  H     2    40       P1 10186  0.97
      L1  H     8    28       P1 10171  0.92

> <Gold.Chemscore.Hbond.Weighted>
-6.3410

> <Gold.Chemscore.Metal.Weighted>
-0.0000

> <Gold.Chemscore.Lipo.Weighted>
-10.0627

> <Gold.Chemscore.Internal_Hbond.Weighted>
0.0000

> <Gold.Chemscore.DEClash.Weighted>
0.2759

> <Gold.Chemscore.DEInternal.Weighted>
0.5381

> <Gold.Chemscore.Rot.Weighted>
4.2122

> <Gold.Chemscore.Internal.Correction.Weighted>
   9.000000E+99

> <Gold.Protein.RotatedTorsions>
[ 6907 6896 6895 6894 ] final -147.31 input  -60.11 | X-H torsion
[ 7974 7965 7964 7962 ] final  171.71 input  175.53 | X-H torsion
[ 8008 7997 7996 7995 ] final   -2.51 input   59.86 | X-H torsion
[ 10167 10162 10161 10158 ] final  102.05 input  -65.29 | X-H torsion
[ 10718 10713 10712 10709 ] final   90.36 input   66.30 | X-H torsion
[ 10763 10752 10751 10750 ] final  116.63 input  -60.55 | X-H torsion
[ 11005 11000 10999 10996 ] final  -36.81 input  -57.11 | X-H torsion

> <Gold.Protein.ActiveResidues>
 VAL166  LYS551  ARG553  GLY616  TRP617  ASP618  TYR619  PRO620  LYS621  CYS622 
 ASP623  PHE694  ASN695  SER759  ASP760  ASP761  ALA762  ILE779  LEU786  VAL792 
 PHE793  MET794  SER795  GLU796  ALA797  LYS798  CYS799  TRP800  GLU811  SER814 

> <Gold.Protein.RotatedAtoms>
  151.1538  133.4889  159.2594 H   0  0  0  0  0  0  0  0  0  0  0  0  # atno 6907 bound_to 6896
  151.1525  135.0234  159.8685 H   0  0  0  0  0  0  0  0  0  0  0  0  # atno 6908 bound_to 6896
  152.5463  134.1421  159.8536 H   0  0  0  0  0  0  0  0  0  0  0  0  # atno 6909 bound_to 6896
  144.7287  139.9391  143.6428 H   0  0  0  0  0  0  0  0  0  0  0  0  # atno 7974 bound_to 7965
  154.6350  140.2532  155.7389 H   0  0  0  0  0  0  0  0  0  0  0  0  # atno 8008 bound_to 7997
  156.2499  140.2899  156.0639 H   0  0  0  0  0  0  0  0  0  0  0  0  # atno 8009 bound_to 7997
  155.1685  140.0386  157.2848 H   0  0  0  0  0  0  0  0  0  0  0  0  # atno 8010 bound_to 7997
  139.7384  144.7018  151.0614 H   0  0  0  0  0  0  0  0  0  0  0  0  # atno 10167 bound_to 10162
  157.6958  131.0368  150.3566 H   0  0  0  0  0  0  0  0  0  0  0  0  # atno 10718 bound_to 10713
  153.5402  135.3560  155.2715 H   0  0  0  0  0  0  0  0  0  0  0  0  # atno 10763 bound_to 10752
  154.8718  135.4089  154.3053 H   0  0  0  0  0  0  0  0  0  0  0  0  # atno 10764 bound_to 10752
  153.3758  135.7066  153.6671 H   0  0  0  0  0  0  0  0  0  0  0  0  # atno 10765 bound_to 10752
  140.9904  133.7008  156.1839 H   0  0  0  0  0  0  0  0  0  0  0  0  # atno 11005 bound_to 11000
  146.0798  139.3786  143.0471 LP  0  0  0  0  0  0  0  0  0  0  0  0  # atno 17320 bound_to 7965
  145.7856  140.9837  143.1076 LP  0  0  0  0  0  0  0  0  0  0  0  0  # atno 17321 bound_to 7965
  140.7782  143.4955  150.9838 LP  0  0  0  0  0  0  0  0  0  0  0  0  # atno 17342 bound_to 10162
  139.8644  143.7273  152.3171 LP  0  0  0  0  0  0  0  0  0  0  0  0  # atno 17343 bound_to 10162
  156.4007  130.3915  149.6962 LP  0  0  0  0  0  0  0  0  0  0  0  0  # atno 17370 bound_to 10713
  156.4280  130.7801  151.2820 LP  0  0  0  0  0  0  0  0  0  0  0  0  # atno 17371 bound_to 10713
  140.7049  134.4524  157.5584 LP  0  0  0  0  0  0  0  0  0  0  0  0  # atno 17394 bound_to 11000
  139.8989  134.8602  156.1980 LP  0  0  0  0  0  0  0  0  0  0  0  0  # atno 17395 bound_to 11000

$$$$
