AV-unprocessed.smi:598|AV-procd|sdf|3023|dock8
  -GOLD-   2262023533D 1   1.00000     0.00000
 Structure written by MMmdl.
 43 44  0  0  0  0  0  0  0  0  3 V2000
  152.9457  142.7414  162.2081 C   0  0  0  0  0  0  0  0  0  0  0  0
  152.8173  143.3516  160.7999 C   0  0  2  0  0  0  0  0  0  0  0  0
  152.0357  144.6778  160.8828 C   0  0  0  0  0  0  0  0  0  0  0  0
  151.9075  145.3497  159.5119 C   0  0  0  0  0  0  0  0  0  0  0  0
  151.2288  144.4084  158.5129 C   0  0  0  0  0  0  0  0  0  0  0  0
  151.9899  143.0737  158.3909 C   0  0  2  0  0  0  0  0  0  0  0  0
  151.2762  142.1964  157.4639 N   0  0  0  0  0  0  0  0  0  0  0  0
  150.0671  141.6557  157.6779 C   0  0  0  0  0  0  0  0  0  0  0  0
  149.4086  141.8556  158.6995 O   0  0  0  0  0  0  0  0  0  0  0  0
  149.5200  140.7674  156.5515 C   0  0  0  0  0  0  0  0  0  0  0  0
  148.4266  141.3995  155.7943 N   0  0  0  0  0  0  0  0  0  0  0  0
  147.3114  141.8462  156.5307 C   0  0  0  0  0  0  0  0  0  0  0  0
  146.2516  142.4324  155.9400 C   0  0  0  0  0  0  0  0  0  0  0  0
  145.1123  142.8794  156.7109 N   0  3  0  0  0  0  0  0  0  0  0  0
  144.1816  143.4225  156.1244 O   0  0  0  0  0  0  0  0  0  0  0  0
  145.1097  142.7045  157.9259 O   0  5  0  0  0  0  0  0  0  0  0  0
  146.2883  142.5971  154.4998 C   0  0  0  0  0  0  0  0  0  0  0  0
  147.3501  142.1683  153.7894 C   0  0  0  0  0  0  0  0  0  0  0  0
  148.5003  141.5264  154.4338 C   0  0  0  0  0  0  0  0  0  0  0  0
  149.4709  141.1273  153.7899 O   0  0  0  0  0  0  0  0  0  0  0  0
  152.1702  142.3819  159.7698 C   0  0  1  0  0  0  0  0  0  0  0  0
  152.9724  141.0692  159.6304 C   0  0  0  0  0  0  0  0  0  0  0  0
  151.9812  142.3941  162.5803 H   0  0  0  0  0  0  0  0  0  0  0  0
  153.3292  143.4746  162.9182 H   0  0  0  0  0  0  0  0  0  0  0  0
  153.6372  141.8998  162.2252 H   0  0  0  0  0  0  0  0  0  0  0  0
  153.8251  143.5871  160.4538 H   0  0  0  0  0  0  0  0  0  0  0  0
  151.0414  144.4956  161.2932 H   0  0  0  0  0  0  0  0  0  0  0  0
  152.5320  145.3619  161.5723 H   0  0  0  0  0  0  0  0  0  0  0  0
  151.3342  146.2726  159.6017 H   0  0  0  0  0  0  0  0  0  0  0  0
  152.8945  145.6313  159.1435 H   0  0  0  0  0  0  0  0  0  0  0  0
  150.2020  144.2219  158.8309 H   0  0  0  0  0  0  0  0  0  0  0  0
  151.1660  144.8980  157.5402 H   0  0  0  0  0  0  0  0  0  0  0  0
  152.9841  143.2796  157.9888 H   0  0  0  0  0  0  0  0  0  0  0  0
  151.7424  141.9823  156.5942 H   0  0  0  0  0  0  0  0  0  0  0  0
  150.3483  140.5119  155.8892 H   0  0  0  0  0  0  0  0  0  0  0  0
  149.1863  139.8153  156.9686 H   0  0  0  0  0  0  0  0  0  0  0  0
  147.3775  141.6707  157.5948 H   0  0  0  0  0  0  0  0  0  0  0  0
  145.4648  143.0644  153.9802 H   0  0  0  0  0  0  0  0  0  0  0  0
  147.3557  142.3003  152.7173 H   0  0  0  0  0  0  0  0  0  0  0  0
  151.1776  142.1205  160.1405 H   0  0  0  0  0  0  0  0  0  0  0  0
  153.9975  141.2656  159.3151 H   0  0  0  0  0  0  0  0  0  0  0  0
  152.5274  140.3947  158.8992 H   0  0  0  0  0  0  0  0  0  0  0  0
  153.0104  140.5160  160.5678 H   0  0  0  0  0  0  0  0  0  0  0  0
  1  2  1  0  0  0  0
  1 23  1  0  0  0  0
  1 24  1  0  0  0  0
  1 25  1  0  0  0  0
  2 21  1  0  0  0  0
  2  3  1  0  0  0  0
  2 26  1  0  0  0  0
  3  4  1  0  0  0  0
  3 27  1  0  0  0  0
  3 28  1  0  0  0  0
  4  5  1  0  0  0  0
  4 29  1  0  0  0  0
  4 30  1  0  0  0  0
  5  6  1  0  0  0  0
  5 31  1  0  0  0  0
  5 32  1  0  0  0  0
  6  7  1  0  0  0  0
  6 21  1  0  0  0  0
  6 33  1  0  0  0  0
  7  8  1  0  0  0  0
  7 34  1  0  0  0  0
  8  9  2  0  0  0  0
  8 10  1  0  0  0  0
 10 11  1  0  0  0  0
 10 35  1  0  0  0  0
 10 36  1  0  0  0  0
 11 19  1  0  0  0  0
 11 12  1  0  0  0  0
 12 13  2  0  0  0  0
 12 37  1  0  0  0  0
 13 14  1  0  0  0  0
 13 17  1  0  0  0  0
 14 15  2  0  0  0  0
 14 16  1  0  0  0  0
 17 18  2  0  0  0  0
 17 38  1  0  0  0  0
 18 19  1  0  0  0  0
 18 39  1  0  0  0  0
 19 20  2  0  0  0  0
 21 22  1  0  0  0  0
 21 40  1  0  0  0  0
 22 41  1  0  0  0  0
 22 42  1  0  0  0  0
 22 43  1  0  0  0  0
M  CHG  1  14   1
M  CHG  1  16  -1
M  END
> <s_m_source_file>
AV-unprocessed.smi

> <i_m_source_file_index>
598

> <i_lp_mmshare_version>
43012

> <i_f3d_flags>
0

> <s_epik_input>
W0NIM11bQ0BASF0xW0NIMl1bQ0gyXVtDSDJdW0NASF0oW0NASF0xW0NIM10pW05IXUMoPU8pW0NIMl1uMltjSF1jKFtOK10oPU8pW08tXSlbY0hdW2NIXWMyPU8=

> <s_epik_cmdline>
J2VwaWtfcHl0aG9uJywgJy1waCcsICc3LjAnLCAnLXRuJywgJzgnLCAnLW1hJywgJzIwMCcsICctbWV0YWxfYmluZGluZycsICctaW1hZScsICc8aW5maWxlLm1hZT4nLCAnLW9tYWUnLCAnPG91dGZpbGUubWFlPic=

> <r_lp_tautomer_probability>
1

> <r_epik_Ionization_Penalty>
1.91291e-08

> <r_epik_Ionization_Penalty_Charging>
8.21931e-11

> <r_epik_Ionization_Penalty_Neutral>
1.90469e-08

> <r_epik_State_Penalty>
-0

> <r_epik_Charging_Adjusted_Penalty>
8.21931e-11

> <i_epik_Tot_Q>
0

> <i_epik_Tot_abs_Q>
2

> <r_epik_Metal_State_Penalty>
-0

> <b_epik_Metal_Only>
0

> <s_lp_Force_Field>
OPLS_2005

> <r_lp_Energy>
24.1223

> <b_lp_Chiralities_Consistent>
1

> <s_lp_Variant>
AV-unprocessed.smi:598-3

> <Gold.Version>
5.8.1

> <Gold.Id.Protein>
6NUR|6NUR_protein|mol2

> <Gold.PLP.Fitness>
50.3737

> <Gold.PLP.PLP>
-47.2212

> <Gold.PLP.part.hbond>
-2.8628

> <Gold.PLP.part.metal>
0.0000

> <Gold.PLP.part.buried>
-7.9059

> <Gold.PLP.part.nonpolar>
-39.0734

> <Gold.PLP.part.repulsive>
2.3380

> <Gold.PLP.ligand.clash>
0.0000

> <Gold.PLP.ligand.torsion>
0.1940

> <Gold.PLP.Chemscore.Hbond>
1.1776

> <Gold.PLP.Chemscore.CHOScore>
0.0000

> <Gold.PLP.Chemscore.Metal>
0.0000

> <Gold.Chemscore.Hbonds>
donor molecule, donor type, donor heavy atom, donor atom, acceptor molecule, acceptor atom, score
      P1  H  7989  7998       L1    20  0.21
      P1  H  8011  8017       L1    20  0.91

> <Gold.PLP.Chemscore.Internal.Correction>
0.0077

> <Gold.Rescore>
     Score         DG    S(hbond)    S(metal)    S(lipo)     H(rot)  DE(clash)    DE(int)     intcor
     16.36     -17.67       0.94        0.00     110.98       1.54       0.07       1.24       ----

> <Gold.Chemscore.Fitness>
16.3643

> <Gold.Chemscore.DG>
-17.6672

> <Gold.Chemscore.ZeroCoef>
-5.4800

> <Gold.Chemscore.Hbond>
0.9410

> <Gold.Chemscore.Metal>
0.0000

> <Gold.Chemscore.Lipo>
110.9841

> <Gold.Chemscore.Internal_Hbond>
0.0000

> <Gold.Chemscore.DEClash>
0.0668

> <Gold.Chemscore.DEInternal>
1.2361

> <Gold.Chemscore.Rot>
1.5393

> <Gold.Chemscore.Internal.Correction>
   9.000000E+99

> <Gold.Chemscore.Hbonds>
donor molecule, donor type, donor heavy atom, donor atom, acceptor molecule, acceptor atom, score
      P1  H  7989  7998       L1    20  0.21
      P1  H  8011  8017       L1    20  0.57

> <Gold.Chemscore.Hbond.Weighted>
-3.1428

> <Gold.Chemscore.Metal.Weighted>
-0.0000

> <Gold.Chemscore.Lipo.Weighted>
-12.9851

> <Gold.Chemscore.Internal_Hbond.Weighted>
0.0000

> <Gold.Chemscore.DEClash.Weighted>
0.0668

> <Gold.Chemscore.DEInternal.Weighted>
1.2361

> <Gold.Chemscore.Rot.Weighted>
3.9407

> <Gold.Chemscore.Internal.Correction.Weighted>
   9.000000E+99

> <Gold.Protein.RotatedTorsions>
[ 6907 6896 6895 6894 ] final  128.28 input  -60.11 | X-H torsion
[ 7974 7965 7964 7962 ] final  110.71 input  175.53 | X-H torsion
[ 8008 7997 7996 7995 ] final   39.44 input   59.86 | X-H torsion
[ 10167 10162 10161 10158 ] final  -85.94 input  -65.29 | X-H torsion
[ 10718 10713 10712 10709 ] final   99.69 input   66.30 | X-H torsion
[ 10763 10752 10751 10750 ] final  101.37 input  -60.55 | X-H torsion
[ 11005 11000 10999 10996 ] final   64.69 input  -57.11 | X-H torsion

> <Gold.Protein.ActiveResidues>
 VAL166  LYS551  ARG553  GLY616  TRP617  ASP618  TYR619  PRO620  LYS621  CYS622 
 ASP623  PHE694  ASN695  SER759  ASP760  ASP761  ALA762  ILE779  LEU786  VAL792 
 PHE793  MET794  SER795  GLU796  ALA797  LYS798  CYS799  TRP800  GLU811  SER814 

> <Gold.Protein.RotatedAtoms>
  152.3734  133.6449  159.6104 H   0  0  0  0  0  0  0  0  0  0  0  0  # atno 6907 bound_to 6896
  150.7685  133.9233  159.3413 H   0  0  0  0  0  0  0  0  0  0  0  0  # atno 6908 bound_to 6896
  151.7052  135.0924  160.0309 H   0  0  0  0  0  0  0  0  0  0  0  0  # atno 6909 bound_to 6896
  145.2515  139.2738  143.4065 H   0  0  0  0  0  0  0  0  0  0  0  0  # atno 7974 bound_to 7965
  155.2366  140.3342  155.4297 H   0  0  0  0  0  0  0  0  0  0  0  0  # atno 8008 bound_to 7997
  156.2273  140.1835  156.7377 H   0  0  0  0  0  0  0  0  0  0  0  0  # atno 8009 bound_to 7997
  154.5920  140.0636  156.9236 H   0  0  0  0  0  0  0  0  0  0  0  0  # atno 8010 bound_to 7997
  140.3989  143.2671  151.9168 H   0  0  0  0  0  0  0  0  0  0  0  0  # atno 10167 bound_to 10162
  157.6870  131.0677  150.4987 H   0  0  0  0  0  0  0  0  0  0  0  0  # atno 10718 bound_to 10713
  153.3258  135.4047  155.1454 H   0  0  0  0  0  0  0  0  0  0  0  0  # atno 10763 bound_to 10752
  154.8611  135.3598  154.5536 H   0  0  0  0  0  0  0  0  0  0  0  0  # atno 10764 bound_to 10752
  153.5972  135.7072  153.5458 H   0  0  0  0  0  0  0  0  0  0  0  0  # atno 10765 bound_to 10752
  139.9942  134.6543  156.0038 H   0  0  0  0  0  0  0  0  0  0  0  0  # atno 11005 bound_to 11000
  146.3301  140.2907  142.8615 LP  0  0  0  0  0  0  0  0  0  0  0  0  # atno 17320 bound_to 7965
  144.9499  140.8167  143.5578 LP  0  0  0  0  0  0  0  0  0  0  0  0  # atno 17321 bound_to 7965
  139.4785  144.5653  151.8175 LP  0  0  0  0  0  0  0  0  0  0  0  0  # atno 17342 bound_to 10162
  140.4760  144.1518  150.5925 LP  0  0  0  0  0  0  0  0  0  0  0  0  # atno 17343 bound_to 10162
  156.5310  130.4185  149.6201 LP  0  0  0  0  0  0  0  0  0  0  0  0  # atno 17370 bound_to 10713
  156.3069  130.7207  151.2092 LP  0  0  0  0  0  0  0  0  0  0  0  0  # atno 17371 bound_to 10713
  141.1591  133.6540  156.4258 LP  0  0  0  0  0  0  0  0  0  0  0  0  # atno 17394 bound_to 11000
  140.4850  134.6629  157.5187 LP  0  0  0  0  0  0  0  0  0  0  0  0  # atno 17395 bound_to 11000

$$$$
