AV-unprocessed.smi:464|AV-procd|sdf|2638|dock4
  -GOLD-   2262023 43D 1   1.00000     0.00000
 Structure written by MMmdl.
 24 25  0  0  0  0  0  0  0  0  2 V2000
  149.2391  141.4716  153.8420 O   0  0  0  0  0  0  0  0  0  0  0  0
  149.8617  141.4023  154.8993 C   0  0  0  0  0  0  0  0  0  0  0  0
  149.3981  142.1220  155.9443 N   0  0  0  0  0  0  0  0  0  0  0  0
  150.0373  142.1102  157.1854 C   0  0  0  0  0  0  0  0  0  0  0  0
  151.1499  141.3757  157.3939 C   0  0  0  0  0  0  0  0  0  0  0  0
  151.8093  141.3458  158.6136 N   0  0  0  0  0  0  0  0  0  0  0  0
  152.0978  142.5410  159.3935 C   0  0  0  0  0  0  0  0  0  0  0  0
  153.6186  142.7162  159.5520 C   0  0  0  0  0  0  0  0  0  0  0  0
  154.1778  141.5375  160.1258 O   0  0  0  0  0  0  0  0  0  0  0  0
  153.9612  140.3893  159.3097 C   0  0  0  0  0  0  0  0  0  0  0  0
  152.4495  140.1509  159.1450 C   0  0  0  0  0  0  0  0  0  0  0  0
  151.6660  140.5838  156.2662 C   0  0  0  0  0  0  0  0  0  0  0  0
  152.6764  139.8947  156.4081 O   0  0  0  0  0  0  0  0  0  0  0  0
  150.9875  140.6455  155.0801 N   0  5  0  0  0  0  0  0  0  0  0  0
  148.5698  142.6897  155.8397 H   0  0  0  0  0  0  0  0  0  0  0  0
  149.5664  142.7298  157.9340 H   0  0  0  0  0  0  0  0  0  0  0  0
  151.6665  143.4199  158.9126 H   0  0  0  0  0  0  0  0  0  0  0  0
  151.6238  142.4499  160.3714 H   0  0  0  0  0  0  0  0  0  0  0  0
  154.0902  142.9244  158.5905 H   0  0  0  0  0  0  0  0  0  0  0  0
  153.8340  143.5646  160.2017 H   0  0  0  0  0  0  0  0  0  0  0  0
  154.4432  140.5231  158.3399 H   0  0  0  0  0  0  0  0  0  0  0  0
  154.4295  139.5251  159.7809 H   0  0  0  0  0  0  0  0  0  0  0  0
  151.9985  139.9036  160.1066 H   0  0  0  0  0  0  0  0  0  0  0  0
  152.2734  139.3013  158.4839 H   0  0  0  0  0  0  0  0  0  0  0  0
  1  2  2  0  0  0  0
  2 14  1  0  0  0  0
  2  3  1  0  0  0  0
  3 15  1  0  0  0  0
  3  4  1  0  0  0  0
  4  5  2  0  0  0  0
  4 16  1  0  0  0  0
  5  6  1  0  0  0  0
  5 12  1  0  0  0  0
  6 11  1  0  0  0  0
  6  7  1  0  0  0  0
  7  8  1  0  0  0  0
  7 17  1  0  0  0  0
  7 18  1  0  0  0  0
  8  9  1  0  0  0  0
  8 19  1  0  0  0  0
  8 20  1  0  0  0  0
  9 10  1  0  0  0  0
 10 11  1  0  0  0  0
 10 21  1  0  0  0  0
 10 22  1  0  0  0  0
 11 23  1  0  0  0  0
 11 24  1  0  0  0  0
 12 13  2  0  0  0  0
 12 14  1  0  0  0  0
M  CHG  1  14  -1
M  END
> <s_m_source_file>
AV-unprocessed.smi

> <i_m_source_file_index>
464

> <i_lp_mmshare_version>
43012

> <i_f3d_flags>
0

> <s_epik_input>
Tz1jMVtuSF1bY0hdYyhjKD1PKVtuSF0xKU4yW0NIMl1bQ0gyXU9bQ0gyXVtDSDJdMg==

> <s_epik_cmdline>
J2VwaWtfcHl0aG9uJywgJy1waCcsICc3LjAnLCAnLXRuJywgJzgnLCAnLW1hJywgJzIwMCcsICctbWV0YWxfYmluZGluZycsICctaW1hZScsICc8aW5maWxlLm1hZT4nLCAnLW9tYWUnLCAnPG91dGZpbGUubWFlPic=

> <r_lp_tautomer_probability>
0.999801

> <r_epik_Ionization_Penalty>
3.03283

> <r_epik_Ionization_Penalty_Charging>
1.33068e-05

> <r_epik_Ionization_Penalty_Neutral>
3.03282

> <r_epik_State_Penalty>
3.03418

> <r_epik_Charging_Adjusted_Penalty>
3.03419

> <i_epik_Tot_Q>
-1

> <i_epik_Tot_abs_Q>
1

> <r_epik_Metal_State_Penalty>
0.478531

> <b_epik_Metal_Only>
1

> <s_lp_Force_Field>
OPLS_2005

> <r_lp_Energy>
27.0677

> <b_lp_Chiralities_Consistent>
1

> <s_lp_Variant>
AV-unprocessed.smi:464-3

> <Gold.Version>
5.8.1

> <Gold.Id.Protein>
6NUR|6NUR_protein|mol2

> <Gold.PLP.Fitness>
35.0544

> <Gold.PLP.PLP>
-27.1867

> <Gold.PLP.part.hbond>
-5.0000

> <Gold.PLP.part.metal>
0.0000

> <Gold.PLP.part.buried>
-2.7803

> <Gold.PLP.part.nonpolar>
-18.4162

> <Gold.PLP.part.repulsive>
0.6386

> <Gold.PLP.ligand.clash>
0.0000

> <Gold.PLP.ligand.torsion>
0.6365

> <Gold.PLP.Chemscore.Hbond>
2.7848

> <Gold.PLP.Chemscore.CHOScore>
0.0000

> <Gold.PLP.Chemscore.Metal>
0.0000

> <Gold.Chemscore.Hbonds>
donor molecule, donor type, donor heavy atom, donor atom, acceptor molecule, acceptor atom, score
      L1  H     3    15       P1  8028  0.32
      P1  H  7989  7998       L1    14  0.73
      P1  H  7997  8010       L1    13  1.00
      P1  H  8011  8017       L1     1  0.75

> <Gold.PLP.Chemscore.Internal.Correction>
0.7863

> <Gold.Rescore>
     Score         DG    S(hbond)    S(metal)    S(lipo)     H(rot)  DE(clash)    DE(int)     intcor
     16.92     -19.36       2.33        0.00      52.08       0.00       0.30       2.14       ----

> <Gold.Chemscore.Fitness>
16.9175

> <Gold.Chemscore.DG>
-19.3630

> <Gold.Chemscore.ZeroCoef>
-5.4800

> <Gold.Chemscore.Hbond>
2.3322

> <Gold.Chemscore.Metal>
0.0000

> <Gold.Chemscore.Lipo>
52.0812

> <Gold.Chemscore.Internal_Hbond>
0.0000

> <Gold.Chemscore.DEClash>
0.3020

> <Gold.Chemscore.DEInternal>
2.1435

> <Gold.Chemscore.Rot>
0.0000

> <Gold.Chemscore.Internal.Correction>
   9.000000E+99

> <Gold.Chemscore.Hbonds>
donor molecule, donor type, donor heavy atom, donor atom, acceptor molecule, acceptor atom, score
      L1  H     3    15       P1  8028  0.31
      P1  H  7989  7998       L1    14  0.11
      P1  H  7997  8010       L1    13  1.00
      P1  H  8011  8017       L1     1  0.74

> <Gold.Chemscore.Hbond.Weighted>
-7.7895

> <Gold.Chemscore.Metal.Weighted>
-0.0000

> <Gold.Chemscore.Lipo.Weighted>
-6.0935

> <Gold.Chemscore.Internal_Hbond.Weighted>
0.0000

> <Gold.Chemscore.DEClash.Weighted>
0.3020

> <Gold.Chemscore.DEInternal.Weighted>
2.1435

> <Gold.Chemscore.Rot.Weighted>
0.0000

> <Gold.Chemscore.Internal.Correction.Weighted>
   9.000000E+99

> <Gold.Protein.RotatedTorsions>
[ 6907 6896 6895 6894 ] final   16.97 input  -60.11 | X-H torsion
[ 7974 7965 7964 7962 ] final   78.82 input  175.53 | X-H torsion
[ 8008 7997 7996 7995 ] final   70.67 input   59.86 | X-H torsion
[ 10167 10162 10161 10158 ] final   85.67 input  -65.29 | X-H torsion
[ 10718 10713 10712 10709 ] final -130.53 input   66.30 | X-H torsion
[ 10763 10752 10751 10750 ] final -163.66 input  -60.55 | X-H torsion
[ 11005 11000 10999 10996 ] final   68.56 input  -57.11 | X-H torsion

> <Gold.Protein.ActiveResidues>
 VAL166  LYS551  ARG553  GLY616  TRP617  ASP618  TYR619  PRO620  LYS621  CYS622 
 ASP623  PHE694  ASN695  SER759  ASP760  ASP761  ALA762  ILE779  LEU786  VAL792 
 PHE793  MET794  SER795  GLU796  ALA797  LYS798  CYS799  TRP800  GLU811  SER814 

> <Gold.Protein.RotatedAtoms>
  151.8422  135.0586  160.0449 H   0  0  0  0  0  0  0  0  0  0  0  0  # atno 6907 bound_to 6896
  152.2800  133.5457  159.5500 H   0  0  0  0  0  0  0  0  0  0  0  0  # atno 6908 bound_to 6896
  150.7185  134.0494  159.3835 H   0  0  0  0  0  0  0  0  0  0  0  0  # atno 6909 bound_to 6896
  145.6722  139.2500  143.1862 H   0  0  0  0  0  0  0  0  0  0  0  0  # atno 7974 bound_to 7965
  155.7422  140.3490  155.5110 H   0  0  0  0  0  0  0  0  0  0  0  0  # atno 8008 bound_to 7997
  155.9083  140.1046  157.1320 H   0  0  0  0  0  0  0  0  0  0  0  0  # atno 8009 bound_to 7997
  154.4052  140.1273  156.4511 H   0  0  0  0  0  0  0  0  0  0  0  0  # atno 8010 bound_to 7997
  139.8954  144.6361  150.8694 H   0  0  0  0  0  0  0  0  0  0  0  0  # atno 10167 bound_to 10162
  156.2154  130.6944  151.0696 H   0  0  0  0  0  0  0  0  0  0  0  0  # atno 10718 bound_to 10713
  154.7101  135.3004  154.9210 H   0  0  0  0  0  0  0  0  0  0  0  0  # atno 10763 bound_to 10752
  154.0114  135.6694  153.4769 H   0  0  0  0  0  0  0  0  0  0  0  0  # atno 10764 bound_to 10752
  153.0748  135.5040  154.8295 H   0  0  0  0  0  0  0  0  0  0  0  0  # atno 10765 bound_to 10752
  139.9704  134.6909  156.0458 H   0  0  0  0  0  0  0  0  0  0  0  0  # atno 11005 bound_to 11000
  146.1036  140.7514  142.9537 LP  0  0  0  0  0  0  0  0  0  0  0  0  # atno 17320 bound_to 7965
  144.7053  140.3826  143.7123 LP  0  0  0  0  0  0  0  0  0  0  0  0  # atno 17321 bound_to 7965
  140.7718  143.3478  151.2076 LP  0  0  0  0  0  0  0  0  0  0  0  0  # atno 17342 bound_to 10162
  139.7073  143.9435  152.2932 LP  0  0  0  0  0  0  0  0  0  0  0  0  # atno 17343 bound_to 10162
  157.7060  131.0756  150.6665 LP  0  0  0  0  0  0  0  0  0  0  0  0  # atno 17370 bound_to 10713
  156.6726  130.4544  149.5652 LP  0  0  0  0  0  0  0  0  0  0  0  0  # atno 17371 bound_to 10713
  141.1384  133.6570  156.3659 LP  0  0  0  0  0  0  0  0  0  0  0  0  # atno 17394 bound_to 11000
  140.5305  134.6217  157.5348 LP  0  0  0  0  0  0  0  0  0  0  0  0  # atno 17395 bound_to 11000

$$$$
