AV-unprocessed.smi:3057|AV-procd|sdf|11668|dock5
  -GOLD-   2272017 73D 1   1.00000     0.00000
 Structure written by MMmdl.
 41 43  0  0  0  0  0  0  0  0  2 V2000
  150.5297  139.7817  157.0946 C   0  0  0  0  0  0  0  0  0  0  0  0
  150.6420  140.0185  155.5763 C   0  0  2  0  0  0  0  0  0  0  0  0
  149.9271  141.3141  155.1518 C   0  0  0  0  0  0  0  0  0  0  0  0
  148.5315  140.8540  154.7047 C   0  0  0  0  0  0  0  0  0  0  0  0
  148.7683  139.3961  154.3446 C   0  0  0  0  0  0  0  0  0  0  0  0
  147.9966  138.7357  153.6509 O   0  0  0  0  0  0  0  0  0  0  0  0
  149.9466  138.9866  154.8314 N   0  0  0  0  0  0  0  0  0  0  0  0
  150.7043  137.7993  154.4269 C   0  0  2  0  0  0  0  0  0  0  0  0
  150.2158  136.5457  155.1730 C   0  0  0  0  0  0  0  0  0  0  0  0
  150.4769  136.3694  156.3636 O   0  0  0  0  0  0  0  0  0  0  0  0
  149.5196  135.6650  154.4384 N   0  0  0  0  0  0  0  0  0  0  0  0
  148.9678  134.4048  154.9277 C   0  0  0  0  0  0  0  0  0  0  0  0
  149.2791  133.2028  154.0118 C   0  0  0  0  0  0  0  0  0  0  0  0
  148.1211  132.7969  153.1163 C   0  0  0  0  0  0  0  0  0  0  0  0
  147.5490  131.5071  153.1702 C   0  0  0  0  0  0  0  0  0  0  0  0
  146.4812  131.1892  152.3058 C   0  0  0  0  0  0  0  0  0  0  0  0
  146.0063  132.1676  151.4082 C   0  0  0  0  0  0  0  0  0  0  0  0
  146.6120  133.4407  151.3981 C   0  0  0  0  0  0  0  0  0  0  0  0
  147.6341  133.7064  152.2415 N   0  3  0  0  0  0  0  0  0  0  0  0
  152.1842  138.0786  154.7909 C   0  0  0  0  0  0  0  0  0  0  0  0
  152.3459  139.8714  155.0129 S   0  0  0  0  0  0  0  0  0  0  0  0
  149.4894  139.7765  157.4220 H   0  0  0  0  0  0  0  0  0  0  0  0
  151.0454  140.5659  157.6493 H   0  0  0  0  0  0  0  0  0  0  0  0
  150.9720  138.8303  157.3898 H   0  0  0  0  0  0  0  0  0  0  0  0
  149.8826  142.0535  155.9524 H   0  0  0  0  0  0  0  0  0  0  0  0
  150.4420  141.7789  154.3096 H   0  0  0  0  0  0  0  0  0  0  0  0
  147.8108  140.9107  155.5210 H   0  0  0  0  0  0  0  0  0  0  0  0
  148.1548  141.4287  153.8583 H   0  0  0  0  0  0  0  0  0  0  0  0
  150.6040  137.6649  153.3482 H   0  0  0  0  0  0  0  0  0  0  0  0
  149.3481  135.8911  153.4692 H   0  0  0  0  0  0  0  0  0  0  0  0
  149.3183  134.2108  155.9426 H   0  0  0  0  0  0  0  0  0  0  0  0
  147.8876  134.5348  154.9965 H   0  0  0  0  0  0  0  0  0  0  0  0
  150.1408  133.4336  153.3842 H   0  0  0  0  0  0  0  0  0  0  0  0
  149.5759  132.3465  154.6186 H   0  0  0  0  0  0  0  0  0  0  0  0
  147.9270  130.7671  153.8610 H   0  0  0  0  0  0  0  0  0  0  0  0
  146.0326  130.2068  152.3309 H   0  0  0  0  0  0  0  0  0  0  0  0
  145.1887  131.9451  150.7381 H   0  0  0  0  0  0  0  0  0  0  0  0
  146.3120  134.2477  150.7457 H   0  0  0  0  0  0  0  0  0  0  0  0
  152.4705  137.6091  155.7332 H   0  0  0  0  0  0  0  0  0  0  0  0
  152.8713  137.7209  154.0238 H   0  0  0  0  0  0  0  0  0  0  0  0
  148.0570  134.6345  152.2164 H   0  0  0  0  0  0  0  0  0  0  0  0
  1  2  1  0  0  0  0
  1 22  1  0  0  0  0
  1 23  1  0  0  0  0
  1 24  1  0  0  0  0
  2  7  1  0  0  0  0
  2 21  1  0  0  0  0
  2  3  1  0  0  0  0
  3  4  1  0  0  0  0
  3 25  1  0  0  0  0
  3 26  1  0  0  0  0
  4  5  1  0  0  0  0
  4 27  1  0  0  0  0
  4 28  1  0  0  0  0
  5  6  2  0  0  0  0
  5  7  1  0  0  0  0
  7  8  1  0  0  0  0
  8  9  1  0  0  0  0
  8 20  1  0  0  0  0
  8 29  1  0  0  0  0
  9 10  2  0  0  0  0
  9 11  1  0  0  0  0
 11 12  1  0  0  0  0
 11 30  1  0  0  0  0
 12 13  1  0  0  0  0
 12 31  1  0  0  0  0
 12 32  1  0  0  0  0
 13 14  1  0  0  0  0
 13 33  1  0  0  0  0
 13 34  1  0  0  0  0
 14 19  1  0  0  0  0
 14 15  2  0  0  0  0
 15 16  1  0  0  0  0
 15 35  1  0  0  0  0
 16 17  2  0  0  0  0
 16 36  1  0  0  0  0
 17 18  1  0  0  0  0
 17 37  1  0  0  0  0
 18 19  2  0  0  0  0
 18 38  1  0  0  0  0
 19 41  1  0  0  0  0
 20 21  1  0  0  0  0
 20 39  1  0  0  0  0
 20 40  1  0  0  0  0
M  CHG  1  19   1
M  END
> <s_m_source_file>
AV-unprocessed.smi

> <i_m_source_file_index>
3057

> <i_lp_mmshare_version>
43012

> <i_f3d_flags>
0

> <s_epik_input>
W0NIMl0xW0NIMl1DKD1PKU4oW0NAQF0xMltDSDNdKVtDQEhdKFtDSDJdUzIpQyg9TylbTkhdW0NIMl1bQ0gyXWMzW2NIXVtjSF1bY0hdW2NIXW4z

> <s_epik_cmdline>
J2VwaWtfcHl0aG9uJywgJy1waCcsICc3LjAnLCAnLXRuJywgJzgnLCAnLW1hJywgJzIwMCcsICctbWV0YWxfYmluZGluZycsICctaW1hZScsICc8aW5maWxlLm1hZT4nLCAnLW9tYWUnLCAnPG91dGZpbGUubWFlPic=

> <r_epik_Ionization_Penalty>
1.8888

> <r_epik_Ionization_Penalty_Charging>
1.8888

> <r_epik_Ionization_Penalty_Neutral>
1.66252e-07

> <r_epik_State_Penalty>
2.00916

> <r_epik_Charging_Adjusted_Penalty>
3.89796

> <i_epik_Tot_Q>
1

> <i_epik_Tot_abs_Q>
1

> <r_epik_Metal_State_Penalty>
2.03343

> <b_epik_Metal_Only>
0

> <s_lp_Force_Field>
OPLS_2005

> <r_lp_Energy>
33.0381

> <b_lp_Chiralities_Consistent>
1

> <s_lp_Variant>
AV-unprocessed.smi:3057-8

> <Gold.Version>
5.8.1

> <Gold.Id.Protein>
6NUR|6NUR_protein|mol2

> <Gold.PLP.Fitness>
45.4837

> <Gold.PLP.PLP>
-37.8481

> <Gold.PLP.part.hbond>
-2.0000

> <Gold.PLP.part.metal>
0.0000

> <Gold.PLP.part.buried>
0.7251

> <Gold.PLP.part.nonpolar>
-36.4455

> <Gold.PLP.part.repulsive>
0.2847

> <Gold.PLP.ligand.clash>
0.0000

> <Gold.PLP.ligand.torsion>
0.6911

> <Gold.PLP.Chemscore.Hbond>
3.0000

> <Gold.PLP.Chemscore.CHOScore>
0.0000

> <Gold.PLP.Chemscore.Metal>
0.0000

> <Gold.Chemscore.Hbonds>
donor molecule, donor type, donor heavy atom, donor atom, acceptor molecule, acceptor atom, score
      L1  H    11    30       P1  7948  1.00
      L1  H    19    41       P1  7948  2.00

> <Gold.PLP.Chemscore.Internal.Correction>
0.0177

> <Gold.Rescore>
     Score         DG    S(hbond)    S(metal)    S(lipo)     H(rot)  DE(clash)    DE(int)     intcor
     16.92     -17.54       1.90        0.00      84.43       1.62       0.03       0.59       ----

> <Gold.Chemscore.Fitness>
16.9201

> <Gold.Chemscore.DG>
-17.5388

> <Gold.Chemscore.ZeroCoef>
-5.4800

> <Gold.Chemscore.Hbond>
1.8972

> <Gold.Chemscore.Metal>
0.0000

> <Gold.Chemscore.Lipo>
84.4255

> <Gold.Chemscore.Internal_Hbond>
0.0000

> <Gold.Chemscore.DEClash>
0.0280

> <Gold.Chemscore.DEInternal>
0.5907

> <Gold.Chemscore.Rot>
1.6234

> <Gold.Chemscore.Internal.Correction>
   9.000000E+99

> <Gold.Chemscore.Hbonds>
donor molecule, donor type, donor heavy atom, donor atom, acceptor molecule, acceptor atom, score
      L1  H    11    30       P1  7948  0.55
      L1  H    19    41       P1  7948  0.30

> <Gold.Chemscore.Hbond.Weighted>
-6.3368

> <Gold.Chemscore.Metal.Weighted>
-0.0000

> <Gold.Chemscore.Lipo.Weighted>
-9.8778

> <Gold.Chemscore.Internal_Hbond.Weighted>
0.0000

> <Gold.Chemscore.DEClash.Weighted>
0.0280

> <Gold.Chemscore.DEInternal.Weighted>
0.5907

> <Gold.Chemscore.Rot.Weighted>
4.1558

> <Gold.Chemscore.Internal.Correction.Weighted>
   9.000000E+99

> <Gold.Protein.RotatedTorsions>
[ 6907 6896 6895 6894 ] final   79.06 input  -60.11 | X-H torsion
[ 7974 7965 7964 7962 ] final  -13.70 input  175.53 | X-H torsion
[ 8008 7997 7996 7995 ] final   69.60 input   59.86 | X-H torsion
[ 10167 10162 10161 10158 ] final  103.22 input  -65.29 | X-H torsion
[ 10718 10713 10712 10709 ] final    3.58 input   66.30 | X-H torsion
[ 10763 10752 10751 10750 ] final  109.92 input  -60.55 | X-H torsion
[ 11005 11000 10999 10996 ] final   72.36 input  -57.11 | X-H torsion

> <Gold.Protein.ActiveResidues>
 VAL166  LYS551  ARG553  GLY616  TRP617  ASP618  TYR619  PRO620  LYS621  CYS622 
 ASP623  PHE694  ASN695  SER759  ASP760  ASP761  ALA762  ILE779  LEU786  VAL792 
 PHE793  MET794  SER795  GLU796  ALA797  LYS798  CYS799  TRP800  GLU811  SER814 

> <Gold.Protein.RotatedAtoms>
  152.5184  134.3570  159.9270 H   0  0  0  0  0  0  0  0  0  0  0  0  # atno 6907 bound_to 6896
  151.3521  133.3915  159.2689 H   0  0  0  0  0  0  0  0  0  0  0  0  # atno 6908 bound_to 6896
  150.9718  134.9109  159.7851 H   0  0  0  0  0  0  0  0  0  0  0  0  # atno 6909 bound_to 6896
  146.2104  140.3241  142.8393 H   0  0  0  0  0  0  0  0  0  0  0  0  # atno 7974 bound_to 7965
  155.7260  140.3492  155.5037 H   0  0  0  0  0  0  0  0  0  0  0  0  # atno 8008 bound_to 7997
  155.9226  140.1070  157.1217 H   0  0  0  0  0  0  0  0  0  0  0  0  # atno 8009 bound_to 7997
  154.4072  140.1246  156.4686 H   0  0  0  0  0  0  0  0  0  0  0  0  # atno 8010 bound_to 7997
  139.7282  144.7042  151.0764 H   0  0  0  0  0  0  0  0  0  0  0  0  # atno 10167 bound_to 10162
  156.8800  130.5650  149.5653 H   0  0  0  0  0  0  0  0  0  0  0  0  # atno 10718 bound_to 10713
  153.4415  135.3765  155.2231 H   0  0  0  0  0  0  0  0  0  0  0  0  # atno 10763 bound_to 10752
  154.8754  135.3864  154.4147 H   0  0  0  0  0  0  0  0  0  0  0  0  # atno 10764 bound_to 10752
  153.4693  135.7087  153.6066 H   0  0  0  0  0  0  0  0  0  0  0  0  # atno 10765 bound_to 10752
  139.9495  134.7252  156.0897 H   0  0  0  0  0  0  0  0  0  0  0  0  # atno 11005 bound_to 11000
  144.8899  140.7510  143.5933 LP  0  0  0  0  0  0  0  0  0  0  0  0  # atno 17320 bound_to 7965
  145.3163  139.1802  143.4612 LP  0  0  0  0  0  0  0  0  0  0  0  0  # atno 17321 bound_to 7965
  140.7766  143.5078  150.9690 LP  0  0  0  0  0  0  0  0  0  0  0  0  # atno 17342 bound_to 10162
  139.8766  143.7125  152.3161 LP  0  0  0  0  0  0  0  0  0  0  0  0  # atno 17343 bound_to 10162
  156.0682  130.5721  150.9331 LP  0  0  0  0  0  0  0  0  0  0  0  0  # atno 17370 bound_to 10713
  157.6146  131.0934  150.8734 LP  0  0  0  0  0  0  0  0  0  0  0  0  # atno 17371 bound_to 10713
  141.1154  133.6629  156.3082 LP  0  0  0  0  0  0  0  0  0  0  0  0  # atno 17394 bound_to 11000
  140.5753  134.5800  157.5467 LP  0  0  0  0  0  0  0  0  0  0  0  0  # atno 17395 bound_to 11000

$$$$
