AV-unprocessed.smi:2680|AV-procd|sdf|10372|dock4
  -GOLD-   2272014403D 1   1.00000     0.00000
 Structure written by MMmdl.
 37 38  0  0  0  0  0  0  0  0  2 V2000
  152.0922  144.7302  159.4545 C   0  0  0  0  0  0  0  0  0  0  0  0
  152.2429  143.2381  159.5257 C   0  0  0  0  0  0  0  0  0  0  0  0
  151.4432  142.2452  158.8920 C   0  0  0  0  0  0  0  0  0  0  0  0
  151.8477  141.0132  159.1546 N   0  0  0  0  0  0  0  0  0  0  0  0
  152.9245  141.1736  159.9535 N   0  0  0  0  0  0  0  0  0  0  0  0
  153.6414  140.0053  160.4430 C   0  0  0  0  0  0  0  0  0  0  0  0
  154.1349  139.1148  159.2985 C   0  0  0  0  0  0  0  0  0  0  0  0
  153.6201  139.2294  158.1874 O   0  0  0  0  0  0  0  0  0  0  0  0
  155.1180  138.2488  159.6132 N   0  0  0  0  0  0  0  0  0  0  0  0
  155.7851  137.1860  158.8455 C   0  0  0  0  0  0  0  0  0  0  0  0
  154.7062  136.0825  158.6919 C   0  0  0  0  0  0  0  0  0  0  0  0
  154.3764  135.7448  157.5327 O   0  0  0  0  0  0  0  0  0  0  0  0
  154.1839  135.6235  159.7327 O   0  5  0  0  0  0  0  0  0  0  0  0
  156.3381  137.6288  157.4529 C   0  0  0  0  0  0  0  0  0  0  0  0
  157.1585  136.5302  156.7493 C   0  0  0  0  0  0  0  0  0  0  0  0
  158.3218  136.0573  157.6330 C   0  0  0  0  0  0  0  0  0  0  0  0
  157.8213  135.5935  159.0084 C   0  0  0  0  0  0  0  0  0  0  0  0
  156.9862  136.6894  159.7004 C   0  0  0  0  0  0  0  0  0  0  0  0
  153.1761  142.5076  160.2045 C   0  0  0  0  0  0  0  0  0  0  0  0
  151.2067  145.0225  158.8897 H   0  0  0  0  0  0  0  0  0  0  0  0
  152.9504  145.1962  158.9695 H   0  0  0  0  0  0  0  0  0  0  0  0
  152.0024  145.1735  160.4462 H   0  0  0  0  0  0  0  0  0  0  0  0
  150.5844  142.3833  158.2519 H   0  0  0  0  0  0  0  0  0  0  0  0
  154.4857  140.3470  161.0429 H   0  0  0  0  0  0  0  0  0  0  0  0
  152.9934  139.4212  161.0985 H   0  0  0  0  0  0  0  0  0  0  0  0
  155.4206  138.2912  160.5758 H   0  0  0  0  0  0  0  0  0  0  0  0
  155.5347  137.9592  156.7930 H   0  0  0  0  0  0  0  0  0  0  0  0
  156.9957  138.4894  157.5805 H   0  0  0  0  0  0  0  0  0  0  0  0
  156.5194  135.6839  156.4958 H   0  0  0  0  0  0  0  0  0  0  0  0
  157.5469  136.9110  155.8044 H   0  0  0  0  0  0  0  0  0  0  0  0
  158.8600  135.2477  157.1395 H   0  0  0  0  0  0  0  0  0  0  0  0
  159.0358  136.8718  157.7610 H   0  0  0  0  0  0  0  0  0  0  0  0
  157.2303  134.6842  158.8958 H   0  0  0  0  0  0  0  0  0  0  0  0
  158.6707  135.3265  159.6377 H   0  0  0  0  0  0  0  0  0  0  0  0
  157.6402  137.5356  159.9161 H   0  0  0  0  0  0  0  0  0  0  0  0
  156.6525  136.3309  160.6755 H   0  0  0  0  0  0  0  0  0  0  0  0
  153.9989  142.8228  160.8295 H   0  0  0  0  0  0  0  0  0  0  0  0
  1  2  1  0  0  0  0
  1 20  1  0  0  0  0
  1 21  1  0  0  0  0
  1 22  1  0  0  0  0
  2 19  2  0  0  0  0
  2  3  1  0  0  0  0
  3  4  2  0  0  0  0
  3 23  1  0  0  0  0
  4  5  1  0  0  0  0
  5  6  1  0  0  0  0
  5 19  1  0  0  0  0
  6  7  1  0  0  0  0
  6 24  1  0  0  0  0
  6 25  1  0  0  0  0
  7  8  2  0  0  0  0
  7  9  1  0  0  0  0
  9 10  1  0  0  0  0
  9 26  1  0  0  0  0
 10 18  1  0  0  0  0
 10 11  1  0  0  0  0
 10 14  1  0  0  0  0
 11 12  2  0  0  0  0
 11 13  1  0  0  0  0
 14 15  1  0  0  0  0
 14 27  1  0  0  0  0
 14 28  1  0  0  0  0
 15 16  1  0  0  0  0
 15 29  1  0  0  0  0
 15 30  1  0  0  0  0
 16 17  1  0  0  0  0
 16 31  1  0  0  0  0
 16 32  1  0  0  0  0
 17 18  1  0  0  0  0
 17 33  1  0  0  0  0
 17 34  1  0  0  0  0
 18 35  1  0  0  0  0
 18 36  1  0  0  0  0
 19 37  1  0  0  0  0
M  CHG  1  13  -1
M  END
> <s_m_source_file>
AV-unprocessed.smi

> <i_m_source_file_index>
2680

> <i_lp_mmshare_version>
43012

> <i_f3d_flags>
0

> <s_epik_input>
W0NIM11jMVtjSF1ubihbY0hdMSlbQ0gyXUMoPU8pW05IXUMyKEMoPU8pW09IXSlbQ0gyXVtDSDJdW0NIMl1bQ0gyXVtDSDJdMg==

> <s_epik_cmdline>
J2VwaWtfcHl0aG9uJywgJy1waCcsICc3LjAnLCAnLXRuJywgJzgnLCAnLW1hJywgJzIwMCcsICctbWV0YWxfYmluZGluZycsICctaW1hZScsICc8aW5maWxlLm1hZT4nLCAnLW9tYWUnLCAnPG91dGZpbGUubWFlPic=

> <r_lp_tautomer_probability>
1

> <r_epik_Ionization_Penalty>
0.000361632

> <r_epik_Ionization_Penalty_Charging>
0.000323848

> <r_epik_Ionization_Penalty_Neutral>
3.77838e-05

> <r_epik_State_Penalty>
0.000195685

> <r_epik_Charging_Adjusted_Penalty>
0.000519533

> <i_epik_Tot_Q>
-1

> <i_epik_Tot_abs_Q>
1

> <r_epik_Metal_State_Penalty>
-0

> <b_epik_Metal_Only>
0

> <s_lp_Force_Field>
OPLS_2005

> <r_lp_Energy>
4.37628

> <b_lp_Chiralities_Consistent>
1

> <s_lp_Variant>
AV-unprocessed.smi:2680-1

> <Gold.Version>
5.8.1

> <Gold.Id.Protein>
6NUR|6NUR_protein|mol2

> <Gold.PLP.Fitness>
41.7740

> <Gold.PLP.PLP>
-27.5426

> <Gold.PLP.part.hbond>
-3.0000

> <Gold.PLP.part.metal>
0.0000

> <Gold.PLP.part.buried>
-3.1957

> <Gold.PLP.part.nonpolar>
-21.4876

> <Gold.PLP.part.repulsive>
0.0630

> <Gold.PLP.ligand.clash>
0.0000

> <Gold.PLP.ligand.torsion>
0.4087

> <Gold.PLP.Chemscore.Hbond>
5.0000

> <Gold.PLP.Chemscore.CHOScore>
0.0000

> <Gold.PLP.Chemscore.Metal>
0.0000

> <Gold.Chemscore.Hbonds>
donor molecule, donor type, donor heavy atom, donor atom, acceptor molecule, acceptor atom, score
      P1  H  6896  6909       L1    13  2.00
      P1  H  7997  8008       L1     8  1.00
      P1  H 10752 10763       L1    12  1.07

> <Gold.PLP.Chemscore.Internal.Correction>
0.0488

> <Gold.Rescore>
     Score         DG    S(hbond)    S(metal)    S(lipo)     H(rot)  DE(clash)    DE(int)     intcor
     15.24     -18.22       2.97        0.00      67.01       1.96       0.01       2.96       ----

> <Gold.Chemscore.Fitness>
15.2441

> <Gold.Chemscore.DG>
-18.2163

> <Gold.Chemscore.ZeroCoef>
-5.4800

> <Gold.Chemscore.Hbond>
2.9700

> <Gold.Chemscore.Metal>
0.0000

> <Gold.Chemscore.Lipo>
67.0066

> <Gold.Chemscore.Internal_Hbond>
0.0000

> <Gold.Chemscore.DEClash>
0.0128

> <Gold.Chemscore.DEInternal>
2.9595

> <Gold.Chemscore.Rot>
1.9622

> <Gold.Chemscore.Internal.Correction>
   9.000000E+99

> <Gold.Chemscore.Hbonds>
donor molecule, donor type, donor heavy atom, donor atom, acceptor molecule, acceptor atom, score
      P1  H  6896  6909       L1    13  0.97
      P1  H  7997  8008       L1     8  0.94
      P1  H 10752 10763       L1    12  0.54

> <Gold.Chemscore.Hbond.Weighted>
-9.9199

> <Gold.Chemscore.Metal.Weighted>
-0.0000

> <Gold.Chemscore.Lipo.Weighted>
-7.8398

> <Gold.Chemscore.Internal_Hbond.Weighted>
0.0000

> <Gold.Chemscore.DEClash.Weighted>
0.0128

> <Gold.Chemscore.DEInternal.Weighted>
2.9595

> <Gold.Chemscore.Rot.Weighted>
5.0233

> <Gold.Chemscore.Internal.Correction.Weighted>
   9.000000E+99

> <Gold.Protein.RotatedTorsions>
[ 6907 6896 6895 6894 ] final -171.87 input  -60.11 | X-H torsion
[ 7974 7965 7964 7962 ] final    5.02 input  175.53 | X-H torsion
[ 8008 7997 7996 7995 ] final  -80.91 input   59.86 | X-H torsion
[ 10167 10162 10161 10158 ] final -174.79 input  -65.29 | X-H torsion
[ 10718 10713 10712 10709 ] final -122.02 input   66.30 | X-H torsion
[ 10763 10752 10751 10750 ] final  138.86 input  -60.55 | X-H torsion
[ 11005 11000 10999 10996 ] final -116.94 input  -57.11 | X-H torsion

> <Gold.Protein.ActiveResidues>
 VAL166  LYS551  ARG553  GLY616  TRP617  ASP618  TYR619  PRO620  LYS621  CYS622 
 ASP623  PHE694  ASN695  SER759  ASP760  ASP761  ALA762  ILE779  LEU786  VAL792 
 PHE793  MET794  SER795  GLU796  ALA797  LYS798  CYS799  TRP800  GLU811  SER814 

> <Gold.Protein.RotatedAtoms>
  151.5307  133.3449  159.2917 H   0  0  0  0  0  0  0  0  0  0  0  0  # atno 6907 bound_to 6896
  150.8595  134.7945  159.7083 H   0  0  0  0  0  0  0  0  0  0  0  0  # atno 6908 bound_to 6896
  152.4619  134.5174  159.9824 H   0  0  0  0  0  0  0  0  0  0  0  0  # atno 6909 bound_to 6896
  146.2442  140.0446  142.8379 H   0  0  0  0  0  0  0  0  0  0  0  0  # atno 7974 bound_to 7965
  154.5930  140.0656  156.9264 H   0  0  0  0  0  0  0  0  0  0  0  0  # atno 8008 bound_to 7997
  155.2263  140.3334  155.4291 H   0  0  0  0  0  0  0  0  0  0  0  0  # atno 8009 bound_to 7997
  156.2268  140.1823  156.7327 H   0  0  0  0  0  0  0  0  0  0  0  0  # atno 8010 bound_to 7997
  139.5615  144.1859  152.1246 H   0  0  0  0  0  0  0  0  0  0  0  0  # atno 10167 bound_to 10162
  156.1384  130.6448  150.9733 H   0  0  0  0  0  0  0  0  0  0  0  0  # atno 10718 bound_to 10713
  153.8966  135.3027  155.3448 H   0  0  0  0  0  0  0  0  0  0  0  0  # atno 10763 bound_to 10752
  154.7691  135.4895  153.9615 H   0  0  0  0  0  0  0  0  0  0  0  0  # atno 10764 bound_to 10752
  153.1268  135.6795  153.9343 H   0  0  0  0  0  0  0  0  0  0  0  0  # atno 10765 bound_to 10752
  141.0388  133.9868  157.3028 H   0  0  0  0  0  0  0  0  0  0  0  0  # atno 11005 bound_to 11000
  145.1038  140.9363  143.4697 LP  0  0  0  0  0  0  0  0  0  0  0  0  # atno 17320 bound_to 7965
  145.0645  139.3079  143.5863 LP  0  0  0  0  0  0  0  0  0  0  0  0  # atno 17321 bound_to 7965
  140.1373  144.5234  150.6765 LP  0  0  0  0  0  0  0  0  0  0  0  0  # atno 17342 bound_to 10162
  140.6895  143.2368  151.5170 LP  0  0  0  0  0  0  0  0  0  0  0  0  # atno 17343 bound_to 10162
  157.6553  131.0890  150.7960 LP  0  0  0  0  0  0  0  0  0  0  0  0  # atno 17370 bound_to 10713
  156.8038  130.4929  149.5366 LP  0  0  0  0  0  0  0  0  0  0  0  0  # atno 17371 bound_to 10713
  139.9260  135.0201  156.8236 LP  0  0  0  0  0  0  0  0  0  0  0  0  # atno 17394 bound_to 11000
  140.6273  133.9938  155.7645 LP  0  0  0  0  0  0  0  0  0  0  0  0  # atno 17395 bound_to 11000

$$$$
