AV-unprocessed.smi:1817|AV-procd|sdf|7372|dock10
  -GOLD-   22720 9 43D 1   1.00000     0.00000
 Structure written by MMmdl.
 42 43  0  0  0  0  0  0  0  0  1 V2000
  153.1119  142.8096  160.1841 C   0  0  0  0  0  0  0  0  0  0  0  0
  152.0958  143.1338  159.0796 C   0  0  0  0  0  0  0  0  0  0  0  0
  151.9719  142.1162  158.0376 N   0  0  0  0  0  0  0  0  0  0  0  0
  151.1033  142.5791  156.9581 C   0  0  0  0  0  0  0  0  0  0  0  0
  150.9724  141.5291  155.8398 C   0  0  0  0  0  0  0  0  0  0  0  0
  150.4263  140.2582  156.3352 N   0  0  0  0  0  0  0  0  0  0  0  0
  150.2839  139.2456  155.2664 C   0  0  2  0  0  0  0  0  0  0  0  0
  151.6250  138.6040  154.8441 C   0  0  0  0  0  0  0  0  0  0  0  0
  149.5667  139.7693  153.9944 C   0  0  0  0  0  0  0  0  0  0  0  0
  148.7572  138.7389  153.3466 N   0  0  0  0  0  0  0  0  0  0  0  0
  147.4193  138.6609  153.3760 C   0  0  0  0  0  0  0  0  0  0  0  0
  146.7023  139.4789  153.9520 O   0  0  0  0  0  0  0  0  0  0  0  0
  146.9829  137.5821  152.7059 N   0  0  0  0  0  0  0  0  0  0  0  0
  145.6442  137.1580  152.5133 C   0  0  0  0  0  0  0  0  0  0  0  0
  144.6980  137.6872  153.2980 N   0  0  0  0  0  0  0  0  0  0  0  0
  143.4363  137.1845  153.0038 N   0  0  0  0  0  0  0  0  0  0  0  0
  143.4807  136.2948  152.0074 C   0  0  0  0  0  0  0  0  0  0  0  0
  145.0679  135.9814  151.3287 S   0  0  0  0  0  0  0  0  0  0  0  0
  151.2955  139.8043  157.4299 C   0  0  0  0  0  0  0  0  0  0  0  0
  151.4257  140.8577  158.5455 C   0  0  0  0  0  0  0  0  0  0  0  0
  153.2226  143.6564  160.8614 H   0  0  0  0  0  0  0  0  0  0  0  0
  154.0943  142.5929  159.7634 H   0  0  0  0  0  0  0  0  0  0  0  0
  152.8038  141.9542  160.7847 H   0  0  0  0  0  0  0  0  0  0  0  0
  151.1202  143.3276  159.5280 H   0  0  0  0  0  0  0  0  0  0  0  0
  152.4050  144.0725  158.6183 H   0  0  0  0  0  0  0  0  0  0  0  0
  150.1138  142.8199  157.3505 H   0  0  0  0  0  0  0  0  0  0  0  0
  151.5025  143.5016  156.5351 H   0  0  0  0  0  0  0  0  0  0  0  0
  150.3222  141.9506  155.0749 H   0  0  0  0  0  0  0  0  0  0  0  0
  151.9443  141.3634  155.3723 H   0  0  0  0  0  0  0  0  0  0  0  0
  149.6652  138.4345  155.6537 H   0  0  0  0  0  0  0  0  0  0  0  0
  151.4987  137.9591  153.9741 H   0  0  0  0  0  0  0  0  0  0  0  0
  152.0424  137.9746  155.6293 H   0  0  0  0  0  0  0  0  0  0  0  0
  152.3680  139.3598  154.5880 H   0  0  0  0  0  0  0  0  0  0  0  0
  148.9598  140.6430  154.2378 H   0  0  0  0  0  0  0  0  0  0  0  0
  150.2894  140.1384  153.2676 H   0  0  0  0  0  0  0  0  0  0  0  0
  149.2623  138.0154  152.8562 H   0  0  0  0  0  0  0  0  0  0  0  0
  147.6884  136.9949  152.2859 H   0  0  0  0  0  0  0  0  0  0  0  0
  142.5716  135.8195  151.6700 H   0  0  0  0  0  0  0  0  0  0  0  0
  150.8967  138.8990  157.8843 H   0  0  0  0  0  0  0  0  0  0  0  0
  152.2843  139.5530  157.0430 H   0  0  0  0  0  0  0  0  0  0  0  0
  152.0705  140.4556  159.3261 H   0  0  0  0  0  0  0  0  0  0  0  0
  150.4502  141.0295  159.0032 H   0  0  0  0  0  0  0  0  0  0  0  0
  1  2  1  0  0  0  0
  1 21  1  0  0  0  0
  1 22  1  0  0  0  0
  1 23  1  0  0  0  0
  2  3  1  0  0  0  0
  2 24  1  0  0  0  0
  2 25  1  0  0  0  0
  3 20  1  0  0  0  0
  3  4  1  0  0  0  0
  4  5  1  0  0  0  0
  4 26  1  0  0  0  0
  4 27  1  0  0  0  0
  5  6  1  0  0  0  0
  5 28  1  0  0  0  0
  5 29  1  0  0  0  0
  6  7  1  0  0  0  0
  6 19  1  0  0  0  0
  7  8  1  0  0  0  0
  7  9  1  0  0  0  0
  7 30  1  0  0  0  0
  8 31  1  0  0  0  0
  8 32  1  0  0  0  0
  8 33  1  0  0  0  0
  9 10  1  0  0  0  0
  9 34  1  0  0  0  0
  9 35  1  0  0  0  0
 10 11  1  0  0  0  0
 10 36  1  0  0  0  0
 11 12  2  0  0  0  0
 11 13  1  0  0  0  0
 13 14  1  0  0  0  0
 13 37  1  0  0  0  0
 14 18  1  0  0  0  0
 14 15  2  0  0  0  0
 15 16  1  0  0  0  0
 16 17  2  0  0  0  0
 17 18  1  0  0  0  0
 17 38  1  0  0  0  0
 19 20  1  0  0  0  0
 19 39  1  0  0  0  0
 19 40  1  0  0  0  0
 20 41  1  0  0  0  0
 20 42  1  0  0  0  0
M  END
> <s_m_source_file>
AV-unprocessed.smi

> <i_m_source_file_index>
1817

> <i_lp_mmshare_version>
43012

> <i_f3d_flags>
0

> <s_epik_input>
W0NIM11bQ0gyXU4xW0NIMl1bQ0gyXU4oW0NIMl1bQ0gyXTEpW0NASF0oW0NIM10pW0NIMl1bTkhdQyg9TylbTkhdYzJubltjSF1zMg==

> <s_epik_cmdline>
J2VwaWtfcHl0aG9uJywgJy1waCcsICc3LjAnLCAnLXRuJywgJzgnLCAnLW1hJywgJzIwMCcsICctbWV0YWxfYmluZGluZycsICctaW1hZScsICc8aW5maWxlLm1hZT4nLCAnLW9tYWUnLCAnPG91dGZpbGUubWFlPic=

> <r_lp_tautomer_probability>
1

> <r_epik_Ionization_Penalty>
2.44129

> <r_epik_Ionization_Penalty_Charging>
0

> <r_epik_Ionization_Penalty_Neutral>
2.44129

> <r_epik_State_Penalty>
1.7682

> <r_epik_Charging_Adjusted_Penalty>
1.7682

> <i_epik_Tot_Q>
0

> <i_epik_Tot_abs_Q>
0

> <r_epik_Metal_State_Penalty>
2.10306

> <b_epik_Metal_Only>
0

> <s_lp_Force_Field>
OPLS_2005

> <r_lp_Energy>
42.0041

> <b_lp_Chiralities_Consistent>
1

> <s_lp_Variant>
AV-unprocessed.smi:1817-5

> <Gold.Version>
5.8.1

> <Gold.Id.Protein>
6NUR|6NUR_protein|mol2

> <Gold.PLP.Fitness>
37.8407

> <Gold.PLP.PLP>
-33.5981

> <Gold.PLP.part.hbond>
-3.0000

> <Gold.PLP.part.metal>
0.0000

> <Gold.PLP.part.buried>
-4.2766

> <Gold.PLP.part.nonpolar>
-27.5005

> <Gold.PLP.part.repulsive>
0.5694

> <Gold.PLP.ligand.clash>
0.0000

> <Gold.PLP.ligand.torsion>
0.7041

> <Gold.PLP.Chemscore.Hbond>
1.8723

> <Gold.PLP.Chemscore.CHOScore>
0.0000

> <Gold.PLP.Chemscore.Metal>
0.0000

> <Gold.Chemscore.Hbonds>
donor molecule, donor type, donor heavy atom, donor atom, acceptor molecule, acceptor atom, score
      L1  H    10    36       P1  7948  0.85
      L1  H    13    37       P1  7948  0.99

> <Gold.PLP.Chemscore.Internal.Correction>
0.0339

> <Gold.Rescore>
     Score         DG    S(hbond)    S(metal)    S(lipo)     H(rot)  DE(clash)    DE(int)     intcor
     13.79     -16.41       1.94        0.00      79.10       1.87       0.41       2.21       ----

> <Gold.Chemscore.Fitness>
13.7872

> <Gold.Chemscore.DG>
-16.4051

> <Gold.Chemscore.ZeroCoef>
-5.4800

> <Gold.Chemscore.Hbond>
1.9359

> <Gold.Chemscore.Metal>
0.0000

> <Gold.Chemscore.Lipo>
79.1019

> <Gold.Chemscore.Internal_Hbond>
0.0000

> <Gold.Chemscore.DEClash>
0.4120

> <Gold.Chemscore.DEInternal>
2.2059

> <Gold.Chemscore.Rot>
1.8733

> <Gold.Chemscore.Internal.Correction>
   9.000000E+99

> <Gold.Chemscore.Hbonds>
donor molecule, donor type, donor heavy atom, donor atom, acceptor molecule, acceptor atom, score
      L1  H    10    36       P1  7948  0.74
      L1  H    13    37       P1  7948  0.92

> <Gold.Chemscore.Hbond.Weighted>
-6.4658

> <Gold.Chemscore.Metal.Weighted>
-0.0000

> <Gold.Chemscore.Lipo.Weighted>
-9.2549

> <Gold.Chemscore.Internal_Hbond.Weighted>
0.0000

> <Gold.Chemscore.DEClash.Weighted>
0.4120

> <Gold.Chemscore.DEInternal.Weighted>
2.2059

> <Gold.Chemscore.Rot.Weighted>
4.7957

> <Gold.Chemscore.Internal.Correction.Weighted>
   9.000000E+99

> <Gold.Protein.RotatedTorsions>
[ 6907 6896 6895 6894 ] final  -90.50 input  -60.11 | X-H torsion
[ 7974 7965 7964 7962 ] final  144.37 input  175.53 | X-H torsion
[ 8008 7997 7996 7995 ] final -145.05 input   59.86 | X-H torsion
[ 10167 10162 10161 10158 ] final   74.44 input  -65.29 | X-H torsion
[ 10718 10713 10712 10709 ] final  -16.47 input   66.30 | X-H torsion
[ 10763 10752 10751 10750 ] final  -85.71 input  -60.55 | X-H torsion
[ 11005 11000 10999 10996 ] final   65.17 input  -57.11 | X-H torsion

> <Gold.Protein.ActiveResidues>
 VAL166  LYS551  ARG553  GLY616  TRP617  ASP618  TYR619  PRO620  LYS621  CYS622 
 ASP623  PHE694  ASN695  SER759  ASP760  ASP761  ALA762  ILE779  LEU786  VAL792 
 PHE793  MET794  SER795  GLU796  ALA797  LYS798  CYS799  TRP800  GLU811  SER814 

> <Gold.Protein.RotatedAtoms>
  150.6882  134.2422  159.4476 H   0  0  0  0  0  0  0  0  0  0  0  0  # atno 6907 bound_to 6896
  152.0366  134.9734  160.0582 H   0  0  0  0  0  0  0  0  0  0  0  0  # atno 6908 bound_to 6896
  152.1252  133.4341  159.4731 H   0  0  0  0  0  0  0  0  0  0  0  0  # atno 6909 bound_to 6896
  144.8841  139.5654  143.5829 H   0  0  0  0  0  0  0  0  0  0  0  0  # atno 7974 bound_to 7965
  155.5368  140.0604  157.2878 H   0  0  0  0  0  0  0  0  0  0  0  0  # atno 8008 bound_to 7997
  154.4465  140.1926  156.0595 H   0  0  0  0  0  0  0  0  0  0  0  0  # atno 8009 bound_to 7997
  156.0613  140.3272  155.7468 H   0  0  0  0  0  0  0  0  0  0  0  0  # atno 8010 bound_to 7997
  140.0137  144.5594  150.7638 H   0  0  0  0  0  0  0  0  0  0  0  0  # atno 10167 bound_to 10162
  156.5872  130.4789  149.6295 H   0  0  0  0  0  0  0  0  0  0  0  0  # atno 10718 bound_to 10713
  154.6141  135.5475  153.7505 H   0  0  0  0  0  0  0  0  0  0  0  0  # atno 10763 bound_to 10752
  153.0208  135.6397  154.1535 H   0  0  0  0  0  0  0  0  0  0  0  0  # atno 10764 bound_to 10752
  154.1472  135.2905  155.3125 H   0  0  0  0  0  0  0  0  0  0  0  0  # atno 10765 bound_to 10752
  139.9912  134.6589  156.0088 H   0  0  0  0  0  0  0  0  0  0  0  0  # atno 11005 bound_to 11000
  146.3013  139.7437  142.9089 LP  0  0  0  0  0  0  0  0  0  0  0  0  # atno 17320 bound_to 7965
  145.3900  141.0371  143.3129 LP  0  0  0  0  0  0  0  0  0  0  0  0  # atno 17321 bound_to 7965
  140.7371  143.2761  151.3737 LP  0  0  0  0  0  0  0  0  0  0  0  0  # atno 17342 bound_to 10162
  139.6187  144.0950  152.2371 LP  0  0  0  0  0  0  0  0  0  0  0  0  # atno 17343 bound_to 10162
  156.2581  130.6946  151.1706 LP  0  0  0  0  0  0  0  0  0  0  0  0  # atno 17370 bound_to 10713
  157.7312  131.0610  150.5687 LP  0  0  0  0  0  0  0  0  0  0  0  0  # atno 17371 bound_to 10713
  141.1567  133.6542  156.4184 LP  0  0  0  0  0  0  0  0  0  0  0  0  # atno 17394 bound_to 11000
  140.4906  134.6579  157.5209 LP  0  0  0  0  0  0  0  0  0  0  0  0  # atno 17395 bound_to 11000

$$$$
