#       Name:                AV-unprocessed.smi:229
#       Creating user name   scv26
#       Creation time:       Thu Mar 26 20:29:29 2020


#       File generated by GOLD software.
#

@<TRIPOS>MOLECULE
AV-unprocessed.smi:229
    70    74     1
SMALL
NO_CHARGES


@<TRIPOS>ATOM
      1 ****        -5.8548  -1.7434   2.7474 C.3            1 S1                 0.0000
      2 ****        -4.3484  -1.5784   2.5110 C.3            1 S1                 0.0000
      3 ****        -4.0284  -0.7962   1.2286 C.3            1 S1                 0.0000
      4 ****        -2.5226  -0.5222   1.0835 C.3            1 S1                 0.0000
      5 ****        -2.2717   0.1476  -0.1840 N.3            1 S1                 0.0000
      6 ****        -1.0246   0.6357  -0.3484 C.ar           1 S1                 0.0000
      7 ****        -0.9190   1.9411  -0.6980 N.ar           1 S1                 0.0000
      8 ****         0.2865   2.4884  -0.8827 C.ar           1 S1                 0.0000
      9 ****         1.4884   1.9170  -0.7765 N.ar           1 S1                 0.0000
     10 ****         1.3825   0.6008  -0.4351 C.ar           1 S1                 0.0000
     11 ****         0.1754  -0.1173  -0.2051 C.ar           1 S1                 0.0000
     12 ****         0.4654  -1.4398   0.1101 N.2            1 S1                 0.0000
     13 ****         1.7691  -1.4980   0.0763 C.2            1 S1                 0.0000
     14 ****         2.3994  -0.3155  -0.2385 N.pl3          1 S1                 0.0000
     15 ****         3.8302  -0.0897  -0.3477 C.3            1 S1                 0.0000
     16 ****         4.4014   0.6842   0.8603 C.3            1 S1                 0.0000
     17 ****         4.1222  -0.0608   2.0303 O.3            1 S1                 0.0000
     18 ****         5.9280   0.8869   0.7826 C.3            1 S1                 0.0000
     19 ****         6.4281   1.5034  -0.5252 C.3            1 S1                 0.0000
     20 ****         7.7547   2.1334  -0.1364 C.3            1 S1                 0.0000
     21 ****         7.6555   2.2842   1.3833 C.3            1 S1                 0.0000
     22 ****         6.3344   1.8781   1.7150 O.3            1 S1                 0.0000
     23 ****        -2.7459  -0.6193  -1.3262 C.3            1 S1                 0.0000
     24 ****        -4.2470  -0.9600  -1.1696 C.3            1 S1                 0.0000
     25 ****        -4.6991  -1.9501  -2.2390 C.3            1 S1                 0.0000
     26 ****        -5.3118  -1.0586  -3.3082 C.3            1 S1                 0.0000
     27 ****        -5.9981  -0.0919  -2.5357 O.3            1 S1                 0.0000
     28 ****        -5.1754   0.2506  -1.4266 C.3            1 S1                 0.0000
     29 ****        -4.4697  -1.5670   0.1078 O.3            1 S1                 0.0000
     30 ****        -6.0450  -2.2935   3.6692 H              1 S1                 0.0000
     31 ****        -6.3267  -2.2911   1.9312 H              1 S1                 0.0000
     32 ****        -6.3489  -0.7749   2.8303 H              1 S1                 0.0000
     33 ****        -3.9148  -1.0612   3.3676 H              1 S1                 0.0000
     34 ****        -3.8740  -2.5598   2.4729 H              1 S1                 0.0000
     35 ****        -4.5586   0.1559   1.2631 H              1 S1                 0.0000
     36 ****        -2.1696   0.0997   1.9074 H              1 S1                 0.0000
     37 ****        -1.9739  -1.4633   1.1264 H              1 S1                 0.0000
     38 ****         0.2882   3.5334  -1.1552 H              1 S1                 0.0000
     39 ****         2.3099  -2.4100   0.2842 H              1 S1                 0.0000
     40 ****         4.3298  -1.0538  -0.4530 H              1 S1                 0.0000
     41 ****         4.0078   0.4564  -1.2743 H              1 S1                 0.0000
     42 ****         3.9077   1.6541   0.9352 H              1 S1                 0.0000
     43 ****         3.1843  -0.1242   2.1272 H              1 S1                 0.0000
     44 ****         6.4602  -0.0467   0.9770 H              1 S1                 0.0000
     45 ****         6.5283   0.7731  -1.3287 H              1 S1                 0.0000
     46 ****         5.7403   2.2814  -0.8596 H              1 S1                 0.0000
     47 ****         8.5903   1.4838  -0.3992 H              1 S1                 0.0000
     48 ****         7.9019   3.0911  -0.6367 H              1 S1                 0.0000
     49 ****         8.3719   1.6301   1.8824 H              1 S1                 0.0000
     50 ****         7.8395   3.3068   1.7143 H              1 S1                 0.0000
     51 ****        -2.5742  -0.0661  -2.2510 H              1 S1                 0.0000
     52 ****        -2.1611  -1.5379  -1.3935 H              1 S1                 0.0000
     53 ****        -3.8973  -2.5828  -2.6210 H              1 S1                 0.0000
     54 ****        -5.4740  -2.6065  -1.8399 H              1 S1                 0.0000
     55 ****        -4.5407  -0.5747  -3.9096 H              1 S1                 0.0000
     56 ****        -5.9865  -1.5973  -3.9739 H              1 S1                 0.0000
     57 ****        -5.8140   0.4883  -0.5764 H              1 S1                 0.0000
     58 ****        -4.6028   1.1464  -1.6704 H              1 S1                 0.0000
     59 ****        -2.8341   0.9732  -0.1367 LP             1 S1                 0.0000
     60 ****        -1.7431   2.4948  -0.8177 LP             1 S1                 0.0000
     61 ****         2.3548   2.3928  -0.9278 LP             1 S1                 0.0000
     62 ****        -0.1775  -2.1777   0.3157 LP             1 S1                 0.0000
     63 ****         4.5134   0.4013   2.8262 LP             1 S1                 0.0000
     64 ****         4.5159  -0.9765   1.9496 LP             1 S1                 0.0000
     65 ****         6.3189   1.4992   2.6403 LP             1 S1                 0.0000
     66 ****         5.7165   2.6628   1.6658 LP             1 S1                 0.0000
     67 ****        -6.8650  -0.4702  -2.2110 LP             1 S1                 0.0000
     68 ****        -6.1761   0.7212  -3.0899 LP             1 S1                 0.0000
     69 ****        -5.4518  -1.7265   0.2084 LP             1 S1                 0.0000
     70 ****        -3.9865  -2.4423   0.1238 LP             1 S1                 0.0000
@<TRIPOS>BOND
    1    1    2 1     
    2    1   30 1     
    3    1   31 1     
    4    1   32 1     
    5    2    3 1     
    6    2   33 1     
    7    2   34 1     
    8    3   29 1     
    9    3    4 1     
   10    3   35 1     
   11    4    5 1     
   12    4   36 1     
   13    4   37 1     
   14    5    6 1     
   15    5   23 1     
   16    6   11 ar    
   17    6    7 ar    
   18    7    8 ar    
   19    8    9 ar    
   20    8   38 1     
   21    9   10 ar    
   22   10   14 1     
   23   10   11 ar    
   24   11   12 1     
   25   12   13 2     
   26   13   14 1     
   27   13   39 1     
   28   14   15 1     
   29   15   16 1     
   30   15   40 1     
   31   15   41 1     
   32   16   17 1     
   33   16   18 1     
   34   16   42 1     
   35   17   43 1     
   36   18   22 1     
   37   18   19 1     
   38   18   44 1     
   39   19   20 1     
   40   19   45 1     
   41   19   46 1     
   42   20   21 1     
   43   20   47 1     
   44   20   48 1     
   45   21   22 1     
   46   21   49 1     
   47   21   50 1     
   48   23   24 1     
   49   23   51 1     
   50   23   52 1     
   51   24   28 1     
   52   24   25 1     
   53   24   29 1     
   54   25   26 1     
   55   25   53 1     
   56   25   54 1     
   57   26   27 1     
   58   26   55 1     
   59   26   56 1     
   60   27   28 1     
   61   28   57 1     
   62   28   58 1     
   63    5   59 1     
   64    7   60 1     
   65    9   61 1     
   66   12   62 1     
   67   17   63 1     
   68   17   64 1     
   69   22   65 1     
   70   22   66 1     
   71   27   67 1     
   72   27   68 1     
   73   29   69 1     
   74   29   70 1     
@<TRIPOS>SUBSTRUCTURE
      1 S1             1
@<TRIPOS>SET
LONE_PAIRS      STATIC     ATOMS    <user>   **** ""
12 59 60 61 62 63 64 65 66 67 68 69 70
DONOR_HYDROGENS      STATIC     ATOMS    <user>   **** ""
1 43
ATOM$BLUE        STATIC     ATOMS    COLORGROUP SYSTEM
12 59 60 61 62 63 64 65 66 67 68 69 70
ATOM$RED        STATIC     ATOMS    COLORGROUP SYSTEM
1 43
