AV-unprocessed.smi:967|AV-procd|sdf|4287|dock4
  -GOLD-   22720 2193D 1   1.00000     0.00000
 Structure written by MMmdl.
 42 43  0  0  0  0  0  0  0  0  1 V2000
  151.7069  138.0095  159.0822 C   0  0  0  0  0  0  0  0  0  0  0  0
  152.1379  136.8650  158.2942 N   0  0  0  0  0  0  0  0  0  0  0  0
  153.5020  136.9056  157.7907 C   0  0  0  0  0  0  0  0  0  0  0  0
  151.2087  136.4899  157.3152 C   0  0  0  0  0  0  0  0  0  0  0  0
  149.8560  136.2420  157.6416 C   0  0  0  0  0  0  0  0  0  0  0  0
  148.9676  135.8697  156.6144 C   0  0  0  0  0  0  0  0  0  0  0  0
  149.4587  135.7640  155.2914 C   0  0  0  0  0  0  0  0  0  0  0  0
  148.6712  135.3753  154.1745 N   0  0  0  0  0  0  0  0  0  0  0  0
  147.6146  134.5455  154.1439 C   0  0  0  0  0  0  0  0  0  0  0  0
  147.1191  133.9894  155.1236 O   0  0  0  0  0  0  0  0  0  0  0  0
  147.1451  134.4137  152.8949 N   0  0  0  0  0  0  0  0  0  0  0  0
  145.9938  133.6119  152.4893 C   0  0  2  0  0  0  0  0  0  0  0  0
  146.4723  132.3889  151.6831 C   0  0  0  0  0  0  0  0  0  0  0  0
  145.2885  131.5673  151.1478 C   0  0  0  0  0  0  0  0  0  0  0  0
  144.3415  132.4432  150.3101 C   0  0  1  0  0  0  0  0  0  0  0  0
  143.2359  131.6736  149.8873 O   0  0  0  0  0  0  0  0  0  0  0  0
  143.8470  133.6533  151.1209 C   0  0  0  0  0  0  0  0  0  0  0  0
  145.0269  134.4785  151.6590 C   0  0  0  0  0  0  0  0  0  0  0  0
  150.8287  136.0202  155.0773 C   0  0  0  0  0  0  0  0  0  0  0  0
  151.6852  136.3796  156.0565 N   0  0  0  0  0  0  0  0  0  0  0  0
  150.6800  137.8787  159.4258 H   0  0  0  0  0  0  0  0  0  0  0  0
  151.7619  138.9302  158.5002 H   0  0  0  0  0  0  0  0  0  0  0  0
  152.3433  138.1224  159.9601 H   0  0  0  0  0  0  0  0  0  0  0  0
  153.7307  136.0085  157.2140 H   0  0  0  0  0  0  0  0  0  0  0  0
  154.2071  136.9605  158.6202 H   0  0  0  0  0  0  0  0  0  0  0  0
  153.6573  137.7754  157.1517 H   0  0  0  0  0  0  0  0  0  0  0  0
  149.5028  136.3302  158.6586 H   0  0  0  0  0  0  0  0  0  0  0  0
  147.9392  135.6598  156.8638 H   0  0  0  0  0  0  0  0  0  0  0  0
  148.9074  135.8252  153.3022 H   0  0  0  0  0  0  0  0  0  0  0  0
  147.6193  134.9184  152.1605 H   0  0  0  0  0  0  0  0  0  0  0  0
  145.4559  133.2469  153.3662 H   0  0  0  0  0  0  0  0  0  0  0  0
  147.0904  132.7158  150.8453 H   0  0  0  0  0  0  0  0  0  0  0  0
  147.1062  131.7558  152.3054 H   0  0  0  0  0  0  0  0  0  0  0  0
  145.6587  130.7349  150.5483 H   0  0  0  0  0  0  0  0  0  0  0  0
  144.7451  131.1287  151.9860 H   0  0  0  0  0  0  0  0  0  0  0  0
  144.8659  132.7943  149.4203 H   0  0  0  0  0  0  0  0  0  0  0  0
  142.4825  132.2404  149.8219 H   0  0  0  0  0  0  0  0  0  0  0  0
  143.2087  134.2845  150.5015 H   0  0  0  0  0  0  0  0  0  0  0  0
  143.2325  133.3149  151.9566 H   0  0  0  0  0  0  0  0  0  0  0  0
  144.6512  135.3037  152.2650 H   0  0  0  0  0  0  0  0  0  0  0  0
  145.5610  134.9287  150.8210 H   0  0  0  0  0  0  0  0  0  0  0  0
  151.2531  135.9393  154.0872 H   0  0  0  0  0  0  0  0  0  0  0  0
  1  2  1  0  0  0  0
  1 21  1  0  0  0  0
  1 22  1  0  0  0  0
  1 23  1  0  0  0  0
  2  3  1  0  0  0  0
  2  4  1  0  0  0  0
  3 24  1  0  0  0  0
  3 25  1  0  0  0  0
  3 26  1  0  0  0  0
  4 20  1  0  0  0  0
  4  5  2  0  0  0  0
  5  6  1  0  0  0  0
  5 27  1  0  0  0  0
  6  7  2  0  0  0  0
  6 28  1  0  0  0  0
  7  8  1  0  0  0  0
  7 19  1  0  0  0  0
  8  9  1  0  0  0  0
  8 29  1  0  0  0  0
  9 10  2  0  0  0  0
  9 11  1  0  0  0  0
 11 12  1  0  0  0  0
 11 30  1  0  0  0  0
 12 18  1  0  0  0  0
 12 13  1  0  0  0  0
 12 31  1  0  0  0  0
 13 14  1  0  0  0  0
 13 32  1  0  0  0  0
 13 33  1  0  0  0  0
 14 15  1  0  0  0  0
 14 34  1  0  0  0  0
 14 35  1  0  0  0  0
 15 16  1  0  0  0  0
 15 17  1  0  0  0  0
 15 36  1  0  0  0  0
 16 37  1  0  0  0  0
 17 18  1  0  0  0  0
 17 38  1  0  0  0  0
 17 39  1  0  0  0  0
 18 40  1  0  0  0  0
 18 41  1  0  0  0  0
 19 20  2  0  0  0  0
 19 42  1  0  0  0  0
M  END
> <s_m_source_file>
AV-unprocessed.smi

> <i_m_source_file_index>
967

> <i_lp_mmshare_version>
43012

> <i_f3d_flags>
0

> <s_epik_input>
W0NIM11OKFtDSDNdKWMxW2NIXVtjSF1jKFtjSF1uMSlbTkhdQyg9TylbTkhdW0NAQEhdMltDSDJdW0NIMl1bQ0BASF0oW09IXSlbQ0gyXVtDSDJdMg==

> <s_epik_cmdline>
J2VwaWtfcHl0aG9uJywgJy1waCcsICc3LjAnLCAnLXRuJywgJzgnLCAnLW1hJywgJzIwMCcsICctbWV0YWxfYmluZGluZycsICctaW1hZScsICc8aW5maWxlLm1hZT4nLCAnLW9tYWUnLCAnPG91dGZpbGUubWFlPic=

> <r_lp_tautomer_probability>
1

> <r_epik_Ionization_Penalty>
0.629464

> <r_epik_Ionization_Penalty_Charging>
0

> <r_epik_Ionization_Penalty_Neutral>
0.629464

> <r_epik_State_Penalty>
0.645019

> <r_epik_Charging_Adjusted_Penalty>
0.645019

> <i_epik_Tot_Q>
0

> <i_epik_Tot_abs_Q>
0

> <r_epik_Metal_State_Penalty>
0.308581

> <b_epik_Metal_Only>
0

> <s_lp_Force_Field>
OPLS_2005

> <r_lp_Energy>
16.3049

> <b_lp_Chiralities_Consistent>
1

> <s_lp_Variant>
AV-unprocessed.smi:967-3

> <Gold.Version>
5.8.1

> <Gold.Id.Protein>
6NUR|6NUR_protein|mol2

> <Gold.PLP.Fitness>
40.0346

> <Gold.PLP.PLP>
-26.8493

> <Gold.PLP.part.hbond>
-5.4022

> <Gold.PLP.part.metal>
0.0000

> <Gold.PLP.part.buried>
-2.4041

> <Gold.PLP.part.nonpolar>
-18.0295

> <Gold.PLP.part.repulsive>
0.0541

> <Gold.PLP.ligand.clash>
0.0000

> <Gold.PLP.ligand.torsion>
0.3904

> <Gold.PLP.Chemscore.Hbond>
3.5845

> <Gold.PLP.Chemscore.CHOScore>
1.0000

> <Gold.PLP.Chemscore.Metal>
0.0000

> <Gold.Chemscore.Hbonds>
donor molecule, donor type, donor heavy atom, donor atom, acceptor molecule, acceptor atom, score
      L1  H     8    29       P1  7948  0.86
      L1  H    11    30       P1  7948  0.88
      P1  H 10752 10765       L1    20  0.62
      P1  H 10785 10796       L1    16  1.00
      L1  C    19    42       P1  7949  0.85

> <Gold.PLP.Chemscore.Internal.Correction>
0.2127

> <Gold.Rescore>
     Score         DG    S(hbond)    S(metal)    S(lipo)     H(rot)  DE(clash)    DE(int)     intcor
     18.64     -20.26       3.53        0.00      62.87       1.71       0.21       1.41       ----

> <Gold.Chemscore.Fitness>
18.6362

> <Gold.Chemscore.DG>
-20.2556

> <Gold.Chemscore.ZeroCoef>
-5.4800

> <Gold.Chemscore.Hbond>
3.5309

> <Gold.Chemscore.Metal>
0.0000

> <Gold.Chemscore.Lipo>
62.8705

> <Gold.Chemscore.Internal_Hbond>
0.0000

> <Gold.Chemscore.DEClash>
0.2118

> <Gold.Chemscore.DEInternal>
1.4076

> <Gold.Chemscore.Rot>
1.7084

> <Gold.Chemscore.Internal.Correction>
   9.000000E+99

> <Gold.Chemscore.Hbonds>
donor molecule, donor type, donor heavy atom, donor atom, acceptor molecule, acceptor atom, score
      L1  H     8    29       P1  7948  0.79
      L1  H    11    30       P1  7948  0.76
      P1  H 10752 10765       L1    20  0.06
      P1  H 10785 10796       L1    16  0.89

> <Gold.Chemscore.Hbond.Weighted>
-11.7933

> <Gold.Chemscore.Metal.Weighted>
-0.0000

> <Gold.Chemscore.Lipo.Weighted>
-7.3558

> <Gold.Chemscore.Internal_Hbond.Weighted>
0.0000

> <Gold.Chemscore.DEClash.Weighted>
0.2118

> <Gold.Chemscore.DEInternal.Weighted>
1.4076

> <Gold.Chemscore.Rot.Weighted>
4.3735

> <Gold.Chemscore.Internal.Correction.Weighted>
   9.000000E+99

> <Gold.Protein.RotatedTorsions>
[ 6907 6896 6895 6894 ] final  -42.54 input  -60.11 | X-H torsion
[ 7974 7965 7964 7962 ] final -113.13 input  175.53 | X-H torsion
[ 8008 7997 7996 7995 ] final   82.80 input   59.86 | X-H torsion
[ 10167 10162 10161 10158 ] final  154.55 input  -65.29 | X-H torsion
[ 10718 10713 10712 10709 ] final  -30.62 input   66.30 | X-H torsion
[ 10763 10752 10751 10750 ] final -135.61 input  -60.55 | X-H torsion
[ 11005 11000 10999 10996 ] final   62.92 input  -57.11 | X-H torsion

> <Gold.Protein.ActiveResidues>
 VAL166  LYS551  ARG553  GLY616  TRP617  ASP618  TYR619  PRO620  LYS621  CYS622 
 ASP623  PHE694  ASN695  SER759  ASP760  ASP761  ALA762  ILE779  LEU786  VAL792 
 PHE793  MET794  SER795  GLU796  ALA797  LYS798  CYS799  TRP800  GLU811  SER814 

> <Gold.Protein.RotatedAtoms>
  150.9541  134.8937  159.7689 H   0  0  0  0  0  0  0  0  0  0  0  0  # atno 6907 bound_to 6896
  152.5131  134.3765  159.9346 H   0  0  0  0  0  0  0  0  0  0  0  0  # atno 6908 bound_to 6896
  151.3780  133.3791  159.2741 H   0  0  0  0  0  0  0  0  0  0  0  0  # atno 6909 bound_to 6896
  145.1357  140.8749  143.3732 H   0  0  0  0  0  0  0  0  0  0  0  0  # atno 7974 bound_to 7965
  155.9154  140.3425  155.6131 H   0  0  0  0  0  0  0  0  0  0  0  0  # atno 8008 bound_to 7997
  155.7338  140.0799  157.2296 H   0  0  0  0  0  0  0  0  0  0  0  0  # atno 8009 bound_to 7997
  154.4061  140.1583  156.2525 H   0  0  0  0  0  0  0  0  0  0  0  0  # atno 8010 bound_to 7997
  139.4823  144.5176  151.7926 H   0  0  0  0  0  0  0  0  0  0  0  0  # atno 10167 bound_to 10162
  156.3975  130.4384  149.7347 H   0  0  0  0  0  0  0  0  0  0  0  0  # atno 10718 bound_to 10713
  154.8700  135.3698  154.4926 H   0  0  0  0  0  0  0  0  0  0  0  0  # atno 10763 bound_to 10752
  153.5572  135.7023  153.5569 H   0  0  0  0  0  0  0  0  0  0  0  0  # atno 10764 bound_to 10752
  153.3661  135.4033  155.1718 H   0  0  0  0  0  0  0  0  0  0  0  0  # atno 10765 bound_to 10752
  140.0059  134.6370  155.9856 H   0  0  0  0  0  0  0  0  0  0  0  0  # atno 11005 bound_to 11000
  145.0587  139.3123  143.5891 LP  0  0  0  0  0  0  0  0  0  0  0  0  # atno 17320 bound_to 7965
  146.3510  140.0021  142.8675 LP  0  0  0  0  0  0  0  0  0  0  0  0  # atno 17321 bound_to 7965
  140.4687  144.1618  150.5915 LP  0  0  0  0  0  0  0  0  0  0  0  0  # atno 17342 bound_to 10162
  140.4406  143.2528  151.9478 LP  0  0  0  0  0  0  0  0  0  0  0  0  # atno 17343 bound_to 10162
  156.4377  130.7846  151.2866 LP  0  0  0  0  0  0  0  0  0  0  0  0  # atno 17370 bound_to 10713
  157.7502  131.0134  150.3425 LP  0  0  0  0  0  0  0  0  0  0  0  0  # atno 17371 bound_to 10713
  141.1676  133.6537  156.4536 LP  0  0  0  0  0  0  0  0  0  0  0  0  # atno 17394 bound_to 11000
  140.4642  134.6813  157.5099 LP  0  0  0  0  0  0  0  0  0  0  0  0  # atno 17395 bound_to 11000

$$$$
