AV-unprocessed.smi:515|AV-procd|sdf|2782|dock7
  -GOLD-   2262023253D 1   1.00000     0.00000
 Structure written by MMmdl.
 46 48  0  0  0  0  0  0  0  0  2 V2000
  155.3539  139.9997  163.6947 C   0  0  0  0  0  0  0  0  0  0  0  0
  154.9662  138.5863  163.2540 C   0  0  0  0  0  0  0  0  0  0  0  0
  155.4822  138.3518  161.9548 O   0  0  0  0  0  0  0  0  0  0  0  0
  154.8851  139.1807  160.9721 C   0  0  0  0  0  0  0  0  0  0  0  0
  153.6014  138.5097  160.4689 C   0  0  0  0  0  0  0  0  0  0  0  0
  153.1661  139.0749  159.1960 N   0  0  0  0  0  0  0  0  0  0  0  0
  152.7984  140.3594  158.9450 C   0  0  0  0  0  0  0  0  0  0  0  0
  152.7849  141.4237  160.0114 C   0  0  0  0  0  0  0  0  0  0  0  0
  152.1363  142.6783  159.6268 N   0  0  0  0  0  0  0  0  0  0  0  0
  151.8896  143.5233  160.7893 C   0  0  0  0  0  0  0  0  0  0  0  0
  151.2028  144.8441  160.4006 C   0  0  0  0  0  0  0  0  0  0  0  0
  151.9952  145.5284  159.4352 O   0  0  0  0  0  0  0  0  0  0  0  0
  152.2284  144.7523  158.2641 C   0  0  0  0  0  0  0  0  0  0  0  0
  152.9195  143.4336  158.6500 C   0  0  0  0  0  0  0  0  0  0  0  0
  152.4142  140.5745  157.6817 N   0  0  0  0  0  0  0  0  0  0  0  0
  152.5640  139.3334  157.0835 C   0  0  0  0  0  0  0  0  0  0  0  0
  153.0069  138.4108  157.9767 C   0  0  0  0  0  0  0  0  0  0  0  0
  153.2363  136.9874  157.6456 C   0  0  0  0  0  0  0  0  0  0  0  0
  153.6133  136.1892  158.5014 O   0  0  0  0  0  0  0  0  0  0  0  0
  152.9750  136.7155  156.3276 N   0  5  0  0  0  0  0  0  0  0  0  0
  152.5331  137.6203  155.3859 C   0  0  0  0  0  0  0  0  0  0  0  0
  152.3233  137.2922  154.2173 O   0  0  0  0  0  0  0  0  0  0  0  0
  152.3167  138.9253  155.7445 N   0  0  0  0  0  0  0  0  0  0  0  0
  151.8430  139.9088  154.7666 C   0  0  0  0  0  0  0  0  0  0  0  0
  154.9761  140.2134  164.6947 H   0  0  0  0  0  0  0  0  0  0  0  0
  154.9443  140.7470  163.0149 H   0  0  0  0  0  0  0  0  0  0  0  0
  156.4374  140.1204  163.7133 H   0  0  0  0  0  0  0  0  0  0  0  0
  155.3674  137.8542  163.9566 H   0  0  0  0  0  0  0  0  0  0  0  0
  153.8801  138.4824  163.2521 H   0  0  0  0  0  0  0  0  0  0  0  0
  154.6570  140.1602  161.3951 H   0  0  0  0  0  0  0  0  0  0  0  0
  155.5783  139.3327  160.1431 H   0  0  0  0  0  0  0  0  0  0  0  0
  153.7569  137.4378  160.3655 H   0  0  0  0  0  0  0  0  0  0  0  0
  152.8011  138.6099  161.2008 H   0  0  0  0  0  0  0  0  0  0  0  0
  152.2732  140.9997  160.8762 H   0  0  0  0  0  0  0  0  0  0  0  0
  153.8045  141.6386  160.3287 H   0  0  0  0  0  0  0  0  0  0  0  0
  151.2655  142.9911  161.5080 H   0  0  0  0  0  0  0  0  0  0  0  0
  152.8313  143.7413  161.2953 H   0  0  0  0  0  0  0  0  0  0  0  0
  150.2067  144.6571  159.9965 H   0  0  0  0  0  0  0  0  0  0  0  0
  151.0788  145.4800  161.2773 H   0  0  0  0  0  0  0  0  0  0  0  0
  151.2841  144.5576  157.7535 H   0  0  0  0  0  0  0  0  0  0  0  0
  152.8535  145.3218  157.5765 H   0  0  0  0  0  0  0  0  0  0  0  0
  153.9079  143.6517  159.0572 H   0  0  0  0  0  0  0  0  0  0  0  0
  153.0808  142.8418  157.7493 H   0  0  0  0  0  0  0  0  0  0  0  0
  152.5636  140.0160  153.9546 H   0  0  0  0  0  0  0  0  0  0  0  0
  151.6929  140.8965  155.2024 H   0  0  0  0  0  0  0  0  0  0  0  0
  150.8898  139.5948  154.3388 H   0  0  0  0  0  0  0  0  0  0  0  0
  1  2  1  0  0  0  0
  1 25  1  0  0  0  0
  1 26  1  0  0  0  0
  1 27  1  0  0  0  0
  2  3  1  0  0  0  0
  2 28  1  0  0  0  0
  2 29  1  0  0  0  0
  3  4  1  0  0  0  0
  4  5  1  0  0  0  0
  4 30  1  0  0  0  0
  4 31  1  0  0  0  0
  5  6  1  0  0  0  0
  5 32  1  0  0  0  0
  5 33  1  0  0  0  0
  6 17  1  0  0  0  0
  6  7  1  0  0  0  0
  7  8  1  0  0  0  0
  7 15  2  0  0  0  0
  8  9  1  0  0  0  0
  8 34  1  0  0  0  0
  8 35  1  0  0  0  0
  9 14  1  0  0  0  0
  9 10  1  0  0  0  0
 10 11  1  0  0  0  0
 10 36  1  0  0  0  0
 10 37  1  0  0  0  0
 11 12  1  0  0  0  0
 11 38  1  0  0  0  0
 11 39  1  0  0  0  0
 12 13  1  0  0  0  0
 13 14  1  0  0  0  0
 13 40  1  0  0  0  0
 13 41  1  0  0  0  0
 14 42  1  0  0  0  0
 14 43  1  0  0  0  0
 15 16  1  0  0  0  0
 16 23  1  0  0  0  0
 16 17  2  0  0  0  0
 17 18  1  0  0  0  0
 18 19  2  0  0  0  0
 18 20  1  0  0  0  0
 20 21  1  0  0  0  0
 21 22  2  0  0  0  0
 21 23  1  0  0  0  0
 23 24  1  0  0  0  0
 24 44  1  0  0  0  0
 24 45  1  0  0  0  0
 24 46  1  0  0  0  0
M  CHG  1  20  -1
M  END
> <s_m_source_file>
AV-unprocessed.smi

> <i_m_source_file_index>
515

> <i_lp_mmshare_version>
43012

> <i_f3d_flags>
0

> <s_epik_input>
W0NIM11uMWMoPU8pW25IXWMoPU8pYyhjMTIpbihbQ0gyXVtDSDJdT1tDSDJdW0NIM10pYyhuMilbQ0gyXU4zW0NIMl1bQ0gyXU9bQ0gyXVtDSDJdMw==

> <s_epik_cmdline>
J2VwaWtfcHl0aG9uJywgJy1waCcsICc3LjAnLCAnLXRuJywgJzgnLCAnLW1hJywgJzIwMCcsICctbWV0YWxfYmluZGluZycsICctaW1hZScsICc8aW5maWxlLm1hZT4nLCAnLW9tYWUnLCAnPG91dGZpbGUubWFlPic=

> <r_epik_Ionization_Penalty>
4.8833

> <r_epik_Ionization_Penalty_Charging>
0.035962

> <r_epik_Ionization_Penalty_Neutral>
4.84734

> <r_epik_State_Penalty>
4.83718

> <r_epik_Charging_Adjusted_Penalty>
4.87314

> <i_epik_Tot_Q>
-1

> <i_epik_Tot_abs_Q>
1

> <r_epik_Metal_State_Penalty>
1.06056

> <b_epik_Metal_Only>
1

> <s_lp_Force_Field>
OPLS_2005

> <r_lp_Energy>
45.1348

> <b_lp_Chiralities_Consistent>
1

> <s_lp_Variant>
AV-unprocessed.smi:515-3

> <Gold.Version>
5.8.1

> <Gold.Id.Protein>
6NUR|6NUR_protein|mol2

> <Gold.PLP.Fitness>
47.7380

> <Gold.PLP.PLP>
-40.6687

> <Gold.PLP.part.hbond>
-3.3122

> <Gold.PLP.part.metal>
0.0000

> <Gold.PLP.part.buried>
-4.7378

> <Gold.PLP.part.nonpolar>
-33.3078

> <Gold.PLP.part.repulsive>
0.2570

> <Gold.PLP.ligand.clash>
0.0000

> <Gold.PLP.ligand.torsion>
0.3976

> <Gold.PLP.Chemscore.Hbond>
2.6076

> <Gold.PLP.Chemscore.CHOScore>
0.0000

> <Gold.PLP.Chemscore.Metal>
0.0000

> <Gold.Chemscore.Hbonds>
donor molecule, donor type, donor heavy atom, donor atom, acceptor molecule, acceptor atom, score
      P1  H  6896  6909       L1    19  0.04
      P1  H 10752 10763       L1    22  0.56
      P1  H 10752 10764       L1    20  1.47

> <Gold.PLP.Chemscore.Internal.Correction>
0.0418

> <Gold.Rescore>
     Score         DG    S(hbond)    S(metal)    S(lipo)     H(rot)  DE(clash)    DE(int)     intcor
     14.80     -15.44       1.19        0.00      96.96       2.10       0.17       0.47       ----

> <Gold.Chemscore.Fitness>
14.8028

> <Gold.Chemscore.DG>
-15.4401

> <Gold.Chemscore.ZeroCoef>
-5.4800

> <Gold.Chemscore.Hbond>
1.1944

> <Gold.Chemscore.Metal>
0.0000

> <Gold.Chemscore.Lipo>
96.9622

> <Gold.Chemscore.Internal_Hbond>
0.0000

> <Gold.Chemscore.DEClash>
0.1702

> <Gold.Chemscore.DEInternal>
0.4671

> <Gold.Chemscore.Rot>
2.0991

> <Gold.Chemscore.Internal.Correction>
   9.000000E+99

> <Gold.Chemscore.Hbonds>
donor molecule, donor type, donor heavy atom, donor atom, acceptor molecule, acceptor atom, score
      P1  H  6896  6909       L1    19  0.07
      P1  H 10752 10763       L1    22  0.44
      P1  H 10752 10764       L1    20  0.33

> <Gold.Chemscore.Hbond.Weighted>
-3.9893

> <Gold.Chemscore.Metal.Weighted>
-0.0000

> <Gold.Chemscore.Lipo.Weighted>
-11.3446

> <Gold.Chemscore.Internal_Hbond.Weighted>
0.0000

> <Gold.Chemscore.DEClash.Weighted>
0.1702

> <Gold.Chemscore.DEInternal.Weighted>
0.4671

> <Gold.Chemscore.Rot.Weighted>
5.3737

> <Gold.Chemscore.Internal.Correction.Weighted>
   9.000000E+99

> <Gold.Protein.RotatedTorsions>
[ 6907 6896 6895 6894 ] final  164.82 input  -60.11 | X-H torsion
[ 7974 7965 7964 7962 ] final    2.74 input  175.53 | X-H torsion
[ 8008 7997 7996 7995 ] final -143.20 input   59.86 | X-H torsion
[ 10167 10162 10161 10158 ] final   35.17 input  -65.29 | X-H torsion
[ 10718 10713 10712 10709 ] final  -25.81 input   66.30 | X-H torsion
[ 10763 10752 10751 10750 ] final    6.21 input  -60.55 | X-H torsion
[ 11005 11000 10999 10996 ] final -170.87 input  -57.11 | X-H torsion

> <Gold.Protein.ActiveResidues>
 VAL166  LYS551  ARG553  GLY616  TRP617  ASP618  TYR619  PRO620  LYS621  CYS622 
 ASP623  PHE694  ASN695  SER759  ASP760  ASP761  ALA762  ILE779  LEU786  VAL792 
 PHE793  MET794  SER795  GLU796  ALA797  LYS798  CYS799  TRP800  GLU811  SER814 

> <Gold.Protein.RotatedAtoms>
  151.9040  133.3545  159.3840 H   0  0  0  0  0  0  0  0  0  0  0  0  # atno 6907 bound_to 6896
  150.7073  134.4800  159.5475 H   0  0  0  0  0  0  0  0  0  0  0  0  # atno 6908 bound_to 6896
  152.2393  134.8244  160.0513 H   0  0  0  0  0  0  0  0  0  0  0  0  # atno 6909 bound_to 6896
  146.2444  140.0790  142.8358 H   0  0  0  0  0  0  0  0  0  0  0  0  # atno 7974 bound_to 7965
  155.5066  140.0580  157.2930 H   0  0  0  0  0  0  0  0  0  0  0  0  # atno 8008 bound_to 7997
  154.4567  140.1976  156.0309 H   0  0  0  0  0  0  0  0  0  0  0  0  # atno 8009 bound_to 7997
  156.0812  140.3246  155.7701 H   0  0  0  0  0  0  0  0  0  0  0  0  # atno 8010 bound_to 7997
  140.4247  144.1410  150.6152 H   0  0  0  0  0  0  0  0  0  0  0  0  # atno 10167 bound_to 10162
  156.4594  130.4501  149.6938 H   0  0  0  0  0  0  0  0  0  0  0  0  # atno 10718 bound_to 10713
  153.2504  135.6913  153.7685 H   0  0  0  0  0  0  0  0  0  0  0  0  # atno 10763 bound_to 10752
  153.6782  135.3333  155.3172 H   0  0  0  0  0  0  0  0  0  0  0  0  # atno 10764 bound_to 10752
  154.8392  135.4516  154.1459 H   0  0  0  0  0  0  0  0  0  0  0  0  # atno 10765 bound_to 10752
  140.5146  134.5768  157.5029 H   0  0  0  0  0  0  0  0  0  0  0  0  # atno 11005 bound_to 11000
  145.0749  140.9181  143.4860 LP  0  0  0  0  0  0  0  0  0  0  0  0  # atno 17320 bound_to 7965
  145.0932  139.2875  143.5724 LP  0  0  0  0  0  0  0  0  0  0  0  0  # atno 17321 bound_to 7965
  140.4494  143.2493  151.9367 LP  0  0  0  0  0  0  0  0  0  0  0  0  # atno 17342 bound_to 10162
  139.4783  144.5576  151.8289 LP  0  0  0  0  0  0  0  0  0  0  0  0  # atno 17343 bound_to 10162
  156.3732  130.7541  151.2526 LP  0  0  0  0  0  0  0  0  0  0  0  0  # atno 17370 bound_to 10713
  157.7498  131.0317  150.4193 LP  0  0  0  0  0  0  0  0  0  0  0  0  # atno 17371 bound_to 10713
  139.9639  134.7405  156.0178 LP  0  0  0  0  0  0  0  0  0  0  0  0  # atno 17394 bound_to 11000
  141.1367  133.6573  156.3613 LP  0  0  0  0  0  0  0  0  0  0  0  0  # atno 17395 bound_to 11000

$$$$
