#       Name:                AV-unprocessed.smi:1032
#       Creating user name   scv26
#       Creation time:       Fri Mar 27 02:47:03 2020


#       File generated by GOLD software.
#

@<TRIPOS>MOLECULE
AV-unprocessed.smi:1032
    51    52     1
SMALL
NO_CHARGES


@<TRIPOS>ATOM
      1 ****        -4.9493   2.7081   1.2654 C.3            1 S1                 0.0000
      2 ****        -4.0131   3.1483   0.1264 C.3            1 S1                 0.0000
      3 ****        -4.3282   2.4479  -1.2078 C.3            1 S1                 0.0000
      4 ****        -3.8675   0.9791  -1.2201 C.3            1 S1                 0.0000
      5 ****        -2.4223   0.8630  -0.8961 N.4            1 S1                 1.0000
      6 ****        -1.9246  -0.5303  -1.0335 C.3            1 S1                 0.0000
      7 ****        -0.4137  -0.5922  -1.3377 C.3            1 S1                 0.0000
      8 ****        -0.2126  -0.0572  -2.6317 O.3            1 S1                 0.0000
      9 ****         0.1084  -2.0441  -1.3308 C.3            1 S1                 0.0000
     10 ****         1.5609  -2.1040  -1.1953 N.am           1 S1                 0.0000
     11 ****         2.2326  -1.9317  -0.0476 C.2            1 S1                 0.0000
     12 ****         1.6833  -1.6842   1.0260 O.2            1 S1                 0.0000
     13 ****         3.5594  -2.0400  -0.2347 N.am           1 S1                 0.0000
     14 ****         4.5982  -1.9435   0.7309 C.ar           1 S1                 0.0000
     15 ****         5.8943  -1.6229   0.2693 C.ar           1 S1                 0.0000
     16 ****         6.9583  -1.5325   1.1899 C.ar           1 S1                 0.0000
     17 ****         6.7344  -1.7630   2.5014 N.pl3          1 S1                 1.0000
     18 ****         5.5172  -2.0875   2.9878 C.ar           1 S1                 0.0000
     19 ****         4.4147  -2.1918   2.1153 C.ar           1 S1                 0.0000
     20 ****        -2.1079   1.4710   0.4244 C.3            1 S1                 0.0000
     21 ****        -2.5250   2.9519   0.4681 C.3            1 S1                 0.0000
     22 ****        -4.8570   1.6457   1.4887 H              1 S1                 0.0000
     23 ****        -5.9915   2.9007   1.0094 H              1 S1                 0.0000
     24 ****        -4.7325   3.2573   2.1822 H              1 S1                 0.0000
     25 ****        -4.1809   4.2170  -0.0141 H              1 S1                 0.0000
     26 ****        -5.3959   2.5069  -1.4221 H              1 S1                 0.0000
     27 ****        -3.8283   2.9811  -2.0176 H              1 S1                 0.0000
     28 ****        -4.4505   0.3874  -0.5132 H              1 S1                 0.0000
     29 ****        -4.0551   0.5601  -2.2096 H              1 S1                 0.0000
     30 ****        -2.1556  -1.0789  -0.1189 H              1 S1                 0.0000
     31 ****        -2.4606  -1.0431  -1.8341 H              1 S1                 0.0000
     32 ****         0.1404   0.0059  -0.6153 H              1 S1                 0.0000
     33 ****        -0.6373  -0.6191  -3.2623 H              1 S1                 0.0000
     34 ****        -0.3335  -2.5964  -0.4994 H              1 S1                 0.0000
     35 ****        -0.1941  -2.5741  -2.2350 H              1 S1                 0.0000
     36 ****         2.0878  -2.2948  -2.0353 H              1 S1                 0.0000
     37 ****         3.8645  -2.1536  -1.1903 H              1 S1                 0.0000
     38 ****         6.0754  -1.4408  -0.7803 H              1 S1                 0.0000
     39 ****         7.9747  -1.2871   0.9178 H              1 S1                 0.0000
     40 ****         5.4623  -2.2593   4.0529 H              1 S1                 0.0000
     41 ****         3.4556  -2.4721   2.5230 H              1 S1                 0.0000
     42 ****        -2.6085   0.9109   1.2152 H              1 S1                 0.0000
     43 ****        -1.0401   1.4038   0.6288 H              1 S1                 0.0000
     44 ****        -1.9181   3.5104  -0.2461 H              1 S1                 0.0000
     45 ****        -2.3030   3.3754   1.4483 H              1 S1                 0.0000
     46 ****        -1.9341   1.4057  -1.5947 H              1 S1                 0.0000
     47 ****         7.5183  -1.6941   3.1511 H              1 S1                 0.0000
     48 ****         0.7668  -0.0113  -2.8281 LP             1 S1                 0.0000
     49 ****        -0.6058   0.8609  -2.6808 LP             1 S1                 0.0000
     50 ****         0.6877  -1.6025   1.0711 LP             1 S1                 0.0000
     51 ****         2.2328  -1.5648   1.8530 LP             1 S1                 0.0000
@<TRIPOS>BOND
    1    1    2 1     
    2    1   22 1     
    3    1   23 1     
    4    1   24 1     
    5    2   21 1     
    6    2    3 1     
    7    2   25 1     
    8    3    4 1     
    9    3   26 1     
   10    3   27 1     
   11    4    5 1     
   12    4   28 1     
   13    4   29 1     
   14    5    6 1     
   15    5   20 1     
   16    5   46 1     
   17    6    7 1     
   18    6   30 1     
   19    6   31 1     
   20    7    8 1     
   21    7    9 1     
   22    7   32 1     
   23    8   33 1     
   24    9   10 1     
   25    9   34 1     
   26    9   35 1     
   27   10   11 am    
   28   10   36 1     
   29   11   12 2     
   30   11   13 am    
   31   13   14 1     
   32   13   37 1     
   33   14   19 ar    
   34   14   15 ar    
   35   15   16 ar    
   36   15   38 1     
   37   16   17 ar    
   38   16   39 1     
   39   17   18 ar    
   40   17   47 1     
   41   18   19 ar    
   42   18   40 1     
   43   19   41 1     
   44   20   21 1     
   45   20   42 1     
   46   20   43 1     
   47   21   44 1     
   48   21   45 1     
   49    8   48 1     
   50    8   49 1     
   51   12   50 1     
   52   12   51 1     
@<TRIPOS>SUBSTRUCTURE
      1 S1             1
@<TRIPOS>SET
LONE_PAIRS      STATIC     ATOMS    <user>   **** ""
4 48 49 50 51
DONOR_HYDROGENS      STATIC     ATOMS    <user>   **** ""
5 46 33 36 37 47
ATOM$BLUE        STATIC     ATOMS    COLORGROUP SYSTEM
4 48 49 50 51
ATOM$RED        STATIC     ATOMS    COLORGROUP SYSTEM
5 46 33 36 37 47
