AV-unprocessed.smi:1033|AV-procd|sdf|4497|dock6
  -GOLD-   22720 2493D 1   1.00000     0.00000
 Structure written by MMmdl.
 56 58  0  0  0  0  0  0  0  0  2 V2000
  152.6888  143.2198  161.5389 C   0  0  0  0  0  0  0  0  0  0  0  0
  152.2485  142.6964  160.1830 C   0  0  0  0  0  0  0  0  0  0  0  0
  152.7455  141.4526  159.7317 C   0  0  0  0  0  0  0  0  0  0  0  0
  152.3592  140.9302  158.4777 C   0  0  0  0  0  0  0  0  0  0  0  0
  152.7153  139.7511  157.8450 N   0  0  0  0  0  0  0  0  0  0  0  0
  152.0276  139.8375  156.7096 C   0  0  0  0  0  0  0  0  0  0  0  0
  151.2674  140.9352  156.5320 N   0  0  0  0  0  0  0  0  0  0  0  0
  150.4341  141.2574  155.3885 C   0  0  0  0  0  0  0  0  0  0  0  0
  148.9370  141.0262  155.6761 C   0  0  1  0  0  0  0  0  0  0  0  0
  148.2489  142.2557  155.5672 O   0  0  0  0  0  0  0  0  0  0  0  0
  148.2840  140.0272  154.7004 C   0  0  0  0  0  0  0  0  0  0  0  0
  147.1268  140.5386  153.9556 N   0  0  0  0  0  0  0  0  0  0  0  0
  146.9356  139.9432  152.6299 C   0  0  0  0  0  0  0  0  0  0  0  0
  146.4590  138.4779  152.6811 C   0  0  0  0  0  0  0  0  0  0  0  0
  145.1933  138.3793  153.4560 N   0  3  0  0  0  0  0  0  0  0  0  0
  144.6206  137.0097  153.4981 C   0  0  0  0  0  0  0  0  0  0  0  0
  143.3437  136.8752  152.6447 C   0  0  1  0  0  0  0  0  0  0  0  0
  142.5963  135.5652  152.9248 C   0  0  0  0  0  0  0  0  0  0  0  0
  142.4720  137.9487  152.9374 O   0  0  0  0  0  0  0  0  0  0  0  0
  145.3629  138.9687  154.8091 C   0  0  0  0  0  0  0  0  0  0  0  0
  145.8749  140.4204  154.7025 C   0  0  0  0  0  0  0  0  0  0  0  0
  151.4540  141.6920  157.6828 C   0  0  0  0  0  0  0  0  0  0  0  0
  150.9524  142.9303  158.1204 C   0  0  0  0  0  0  0  0  0  0  0  0
  151.3500  143.4385  159.3747 C   0  0  0  0  0  0  0  0  0  0  0  0
  150.8034  144.7772  159.8381 C   0  0  0  0  0  0  0  0  0  0  0  0
  153.3586  142.5191  162.0382 H   0  0  0  0  0  0  0  0  0  0  0  0
  151.8262  143.3761  162.1871 H   0  0  0  0  0  0  0  0  0  0  0  0
  153.2170  144.1672  161.4297 H   0  0  0  0  0  0  0  0  0  0  0  0
  153.4299  140.8871  160.3467 H   0  0  0  0  0  0  0  0  0  0  0  0
  152.0808  139.0591  155.9622 H   0  0  0  0  0  0  0  0  0  0  0  0
  150.6174  142.2922  155.0953 H   0  0  0  0  0  0  0  0  0  0  0  0
  150.7624  140.6361  154.5545 H   0  0  0  0  0  0  0  0  0  0  0  0
  148.8059  140.6864  156.7030 H   0  0  0  0  0  0  0  0  0  0  0  0
  148.8693  142.9599  155.6786 H   0  0  0  0  0  0  0  0  0  0  0  0
  149.0427  139.6638  154.0074 H   0  0  0  0  0  0  0  0  0  0  0  0
  147.9720  139.1544  155.2757 H   0  0  0  0  0  0  0  0  0  0  0  0
  146.1926  140.5294  152.0873 H   0  0  0  0  0  0  0  0  0  0  0  0
  147.8455  140.0204  152.0366 H   0  0  0  0  0  0  0  0  0  0  0  0
  146.3069  138.1239  151.6623 H   0  0  0  0  0  0  0  0  0  0  0  0
  147.2214  137.8354  153.1232 H   0  0  0  0  0  0  0  0  0  0  0  0
  145.3773  136.2939  153.1728 H   0  0  0  0  0  0  0  0  0  0  0  0
  144.3768  136.7466  154.5289 H   0  0  0  0  0  0  0  0  0  0  0  0
  143.5854  136.9098  151.5829 H   0  0  0  0  0  0  0  0  0  0  0  0
  143.2213  134.7015  152.6963 H   0  0  0  0  0  0  0  0  0  0  0  0
  141.6954  135.4886  152.3148 H   0  0  0  0  0  0  0  0  0  0  0  0
  142.2968  135.4914  153.9710 H   0  0  0  0  0  0  0  0  0  0  0  0
  142.7727  138.7188  152.4788 H   0  0  0  0  0  0  0  0  0  0  0  0
  144.4054  138.9656  155.3311 H   0  0  0  0  0  0  0  0  0  0  0  0
  146.0441  138.3549  155.4001 H   0  0  0  0  0  0  0  0  0  0  0  0
  145.9953  140.8461  155.6994 H   0  0  0  0  0  0  0  0  0  0  0  0
  145.1119  141.0270  154.2126 H   0  0  0  0  0  0  0  0  0  0  0  0
  150.2667  143.4828  157.4953 H   0  0  0  0  0  0  0  0  0  0  0  0
  150.1553  145.2255  159.0847 H   0  0  0  0  0  0  0  0  0  0  0  0
  151.6171  145.4753  160.0358 H   0  0  0  0  0  0  0  0  0  0  0  0
  150.2208  144.6555  160.7516 H   0  0  0  0  0  0  0  0  0  0  0  0
  144.5125  138.9565  152.9824 H   0  0  0  0  0  0  0  0  0  0  0  0
  1  2  1  0  0  0  0
  1 26  1  0  0  0  0
  1 27  1  0  0  0  0
  1 28  1  0  0  0  0
  2 24  1  0  0  0  0
  2  3  2  0  0  0  0
  3  4  1  0  0  0  0
  3 29  1  0  0  0  0
  4 22  2  0  0  0  0
  4  5  1  0  0  0  0
  5  6  2  0  0  0  0
  6  7  1  0  0  0  0
  6 30  1  0  0  0  0
  7  8  1  0  0  0  0
  7 22  1  0  0  0  0
  8  9  1  0  0  0  0
  8 31  1  0  0  0  0
  8 32  1  0  0  0  0
  9 10  1  0  0  0  0
  9 11  1  0  0  0  0
  9 33  1  0  0  0  0
 10 34  1  0  0  0  0
 11 12  1  0  0  0  0
 11 35  1  0  0  0  0
 11 36  1  0  0  0  0
 12 21  1  0  0  0  0
 12 13  1  0  0  0  0
 13 14  1  0  0  0  0
 13 37  1  0  0  0  0
 13 38  1  0  0  0  0
 14 15  1  0  0  0  0
 14 39  1  0  0  0  0
 14 40  1  0  0  0  0
 15 16  1  0  0  0  0
 15 20  1  0  0  0  0
 15 56  1  0  0  0  0
 16 17  1  0  0  0  0
 16 41  1  0  0  0  0
 16 42  1  0  0  0  0
 17 18  1  0  0  0  0
 17 19  1  0  0  0  0
 17 43  1  0  0  0  0
 18 44  1  0  0  0  0
 18 45  1  0  0  0  0
 18 46  1  0  0  0  0
 19 47  1  0  0  0  0
 20 21  1  0  0  0  0
 20 48  1  0  0  0  0
 20 49  1  0  0  0  0
 21 50  1  0  0  0  0
 21 51  1  0  0  0  0
 22 23  1  0  0  0  0
 23 24  2  0  0  0  0
 23 52  1  0  0  0  0
 24 25  1  0  0  0  0
 25 53  1  0  0  0  0
 25 54  1  0  0  0  0
 25 55  1  0  0  0  0
M  CHG  1  15   1
M  END
> <s_m_source_file>
AV-unprocessed.smi

> <i_m_source_file_index>
1033

> <i_lp_mmshare_version>
43012

> <i_f3d_flags>
0

> <s_epik_input>
W0NIM11jKFtjSF0xKWMoW0NIM10pW2NIXWMoYzEyKW4oW2NIXW4yKVtDSDJdW0NASF0oW09IXSlbQ0gyXU4zW0NIMl1bQ0gyXU4oW0NIMl1bQ0gyXTMpW0NIMl1bQ0BIXShbQ0gzXSlbT0hd

> <s_epik_cmdline>
J2VwaWtfcHl0aG9uJywgJy1waCcsICc3LjAnLCAnLXRuJywgJzgnLCAnLW1hJywgJzIwMCcsICctbWV0YWxfYmluZGluZycsICctaW1hZScsICc8aW5maWxlLm1hZT4nLCAnLW9tYWUnLCAnPG91dGZpbGUubWFlPic=

> <r_epik_Ionization_Penalty>
0.129152

> <r_epik_Ionization_Penalty_Charging>
0.00083231

> <r_epik_Ionization_Penalty_Neutral>
0.128319

> <r_epik_State_Penalty>
0.556973

> <r_epik_Charging_Adjusted_Penalty>
0.557805

> <i_epik_Tot_Q>
1

> <i_epik_Tot_abs_Q>
1

> <r_epik_Metal_State_Penalty>
0.490047

> <b_epik_Metal_Only>
0

> <s_lp_Force_Field>
OPLS_2005

> <r_lp_Energy>
33.0878

> <b_lp_Chiralities_Consistent>
1

> <s_lp_Variant>
AV-unprocessed.smi:1033-8

> <Gold.Version>
5.8.1

> <Gold.Id.Protein>
6NUR|6NUR_protein|mol2

> <Gold.PLP.Fitness>
52.8440

> <Gold.PLP.PLP>
-44.1178

> <Gold.PLP.part.hbond>
-3.9459

> <Gold.PLP.part.metal>
0.0000

> <Gold.PLP.part.buried>
-2.5772

> <Gold.PLP.part.nonpolar>
-37.3762

> <Gold.PLP.part.repulsive>
0.1389

> <Gold.PLP.ligand.clash>
0.0000

> <Gold.PLP.ligand.torsion>
2.8192

> <Gold.PLP.Chemscore.Hbond>
4.7040

> <Gold.PLP.Chemscore.CHOScore>
0.0000

> <Gold.PLP.Chemscore.Metal>
0.0000

> <Gold.Chemscore.Hbonds>
donor molecule, donor type, donor heavy atom, donor atom, acceptor molecule, acceptor atom, score
      L1  H    10    34       P1  8028  0.75
      L1  H    15    56       P1 10175  2.00
      L1  H    19    47       P1 10175  1.00
      P1  H  7997  8008       L1     5  0.78

> <Gold.PLP.Chemscore.Internal.Correction>
0.2527

> <Gold.Rescore>
     Score         DG    S(hbond)    S(metal)    S(lipo)     H(rot)  DE(clash)    DE(int)     intcor
     18.97     -22.65       3.12        0.00     124.73       3.07       0.91       2.77       ----

> <Gold.Chemscore.Fitness>
18.9731

> <Gold.Chemscore.DG>
-22.6486

> <Gold.Chemscore.ZeroCoef>
-5.4800

> <Gold.Chemscore.Hbond>
3.1203

> <Gold.Chemscore.Metal>
0.0000

> <Gold.Chemscore.Lipo>
124.7293

> <Gold.Chemscore.Internal_Hbond>
0.0000

> <Gold.Chemscore.DEClash>
0.9098

> <Gold.Chemscore.DEInternal>
2.7657

> <Gold.Chemscore.Rot>
3.0650

> <Gold.Chemscore.Internal.Correction>
   9.000000E+99

> <Gold.Chemscore.Hbonds>
donor molecule, donor type, donor heavy atom, donor atom, acceptor molecule, acceptor atom, score
      L1  H    10    34       P1  8028  0.76
      L1  H    15    56       P1 10175  0.99
      L1  H    19    47       P1 10175  0.96
      P1  H  7997  8008       L1     5  0.10

> <Gold.Chemscore.Hbond.Weighted>
-10.4218

> <Gold.Chemscore.Metal.Weighted>
-0.0000

> <Gold.Chemscore.Lipo.Weighted>
-14.5933

> <Gold.Chemscore.Internal_Hbond.Weighted>
0.0000

> <Gold.Chemscore.DEClash.Weighted>
0.9098

> <Gold.Chemscore.DEInternal.Weighted>
2.7657

> <Gold.Chemscore.Rot.Weighted>
7.8465

> <Gold.Chemscore.Internal.Correction.Weighted>
   9.000000E+99

> <Gold.Protein.RotatedTorsions>
[ 6907 6896 6895 6894 ] final   45.05 input  -60.11 | X-H torsion
[ 7974 7965 7964 7962 ] final  -10.71 input  175.53 | X-H torsion
[ 8008 7997 7996 7995 ] final  -91.23 input   59.86 | X-H torsion
[ 10167 10162 10161 10158 ] final   99.78 input  -65.29 | X-H torsion
[ 10718 10713 10712 10709 ] final  -32.02 input   66.30 | X-H torsion
[ 10763 10752 10751 10750 ] final -173.88 input  -60.55 | X-H torsion
[ 11005 11000 10999 10996 ] final  -59.91 input  -57.11 | X-H torsion

> <Gold.Protein.ActiveResidues>
 VAL166  LYS551  ARG553  GLY616  TRP617  ASP618  TYR619  PRO620  LYS621  CYS622 
 ASP623  PHE694  ASN695  SER759  ASP760  ASP761  ALA762  ILE779  LEU786  VAL792 
 PHE793  MET794  SER795  GLU796  ALA797  LYS798  CYS799  TRP800  GLU811  SER814 

> <Gold.Protein.RotatedAtoms>
  152.2399  134.8239  160.0461 H   0  0  0  0  0  0  0  0  0  0  0  0  # atno 6907 bound_to 6896
  151.8957  133.3521  159.3822 H   0  0  0  0  0  0  0  0  0  0  0  0  # atno 6908 bound_to 6896
  150.7050  134.4804  159.5512 H   0  0  0  0  0  0  0  0  0  0  0  0  # atno 6909 bound_to 6896
  146.2211  140.2805  142.8362 H   0  0  0  0  0  0  0  0  0  0  0  0  # atno 7974 bound_to 7965
  154.7082  140.0521  157.0525 H   0  0  0  0  0  0  0  0  0  0  0  0  # atno 8008 bound_to 7997
  155.0590  140.3187  155.4648 H   0  0  0  0  0  0  0  0  0  0  0  0  # atno 8009 bound_to 7997
  156.2781  140.2102  156.5717 H   0  0  0  0  0  0  0  0  0  0  0  0  # atno 8010 bound_to 7997
  139.7586  144.6961  151.0326 H   0  0  0  0  0  0  0  0  0  0  0  0  # atno 10167 bound_to 10162
  156.3801  130.4354  149.7476 H   0  0  0  0  0  0  0  0  0  0  0  0  # atno 10718 bound_to 10713
  154.6027  135.2856  155.0518 H   0  0  0  0  0  0  0  0  0  0  0  0  # atno 10763 bound_to 10752
  154.1777  135.6462  153.5030 H   0  0  0  0  0  0  0  0  0  0  0  0  # atno 10764 bound_to 10752
  153.0163  135.5416  154.6752 H   0  0  0  0  0  0  0  0  0  0  0  0  # atno 10765 bound_to 10752
  141.1266  133.6619  156.5142 H   0  0  0  0  0  0  0  0  0  0  0  0  # atno 11005 bound_to 11000
  144.9201  140.7858  143.5754 LP  0  0  0  0  0  0  0  0  0  0  0  0  # atno 17320 bound_to 7965
  145.2741  139.1943  143.4826 LP  0  0  0  0  0  0  0  0  0  0  0  0  # atno 17321 bound_to 7965
  140.7805  143.4724  151.0128 LP  0  0  0  0  0  0  0  0  0  0  0  0  # atno 17342 bound_to 10162
  139.8410  143.7563  152.3180 LP  0  0  0  0  0  0  0  0  0  0  0  0  # atno 17343 bound_to 10162
  156.4570  130.7934  151.2954 LP  0  0  0  0  0  0  0  0  0  0  0  0  # atno 17370 bound_to 10713
  157.7491  131.0077  150.3202 LP  0  0  0  0  0  0  0  0  0  0  0  0  # atno 17371 bound_to 10713
  140.4344  134.7072  157.4959 LP  0  0  0  0  0  0  0  0  0  0  0  0  # atno 17394 bound_to 11000
  140.0272  134.6460  155.9157 LP  0  0  0  0  0  0  0  0  0  0  0  0  # atno 17395 bound_to 11000

$$$$
