AV-unprocessed.smi:1652|AV-procd|sdf|6639|dock9
  -GOLD-   22720 7343D 1   1.00000     0.00000
 Structure written by MMmdl.
 38 40  0  0  0  0  0  0  0  0  1 V2000
  152.8714  139.6261  157.6679 O   0  0  0  0  0  0  0  0  0  0  0  0
  152.5908  140.6657  158.2653 C   0  0  0  0  0  0  0  0  0  0  0  0
  151.4081  141.4839  157.9557 C   0  0  0  0  0  0  0  0  0  0  0  0
  150.4855  141.0129  156.8344 C   0  0  0  0  0  0  0  0  0  0  0  0
  149.8572  139.8809  157.1549 F   0  0  0  0  0  0  0  0  0  0  0  0
  149.5569  141.9330  156.5712 F   0  0  0  0  0  0  0  0  0  0  0  0
  151.1812  140.7915  155.7185 F   0  0  0  0  0  0  0  0  0  0  0  0
  151.1656  142.6201  158.6537 C   0  0  0  0  0  0  0  0  0  0  0  0
  152.0675  143.0374  159.7082 C   0  0  0  0  0  0  0  0  0  0  0  0
  151.8653  144.2887  160.5141 C   0  0  0  0  0  0  0  0  0  0  0  0
  150.6209  145.1377  160.3865 C   0  0  0  0  0  0  0  0  0  0  0  0
  151.9474  145.6596  159.8839 C   0  0  0  0  0  0  0  0  0  0  0  0
  153.1009  142.3151  159.9826 N   0  0  0  0  0  0  0  0  0  0  0  0
  153.3633  141.1548  159.2797 N   0  0  0  0  0  0  0  0  0  0  0  0
  154.5904  140.4684  159.7037 C   0  0  0  0  0  0  0  0  0  0  0  0
  154.5751  140.1300  161.2104 C   0  0  2  0  0  0  0  0  0  0  0  0
  155.6886  140.7400  161.8329 O   0  0  0  0  0  0  0  0  0  0  0  0
  154.5773  138.6241  161.4289 C   0  0  0  0  0  0  0  0  0  0  0  0
  155.2705  138.0735  162.5286 C   0  0  0  0  0  0  0  0  0  0  0  0
  155.2698  136.6816  162.7442 C   0  0  0  0  0  0  0  0  0  0  0  0
  154.5742  135.8318  161.8628 C   0  0  0  0  0  0  0  0  0  0  0  0
  154.5734  134.4939  162.0709 F   0  0  0  0  0  0  0  0  0  0  0  0
  153.8778  136.3749  160.7662 C   0  0  0  0  0  0  0  0  0  0  0  0
  153.8773  137.7668  160.5507 C   0  0  0  0  0  0  0  0  0  0  0  0
  150.3026  143.2328  158.4411 H   0  0  0  0  0  0  0  0  0  0  0  0
  152.2836  144.1757  161.5127 H   0  0  0  0  0  0  0  0  0  0  0  0
  149.8807  144.8619  159.6376 H   0  0  0  0  0  0  0  0  0  0  0  0
  150.2199  145.5779  161.2971 H   0  0  0  0  0  0  0  0  0  0  0  0
  152.4277  146.4486  160.4590 H   0  0  0  0  0  0  0  0  0  0  0  0
  152.0853  145.7188  158.8057 H   0  0  0  0  0  0  0  0  0  0  0  0
  154.6499  139.5384  159.1347 H   0  0  0  0  0  0  0  0  0  0  0  0
  155.4952  141.0159  159.4331 H   0  0  0  0  0  0  0  0  0  0  0  0
  153.6756  140.5396  161.6725 H   0  0  0  0  0  0  0  0  0  0  0  0
  155.3779  141.2732  162.5484 H   0  0  0  0  0  0  0  0  0  0  0  0
  155.8038  138.7166  163.2133 H   0  0  0  0  0  0  0  0  0  0  0  0
  155.8019  136.2661  163.5872 H   0  0  0  0  0  0  0  0  0  0  0  0
  153.3421  135.7240  160.0908 H   0  0  0  0  0  0  0  0  0  0  0  0
  153.3354  138.1750  159.7100 H   0  0  0  0  0  0  0  0  0  0  0  0
  1  2  2  0  0  0  0
  2 14  1  0  0  0  0
  2  3  1  0  0  0  0
  3  4  1  0  0  0  0
  3  8  2  0  0  0  0
  4  5  1  0  0  0  0
  4  6  1  0  0  0  0
  4  7  1  0  0  0  0
  8  9  1  0  0  0  0
  8 25  1  0  0  0  0
  9 10  1  0  0  0  0
  9 13  2  0  0  0  0
 10 12  1  0  0  0  0
 10 11  1  0  0  0  0
 10 26  1  0  0  0  0
 11 12  1  0  0  0  0
 11 27  1  0  0  0  0
 11 28  1  0  0  0  0
 12 29  1  0  0  0  0
 12 30  1  0  0  0  0
 13 14  1  0  0  0  0
 14 15  1  0  0  0  0
 15 16  1  0  0  0  0
 15 31  1  0  0  0  0
 15 32  1  0  0  0  0
 16 17  1  0  0  0  0
 16 18  1  0  0  0  0
 16 33  1  0  0  0  0
 17 34  1  0  0  0  0
 18 24  1  0  0  0  0
 18 19  2  0  0  0  0
 19 20  1  0  0  0  0
 19 35  1  0  0  0  0
 20 21  2  0  0  0  0
 20 36  1  0  0  0  0
 21 22  1  0  0  0  0
 21 23  1  0  0  0  0
 23 24  2  0  0  0  0
 23 37  1  0  0  0  0
 24 38  1  0  0  0  0
M  END
> <s_m_source_file>
AV-unprocessed.smi

> <i_m_source_file_index>
1652

> <i_lp_mmshare_version>
43012

> <i_f3d_flags>
0

> <s_epik_input>
Tz1jMWMoQyhGKShGKUYpW2NIXWMoW0NIXTJbQ0gyXVtDSDJdMilubjFbQ0gyXVtDQEhdKFtPSF0pYzNbY0hdW2NIXWMoRilbY0hdW2NIXTM=

> <s_epik_cmdline>
J2VwaWtfcHl0aG9uJywgJy1waCcsICc3LjAnLCAnLXRuJywgJzgnLCAnLW1hJywgJzIwMCcsICctbWV0YWxfYmluZGluZycsICctaW1hZScsICc8aW5maWxlLm1hZT4nLCAnLW9tYWUnLCAnPG91dGZpbGUubWFlPic=

> <r_lp_tautomer_probability>
1

> <r_epik_Ionization_Penalty>
9.17026e-08

> <r_epik_Ionization_Penalty_Charging>
9.677e-10

> <r_epik_Ionization_Penalty_Neutral>
9.07349e-08

> <r_epik_State_Penalty>
-0

> <r_epik_Charging_Adjusted_Penalty>
9.677e-10

> <i_epik_Tot_Q>
0

> <i_epik_Tot_abs_Q>
0

> <r_epik_Metal_State_Penalty>
-0

> <b_epik_Metal_Only>
0

> <s_lp_Force_Field>
OPLS_2005

> <r_lp_Energy>
34.1346

> <b_lp_Chiralities_Consistent>
1

> <s_lp_Variant>
AV-unprocessed.smi:1652-1

> <Gold.Version>
5.8.1

> <Gold.Id.Protein>
6NUR|6NUR_protein|mol2

> <Gold.PLP.Fitness>
50.6322

> <Gold.PLP.PLP>
-51.3862

> <Gold.PLP.part.hbond>
-1.2763

> <Gold.PLP.part.metal>
0.0000

> <Gold.PLP.part.buried>
-6.0906

> <Gold.PLP.part.nonpolar>
-44.0142

> <Gold.PLP.part.repulsive>
0.0000

> <Gold.PLP.ligand.clash>
1.0963

> <Gold.PLP.ligand.torsion>
1.6494

> <Gold.PLP.Chemscore.Hbond>
1.0000

> <Gold.PLP.Chemscore.CHOScore>
0.0000

> <Gold.PLP.Chemscore.Metal>
0.0000

> <Gold.Chemscore.Hbonds>
donor molecule, donor type, donor heavy atom, donor atom, acceptor molecule, acceptor atom, score
      P1  H  7997  8008       L1     1  1.00

> <Gold.PLP.Chemscore.Internal.Correction>
0.6412

> <Gold.Rescore>
     Score         DG    S(hbond)    S(metal)    S(lipo)     H(rot)  DE(clash)    DE(int)     intcor
     12.75     -15.54       0.78        0.00     111.74       2.20       0.17       2.62       ----

> <Gold.Chemscore.Fitness>
12.7468

> <Gold.Chemscore.DG>
-15.5411

> <Gold.Chemscore.ZeroCoef>
-5.4800

> <Gold.Chemscore.Hbond>
0.7844

> <Gold.Chemscore.Metal>
0.0000

> <Gold.Chemscore.Lipo>
111.7442

> <Gold.Chemscore.Internal_Hbond>
0.0000

> <Gold.Chemscore.DEClash>
0.1712

> <Gold.Chemscore.DEInternal>
2.6232

> <Gold.Chemscore.Rot>
2.2003

> <Gold.Chemscore.Internal.Correction>
   9.000000E+99

> <Gold.Chemscore.Hbonds>
donor molecule, donor type, donor heavy atom, donor atom, acceptor molecule, acceptor atom, score
      P1  H  7997  8008       L1     1  0.40

> <Gold.Chemscore.Hbond.Weighted>
-2.6199

> <Gold.Chemscore.Metal.Weighted>
-0.0000

> <Gold.Chemscore.Lipo.Weighted>
-13.0741

> <Gold.Chemscore.Internal_Hbond.Weighted>
0.0000

> <Gold.Chemscore.DEClash.Weighted>
0.1712

> <Gold.Chemscore.DEInternal.Weighted>
2.6232

> <Gold.Chemscore.Rot.Weighted>
5.6328

> <Gold.Chemscore.Internal.Correction.Weighted>
   9.000000E+99

> <Gold.Protein.RotatedTorsions>
[ 6907 6896 6895 6894 ] final -125.06 input  -60.11 | X-H torsion
[ 7974 7965 7964 7962 ] final   55.74 input  175.53 | X-H torsion
[ 8008 7997 7996 7995 ] final  -66.48 input   59.86 | X-H torsion
[ 10167 10162 10161 10158 ] final  -31.27 input  -65.29 | X-H torsion
[ 10718 10713 10712 10709 ] final  143.70 input   66.30 | X-H torsion
[ 10763 10752 10751 10750 ] final   85.95 input  -60.55 | X-H torsion
[ 11005 11000 10999 10996 ] final  -19.48 input  -57.11 | X-H torsion

> <Gold.Protein.ActiveResidues>
 VAL166  LYS551  ARG553  GLY616  TRP617  ASP618  TYR619  PRO620  LYS621  CYS622 
 ASP623  PHE694  ASN695  SER759  ASP760  ASP761  ALA762  ILE779  LEU786  VAL792 
 PHE793  MET794  SER795  GLU796  ALA797  LYS798  CYS799  TRP800  GLU811  SER814 

> <Gold.Protein.RotatedAtoms>
  150.8829  133.7347  159.2926 H   0  0  0  0  0  0  0  0  0  0  0  0  # atno 6907 bound_to 6896
  151.4922  135.1056  159.9816 H   0  0  0  0  0  0  0  0  0  0  0  0  # atno 6908 bound_to 6896
  152.4771  133.8119  159.7063 H   0  0  0  0  0  0  0  0  0  0  0  0  # atno 6909 bound_to 6896
  145.9472  139.3940  143.0328 H   0  0  0  0  0  0  0  0  0  0  0  0  # atno 7974 bound_to 7965
  154.4737  140.0912  156.7210 H   0  0  0  0  0  0  0  0  0  0  0  0  # atno 8008 bound_to 7997
  155.4653  140.3462  155.4300 H   0  0  0  0  0  0  0  0  0  0  0  0  # atno 8009 bound_to 7997
  156.1082  140.1440  156.9363 H   0  0  0  0  0  0  0  0  0  0  0  0  # atno 8010 bound_to 7997
  140.7238  143.3784  151.1647 H   0  0  0  0  0  0  0  0  0  0  0  0  # atno 10167 bound_to 10162
  157.3659  131.0972  151.0873 H   0  0  0  0  0  0  0  0  0  0  0  0  # atno 10718 bound_to 10713
  153.1524  135.4598  154.9655 H   0  0  0  0  0  0  0  0  0  0  0  0  # atno 10763 bound_to 10752
  154.7835  135.3196  154.7941 H   0  0  0  0  0  0  0  0  0  0  0  0  # atno 10764 bound_to 10752
  153.8444  135.6927  153.4853 H   0  0  0  0  0  0  0  0  0  0  0  0  # atno 10765 bound_to 10752
  140.8371  133.7953  155.9821 H   0  0  0  0  0  0  0  0  0  0  0  0  # atno 11005 bound_to 11000
  145.8220  140.9674  143.0894 LP  0  0  0  0  0  0  0  0  0  0  0  0  # atno 17320 bound_to 7965
  144.6789  140.0053  143.7484 LP  0  0  0  0  0  0  0  0  0  0  0  0  # atno 17321 bound_to 7965
  139.7368  143.8986  152.3037 LP  0  0  0  0  0  0  0  0  0  0  0  0  # atno 17342 bound_to 10162
  139.8794  144.7026  150.8895 LP  0  0  0  0  0  0  0  0  0  0  0  0  # atno 17343 bound_to 10162
  157.1996  130.6388  149.5733 LP  0  0  0  0  0  0  0  0  0  0  0  0  # atno 17370 bound_to 10713
  155.9746  130.4695  150.6398 LP  0  0  0  0  0  0  0  0  0  0  0  0  # atno 17371 bound_to 10713
  140.8935  134.2466  157.5081 LP  0  0  0  0  0  0  0  0  0  0  0  0  # atno 17394 bound_to 11000
  139.8704  134.9673  156.4591 LP  0  0  0  0  0  0  0  0  0  0  0  0  # atno 17395 bound_to 11000

$$$$
