#       Name:                AV-unprocessed.smi:2967
#       Creating user name   scv26
#       Creation time:       Fri Mar 27 16:23:33 2020


#       File generated by GOLD software.
#

@<TRIPOS>MOLECULE
AV-unprocessed.smi:2967
    44    45     1
SMALL
NO_CHARGES


@<TRIPOS>ATOM
      1 ****         0.7018   1.7300   2.3059 O.2            1 S1                 0.0000
      2 ****         1.1740   1.3448   1.2366 C.2            1 S1                 0.0000
      3 ****         2.6367   1.6837   0.8996 C.3            1 S1                 0.0000
      4 ****         3.1147   1.1561  -0.3921 N.am           1 S1                 0.0000
      5 ****         3.7989  -0.0721  -0.3785 C.2            1 S1                 0.0000
      6 ****         4.2645  -0.6391  -1.5077 C.2            1 S1                 0.0000
      7 ****         4.0429   0.0545  -2.7703 C.2            1 S1                 0.0000
      8 ****         4.4604  -0.4484  -3.8115 O.2            1 S1                 0.0000
      9 ****         3.3726   1.2431  -2.7320 N.pl3          1 S1                -1.0000
     10 ****         2.9033   1.8071  -1.5761 C.2            1 S1                 0.0000
     11 ****         2.2908   2.8750  -1.5655 O.2            1 S1                 0.0000
     12 ****         0.4684   0.6280   0.3449 N.am           1 S1                 0.0000
     13 ****        -0.9292   0.2268   0.4764 C.3            1 S1                 0.0000
     14 ****        -1.0405  -1.0850   1.2836 C.3            1 S1                 0.0000
     15 ****        -2.3689  -1.2044   2.0518 C.3            1 S1                 0.0000
     16 ****        -3.6067  -1.4742   1.1841 C.3            1 S1                 0.0000
     17 ****        -3.8610  -0.4324   0.0817 C.3            1 S1                 0.0000
     18 ****        -2.8837  -0.5686  -1.0963 C.3            1 S1                 0.0000
     19 ****        -1.5361   0.1597  -0.9411 C.3            1 S1                 0.0000
     20 ****         2.7562   2.7679   0.9314 H              1 S1                 0.0000
     21 ****         3.2643   1.3088   1.7093 H              1 S1                 0.0000
     22 ****         3.9156  -0.5228   0.5963 H              1 S1                 0.0000
     23 ****         4.7863  -1.5844  -1.4800 H              1 S1                 0.0000
     24 ****         0.9379   0.3584  -0.5078 H              1 S1                 0.0000
     25 ****        -1.4508   1.0152   1.0224 H              1 S1                 0.0000
     26 ****        -0.8803  -1.9519   0.6414 H              1 S1                 0.0000
     27 ****        -0.2427  -1.1184   2.0268 H              1 S1                 0.0000
     28 ****        -2.2786  -2.0168   2.7737 H              1 S1                 0.0000
     29 ****        -2.5284  -0.3033   2.6456 H              1 S1                 0.0000
     30 ****        -3.5369  -2.4694   0.7430 H              1 S1                 0.0000
     31 ****        -4.4782  -1.5051   1.8390 H              1 S1                 0.0000
     32 ****        -4.8694  -0.5968  -0.2995 H              1 S1                 0.0000
     33 ****        -3.8571   0.5812   0.4843 H              1 S1                 0.0000
     34 ****        -2.7022  -1.6262  -1.2912 H              1 S1                 0.0000
     35 ****        -3.3642  -0.1924  -2.0002 H              1 S1                 0.0000
     36 ****        -1.6490   1.1825  -1.3035 H              1 S1                 0.0000
     37 ****        -0.8269  -0.3108  -1.6241 H              1 S1                 0.0000
     38 ****         1.2672   2.2555   2.9417 LP             1 S1                 0.0000
     39 ****        -0.2471   1.5175   2.5389 LP             1 S1                 0.0000
     40 ****         4.9452  -1.3227  -3.7852 LP             1 S1                 0.0000
     41 ****         4.3153   0.0168  -4.6847 LP             1 S1                 0.0000
     42 ****         3.2163   1.7270  -3.5930 LP             1 S1                 0.0000
     43 ****         1.9577   3.2517  -0.7012 LP             1 S1                 0.0000
     44 ****         2.1265   3.3657  -2.4212 LP             1 S1                 0.0000
@<TRIPOS>BOND
    1    1    2 2     
    2    2    3 1     
    3    2   12 am    
    4    3    4 1     
    5    3   20 1     
    6    3   21 1     
    7    4   10 am    
    8    4    5 1     
    9    5    6 2     
   10    5   22 1     
   11    6    7 1     
   12    6   23 1     
   13    7    8 2     
   14    7    9 1     
   15    9   10 1     
   16   10   11 2     
   17   12   13 1     
   18   12   24 1     
   19   13   19 1     
   20   13   14 1     
   21   13   25 1     
   22   14   15 1     
   23   14   26 1     
   24   14   27 1     
   25   15   16 1     
   26   15   28 1     
   27   15   29 1     
   28   16   17 1     
   29   16   30 1     
   30   16   31 1     
   31   17   18 1     
   32   17   32 1     
   33   17   33 1     
   34   18   19 1     
   35   18   34 1     
   36   18   35 1     
   37   19   36 1     
   38   19   37 1     
   39    1   38 1     
   40    1   39 1     
   41    8   40 1     
   42    8   41 1     
   43    9   42 1     
   44   11   43 1     
   45   11   44 1     
@<TRIPOS>SUBSTRUCTURE
      1 S1             1
@<TRIPOS>SET
LONE_PAIRS      STATIC     ATOMS    <user>   **** ""
7 38 39 40 41 42 43 44
DONOR_HYDROGENS      STATIC     ATOMS    <user>   **** ""
1 24
ATOM$BLUE        STATIC     ATOMS    COLORGROUP SYSTEM
7 38 39 40 41 42 43 44
ATOM$RED        STATIC     ATOMS    COLORGROUP SYSTEM
1 24
