AV-unprocessed.smi:1308|AV-procd|sdf|5443|dock10
  -GOLD-   22720 5 13D 1   1.00000     0.00000
 Structure written by MMmdl.
 44 44  0  0  0  0  0  0  0  0  2 V2000
  147.8345  134.1432  158.2696 C   0  0  0  0  0  0  0  0  0  0  0  0
  148.6548  135.0897  157.4197 C   0  0  0  0  0  0  0  0  0  0  0  0
  148.0573  135.9070  156.6397 N   0  0  0  0  0  0  0  0  0  0  0  0
  148.8144  136.7921  155.8541 C   0  0  0  0  0  0  0  0  0  0  0  0
  148.0182  137.7475  154.9825 C   0  0  0  0  0  0  0  0  0  0  0  0
  150.1779  136.7910  155.9039 C   0  0  0  0  0  0  0  0  0  0  0  0
  151.0454  137.7578  155.0955 C   0  0  0  0  0  0  0  0  0  0  0  0
  151.7846  138.8031  155.9309 C   0  0  0  0  0  0  0  0  0  0  0  0
  152.9937  138.6883  156.1287 O   0  0  0  0  0  0  0  0  0  0  0  0
  151.0458  139.8362  156.3715 N   0  0  0  0  0  0  0  0  0  0  0  0
  151.5283  141.0857  156.9620 C   0  0  1  0  0  0  0  0  0  0  0  0
  150.4464  142.1802  156.9623 C   0  0  0  0  0  0  0  0  0  0  0  0
  152.1505  140.8620  158.3595 C   0  0  0  0  0  0  0  0  0  0  0  0
  152.4427  142.1686  159.1280 C   0  0  0  0  0  0  0  0  0  0  0  0
  152.7430  141.9644  160.6259 C   0  0  0  0  0  0  0  0  0  0  0  0
  152.6069  143.2650  161.4350 C   0  0  0  0  0  0  0  0  0  0  0  0
  154.1383  141.3511  160.8204 C   0  0  0  0  0  0  0  0  0  0  0  0
  150.8275  135.8315  156.8150 C   0  0  0  0  0  0  0  0  0  0  0  0
  152.0537  135.7984  156.9105 O   0  0  0  0  0  0  0  0  0  0  0  0
  150.0234  135.0069  157.5439 N   0  5  0  0  0  0  0  0  0  0  0  0
  146.7691  134.3620  158.1861 H   0  0  0  0  0  0  0  0  0  0  0  0
  148.1189  134.2322  159.3186 H   0  0  0  0  0  0  0  0  0  0  0  0
  147.9996  133.1133  157.9520 H   0  0  0  0  0  0  0  0  0  0  0  0
  148.2981  137.6391  153.9346 H   0  0  0  0  0  0  0  0  0  0  0  0
  148.1950  138.7793  155.2868 H   0  0  0  0  0  0  0  0  0  0  0  0
  146.9475  137.5565  155.0638 H   0  0  0  0  0  0  0  0  0  0  0  0
  151.7727  137.2230  154.4844 H   0  0  0  0  0  0  0  0  0  0  0  0
  150.4083  138.2746  154.3774 H   0  0  0  0  0  0  0  0  0  0  0  0
  150.0579  139.8048  156.1618 H   0  0  0  0  0  0  0  0  0  0  0  0
  152.3263  141.4273  156.3020 H   0  0  0  0  0  0  0  0  0  0  0  0
  150.8657  143.1389  157.2679 H   0  0  0  0  0  0  0  0  0  0  0  0
  149.6317  141.9487  157.6480 H   0  0  0  0  0  0  0  0  0  0  0  0
  150.0199  142.3112  155.9673 H   0  0  0  0  0  0  0  0  0  0  0  0
  151.4708  140.2441  158.9463 H   0  0  0  0  0  0  0  0  0  0  0  0
  153.0705  140.2847  158.2637 H   0  0  0  0  0  0  0  0  0  0  0  0
  153.3054  142.6608  158.6796 H   0  0  0  0  0  0  0  0  0  0  0  0
  151.6099  142.8621  159.0060 H   0  0  0  0  0  0  0  0  0  0  0  0
  152.0215  141.2470  161.0192 H   0  0  0  0  0  0  0  0  0  0  0  0
  153.2790  144.0373  161.0597 H   0  0  0  0  0  0  0  0  0  0  0  0
  152.8464  143.0990  162.4856 H   0  0  0  0  0  0  0  0  0  0  0  0
  151.5912  143.6581  161.3965 H   0  0  0  0  0  0  0  0  0  0  0  0
  154.9189  142.0124  160.4435 H   0  0  0  0  0  0  0  0  0  0  0  0
  154.2274  140.3993  160.2953 H   0  0  0  0  0  0  0  0  0  0  0  0
  154.3416  141.1615  161.8746 H   0  0  0  0  0  0  0  0  0  0  0  0
  1  2  1  0  0  0  0
  1 21  1  0  0  0  0
  1 22  1  0  0  0  0
  1 23  1  0  0  0  0
  2 20  1  0  0  0  0
  2  3  2  0  0  0  0
  3  4  1  0  0  0  0
  4  5  1  0  0  0  0
  4  6  2  0  0  0  0
  5 24  1  0  0  0  0
  5 25  1  0  0  0  0
  5 26  1  0  0  0  0
  6  7  1  0  0  0  0
  6 18  1  0  0  0  0
  7  8  1  0  0  0  0
  7 27  1  0  0  0  0
  7 28  1  0  0  0  0
  8  9  2  0  0  0  0
  8 10  1  0  0  0  0
 10 11  1  0  0  0  0
 10 29  1  0  0  0  0
 11 12  1  0  0  0  0
 11 13  1  0  0  0  0
 11 30  1  0  0  0  0
 12 31  1  0  0  0  0
 12 32  1  0  0  0  0
 12 33  1  0  0  0  0
 13 14  1  0  0  0  0
 13 34  1  0  0  0  0
 13 35  1  0  0  0  0
 14 15  1  0  0  0  0
 14 36  1  0  0  0  0
 14 37  1  0  0  0  0
 15 16  1  0  0  0  0
 15 17  1  0  0  0  0
 15 38  1  0  0  0  0
 16 39  1  0  0  0  0
 16 40  1  0  0  0  0
 16 41  1  0  0  0  0
 17 42  1  0  0  0  0
 17 43  1  0  0  0  0
 17 44  1  0  0  0  0
 18 19  2  0  0  0  0
 18 20  1  0  0  0  0
M  CHG  1  20  -1
M  END
> <s_m_source_file>
AV-unprocessed.smi

> <i_m_source_file_index>
1308

> <i_lp_mmshare_version>
43012

> <i_f3d_flags>
0

> <s_epik_input>
W0NIM11jMW5jKFtDSDNdKWMoYyg9TylbbkhdMSlbQ0gyXUMoPU8pW05IXVtDQEhdKFtDSDNdKVtDSDJdW0NIMl1bQ0hdKFtDSDNdKVtDSDNd

> <s_epik_cmdline>
J2VwaWtfcHl0aG9uJywgJy1waCcsICc3LjAnLCAnLXRuJywgJzgnLCAnLW1hJywgJzIwMCcsICctbWV0YWxfYmluZGluZycsICctaW1hZScsICc8aW5maWxlLm1hZT4nLCAnLW9tYWUnLCAnPG91dGZpbGUubWFlPic=

> <r_lp_tautomer_probability>
0.839158

> <r_epik_Ionization_Penalty>
6.61719

> <r_epik_Ionization_Penalty_Charging>
7.20681e-08

> <r_epik_Ionization_Penalty_Neutral>
6.61719

> <r_epik_State_Penalty>
4.43758

> <r_epik_Charging_Adjusted_Penalty>
4.43758

> <i_epik_Tot_Q>
-1

> <i_epik_Tot_abs_Q>
1

> <r_epik_Metal_State_Penalty>
0.801586

> <b_epik_Metal_Only>
1

> <s_lp_Force_Field>
OPLS_2005

> <r_lp_Energy>
8.11692

> <b_lp_Chiralities_Consistent>
1

> <s_lp_Variant>
AV-unprocessed.smi:1308-6

> <Gold.Version>
5.8.1

> <Gold.Id.Protein>
6NUR|6NUR_protein|mol2

> <Gold.PLP.Fitness>
40.4221

> <Gold.PLP.PLP>
-31.7716

> <Gold.PLP.part.hbond>
-3.0000

> <Gold.PLP.part.metal>
0.0000

> <Gold.PLP.part.buried>
-5.2221

> <Gold.PLP.part.nonpolar>
-24.8520

> <Gold.PLP.part.repulsive>
0.0859

> <Gold.PLP.ligand.clash>
0.0000

> <Gold.PLP.ligand.torsion>
0.6802

> <Gold.PLP.Chemscore.Hbond>
3.3120

> <Gold.PLP.Chemscore.CHOScore>
0.0000

> <Gold.PLP.Chemscore.Metal>
0.0000

> <Gold.Chemscore.Hbonds>
donor molecule, donor type, donor heavy atom, donor atom, acceptor molecule, acceptor atom, score
      P1  H  6896  6907       L1    20  1.38
      P1  H  7997  8008       L1     9  1.00
      P1  H 10752 10763       L1    19  0.71

> <Gold.PLP.Chemscore.Internal.Correction>
0.0749

> <Gold.Rescore>
     Score         DG    S(hbond)    S(metal)    S(lipo)     H(rot)  DE(clash)    DE(int)     intcor
     16.70     -17.34       2.32        0.00      76.83       1.91       0.00       0.64       ----

> <Gold.Chemscore.Fitness>
16.7027

> <Gold.Chemscore.DG>
-17.3387

> <Gold.Chemscore.ZeroCoef>
-5.4800

> <Gold.Chemscore.Hbond>
2.3244

> <Gold.Chemscore.Metal>
0.0000

> <Gold.Chemscore.Lipo>
76.8340

> <Gold.Chemscore.Internal_Hbond>
0.0000

> <Gold.Chemscore.DEClash>
0.0000

> <Gold.Chemscore.DEInternal>
0.6361

> <Gold.Chemscore.Rot>
1.9118

> <Gold.Chemscore.Internal.Correction>
   9.000000E+99

> <Gold.Chemscore.Hbonds>
donor molecule, donor type, donor heavy atom, donor atom, acceptor molecule, acceptor atom, score
      P1  H  6896  6907       L1    20  0.58
      P1  H  7997  8008       L1     9  0.92
      P1  H 10752 10763       L1    19  0.69

> <Gold.Chemscore.Hbond.Weighted>
-7.7635

> <Gold.Chemscore.Metal.Weighted>
-0.0000

> <Gold.Chemscore.Lipo.Weighted>
-8.9896

> <Gold.Chemscore.Internal_Hbond.Weighted>
0.0000

> <Gold.Chemscore.DEClash.Weighted>
0.0000

> <Gold.Chemscore.DEInternal.Weighted>
0.6361

> <Gold.Chemscore.Rot.Weighted>
4.8943

> <Gold.Chemscore.Internal.Correction.Weighted>
   9.000000E+99

> <Gold.Protein.RotatedTorsions>
[ 6907 6896 6895 6894 ] final  -89.66 input  -60.11 | X-H torsion
[ 7974 7965 7964 7962 ] final    7.78 input  175.53 | X-H torsion
[ 8008 7997 7996 7995 ] final  -55.99 input   59.86 | X-H torsion
[ 10167 10162 10161 10158 ] final  -72.96 input  -65.29 | X-H torsion
[ 10718 10713 10712 10709 ] final   97.95 input   66.30 | X-H torsion
[ 10763 10752 10751 10750 ] final   97.44 input  -60.55 | X-H torsion
[ 11005 11000 10999 10996 ] final  -97.28 input  -57.11 | X-H torsion

> <Gold.Protein.ActiveResidues>
 VAL166  LYS551  ARG553  GLY616  TRP617  ASP618  TYR619  PRO620  LYS621  CYS622 
 ASP623  PHE694  ASN695  SER759  ASP760  ASP761  ALA762  ILE779  LEU786  VAL792 
 PHE793  MET794  SER795  GLU796  ALA797  LYS798  CYS799  TRP800  GLU811  SER814 

> <Gold.Protein.RotatedAtoms>
  150.6875  134.2552  159.4526 H   0  0  0  0  0  0  0  0  0  0  0  0  # atno 6907 bound_to 6896
  152.0486  134.9665  160.0584 H   0  0  0  0  0  0  0  0  0  0  0  0  # atno 6908 bound_to 6896
  152.1138  133.4280  159.4680 H   0  0  0  0  0  0  0  0  0  0  0  0  # atno 6909 bound_to 6896
  146.2423  140.0032  142.8414 H   0  0  0  0  0  0  0  0  0  0  0  0  # atno 7974 bound_to 7965
  154.4214  140.1140  156.5565 H   0  0  0  0  0  0  0  0  0  0  0  0  # atno 8008 bound_to 7997
  155.6356  140.3496  155.4678 H   0  0  0  0  0  0  0  0  0  0  0  0  # atno 8009 bound_to 7997
  155.9913  140.1180  157.0625 H   0  0  0  0  0  0  0  0  0  0  0  0  # atno 8010 bound_to 7997
  140.5149  143.2339  151.7530 H   0  0  0  0  0  0  0  0  0  0  0  0  # atno 10167 bound_to 10162
  157.6904  131.0625  150.4722 H   0  0  0  0  0  0  0  0  0  0  0  0  # atno 10718 bound_to 10713
  153.2769  135.4183  155.1042 H   0  0  0  0  0  0  0  0  0  0  0  0  # atno 10763 bound_to 10752
  154.8476  135.3486  154.6166 H   0  0  0  0  0  0  0  0  0  0  0  0  # atno 10764 bound_to 10752
  153.6586  135.7049  153.5242 H   0  0  0  0  0  0  0  0  0  0  0  0  # atno 10765 bound_to 10752
  141.1384  133.8159  157.0685 H   0  0  0  0  0  0  0  0  0  0  0  0  # atno 11005 bound_to 11000
  145.1396  140.9564  143.4496 LP  0  0  0  0  0  0  0  0  0  0  0  0  # atno 17320 bound_to 7965
  145.0309  139.3342  143.6025 LP  0  0  0  0  0  0  0  0  0  0  0  0  # atno 17321 bound_to 7965
  139.4906  144.4338  151.9843 LP  0  0  0  0  0  0  0  0  0  0  0  0  # atno 17342 bound_to 10162
  140.3432  144.3179  150.5963 LP  0  0  0  0  0  0  0  0  0  0  0  0  # atno 17343 bound_to 10162
  156.5059  130.4128  149.6327 LP  0  0  0  0  0  0  0  0  0  0  0  0  # atno 17370 bound_to 10713
  156.3285  130.7319  151.2244 LP  0  0  0  0  0  0  0  0  0  0  0  0  # atno 17371 bound_to 10713
  140.0526  134.9797  157.1164 LP  0  0  0  0  0  0  0  0  0  0  0  0  # atno 17394 bound_to 11000
  140.3966  134.2127  155.7164 LP  0  0  0  0  0  0  0  0  0  0  0  0  # atno 17395 bound_to 11000

$$$$
