AV-unprocessed.smi:2310|AV-procd|sdf|9257|dock4
  -GOLD-   2272012483D 1   1.00000     0.00000
 Structure written by MMmdl.
 46 47  0  0  0  0  0  0  0  0  2 V2000
  142.7712  134.8202  152.8189 C   0  0  0  0  0  0  0  0  0  0  0  0
  143.7041  135.9629  153.2462 C   0  0  0  0  0  0  0  0  0  0  0  0
  144.2668  136.7831  152.0677 C   0  0  2  0  0  0  0  0  0  0  0  0
  145.3358  136.0076  151.2754 C   0  0  0  0  0  0  0  0  0  0  0  0
  144.8097  134.8248  150.5758 C   0  0  0  0  0  0  0  0  0  0  0  0
  144.3959  133.8949  150.0258 N   0  0  0  0  0  0  0  0  0  0  0  0
  144.8215  138.0454  152.5526 N   0  0  0  0  0  0  0  0  0  0  0  0
  145.8960  138.1625  153.3455 C   0  0  0  0  0  0  0  0  0  0  0  0
  146.5263  137.1992  153.7808 O   0  0  0  0  0  0  0  0  0  0  0  0
  146.1715  139.4521  153.6066 N   0  0  0  0  0  0  0  0  0  0  0  0
  147.2177  139.9897  154.4086 C   0  0  0  0  0  0  0  0  0  0  0  0
  148.1764  139.1743  155.0624 C   0  0  0  0  0  0  0  0  0  0  0  0
  149.1996  139.7696  155.8264 C   0  0  0  0  0  0  0  0  0  0  0  0
  149.2642  141.1776  155.9212 C   0  0  0  0  0  0  0  0  0  0  0  0
  150.2415  141.8685  156.6513 N   0  0  0  0  0  0  0  0  0  0  0  0
  149.7297  142.6520  157.7633 C   0  0  0  0  0  0  0  0  0  0  0  0
  150.9432  142.9570  158.6461 C   0  0  0  0  0  0  0  0  0  0  0  0
  151.9870  141.9015  158.2618 C   0  0  0  0  0  0  0  0  0  0  0  0
  151.2994  141.0378  157.2019 C   0  0  0  0  0  0  0  0  0  0  0  0
  148.3425  141.9207  155.2728 N   0  3  0  0  0  0  0  0  0  0  0  0
  147.3422  141.3979  154.5287 C   0  0  0  0  0  0  0  0  0  0  0  0
  146.4038  142.3957  153.8697 C   0  0  0  0  0  0  0  0  0  0  0  0
  142.4442  134.2456  153.6857 H   0  0  0  0  0  0  0  0  0  0  0  0
  143.2761  134.1344  152.1380 H   0  0  0  0  0  0  0  0  0  0  0  0
  141.8778  135.1936  152.3180 H   0  0  0  0  0  0  0  0  0  0  0  0
  143.1743  136.6231  153.9339 H   0  0  0  0  0  0  0  0  0  0  0  0
  144.5284  135.5337  153.8162 H   0  0  0  0  0  0  0  0  0  0  0  0
  143.4377  137.0059  151.3931 H   0  0  0  0  0  0  0  0  0  0  0  0
  145.7968  136.6472  150.5225 H   0  0  0  0  0  0  0  0  0  0  0  0
  146.1322  135.6706  151.9394 H   0  0  0  0  0  0  0  0  0  0  0  0
  144.3604  138.8896  152.2456 H   0  0  0  0  0  0  0  0  0  0  0  0
  145.5113  140.1266  153.2484 H   0  0  0  0  0  0  0  0  0  0  0  0
  148.1575  138.0986  154.9814 H   0  0  0  0  0  0  0  0  0  0  0  0
  149.9258  139.1461  156.3269 H   0  0  0  0  0  0  0  0  0  0  0  0
  149.2509  143.5661  157.4112 H   0  0  0  0  0  0  0  0  0  0  0  0
  148.9907  142.0806  158.3265 H   0  0  0  0  0  0  0  0  0  0  0  0
  151.3284  143.9551  158.4331 H   0  0  0  0  0  0  0  0  0  0  0  0
  150.6866  142.9196  159.7052 H   0  0  0  0  0  0  0  0  0  0  0  0
  152.8676  142.3880  157.8404 H   0  0  0  0  0  0  0  0  0  0  0  0
  152.3133  141.3076  159.1160 H   0  0  0  0  0  0  0  0  0  0  0  0
  150.8848  140.1405  157.6629 H   0  0  0  0  0  0  0  0  0  0  0  0
  151.9977  140.7248  156.4252 H   0  0  0  0  0  0  0  0  0  0  0  0
  145.6131  141.9224  153.2888 H   0  0  0  0  0  0  0  0  0  0  0  0
  146.9639  143.0474  153.1987 H   0  0  0  0  0  0  0  0  0  0  0  0
  145.9296  143.0187  154.6286 H   0  0  0  0  0  0  0  0  0  0  0  0
  148.4054  142.9363  155.3480 H   0  0  0  0  0  0  0  0  0  0  0  0
  1  2  1  0  0  0  0
  1 23  1  0  0  0  0
  1 24  1  0  0  0  0
  1 25  1  0  0  0  0
  2  3  1  0  0  0  0
  2 26  1  0  0  0  0
  2 27  1  0  0  0  0
  3  4  1  0  0  0  0
  3  7  1  0  0  0  0
  3 28  1  0  0  0  0
  4  5  1  0  0  0  0
  4 29  1  0  0  0  0
  4 30  1  0  0  0  0
  5  6  3  0  0  0  0
  7  8  1  0  0  0  0
  7 31  1  0  0  0  0
  8  9  2  0  0  0  0
  8 10  1  0  0  0  0
 10 11  1  0  0  0  0
 10 32  1  0  0  0  0
 11 21  1  0  0  0  0
 11 12  2  0  0  0  0
 12 13  1  0  0  0  0
 12 33  1  0  0  0  0
 13 14  2  0  0  0  0
 13 34  1  0  0  0  0
 14 15  1  0  0  0  0
 14 20  1  0  0  0  0
 15 19  1  0  0  0  0
 15 16  1  0  0  0  0
 16 17  1  0  0  0  0
 16 35  1  0  0  0  0
 16 36  1  0  0  0  0
 17 18  1  0  0  0  0
 17 37  1  0  0  0  0
 17 38  1  0  0  0  0
 18 19  1  0  0  0  0
 18 39  1  0  0  0  0
 18 40  1  0  0  0  0
 19 41  1  0  0  0  0
 19 42  1  0  0  0  0
 20 21  2  0  0  0  0
 20 46  1  0  0  0  0
 21 22  1  0  0  0  0
 22 43  1  0  0  0  0
 22 44  1  0  0  0  0
 22 45  1  0  0  0  0
M  CHG  1  20   1
M  END
> <s_m_source_file>
AV-unprocessed.smi

> <i_m_source_file_index>
2310

> <i_lp_mmshare_version>
43012

> <i_f3d_flags>
0

> <s_epik_input>
TiNDW0NIMl1bQ0BASF0oW0NIMl1bQ0gzXSlbTkhdQyg9TylbTkhdYzFbY0hdW2NIXWMobmMxW0NIM10pTjJbQ0gyXVtDSDJdW0NIMl1bQ0gyXTI=

> <s_epik_cmdline>
J2VwaWtfcHl0aG9uJywgJy1waCcsICc3LjAnLCAnLXRuJywgJzgnLCAnLW1hJywgJzIwMCcsICctbWV0YWxfYmluZGluZycsICctaW1hZScsICc8aW5maWxlLm1hZT4nLCAnLW9tYWUnLCAnPG91dGZpbGUubWFlPic=

> <r_lp_tautomer_probability>
0.999994

> <r_epik_Ionization_Penalty>
0.577302

> <r_epik_Ionization_Penalty_Charging>
0.577278

> <r_epik_Ionization_Penalty_Neutral>
2.39253e-05

> <r_epik_State_Penalty>
0.589738

> <r_epik_Charging_Adjusted_Penalty>
1.16702

> <i_epik_Tot_Q>
1

> <i_epik_Tot_abs_Q>
1

> <r_epik_Metal_State_Penalty>
0.784556

> <b_epik_Metal_Only>
0

> <s_lp_Force_Field>
OPLS_2005

> <r_lp_Energy>
39.7138

> <b_lp_Chiralities_Consistent>
1

> <s_lp_Variant>
AV-unprocessed.smi:2310-3

> <Gold.Version>
5.8.1

> <Gold.Id.Protein>
6NUR|6NUR_protein|mol2

> <Gold.PLP.Fitness>
42.8260

> <Gold.PLP.PLP>
-31.2461

> <Gold.PLP.part.hbond>
-4.0000

> <Gold.PLP.part.metal>
0.0000

> <Gold.PLP.part.buried>
-4.7066

> <Gold.PLP.part.nonpolar>
-23.8444

> <Gold.PLP.part.repulsive>
0.5300

> <Gold.PLP.ligand.clash>
0.0000

> <Gold.PLP.ligand.torsion>
0.2040

> <Gold.PLP.Chemscore.Hbond>
3.9760

> <Gold.PLP.Chemscore.CHOScore>
0.0000

> <Gold.PLP.Chemscore.Metal>
0.0000

> <Gold.Chemscore.Hbonds>
donor molecule, donor type, donor heavy atom, donor atom, acceptor molecule, acceptor atom, score
      L1  H     7    31       P1 10175  1.00
      L1  H    10    32       P1 10175  0.96
      L1  H    20    46       P1  8028  2.00

> <Gold.PLP.Chemscore.Internal.Correction>
0.0600

> <Gold.Rescore>
     Score         DG    S(hbond)    S(metal)    S(lipo)     H(rot)  DE(clash)    DE(int)     intcor
     16.40     -18.91       2.91        0.00      68.47       1.68       0.12       2.40       ----

> <Gold.Chemscore.Fitness>
16.3968

> <Gold.Chemscore.DG>
-18.9102

> <Gold.Chemscore.ZeroCoef>
-5.4800

> <Gold.Chemscore.Hbond>
2.9114

> <Gold.Chemscore.Metal>
0.0000

> <Gold.Chemscore.Lipo>
68.4673

> <Gold.Chemscore.Internal_Hbond>
0.0000

> <Gold.Chemscore.DEClash>
0.1160

> <Gold.Chemscore.DEInternal>
2.3974

> <Gold.Chemscore.Rot>
1.6815

> <Gold.Chemscore.Internal.Correction>
   9.000000E+99

> <Gold.Chemscore.Hbonds>
donor molecule, donor type, donor heavy atom, donor atom, acceptor molecule, acceptor atom, score
      L1  H     7    31       P1 10175  0.98
      L1  H    10    32       P1 10175  0.87
      L1  H    20    46       P1  8028  1.00

> <Gold.Chemscore.Hbond.Weighted>
-9.7240

> <Gold.Chemscore.Metal.Weighted>
-0.0000

> <Gold.Chemscore.Lipo.Weighted>
-8.0107

> <Gold.Chemscore.Internal_Hbond.Weighted>
0.0000

> <Gold.Chemscore.DEClash.Weighted>
0.1160

> <Gold.Chemscore.DEInternal.Weighted>
2.3974

> <Gold.Chemscore.Rot.Weighted>
4.3045

> <Gold.Chemscore.Internal.Correction.Weighted>
   9.000000E+99

> <Gold.Protein.RotatedTorsions>
[ 6907 6896 6895 6894 ] final   20.14 input  -60.11 | X-H torsion
[ 7974 7965 7964 7962 ] final    2.03 input  175.53 | X-H torsion
[ 8008 7997 7996 7995 ] final -100.02 input   59.86 | X-H torsion
[ 10167 10162 10161 10158 ] final  -64.15 input  -65.29 | X-H torsion
[ 10718 10713 10712 10709 ] final   92.67 input   66.30 | X-H torsion
[ 10763 10752 10751 10750 ] final -141.28 input  -60.55 | X-H torsion
[ 11005 11000 10999 10996 ] final   76.93 input  -57.11 | X-H torsion

> <Gold.Protein.ActiveResidues>
 VAL166  LYS551  ARG553  GLY616  TRP617  ASP618  TYR619  PRO620  LYS621  CYS622 
 ASP623  PHE694  ASN695  SER759  ASP760  ASP761  ALA762  ILE779  LEU786  VAL792 
 PHE793  MET794  SER795  GLU796  ALA797  LYS798  CYS799  TRP800  GLU811  SER814 

> <Gold.Protein.RotatedAtoms>
  151.8918  135.0413  160.0498 H   0  0  0  0  0  0  0  0  0  0  0  0  # atno 6907 bound_to 6896
  152.2430  133.5146  159.5289 H   0  0  0  0  0  0  0  0  0  0  0  0  # atno 6908 bound_to 6896
  150.7059  134.0980  159.3998 H   0  0  0  0  0  0  0  0  0  0  0  0  # atno 6909 bound_to 6896
  146.2442  140.0898  142.8352 H   0  0  0  0  0  0  0  0  0  0  0  0  # atno 7974 bound_to 7965
  154.8229  140.0444  157.1423 H   0  0  0  0  0  0  0  0  0  0  0  0  # atno 8008 bound_to 7997
  154.9239  140.3030  155.5182 H   0  0  0  0  0  0  0  0  0  0  0  0  # atno 8009 bound_to 7997
  156.2981  140.2335  156.4292 H   0  0  0  0  0  0  0  0  0  0  0  0  # atno 8010 bound_to 7997
  140.5821  143.2328  151.6320 H   0  0  0  0  0  0  0  0  0  0  0  0  # atno 10167 bound_to 10162
  157.6958  131.0451  150.3917 H   0  0  0  0  0  0  0  0  0  0  0  0  # atno 10718 bound_to 10713
  154.8550  135.3529  154.5842 H   0  0  0  0  0  0  0  0  0  0  0  0  # atno 10763 bound_to 10752
  153.6453  135.6996  153.5232 H   0  0  0  0  0  0  0  0  0  0  0  0  # atno 10764 bound_to 10752
  153.2938  135.4227  155.1149 H   0  0  0  0  0  0  0  0  0  0  0  0  # atno 10765 bound_to 10752
  139.9276  134.7642  156.1458 H   0  0  0  0  0  0  0  0  0  0  0  0  # atno 11005 bound_to 11000
  145.0660  140.9122  143.4910 LP  0  0  0  0  0  0  0  0  0  0  0  0  # atno 17320 bound_to 7965
  145.1023  139.2814  143.5680 LP  0  0  0  0  0  0  0  0  0  0  0  0  # atno 17321 bound_to 7965
  139.5176  144.3311  152.0826 LP  0  0  0  0  0  0  0  0  0  0  0  0  # atno 17342 bound_to 10162
  140.2462  144.4217  150.6240 LP  0  0  0  0  0  0  0  0  0  0  0  0  # atno 17343 bound_to 10162
  156.4319  130.3974  149.6754 LP  0  0  0  0  0  0  0  0  0  0  0  0  # atno 17370 bound_to 10713
  156.3968  130.7655  151.2660 LP  0  0  0  0  0  0  0  0  0  0  0  0  # atno 17371 bound_to 10713
  141.0844  133.6740  156.2405 LP  0  0  0  0  0  0  0  0  0  0  0  0  # atno 17394 bound_to 11000
  140.6291  134.5282  157.5557 LP  0  0  0  0  0  0  0  0  0  0  0  0  # atno 17395 bound_to 11000

$$$$
