AV-unprocessed.smi:2747|AV-procd|sdf|10577|dock1
  -GOLD-   2272015 33D 1   1.00000     0.00000
 Structure written by MMmdl.
 24 25  0  0  0  0  0  0  0  0  1 V2000
  156.5353  137.5557  162.0789 O   0  0  0  0  0  0  0  0  0  0  0  0
  155.2068  137.7486  162.5289 C   0  0  2  0  0  0  0  0  0  0  0  0
  154.9103  139.2582  162.6337 C   0  0  0  0  0  0  0  0  0  0  0  0
  154.5310  139.8390  161.3580 N   0  0  0  0  0  0  0  0  0  0  0  0
  154.8121  139.1650  160.2072 N   0  0  0  0  0  0  0  0  0  0  0  0
  154.3918  139.8694  159.1993 N   0  0  0  0  0  0  0  0  0  0  0  0
  153.8231  141.0307  159.6953 C   0  0  0  0  0  0  0  0  0  0  0  0
  153.2198  142.1340  159.0517 C   0  0  0  0  0  0  0  0  0  0  0  0
  152.7128  143.2130  159.8087 C   0  0  0  0  0  0  0  0  0  0  0  0
  151.9838  144.5452  158.9848 Cl  0  0  0  0  0  0  0  0  0  0  0  0
  152.8040  143.1994  161.2217 C   0  0  0  0  0  0  0  0  0  0  0  0
  152.1917  144.5123  162.1631 Cl  0  0  0  0  0  0  0  0  0  0  0  0
  153.4018  142.1045  161.8771 C   0  0  0  0  0  0  0  0  0  0  0  0
  153.8993  141.0411  161.1049 C   0  0  0  0  0  0  0  0  0  0  0  0
  155.0100  137.0063  163.8642 C   0  0  0  0  0  0  0  0  0  0  0  0
  155.5079  135.7723  163.7818 F   0  0  0  0  0  0  0  0  0  0  0  0
  155.5986  137.6599  164.8666 F   0  0  0  0  0  0  0  0  0  0  0  0
  153.7070  136.9071  164.1273 F   0  0  0  0  0  0  0  0  0  0  0  0
  156.5647  136.7686  161.5568 H   0  0  0  0  0  0  0  0  0  0  0  0
  154.5426  137.3068  161.7847 H   0  0  0  0  0  0  0  0  0  0  0  0
  154.1051  139.4387  163.3471 H   0  0  0  0  0  0  0  0  0  0  0  0
  155.7828  139.7928  163.0109 H   0  0  0  0  0  0  0  0  0  0  0  0
  153.1478  142.1509  157.9740 H   0  0  0  0  0  0  0  0  0  0  0  0
  153.4785  142.0824  162.9542 H   0  0  0  0  0  0  0  0  0  0  0  0
  1  2  1  0  0  0  0
  1 19  1  0  0  0  0
  2  3  1  0  0  0  0
  2 15  1  0  0  0  0
  2 20  1  0  0  0  0
  3  4  1  0  0  0  0
  3 21  1  0  0  0  0
  3 22  1  0  0  0  0
  4 14  1  0  0  0  0
  4  5  1  0  0  0  0
  5  6  2  0  0  0  0
  6  7  1  0  0  0  0
  7 14  2  0  0  0  0
  7  8  1  0  0  0  0
  8  9  2  0  0  0  0
  8 23  1  0  0  0  0
  9 10  1  0  0  0  0
  9 11  1  0  0  0  0
 11 12  1  0  0  0  0
 11 13  2  0  0  0  0
 13 14  1  0  0  0  0
 13 24  1  0  0  0  0
 15 16  1  0  0  0  0
 15 17  1  0  0  0  0
 15 18  1  0  0  0  0
M  END
> <s_m_source_file>
AV-unprocessed.smi

> <i_m_source_file_index>
2747

> <i_lp_mmshare_version>
43012

> <i_f3d_flags>
0

> <s_epik_input>
RkMoRikoRilbQ0BIXShbT0hdKVtDSDJdbihubjEpYyhjMTIpW2NIXWMoQ2wpYyhDbClbY0hdMg==

> <s_epik_cmdline>
J2VwaWtfcHl0aG9uJywgJy1waCcsICc3LjAnLCAnLXRuJywgJzgnLCAnLW1hJywgJzIwMCcsICctbWV0YWxfYmluZGluZycsICctaW1hZScsICc8aW5maWxlLm1hZT4nLCAnLW9tYWUnLCAnPG91dGZpbGUubWFlPic=

> <r_lp_tautomer_probability>
1

> <r_epik_Ionization_Penalty>
0.0735676

> <r_epik_Ionization_Penalty_Charging>
0

> <r_epik_Ionization_Penalty_Neutral>
0.0735676

> <r_epik_State_Penalty>
0.0647209

> <r_epik_Charging_Adjusted_Penalty>
0.0647209

> <i_epik_Tot_Q>
0

> <i_epik_Tot_abs_Q>
0

> <r_epik_Metal_State_Penalty>
0.0647209

> <b_epik_Metal_Only>
0

> <s_lp_Force_Field>
OPLS_2005

> <r_lp_Energy>
9.1287

> <b_lp_Chiralities_Consistent>
1

> <s_lp_Variant>
AV-unprocessed.smi:2747-1

> <Gold.Version>
5.8.1

> <Gold.Id.Protein>
6NUR|6NUR_protein|mol2

> <Gold.PLP.Fitness>
41.7733

> <Gold.PLP.PLP>
-40.2699

> <Gold.PLP.part.hbond>
-1.0000

> <Gold.PLP.part.metal>
0.0000

> <Gold.PLP.part.buried>
-0.7264

> <Gold.PLP.part.nonpolar>
-37.4732

> <Gold.PLP.part.repulsive>
0.0000

> <Gold.PLP.ligand.clash>
0.0000

> <Gold.PLP.ligand.torsion>
0.7526

> <Gold.PLP.Chemscore.Hbond>
1.0000

> <Gold.PLP.Chemscore.CHOScore>
0.0000

> <Gold.PLP.Chemscore.Metal>
0.0000

> <Gold.Chemscore.Hbonds>
donor molecule, donor type, donor heavy atom, donor atom, acceptor molecule, acceptor atom, score
      P1  H  7997  8010       L1     6  1.00

> <Gold.PLP.Chemscore.Internal.Correction>
0.0086

> <Gold.Rescore>
     Score         DG    S(hbond)    S(metal)    S(lipo)     H(rot)  DE(clash)    DE(int)     intcor
     14.58     -16.60       0.89        0.00     111.79       1.92       1.44       0.58       ----

> <Gold.Chemscore.Fitness>
14.5784

> <Gold.Chemscore.DG>
-16.5964

> <Gold.Chemscore.ZeroCoef>
-5.4800

> <Gold.Chemscore.Hbond>
0.8865

> <Gold.Chemscore.Metal>
0.0000

> <Gold.Chemscore.Lipo>
111.7935

> <Gold.Chemscore.Internal_Hbond>
0.0000

> <Gold.Chemscore.DEClash>
1.4400

> <Gold.Chemscore.DEInternal>
0.5780

> <Gold.Chemscore.Rot>
1.9235

> <Gold.Chemscore.Internal.Correction>
   9.000000E+99

> <Gold.Chemscore.Hbonds>
donor molecule, donor type, donor heavy atom, donor atom, acceptor molecule, acceptor atom, score
      P1  H  7997  8010       L1     6  0.83

> <Gold.Chemscore.Hbond.Weighted>
-2.9608

> <Gold.Chemscore.Metal.Weighted>
-0.0000

> <Gold.Chemscore.Lipo.Weighted>
-13.0798

> <Gold.Chemscore.Internal_Hbond.Weighted>
0.0000

> <Gold.Chemscore.DEClash.Weighted>
1.4400

> <Gold.Chemscore.DEInternal.Weighted>
0.5780

> <Gold.Chemscore.Rot.Weighted>
4.9242

> <Gold.Chemscore.Internal.Correction.Weighted>
   9.000000E+99

> <Gold.Protein.RotatedTorsions>
[ 6907 6896 6895 6894 ] final  -81.53 input  -60.11 | X-H torsion
[ 7974 7965 7964 7962 ] final -179.73 input  175.53 | X-H torsion
[ 8008 7997 7996 7995 ] final   -4.38 input   59.86 | X-H torsion
[ 10167 10162 10161 10158 ] final -144.44 input  -65.29 | X-H torsion
[ 10718 10713 10712 10709 ] final -149.38 input   66.30 | X-H torsion
[ 10763 10752 10751 10750 ] final -149.03 input  -60.55 | X-H torsion
[ 11005 11000 10999 10996 ] final -168.84 input  -57.11 | X-H torsion

> <Gold.Protein.ActiveResidues>
 VAL166  LYS551  ARG553  GLY616  TRP617  ASP618  TYR619  PRO620  LYS621  CYS622 
 ASP623  PHE694  ASN695  SER759  ASP760  ASP761  ALA762  ILE779  LEU786  VAL792 
 PHE793  MET794  SER795  GLU796  ALA797  LYS798  CYS799  TRP800  GLU811  SER814 

> <Gold.Protein.RotatedAtoms>
  150.6910  134.3803  159.5030 H   0  0  0  0  0  0  0  0  0  0  0  0  # atno 6907 bound_to 6896
  152.1606  134.8912  160.0551 H   0  0  0  0  0  0  0  0  0  0  0  0  # atno 6908 bound_to 6896
  151.9975  133.3778  159.4205 H   0  0  0  0  0  0  0  0  0  0  0  0  # atno 6909 bound_to 6896
  144.7139  140.0674  143.6430 H   0  0  0  0  0  0  0  0  0  0  0  0  # atno 7974 bound_to 7965
  154.6149  140.2485  155.7622 H   0  0  0  0  0  0  0  0  0  0  0  0  # atno 8008 bound_to 7997
  156.2393  140.2939  156.0348 H   0  0  0  0  0  0  0  0  0  0  0  0  # atno 8009 bound_to 7997
  155.1991  140.0394  157.2904 H   0  0  0  0  0  0  0  0  0  0  0  0  # atno 8010 bound_to 7997
  139.7899  143.7981  152.2649 H   0  0  0  0  0  0  0  0  0  0  0  0  # atno 10167 bound_to 10162
  156.4324  130.8082  151.2309 H   0  0  0  0  0  0  0  0  0  0  0  0  # atno 10718 bound_to 10713
  154.8200  135.3319  154.7066 H   0  0  0  0  0  0  0  0  0  0  0  0  # atno 10763 bound_to 10752
  153.7700  135.6926  153.4913 H   0  0  0  0  0  0  0  0  0  0  0  0  # atno 10764 bound_to 10752
  153.2051  135.4502  155.0262 H   0  0  0  0  0  0  0  0  0  0  0  0  # atno 10765 bound_to 10752
  140.5375  134.5555  157.5091 H   0  0  0  0  0  0  0  0  0  0  0  0  # atno 11005 bound_to 11000
  145.9813  139.2943  143.1040 LP  0  0  0  0  0  0  0  0  0  0  0  0  # atno 17320 bound_to 7965
  145.9008  140.9244  143.0504 LP  0  0  0  0  0  0  0  0  0  0  0  0  # atno 17321 bound_to 7965
  139.8069  144.7352  150.9749 LP  0  0  0  0  0  0  0  0  0  0  0  0  # atno 17342 bound_to 10162
  140.7820  143.4289  151.0725 LP  0  0  0  0  0  0  0  0  0  0  0  0  # atno 17343 bound_to 10162
  157.7508  131.0194  150.3665 LP  0  0  0  0  0  0  0  0  0  0  0  0  # atno 17370 bound_to 10713
  156.4005  130.3915  149.6963 LP  0  0  0  0  0  0  0  0  0  0  0  0  # atno 17371 bound_to 10713
  139.9521  134.7598  156.0424 LP  0  0  0  0  0  0  0  0  0  0  0  0  # atno 17394 bound_to 11000
  141.1246  133.6603  156.3304 LP  0  0  0  0  0  0  0  0  0  0  0  0  # atno 17395 bound_to 11000

$$$$
