#       Name:                AV-unprocessed.smi:1566
#       Creating user name   scv26
#       Creation time:       Fri Mar 27 06:50:31 2020


#       File generated by GOLD software.
#

@<TRIPOS>MOLECULE
AV-unprocessed.smi:1566
    48    49     1
SMALL
NO_CHARGES


@<TRIPOS>ATOM
      1 ****        -6.9139   2.0005   1.0786 C.3            1 S1                 0.0000
      2 ****        -6.5758   1.6194  -0.3686 C.3            1 S1                 0.0000
      3 ****        -5.4341   0.7142  -0.4289 N.am           1 S1                 0.0000
      4 ****        -4.1484   1.0919  -0.3932 C.2            1 S1                 0.0000
      5 ****        -3.7867   2.2659  -0.3144 O.2            1 S1                 0.0000
      6 ****        -3.3293   0.0271  -0.4319 N.am           1 S1                 0.0000
      7 ****        -1.9092   0.0042  -0.3959 C.ar           1 S1                 0.0000
      8 ****        -1.0850   1.0834  -0.7944 C.ar           1 S1                 0.0000
      9 ****         0.3133   0.9313  -0.7278 C.ar           1 S1                 0.0000
     10 ****         0.8444  -0.2930  -0.2730 C.ar           1 S1                 0.0000
     11 ****         2.2360  -0.4456  -0.2020 N.3            1 S1                 0.0000
     12 ****         2.7305  -0.6503   1.1522 C.3            1 S1                 0.0000
     13 ****         4.2697  -0.6309   1.1593 C.3            1 S1                 0.0000
     14 ****         4.8386  -0.9530   2.5449 C.3            1 S1                 0.0000
     15 ****         4.7623  -1.6068   0.2399 O.3            1 S1                 0.0000
     16 ****         4.2999  -1.4534  -1.1050 C.3            1 S1                 0.0000
     17 ****         4.9437  -0.2432  -1.8047 C.3            1 S1                 0.0000
     18 ****         2.7587  -1.4340  -1.1366 C.3            1 S1                 0.0000
     19 ****         0.0618  -1.3347   0.0958 N.ar           1 S1                 0.0000
     20 ****        -1.2774  -1.1830   0.0280 C.ar           1 S1                 0.0000
     21 ****        -7.7831   2.6576   1.1127 H              1 S1                 0.0000
     22 ****        -6.0847   2.5243   1.5552 H              1 S1                 0.0000
     23 ****        -7.1414   1.1171   1.6760 H              1 S1                 0.0000
     24 ****        -7.4304   1.1215  -0.8269 H              1 S1                 0.0000
     25 ****        -6.3831   2.5148  -0.9619 H              1 S1                 0.0000
     26 ****        -5.6389  -0.2724  -0.4913 H              1 S1                 0.0000
     27 ****        -3.7767  -0.8776  -0.4135 H              1 S1                 0.0000
     28 ****        -1.4929   2.0130  -1.1601 H              1 S1                 0.0000
     29 ****         0.9649   1.7404  -1.0243 H              1 S1                 0.0000
     30 ****         2.3417   0.1300   1.8080 H              1 S1                 0.0000
     31 ****         2.3667  -1.6048   1.5357 H              1 S1                 0.0000
     32 ****         4.6246   0.3585   0.8700 H              1 S1                 0.0000
     33 ****         4.4992  -0.2290   3.2860 H              1 S1                 0.0000
     34 ****         5.9285  -0.9304   2.5328 H              1 S1                 0.0000
     35 ****         4.5293  -1.9440   2.8786 H              1 S1                 0.0000
     36 ****         4.6311  -2.3414  -1.6438 H              1 S1                 0.0000
     37 ****         4.6700  -0.2178  -2.8597 H              1 S1                 0.0000
     38 ****         6.0310  -0.2943  -1.7469 H              1 S1                 0.0000
     39 ****         4.6295   0.7040  -1.3674 H              1 S1                 0.0000
     40 ****         2.3787  -2.4198  -0.8648 H              1 S1                 0.0000
     41 ****         2.4015  -1.2223  -2.1453 H              1 S1                 0.0000
     42 ****        -1.8641  -2.0387   0.3288 H              1 S1                 0.0000
     43 ****        -4.4676   2.9972  -0.2733 LP             1 S1                 0.0000
     44 ****        -2.8120   2.4884  -0.2915 LP             1 S1                 0.0000
     45 ****         2.6020   0.4368  -0.4978 LP             1 S1                 0.0000
     46 ****         4.4804  -2.5097   0.5644 LP             1 S1                 0.0000
     47 ****         5.7607  -1.5516   0.2335 LP             1 S1                 0.0000
     48 ****         0.4656  -2.1938   0.4101 LP             1 S1                 0.0000
@<TRIPOS>BOND
    1    1    2 1     
    2    1   21 1     
    3    1   22 1     
    4    1   23 1     
    5    2    3 1     
    6    2   24 1     
    7    2   25 1     
    8    3    4 am    
    9    3   26 1     
   10    4    5 2     
   11    4    6 am    
   12    6    7 1     
   13    6   27 1     
   14    7   20 ar    
   15    7    8 ar    
   16    8    9 ar    
   17    8   28 1     
   18    9   10 ar    
   19    9   29 1     
   20   10   11 1     
   21   10   19 ar    
   22   11   18 1     
   23   11   12 1     
   24   12   13 1     
   25   12   30 1     
   26   12   31 1     
   27   13   14 1     
   28   13   15 1     
   29   13   32 1     
   30   14   33 1     
   31   14   34 1     
   32   14   35 1     
   33   15   16 1     
   34   16   17 1     
   35   16   18 1     
   36   16   36 1     
   37   17   37 1     
   38   17   38 1     
   39   17   39 1     
   40   18   40 1     
   41   18   41 1     
   42   19   20 ar    
   43   20   42 1     
   44    5   43 1     
   45    5   44 1     
   46   11   45 1     
   47   15   46 1     
   48   15   47 1     
   49   19   48 1     
@<TRIPOS>SUBSTRUCTURE
      1 S1             1
@<TRIPOS>SET
LONE_PAIRS      STATIC     ATOMS    <user>   **** ""
6 43 44 45 46 47 48
DONOR_HYDROGENS      STATIC     ATOMS    <user>   **** ""
2 26 27
ATOM$BLUE        STATIC     ATOMS    COLORGROUP SYSTEM
6 43 44 45 46 47 48
ATOM$RED        STATIC     ATOMS    COLORGROUP SYSTEM
2 26 27
