AV-unprocessed.smi:702|AV-procd|sdf|3418|dock4
  -GOLD-   22720 0403D 1   1.00000     0.00000
 Structure written by MMmdl.
 49 51  0  0  0  0  0  0  0  0  1 V2000
  146.1458  137.0789  155.5031 C   0  0  0  0  0  0  0  0  0  0  0  0
  146.5866  137.7913  154.2033 C   0  0  2  0  0  0  0  0  0  0  0  0
  146.7890  136.7814  153.1585 N   0  0  0  0  0  0  0  0  0  0  0  0
  145.9502  135.7811  152.8525 C   0  0  0  0  0  0  0  0  0  0  0  0
  144.8928  135.5746  153.4472 O   0  0  0  0  0  0  0  0  0  0  0  0
  146.4316  135.0437  151.8369 N   0  0  0  0  0  0  0  0  0  0  0  0
  145.8474  133.9167  151.1973 C   0  0  0  0  0  0  0  0  0  0  0  0
  144.4486  133.9190  151.0171 C   0  0  0  0  0  0  0  0  0  0  0  0
  143.8408  132.8069  150.4011 C   0  0  0  0  0  0  0  0  0  0  0  0
  144.5287  131.7253  149.9789 N   0  0  0  0  0  0  0  0  0  0  0  0
  145.8656  131.7179  150.1651 C   0  0  0  0  0  0  0  0  0  0  0  0
  146.5717  132.7780  150.7685 C   0  0  0  0  0  0  0  0  0  0  0  0
  147.8472  138.7218  154.3729 C   0  0  0  0  0  0  0  0  0  0  0  0
  149.1164  137.9295  154.4245 N   0  0  0  0  0  0  0  0  0  0  0  0
  150.3462  138.7245  154.5769 C   0  0  0  0  0  0  0  0  0  0  0  0
  151.6126  137.8581  154.4800 C   0  0  0  0  0  0  0  0  0  0  0  0
  151.5697  136.8432  155.4747 O   0  0  0  0  0  0  0  0  0  0  0  0
  150.4239  136.0108  155.3482 C   0  0  0  0  0  0  0  0  0  0  0  0
  149.1450  136.8620  155.4361 C   0  0  0  0  0  0  0  0  0  0  0  0
  147.8467  139.7541  153.1933 C   0  0  0  0  0  0  0  0  0  0  0  0
  147.5477  141.1363  153.7801 C   0  0  0  0  0  0  0  0  0  0  0  0
  147.9975  141.0526  155.2301 C   0  0  0  0  0  0  0  0  0  0  0  0
  147.6700  139.6174  155.6416 C   0  0  0  0  0  0  0  0  0  0  0  0
  145.9245  137.7842  156.3034 H   0  0  0  0  0  0  0  0  0  0  0  0
  146.9079  136.3944  155.8746 H   0  0  0  0  0  0  0  0  0  0  0  0
  145.2392  136.4954  155.3392 H   0  0  0  0  0  0  0  0  0  0  0  0
  145.7559  138.4124  153.8671 H   0  0  0  0  0  0  0  0  0  0  0  0
  147.6357  136.8667  152.6159 H   0  0  0  0  0  0  0  0  0  0  0  0
  147.3530  135.2933  151.5091 H   0  0  0  0  0  0  0  0  0  0  0  0
  143.8485  134.7579  151.3386 H   0  0  0  0  0  0  0  0  0  0  0  0
  142.7724  132.7855  150.2456 H   0  0  0  0  0  0  0  0  0  0  0  0
  146.3897  130.8355  149.8284 H   0  0  0  0  0  0  0  0  0  0  0  0
  147.6390  132.6890  150.8989 H   0  0  0  0  0  0  0  0  0  0  0  0
  150.4215  139.5073  153.8269 H   0  0  0  0  0  0  0  0  0  0  0  0
  150.3510  139.2282  155.5436 H   0  0  0  0  0  0  0  0  0  0  0  0
  151.6999  137.4085  153.4896 H   0  0  0  0  0  0  0  0  0  0  0  0
  152.5018  138.4689  154.6353 H   0  0  0  0  0  0  0  0  0  0  0  0
  150.4620  135.4697  154.4015 H   0  0  0  0  0  0  0  0  0  0  0  0
  150.4371  135.2650  156.1431 H   0  0  0  0  0  0  0  0  0  0  0  0
  149.0677  137.2838  156.4379 H   0  0  0  0  0  0  0  0  0  0  0  0
  148.3045  136.1820  155.3190 H   0  0  0  0  0  0  0  0  0  0  0  0
  148.7935  139.7806  152.6590 H   0  0  0  0  0  0  0  0  0  0  0  0
  147.1204  139.5272  152.4136 H   0  0  0  0  0  0  0  0  0  0  0  0
  148.0423  141.9395  153.2332 H   0  0  0  0  0  0  0  0  0  0  0  0
  146.4739  141.3247  153.7443 H   0  0  0  0  0  0  0  0  0  0  0  0
  149.0720  141.2264  155.2932 H   0  0  0  0  0  0  0  0  0  0  0  0
  147.5061  141.7915  155.8637 H   0  0  0  0  0  0  0  0  0  0  0  0
  146.6432  139.5980  156.0058 H   0  0  0  0  0  0  0  0  0  0  0  0
  148.2754  139.3079  156.4924 H   0  0  0  0  0  0  0  0  0  0  0  0
  1  2  1  0  0  0  0
  1 24  1  0  0  0  0
  1 25  1  0  0  0  0
  1 26  1  0  0  0  0
  2  3  1  0  0  0  0
  2 13  1  0  0  0  0
  2 27  1  0  0  0  0
  3  4  1  0  0  0  0
  3 28  1  0  0  0  0
  4  5  2  0  0  0  0
  4  6  1  0  0  0  0
  6  7  1  0  0  0  0
  6 29  1  0  0  0  0
  7 12  1  0  0  0  0
  7  8  2  0  0  0  0
  8  9  1  0  0  0  0
  8 30  1  0  0  0  0
  9 10  2  0  0  0  0
  9 31  1  0  0  0  0
 10 11  1  0  0  0  0
 11 12  2  0  0  0  0
 11 32  1  0  0  0  0
 12 33  1  0  0  0  0
 13 23  1  0  0  0  0
 13 14  1  0  0  0  0
 13 20  1  0  0  0  0
 14 19  1  0  0  0  0
 14 15  1  0  0  0  0
 15 16  1  0  0  0  0
 15 34  1  0  0  0  0
 15 35  1  0  0  0  0
 16 17  1  0  0  0  0
 16 36  1  0  0  0  0
 16 37  1  0  0  0  0
 17 18  1  0  0  0  0
 18 19  1  0  0  0  0
 18 38  1  0  0  0  0
 18 39  1  0  0  0  0
 19 40  1  0  0  0  0
 19 41  1  0  0  0  0
 20 21  1  0  0  0  0
 20 42  1  0  0  0  0
 20 43  1  0  0  0  0
 21 22  1  0  0  0  0
 21 44  1  0  0  0  0
 21 45  1  0  0  0  0
 22 23  1  0  0  0  0
 22 46  1  0  0  0  0
 22 47  1  0  0  0  0
 23 48  1  0  0  0  0
 23 49  1  0  0  0  0
M  END
> <s_m_source_file>
AV-unprocessed.smi

> <i_m_source_file_index>
702

> <i_lp_mmshare_version>
43012

> <i_f3d_flags>
0

> <s_epik_input>
W0NIMl0xW0NIMl1PW0NIMl1bQ0gyXU4xQzIoW0NIMl1bQ0gyXVtDSDJdW0NIMl0yKVtDQEhdKFtDSDNdKVtOSF1DKD1PKVtOSF1jM1tjSF1bY0hdbltjSF1bY0hdMw==

> <s_epik_cmdline>
J2VwaWtfcHl0aG9uJywgJy1waCcsICc3LjAnLCAnLXRuJywgJzgnLCAnLW1hJywgJzIwMCcsICctbWV0YWxfYmluZGluZycsICctaW1hZScsICc8aW5maWxlLm1hZT4nLCAnLW9tYWUnLCAnPG91dGZpbGUubWFlPic=

> <r_epik_Ionization_Penalty>
0.626636

> <r_epik_Ionization_Penalty_Charging>
0

> <r_epik_Ionization_Penalty_Neutral>
0.626636

> <r_epik_State_Penalty>
0.629018

> <r_epik_Charging_Adjusted_Penalty>
0.629018

> <i_epik_Tot_Q>
0

> <i_epik_Tot_abs_Q>
0

> <r_epik_Metal_State_Penalty>
0.606459

> <b_epik_Metal_Only>
0

> <s_lp_Force_Field>
OPLS_2005

> <r_lp_Energy>
67.5809

> <b_lp_Chiralities_Consistent>
1

> <s_lp_Variant>
AV-unprocessed.smi:702-3

> <Gold.Version>
5.8.1

> <Gold.Id.Protein>
6NUR|6NUR_protein|mol2

> <Gold.PLP.Fitness>
44.9122

> <Gold.PLP.PLP>
-32.8303

> <Gold.PLP.part.hbond>
-3.7460

> <Gold.PLP.part.metal>
0.0000

> <Gold.PLP.part.buried>
-2.9282

> <Gold.PLP.part.nonpolar>
-28.1240

> <Gold.PLP.part.repulsive>
1.1537

> <Gold.PLP.ligand.clash>
0.0000

> <Gold.PLP.ligand.torsion>
0.7717

> <Gold.PLP.Chemscore.Hbond>
3.0219

> <Gold.PLP.Chemscore.CHOScore>
1.4703

> <Gold.PLP.Chemscore.Metal>
0.0000

> <Gold.Chemscore.Hbonds>
donor molecule, donor type, donor heavy atom, donor atom, acceptor molecule, acceptor atom, score
      L1  H     3    28       P1  7948  1.00
      L1  H     6    29       P1  7948  0.98
      P1  H 10752 10765       L1    17  0.94
      P1  H 10785 10796       L1    10  0.04
      L1  C     9    31       P1 10186  1.00
      L1  C    11    32       P1 10747  0.58

> <Gold.PLP.Chemscore.Internal.Correction>
0.1488

> <Gold.Rescore>
     Score         DG    S(hbond)    S(metal)    S(lipo)     H(rot)  DE(clash)    DE(int)     intcor
     16.30     -19.86       2.42        0.00      84.54       1.41       0.34       3.22       ----

> <Gold.Chemscore.Fitness>
16.3016

> <Gold.Chemscore.DG>
-19.8576

> <Gold.Chemscore.ZeroCoef>
-5.4800

> <Gold.Chemscore.Hbond>
2.4246

> <Gold.Chemscore.Metal>
0.0000

> <Gold.Chemscore.Lipo>
84.5445

> <Gold.Chemscore.Internal_Hbond>
0.0000

> <Gold.Chemscore.DEClash>
0.3398

> <Gold.Chemscore.DEInternal>
3.2162

> <Gold.Chemscore.Rot>
1.4111

> <Gold.Chemscore.Internal.Correction>
   9.000000E+99

> <Gold.Chemscore.Hbonds>
donor molecule, donor type, donor heavy atom, donor atom, acceptor molecule, acceptor atom, score
      L1  H     3    28       P1  7948  0.97
      L1  H     6    29       P1  7948  0.82
      P1  H 10752 10765       L1    17  0.09
      P1  H 10785 10796       L1    10  0.05

> <Gold.Chemscore.Hbond.Weighted>
-8.0983

> <Gold.Chemscore.Metal.Weighted>
-0.0000

> <Gold.Chemscore.Lipo.Weighted>
-9.8917

> <Gold.Chemscore.Internal_Hbond.Weighted>
0.0000

> <Gold.Chemscore.DEClash.Weighted>
0.3398

> <Gold.Chemscore.DEInternal.Weighted>
3.2162

> <Gold.Chemscore.Rot.Weighted>
3.6123

> <Gold.Chemscore.Internal.Correction.Weighted>
   9.000000E+99

> <Gold.Protein.RotatedTorsions>
[ 6907 6896 6895 6894 ] final   66.93 input  -60.11 | X-H torsion
[ 7974 7965 7964 7962 ] final   79.05 input  175.53 | X-H torsion
[ 8008 7997 7996 7995 ] final  -91.69 input   59.86 | X-H torsion
[ 10167 10162 10161 10158 ] final -171.03 input  -65.29 | X-H torsion
[ 10718 10713 10712 10709 ] final   38.28 input   66.30 | X-H torsion
[ 10763 10752 10751 10750 ] final -161.08 input  -60.55 | X-H torsion
[ 11005 11000 10999 10996 ] final -147.89 input  -57.11 | X-H torsion

> <Gold.Protein.ActiveResidues>
 VAL166  LYS551  ARG553  GLY616  TRP617  ASP618  TYR619  PRO620  LYS621  CYS622 
 ASP623  PHE694  ASN695  SER759  ASP760  ASP761  ALA762  ILE779  LEU786  VAL792 
 PHE793  MET794  SER795  GLU796  ALA797  LYS798  CYS799  TRP800  GLU811  SER814 

> <Gold.Protein.RotatedAtoms>
  152.4516  134.5382  159.9830 H   0  0  0  0  0  0  0  0  0  0  0  0  # atno 6907 bound_to 6896
  151.5453  133.3420  159.2951 H   0  0  0  0  0  0  0  0  0  0  0  0  # atno 6908 bound_to 6896
  150.8446  134.7782  159.7023 H   0  0  0  0  0  0  0  0  0  0  0  0  # atno 6909 bound_to 6896
  145.6692  139.2492  143.1878 H   0  0  0  0  0  0  0  0  0  0  0  0  # atno 7974 bound_to 7965
  154.7139  140.0517  157.0576 H   0  0  0  0  0  0  0  0  0  0  0  0  # atno 8008 bound_to 7997
  155.0518  140.3180  155.4670 H   0  0  0  0  0  0  0  0  0  0  0  0  # atno 8009 bound_to 7997
  156.2797  140.2114  156.5644 H   0  0  0  0  0  0  0  0  0  0  0  0  # atno 8010 bound_to 7997
  139.5826  144.1389  152.1535 H   0  0  0  0  0  0  0  0  0  0  0  0  # atno 10167 bound_to 10162
  157.3569  130.7629  149.7019 H   0  0  0  0  0  0  0  0  0  0  0  0  # atno 10718 bound_to 10713
  154.7335  135.3052  154.8852 H   0  0  0  0  0  0  0  0  0  0  0  0  # atno 10763 bound_to 10752
  153.9687  135.6744  153.4750 H   0  0  0  0  0  0  0  0  0  0  0  0  # atno 10764 bound_to 10752
  153.0940  135.4945  154.8666 H   0  0  0  0  0  0  0  0  0  0  0  0  # atno 10765 bound_to 10752
  140.7669  134.3233  157.5086 H   0  0  0  0  0  0  0  0  0  0  0  0  # atno 11005 bound_to 11000
  146.1060  140.7487  142.9526 LP  0  0  0  0  0  0  0  0  0  0  0  0  # atno 17320 bound_to 7965
  144.7062  140.3862  143.7116 LP  0  0  0  0  0  0  0  0  0  0  0  0  # atno 17321 bound_to 7965
  140.0945  144.5592  150.7031 LP  0  0  0  0  0  0  0  0  0  0  0  0  # atno 17342 bound_to 10162
  140.7102  143.2499  151.4603 LP  0  0  0  0  0  0  0  0  0  0  0  0  # atno 17343 bound_to 10162
  155.9731  130.4124  150.4033 LP  0  0  0  0  0  0  0  0  0  0  0  0  # atno 17370 bound_to 10713
  157.2104  131.0459  151.2602 LP  0  0  0  0  0  0  0  0  0  0  0  0  # atno 17371 bound_to 10713
  139.8762  134.9237  156.3331 LP  0  0  0  0  0  0  0  0  0  0  0  0  # atno 17394 bound_to 11000
  140.9610  133.7388  156.0401 LP  0  0  0  0  0  0  0  0  0  0  0  0  # atno 17395 bound_to 11000

$$$$
