AV-unprocessed.smi:2844|AV-procd|sdf|10942|dock3
  -GOLD-   2272015393D 1   1.00000     0.00000
 Structure written by MMmdl.
 39 41  0  0  0  0  0  0  0  0  2 V2000
  152.2927  144.3748  161.5415 C   0  0  0  0  0  0  0  0  0  0  0  0
  152.0713  143.3887  160.4068 C   0  0  0  0  0  0  0  0  0  0  0  0
  151.2769  143.7907  159.3090 C   0  0  0  0  0  0  0  0  0  0  0  0
  151.0896  142.8653  158.2890 C   0  0  0  0  0  0  0  0  0  0  0  0
  150.3694  142.9506  157.0954 N   0  3  0  0  0  0  0  0  0  0  0  0
  150.4796  141.7771  156.4129 C   0  0  0  0  0  0  0  0  0  0  0  0
  151.2599  140.9442  157.1537 N   0  0  0  0  0  0  0  0  0  0  0  0
  151.6898  139.5648  156.8901 C   0  0  0  0  0  0  0  0  0  0  0  0
  152.2342  139.3762  155.4613 C   0  0  1  0  0  0  0  0  0  0  0  0
  153.5424  138.8383  155.5223 O   0  0  0  0  0  0  0  0  0  0  0  0
  151.3295  138.4626  154.6124 C   0  0  0  0  0  0  0  0  0  0  0  0
  150.0097  139.0286  154.3966 N   0  0  0  0  0  0  0  0  0  0  0  0
  148.7860  138.3887  154.4442 C   0  0  0  0  0  0  0  0  0  0  0  0
  147.8630  139.3522  154.1733 C   0  0  0  0  0  0  0  0  0  0  0  0
  146.1523  139.1493  154.0904 Cl  0  0  0  0  0  0  0  0  0  0  0  0
  148.5862  140.5554  153.9736 C   0  0  0  0  0  0  0  0  0  0  0  0
  149.8881  140.3513  154.1143 N   0  0  0  0  0  0  0  0  0  0  0  0
  151.6627  141.5798  158.3327 C   0  0  0  0  0  0  0  0  0  0  0  0
  152.4491  141.1675  159.4056 C   0  0  0  0  0  0  0  0  0  0  0  0
  152.6496  142.0936  160.4543 C   0  0  0  0  0  0  0  0  0  0  0  0
  153.5011  141.6720  161.6397 C   0  0  0  0  0  0  0  0  0  0  0  0
  151.7987  145.3268  161.3448 H   0  0  0  0  0  0  0  0  0  0  0  0
  153.3562  144.5738  161.6752 H   0  0  0  0  0  0  0  0  0  0  0  0
  151.8936  143.9790  162.4756 H   0  0  0  0  0  0  0  0  0  0  0  0
  150.8334  144.7747  159.2659 H   0  0  0  0  0  0  0  0  0  0  0  0
  150.0257  141.5474  155.4596 H   0  0  0  0  0  0  0  0  0  0  0  0
  152.4540  139.3109  157.6263 H   0  0  0  0  0  0  0  0  0  0  0  0
  150.8456  138.9003  157.0784 H   0  0  0  0  0  0  0  0  0  0  0  0
  152.3033  140.3508  154.9766 H   0  0  0  0  0  0  0  0  0  0  0  0
  153.5179  137.9500  155.2005 H   0  0  0  0  0  0  0  0  0  0  0  0
  151.7874  138.2670  153.6417 H   0  0  0  0  0  0  0  0  0  0  0  0
  151.2088  137.4943  155.1002 H   0  0  0  0  0  0  0  0  0  0  0  0
  148.6831  137.3352  154.6580 H   0  0  0  0  0  0  0  0  0  0  0  0
  148.2206  141.5441  153.7387 H   0  0  0  0  0  0  0  0  0  0  0  0
  152.8873  140.1809  159.4418 H   0  0  0  0  0  0  0  0  0  0  0  0
  153.8723  140.6535  161.5229 H   0  0  0  0  0  0  0  0  0  0  0  0
  152.9202  141.7108  162.5616 H   0  0  0  0  0  0  0  0  0  0  0  0
  154.3637  142.3304  161.7447 H   0  0  0  0  0  0  0  0  0  0  0  0
  149.8384  143.7481  156.7696 H   0  0  0  0  0  0  0  0  0  0  0  0
  1  2  1  0  0  0  0
  1 22  1  0  0  0  0
  1 23  1  0  0  0  0
  1 24  1  0  0  0  0
  2 20  1  0  0  0  0
  2  3  2  0  0  0  0
  3  4  1  0  0  0  0
  3 25  1  0  0  0  0
  4 18  2  0  0  0  0
  4  5  1  0  0  0  0
  5  6  2  0  0  0  0
  5 39  1  0  0  0  0
  6  7  1  0  0  0  0
  6 26  1  0  0  0  0
  7  8  1  0  0  0  0
  7 18  1  0  0  0  0
  8  9  1  0  0  0  0
  8 27  1  0  0  0  0
  8 28  1  0  0  0  0
  9 10  1  0  0  0  0
  9 11  1  0  0  0  0
  9 29  1  0  0  0  0
 10 30  1  0  0  0  0
 11 12  1  0  0  0  0
 11 31  1  0  0  0  0
 11 32  1  0  0  0  0
 12 17  1  0  0  0  0
 12 13  1  0  0  0  0
 13 14  2  0  0  0  0
 13 33  1  0  0  0  0
 14 15  1  0  0  0  0
 14 16  1  0  0  0  0
 16 17  2  0  0  0  0
 16 34  1  0  0  0  0
 18 19  1  0  0  0  0
 19 20  2  0  0  0  0
 19 35  1  0  0  0  0
 20 21  1  0  0  0  0
 21 36  1  0  0  0  0
 21 37  1  0  0  0  0
 21 38  1  0  0  0  0
M  CHG  1   5   1
M  END
> <s_m_source_file>
AV-unprocessed.smi

> <i_m_source_file_index>
2844

> <i_lp_mmshare_version>
43012

> <i_f3d_flags>
0

> <s_epik_input>
W0NIM11jKFtjSF0xKWMoW0NIM10pW2NIXWMoYzEyKW4oW2NIXW4yKVtDSDJdW0NASF0oW09IXSlbQ0gyXW4zW2NIXWMoQ2wpW2NIXW4z

> <s_epik_cmdline>
J2VwaWtfcHl0aG9uJywgJy1waCcsICc3LjAnLCAnLXRuJywgJzgnLCAnLW1hJywgJzIwMCcsICctbWV0YWxfYmluZGluZycsICctaW1hZScsICc8aW5maWxlLm1hZT4nLCAnLW9tYWUnLCAnPG91dGZpbGUubWFlPic=

> <r_lp_tautomer_probability>
1

> <r_epik_Ionization_Penalty>
1.09214

> <r_epik_Ionization_Penalty_Charging>
1.09214

> <r_epik_Ionization_Penalty_Neutral>
2.93683e-06

> <r_epik_State_Penalty>
1.14852

> <r_epik_Charging_Adjusted_Penalty>
2.24066

> <i_epik_Tot_Q>
1

> <i_epik_Tot_abs_Q>
1

> <r_epik_Metal_State_Penalty>
1.23687

> <b_epik_Metal_Only>
0

> <s_lp_Force_Field>
OPLS_2005

> <r_lp_Energy>
15.1146

> <b_lp_Chiralities_Consistent>
1

> <s_lp_Variant>
AV-unprocessed.smi:2844-4

> <Gold.Version>
5.8.1

> <Gold.Id.Protein>
6NUR|6NUR_protein|mol2

> <Gold.PLP.Fitness>
54.8144

> <Gold.PLP.PLP>
-45.8788

> <Gold.PLP.part.hbond>
-2.8922

> <Gold.PLP.part.metal>
0.0000

> <Gold.PLP.part.buried>
-5.5526

> <Gold.PLP.part.nonpolar>
-40.2986

> <Gold.PLP.part.repulsive>
1.1596

> <Gold.PLP.ligand.clash>
0.0000

> <Gold.PLP.ligand.torsion>
1.1358

> <Gold.PLP.Chemscore.Hbond>
3.7280

> <Gold.PLP.Chemscore.CHOScore>
0.0000

> <Gold.PLP.Chemscore.Metal>
0.0000

> <Gold.Chemscore.Hbonds>
donor molecule, donor type, donor heavy atom, donor atom, acceptor molecule, acceptor atom, score
      L1  H     5    39       P1  8028  2.00
      P1  H  7989  7998       L1    17  0.80
      P1  H  7997  8010       L1    10  0.93

> <Gold.PLP.Chemscore.Internal.Correction>
0.0231

> <Gold.Rescore>
     Score         DG    S(hbond)    S(metal)    S(lipo)     H(rot)  DE(clash)    DE(int)     intcor
     17.07     -20.79       2.06        0.00     120.48       2.21       1.24       2.49       ----

> <Gold.Chemscore.Fitness>
17.0668

> <Gold.Chemscore.DG>
-20.7938

> <Gold.Chemscore.ZeroCoef>
-5.4800

> <Gold.Chemscore.Hbond>
2.0607

> <Gold.Chemscore.Metal>
0.0000

> <Gold.Chemscore.Lipo>
120.4774

> <Gold.Chemscore.Internal_Hbond>
0.0000

> <Gold.Chemscore.DEClash>
1.2398

> <Gold.Chemscore.DEInternal>
2.4873

> <Gold.Chemscore.Rot>
2.2129

> <Gold.Chemscore.Internal.Correction>
   9.000000E+99

> <Gold.Chemscore.Hbonds>
donor molecule, donor type, donor heavy atom, donor atom, acceptor molecule, acceptor atom, score
      L1  H     5    39       P1  8028  0.99
      P1  H  7989  7998       L1    17  0.40
      P1  H  7997  8010       L1    10  0.31

> <Gold.Chemscore.Hbond.Weighted>
-6.8829

> <Gold.Chemscore.Metal.Weighted>
-0.0000

> <Gold.Chemscore.Lipo.Weighted>
-14.0959

> <Gold.Chemscore.Internal_Hbond.Weighted>
0.0000

> <Gold.Chemscore.DEClash.Weighted>
1.2398

> <Gold.Chemscore.DEInternal.Weighted>
2.4873

> <Gold.Chemscore.Rot.Weighted>
5.6649

> <Gold.Chemscore.Internal.Correction.Weighted>
   9.000000E+99

> <Gold.Protein.RotatedTorsions>
[ 6907 6896 6895 6894 ] final  -10.90 input  -60.11 | X-H torsion
[ 7974 7965 7964 7962 ] final   15.81 input  175.53 | X-H torsion
[ 8008 7997 7996 7995 ] final   93.72 input   59.86 | X-H torsion
[ 10167 10162 10161 10158 ] final   39.78 input  -65.29 | X-H torsion
[ 10718 10713 10712 10709 ] final  169.16 input   66.30 | X-H torsion
[ 10763 10752 10751 10750 ] final  161.08 input  -60.55 | X-H torsion
[ 11005 11000 10999 10996 ] final  -92.63 input  -57.11 | X-H torsion

> <Gold.Protein.ActiveResidues>
 VAL166  LYS551  ARG553  GLY616  TRP617  ASP618  TYR619  PRO620  LYS621  CYS622 
 ASP623  PHE694  ASN695  SER759  ASP760  ASP761  ALA762  ILE779  LEU786  VAL792 
 PHE793  MET794  SER795  GLU796  ALA797  LYS798  CYS799  TRP800  GLU811  SER814 

> <Gold.Protein.RotatedAtoms>
  151.3947  135.0961  159.9536 H   0  0  0  0  0  0  0  0  0  0  0  0  # atno 6907 bound_to 6896
  152.5069  133.8946  159.7421 H   0  0  0  0  0  0  0  0  0  0  0  0  # atno 6908 bound_to 6896
  150.9407  133.6604  159.2820 H   0  0  0  0  0  0  0  0  0  0  0  0  # atno 6909 bound_to 6896
  146.2268  139.8840  142.8566 H   0  0  0  0  0  0  0  0  0  0  0  0  # atno 7974 bound_to 7965
  156.0499  140.3309  155.7339 H   0  0  0  0  0  0  0  0  0  0  0  0  # atno 8008 bound_to 7997
  155.5617  140.0619  157.2845 H   0  0  0  0  0  0  0  0  0  0  0  0  # atno 8009 bound_to 7997
  154.4431  140.1876  156.0777 H   0  0  0  0  0  0  0  0  0  0  0  0  # atno 8010 bound_to 7997
  140.3806  144.1984  150.6131 H   0  0  0  0  0  0  0  0  0  0  0  0  # atno 10167 bound_to 10162
  157.0266  131.0247  151.2758 H   0  0  0  0  0  0  0  0  0  0  0  0  # atno 10718 bound_to 10713
  154.2574  135.2769  155.2792 H   0  0  0  0  0  0  0  0  0  0  0  0  # atno 10763 bound_to 10752
  154.5413  135.5701  153.6845 H   0  0  0  0  0  0  0  0  0  0  0  0  # atno 10764 bound_to 10752
  152.9969  135.6252  154.2723 H   0  0  0  0  0  0  0  0  0  0  0  0  # atno 10765 bound_to 10752
  141.1517  133.7833  157.0046 H   0  0  0  0  0  0  0  0  0  0  0  0  # atno 11005 bound_to 11000
  145.2484  141.0035  143.3895 LP  0  0  0  0  0  0  0  0  0  0  0  0  # atno 17320 bound_to 7965
  144.9395  139.4206  143.6456 LP  0  0  0  0  0  0  0  0  0  0  0  0  # atno 17321 bound_to 7965
  140.4941  143.2338  151.8775 LP  0  0  0  0  0  0  0  0  0  0  0  0  # atno 17342 bound_to 10162
  139.4796  144.5133  151.8902 LP  0  0  0  0  0  0  0  0  0  0  0  0  # atno 17343 bound_to 10162
  157.5209  130.7997  149.7808 LP  0  0  0  0  0  0  0  0  0  0  0  0  # atno 17370 bound_to 10713
  156.0084  130.3845  150.2351 LP  0  0  0  0  0  0  0  0  0  0  0  0  # atno 17371 bound_to 10713
  140.0917  134.9588  157.1787 LP  0  0  0  0  0  0  0  0  0  0  0  0  # atno 17394 bound_to 11000
  140.3437  134.2676  155.7208 LP  0  0  0  0  0  0  0  0  0  0  0  0  # atno 17395 bound_to 11000

$$$$
