AV-unprocessed.smi:1748|AV-procd|sdf|7036|dock9
  -GOLD-   22720 8253D 1   1.00000     0.00000
 Structure written by MMmdl.
 40 41  0  0  0  0  0  0  0  0  2 V2000
  145.7766  135.6255  151.2526 C   0  0  0  0  0  0  0  0  0  0  0  0
  145.2291  134.2655  151.4453 N   0  3  1  0  0  0  0  0  0  0  0  0
  144.0548  133.9996  150.5773 C   0  0  0  0  0  0  0  0  0  0  0  0
  143.4339  132.6291  150.8952 C   0  0  0  0  0  0  0  0  0  0  0  0
  144.4769  131.5091  150.7746 C   0  0  0  0  0  0  0  0  0  0  0  0
  145.6959  131.8228  151.6574 C   0  0  1  0  0  0  0  0  0  0  0  0
  146.7103  130.7867  151.4895 N   0  0  0  0  0  0  0  0  0  0  0  0
  146.5784  129.5087  151.8722 C   0  0  0  0  0  0  0  0  0  0  0  0
  145.5696  129.0744  152.4276 O   0  0  0  0  0  0  0  0  0  0  0  0
  147.6884  128.8042  151.5860 N   0  0  0  0  0  0  0  0  0  0  0  0
  147.9537  127.4396  151.7917 C   0  0  0  0  0  0  0  0  0  0  0  0
  148.3099  126.5614  150.8178 C   0  0  0  0  0  0  0  0  0  0  0  0
  148.5836  125.1625  151.1032 C   0  0  0  0  0  0  0  0  0  0  0  0
  149.0395  124.1981  150.0189 C   0  0  0  0  0  0  0  0  0  0  0  0
  149.1650  124.8197  148.8456 F   0  0  0  0  0  0  0  0  0  0  0  0
  150.2237  123.6805  150.3421 F   0  0  0  0  0  0  0  0  0  0  0  0
  148.1739  123.1951  149.8701 F   0  0  0  0  0  0  0  0  0  0  0  0
  148.4942  124.7843  152.3916 C   0  0  0  0  0  0  0  0  0  0  0  0
  148.1270  125.6800  153.3983 N   0  0  0  0  0  0  0  0  0  0  0  0
  147.8521  126.9869  153.1891 C   0  0  0  0  0  0  0  0  0  0  0  0
  147.5410  127.7150  154.1312 O   0  0  0  0  0  0  0  0  0  0  0  0
  146.2681  133.2144  151.3118 C   0  0  0  0  0  0  0  0  0  0  0  0
  148.0730  125.3165  154.3390 H   0  0  0  0  0  0  0  0  0  0  0  0
  146.1579  135.7541  150.2388 H   0  0  0  0  0  0  0  0  0  0  0  0
  146.5917  135.8152  151.9517 H   0  0  0  0  0  0  0  0  0  0  0  0
  145.0076  136.3786  151.4276 H   0  0  0  0  0  0  0  0  0  0  0  0
  143.3073  134.7803  150.7238 H   0  0  0  0  0  0  0  0  0  0  0  0
  144.3570  134.0418  149.5297 H   0  0  0  0  0  0  0  0  0  0  0  0
  143.0226  132.6387  151.9056 H   0  0  0  0  0  0  0  0  0  0  0  0
  142.5980  132.4333  150.2231 H   0  0  0  0  0  0  0  0  0  0  0  0
  144.0337  130.5553  151.0644 H   0  0  0  0  0  0  0  0  0  0  0  0
  144.7848  131.4076  149.7327 H   0  0  0  0  0  0  0  0  0  0  0  0
  145.3682  131.8242  152.6991 H   0  0  0  0  0  0  0  0  0  0  0  0
  147.5735  131.0615  151.0432 H   0  0  0  0  0  0  0  0  0  0  0  0
  148.4606  129.3237  151.1942 H   0  0  0  0  0  0  0  0  0  0  0  0
  148.4171  126.8818  149.7946 H   0  0  0  0  0  0  0  0  0  0  0  0
  148.6980  123.7849  152.7470 H   0  0  0  0  0  0  0  0  0  0  0  0
  146.6652  133.2216  150.2950 H   0  0  0  0  0  0  0  0  0  0  0  0
  147.0993  133.4499  151.9781 H   0  0  0  0  0  0  0  0  0  0  0  0
  144.8988  134.2225  152.3990 H   0  0  0  0  0  0  0  0  0  0  0  0
  1  2  1  0  0  0  0
  1 24  1  0  0  0  0
  1 25  1  0  0  0  0
  1 26  1  0  0  0  0
  2 22  1  0  0  0  0
  2  3  1  0  0  0  0
  2 40  1  0  0  0  0
  3  4  1  0  0  0  0
  3 27  1  0  0  0  0
  3 28  1  0  0  0  0
  4  5  1  0  0  0  0
  4 29  1  0  0  0  0
  4 30  1  0  0  0  0
  5  6  1  0  0  0  0
  5 31  1  0  0  0  0
  5 32  1  0  0  0  0
  6  7  1  0  0  0  0
  6 22  1  0  0  0  0
  6 33  1  0  0  0  0
  7  8  1  0  0  0  0
  7 34  1  0  0  0  0
  8  9  2  0  0  0  0
  8 10  1  0  0  0  0
 10 11  1  0  0  0  0
 10 35  1  0  0  0  0
 11 20  1  0  0  0  0
 11 12  2  0  0  0  0
 12 13  1  0  0  0  0
 12 36  1  0  0  0  0
 13 14  1  0  0  0  0
 13 18  2  0  0  0  0
 14 15  1  0  0  0  0
 14 16  1  0  0  0  0
 14 17  1  0  0  0  0
 18 19  1  0  0  0  0
 18 37  1  0  0  0  0
 19 23  1  0  0  0  0
 19 20  1  0  0  0  0
 20 21  2  0  0  0  0
 22 38  1  0  0  0  0
 22 39  1  0  0  0  0
M  CHG  1   2   1
M  END
> <s_m_source_file>
AV-unprocessed.smi

> <i_m_source_file_index>
1748

> <i_lp_mmshare_version>
43012

> <i_f3d_flags>
0

> <s_epik_input>
W0NIM11OMVtDSDJdW0NIMl1bQ0gyXVtDQEhdKFtDSDJdMSlbTkhdQyg9TylbTkhdYzJbY0hdYyhDKEYpKEYpRilbY0hdW25IXWMyPU8=

> <s_epik_cmdline>
J2VwaWtfcHl0aG9uJywgJy1waCcsICc3LjAnLCAnLXRuJywgJzgnLCAnLW1hJywgJzIwMCcsICctbWV0YWxfYmluZGluZycsICctaW1hZScsICc8aW5maWxlLm1hZT4nLCAnLW9tYWUnLCAnPG91dGZpbGUubWFlPic=

> <r_lp_tautomer_probability>
1

> <r_epik_Ionization_Penalty>
0.00746315

> <r_epik_Ionization_Penalty_Charging>
0.00744398

> <r_epik_Ionization_Penalty_Neutral>
1.91704e-05

> <r_epik_State_Penalty>
-0

> <r_epik_Charging_Adjusted_Penalty>
0.00744398

> <i_epik_Tot_Q>
1

> <i_epik_Tot_abs_Q>
1

> <r_epik_Metal_State_Penalty>
0.379332

> <b_epik_Metal_Only>
0

> <s_lp_Force_Field>
OPLS_2005

> <r_lp_Energy>
25.304

> <b_lp_Chiralities_Consistent>
1

> <s_lp_Variant>
AV-unprocessed.smi:1748-1

> <Gold.Version>
5.8.1

> <Gold.Id.Protein>
6NUR|6NUR_protein|mol2

> <Gold.PLP.Fitness>
42.8820

> <Gold.PLP.PLP>
-38.9679

> <Gold.PLP.part.hbond>
-2.0000

> <Gold.PLP.part.metal>
0.0000

> <Gold.PLP.part.buried>
-5.9535

> <Gold.PLP.part.nonpolar>
-31.5833

> <Gold.PLP.part.repulsive>
0.3640

> <Gold.PLP.ligand.clash>
0.0000

> <Gold.PLP.ligand.torsion>
0.6390

> <Gold.PLP.Chemscore.Hbond>
1.7200

> <Gold.PLP.Chemscore.CHOScore>
0.0000

> <Gold.PLP.Chemscore.Metal>
0.0000

> <Gold.Chemscore.Hbonds>
donor molecule, donor type, donor heavy atom, donor atom, acceptor molecule, acceptor atom, score
      L1  H     7    34       P1 10747  1.00
      L1  H    10    35       P1 10747  0.72

> <Gold.PLP.Chemscore.Internal.Correction>
0.0322

> <Gold.Rescore>
     Score         DG    S(hbond)    S(metal)    S(lipo)     H(rot)  DE(clash)    DE(int)     intcor
     14.87     -15.76       1.08        0.00      78.86       1.00       0.15       0.74       ----

> <Gold.Chemscore.Fitness>
14.8694

> <Gold.Chemscore.DG>
-15.7569

> <Gold.Chemscore.ZeroCoef>
-5.4800

> <Gold.Chemscore.Hbond>
1.0809

> <Gold.Chemscore.Metal>
0.0000

> <Gold.Chemscore.Lipo>
78.8594

> <Gold.Chemscore.Internal_Hbond>
0.0000

> <Gold.Chemscore.DEClash>
0.1452

> <Gold.Chemscore.DEInternal>
0.7422

> <Gold.Chemscore.Rot>
1.0000

> <Gold.Chemscore.Internal.Correction>
   9.000000E+99

> <Gold.Chemscore.Hbonds>
donor molecule, donor type, donor heavy atom, donor atom, acceptor molecule, acceptor atom, score
      L1  H     7    34       P1 10747  0.97
      L1  H    10    35       P1 10747  0.09

> <Gold.Chemscore.Hbond.Weighted>
-3.6103

> <Gold.Chemscore.Metal.Weighted>
-0.0000

> <Gold.Chemscore.Lipo.Weighted>
-9.2266

> <Gold.Chemscore.Internal_Hbond.Weighted>
0.0000

> <Gold.Chemscore.DEClash.Weighted>
0.1452

> <Gold.Chemscore.DEInternal.Weighted>
0.7422

> <Gold.Chemscore.Rot.Weighted>
2.5600

> <Gold.Chemscore.Internal.Correction.Weighted>
   9.000000E+99

> <Gold.Protein.RotatedTorsions>
[ 6907 6896 6895 6894 ] final  108.67 input  -60.11 | X-H torsion
[ 7974 7965 7964 7962 ] final   42.24 input  175.53 | X-H torsion
[ 8008 7997 7996 7995 ] final  157.80 input   59.86 | X-H torsion
[ 10167 10162 10161 10158 ] final   57.49 input  -65.29 | X-H torsion
[ 10718 10713 10712 10709 ] final -143.57 input   66.30 | X-H torsion
[ 10763 10752 10751 10750 ] final  126.95 input  -60.55 | X-H torsion
[ 11005 11000 10999 10996 ] final  -39.31 input  -57.11 | X-H torsion

> <Gold.Protein.ActiveResidues>
 VAL166  LYS551  ARG553  GLY616  TRP617  ASP618  TYR619  PRO620  LYS621  CYS622 
 ASP623  PHE694  ASN695  SER759  ASP760  ASP761  ALA762  ILE779  LEU786  VAL792 
 PHE793  MET794  SER795  GLU796  ALA797  LYS798  CYS799  TRP800  GLU811  SER814 

> <Gold.Protein.RotatedAtoms>
  152.5102  133.9055  159.7461 H   0  0  0  0  0  0  0  0  0  0  0  0  # atno 6907 bound_to 6896
  150.9461  133.6593  159.2788 H   0  0  0  0  0  0  0  0  0  0  0  0  # atno 6908 bound_to 6896
  151.3888  135.0957  159.9572 H   0  0  0  0  0  0  0  0  0  0  0  0  # atno 6909 bound_to 6896
  146.0757  139.5323  142.9569 H   0  0  0  0  0  0  0  0  0  0  0  0  # atno 7974 bound_to 7965
  156.2342  140.1875  156.7163 H   0  0  0  0  0  0  0  0  0  0  0  0  # atno 8008 bound_to 7997
  154.6076  140.0626  156.9479 H   0  0  0  0  0  0  0  0  0  0  0  0  # atno 8009 bound_to 7997
  155.2069  140.3297  155.4337 H   0  0  0  0  0  0  0  0  0  0  0  0  # atno 8010 bound_to 7997
  140.1974  144.4023  150.6544 H   0  0  0  0  0  0  0  0  0  0  0  0  # atno 10167 bound_to 10162
  156.3596  130.7731  151.1897 H   0  0  0  0  0  0  0  0  0  0  0  0  # atno 10718 bound_to 10713
  153.7015  135.3282  155.3226 H   0  0  0  0  0  0  0  0  0  0  0  0  # atno 10763 bound_to 10752
  154.8411  135.4455  154.1406 H   0  0  0  0  0  0  0  0  0  0  0  0  # atno 10764 bound_to 10752
  153.2475  135.6977  153.7794 H   0  0  0  0  0  0  0  0  0  0  0  0  # atno 10765 bound_to 10752
  141.0092  133.6916  156.2170 H   0  0  0  0  0  0  0  0  0  0  0  0  # atno 11005 bound_to 11000
  145.6311  141.0304  143.1863 LP  0  0  0  0  0  0  0  0  0  0  0  0  # atno 17320 bound_to 7965
  144.7260  139.7875  143.7365 LP  0  0  0  0  0  0  0  0  0  0  0  0  # atno 17321 bound_to 7965
  140.6414  143.2204  151.6282 LP  0  0  0  0  0  0  0  0  0  0  0  0  # atno 17342 bound_to 10162
  139.5231  144.3144  152.0965 LP  0  0  0  0  0  0  0  0  0  0  0  0  # atno 17343 bound_to 10162
  157.7472  131.0404  150.4595 LP  0  0  0  0  0  0  0  0  0  0  0  0  # atno 17370 bound_to 10713
  156.4804  130.4072  149.6465 LP  0  0  0  0  0  0  0  0  0  0  0  0  # atno 17371 bound_to 10713
  140.6761  134.4816  157.5588 LP  0  0  0  0  0  0  0  0  0  0  0  0  # atno 17394 bound_to 11000
  139.9080  134.8406  156.1632 LP  0  0  0  0  0  0  0  0  0  0  0  0  # atno 17395 bound_to 11000

$$$$
