#       Name:                AV-unprocessed.smi:1323
#       Creating user name   scv26
#       Creation time:       Fri Mar 27 05:03:57 2020


#       File generated by GOLD software.
#

@<TRIPOS>MOLECULE
AV-unprocessed.smi:1323
    51    52     1
SMALL
NO_CHARGES


@<TRIPOS>ATOM
      1 ****        -1.3504  -0.1734  -3.8419 C.3            1 S1                 0.0000
      2 ****        -1.3926   0.3312  -2.3907 C.3            1 S1                 0.0000
      3 ****        -2.8022   0.8458  -2.0344 C.3            1 S1                 0.0000
      4 ****        -2.8781   1.3477  -0.5844 C.3            1 S1                 0.0000
      5 ****        -2.4460   0.2514   0.3984 C.3            1 S1                 0.0000
      6 ****        -1.0389  -0.2584   0.0617 C.3            1 S1                 0.0000
      7 ****        -0.9390  -0.7601  -1.3950 C.3            1 S1                 0.0000
      8 ****         0.4206  -1.0712  -1.6704 O.3            1 S1                 0.0000
      9 ****         0.8147  -2.3777  -1.2760 C.3            1 S1                 0.0000
     10 ****         2.3378  -2.3972  -1.0689 C.3            1 S1                 0.0000
     11 ****         2.7617  -1.4229  -0.0670 N.am           1 S1                 0.0000
     12 ****         2.4920  -1.4902   1.2459 C.2            1 S1                 0.0000
     13 ****         1.8973  -2.4336   1.7669 O.2            1 S1                 0.0000
     14 ****         2.9770  -0.3173   2.1058 C.3            1 S1                 0.0000
     15 ****         1.8877   0.6245   2.4129 N.am           1 S1                 0.0000
     16 ****         1.8002   1.7757   1.6040 C.2            1 S1                 0.0000
     17 ****         0.8387   2.6963   1.7777 C.2            1 S1                 0.0000
     18 ****        -0.1286   2.4828   2.8274 C.2            1 S1                 0.0000
     19 ****        -0.0518   1.3889   3.6108 C.2            1 S1                 0.0000
     20 ****         1.0045   0.3858   3.4322 C.2            1 S1                 0.0000
     21 ****         1.0879  -0.6072   4.1549 O.2            1 S1                 0.0000
     22 ****        -2.0089  -1.0312  -3.9820 H              1 S1                 0.0000
     23 ****        -0.3433  -0.4780  -4.1274 H              1 S1                 0.0000
     24 ****        -1.6654   0.6048  -4.5375 H              1 S1                 0.0000
     25 ****        -0.7016   1.1720  -2.3104 H              1 S1                 0.0000
     26 ****        -3.0874   1.6507  -2.7128 H              1 S1                 0.0000
     27 ****        -3.5328   0.0487  -2.1789 H              1 S1                 0.0000
     28 ****        -2.2372   2.2222  -0.4640 H              1 S1                 0.0000
     29 ****        -3.8931   1.6735  -0.3552 H              1 S1                 0.0000
     30 ****        -2.4671   0.6361   1.4185 H              1 S1                 0.0000
     31 ****        -3.1548  -0.5768   0.3628 H              1 S1                 0.0000
     32 ****        -0.3230   0.5489   0.2076 H              1 S1                 0.0000
     33 ****        -0.7606  -1.0430   0.7651 H              1 S1                 0.0000
     34 ****        -1.5680  -1.6424  -1.5311 H              1 S1                 0.0000
     35 ****         0.3118  -2.6961  -0.3627 H              1 S1                 0.0000
     36 ****         0.5247  -3.0860  -2.0529 H              1 S1                 0.0000
     37 ****         2.6677  -3.3948  -0.7758 H              1 S1                 0.0000
     38 ****         2.8415  -2.1637  -2.0072 H              1 S1                 0.0000
     39 ****         3.2629  -0.6146  -0.4058 H              1 S1                 0.0000
     40 ****         3.4095  -0.7116   3.0269 H              1 S1                 0.0000
     41 ****         3.8014   0.1914   1.6032 H              1 S1                 0.0000
     42 ****         2.5537   1.8561   0.8341 H              1 S1                 0.0000
     43 ****         0.7849   3.5689   1.1437 H              1 S1                 0.0000
     44 ****        -0.9193   3.2018   2.9835 H              1 S1                 0.0000
     45 ****        -0.7859   1.2444   4.3898 H              1 S1                 0.0000
     46 ****         0.9964  -0.4116  -1.1875 LP             1 S1                 0.0000
     47 ****         0.5681  -0.9840  -2.6556 LP             1 S1                 0.0000
     48 ****         1.5887  -3.2016   1.2055 LP             1 S1                 0.0000
     49 ****         1.7226  -2.4322   2.7515 LP             1 S1                 0.0000
     50 ****         1.8192  -1.2731   4.0072 LP             1 S1                 0.0000
     51 ****         0.4243  -0.7481   4.8896 LP             1 S1                 0.0000
@<TRIPOS>BOND
    1    1    2 1     
    2    1   22 1     
    3    1   23 1     
    4    1   24 1     
    5    2    7 1     
    6    2    3 1     
    7    2   25 1     
    8    3    4 1     
    9    3   26 1     
   10    3   27 1     
   11    4    5 1     
   12    4   28 1     
   13    4   29 1     
   14    5    6 1     
   15    5   30 1     
   16    5   31 1     
   17    6    7 1     
   18    6   32 1     
   19    6   33 1     
   20    7    8 1     
   21    7   34 1     
   22    8    9 1     
   23    9   10 1     
   24    9   35 1     
   25    9   36 1     
   26   10   11 1     
   27   10   37 1     
   28   10   38 1     
   29   11   12 am    
   30   11   39 1     
   31   12   13 2     
   32   12   14 1     
   33   14   15 1     
   34   14   40 1     
   35   14   41 1     
   36   15   20 am    
   37   15   16 1     
   38   16   17 2     
   39   16   42 1     
   40   17   18 1     
   41   17   43 1     
   42   18   19 2     
   43   18   44 1     
   44   19   20 1     
   45   19   45 1     
   46   20   21 2     
   47    8   46 1     
   48    8   47 1     
   49   13   48 1     
   50   13   49 1     
   51   21   50 1     
   52   21   51 1     
@<TRIPOS>SUBSTRUCTURE
      1 S1             1
@<TRIPOS>SET
LONE_PAIRS      STATIC     ATOMS    <user>   **** ""
6 46 47 48 49 50 51
DONOR_HYDROGENS      STATIC     ATOMS    <user>   **** ""
1 39
ATOM$BLUE        STATIC     ATOMS    COLORGROUP SYSTEM
6 46 47 48 49 50 51
ATOM$RED        STATIC     ATOMS    COLORGROUP SYSTEM
1 39
