AV-unprocessed.smi:794|AV-procd|sdf|3763|dock10
  -GOLD-   22720 1193D 1   1.00000     0.00000
 Structure written by MMmdl.
 41 43  0  0  0  0  0  0  0  0  1 V2000
  149.5151  129.7392  155.3724 C   0  0  0  0  0  0  0  0  0  0  0  0
  148.8232  130.8589  154.6573 C   0  0  0  0  0  0  0  0  0  0  0  0
  149.3304  132.1578  154.7581 N   0  0  0  0  0  0  0  0  0  0  0  0
  148.6043  133.0396  154.0635 C   0  0  0  0  0  0  0  0  0  0  0  0
  148.8917  134.4270  153.9814 N   0  0  0  0  0  0  0  0  0  0  0  0
  149.3543  135.2388  154.9479 C   0  0  0  0  0  0  0  0  0  0  0  0
  149.5905  134.9030  156.1088 O   0  0  0  0  0  0  0  0  0  0  0  0
  149.5317  136.4847  154.4875 N   0  0  0  0  0  0  0  0  0  0  0  0
  150.0268  137.6087  155.2776 C   0  0  1  0  0  0  0  0  0  0  0  0
  151.3439  137.2309  155.9904 C   0  0  2  0  0  0  0  0  0  0  0  0
  151.6117  138.2560  157.1068 C   0  0  0  0  0  0  0  0  0  0  0  0
  152.0216  139.5113  156.3135 C   0  0  0  0  0  0  0  0  0  0  0  0
  151.9180  139.0439  154.8454 C   0  0  1  0  0  0  0  0  0  0  0  0
  152.4098  137.6071  154.9646 C   0  0  0  0  0  0  0  0  0  0  0  0
  150.4497  138.8180  154.4050 C   0  0  2  0  0  0  0  0  0  0  0  0
  149.5099  140.0341  154.5173 C   0  0  0  0  0  0  0  0  0  0  0  0
  149.9166  141.0533  153.6289 O   0  0  0  0  0  0  0  0  0  0  0  0
  147.2339  132.3250  153.2325 S   0  0  0  0  0  0  0  0  0  0  0  0
  147.6992  130.7669  153.8689 C   0  0  0  0  0  0  0  0  0  0  0  0
  146.9105  129.5424  153.5435 C   0  0  0  0  0  0  0  0  0  0  0  0
  148.7985  129.0897  155.8752 H   0  0  0  0  0  0  0  0  0  0  0  0
  150.2068  130.1102  156.1294 H   0  0  0  0  0  0  0  0  0  0  0  0
  150.0861  129.1248  154.6761 H   0  0  0  0  0  0  0  0  0  0  0  0
  148.7409  134.8474  153.0764 H   0  0  0  0  0  0  0  0  0  0  0  0
  149.3098  136.6729  153.5208 H   0  0  0  0  0  0  0  0  0  0  0  0
  149.2702  137.8861  156.0145 H   0  0  0  0  0  0  0  0  0  0  0  0
  151.3811  136.1980  156.3387 H   0  0  0  0  0  0  0  0  0  0  0  0
  150.7382  138.4266  157.7370 H   0  0  0  0  0  0  0  0  0  0  0  0
  152.4278  137.9260  157.7507 H   0  0  0  0  0  0  0  0  0  0  0  0
  151.4004  140.3769  156.5390 H   0  0  0  0  0  0  0  0  0  0  0  0
  153.0503  139.7850  156.5513 H   0  0  0  0  0  0  0  0  0  0  0  0
  152.4896  139.6606  154.1511 H   0  0  0  0  0  0  0  0  0  0  0  0
  153.4282  137.5273  155.3493 H   0  0  0  0  0  0  0  0  0  0  0  0
  152.3365  137.0433  154.0332 H   0  0  0  0  0  0  0  0  0  0  0  0
  150.4666  138.5139  153.3561 H   0  0  0  0  0  0  0  0  0  0  0  0
  148.4924  139.7419  154.2568 H   0  0  0  0  0  0  0  0  0  0  0  0
  149.4686  140.4275  155.5322 H   0  0  0  0  0  0  0  0  0  0  0  0
  149.6683  140.8038  152.7518 H   0  0  0  0  0  0  0  0  0  0  0  0
  147.5695  128.7120  153.2895 H   0  0  0  0  0  0  0  0  0  0  0  0
  146.2478  129.7140  152.6948 H   0  0  0  0  0  0  0  0  0  0  0  0
  146.2984  129.2408  154.3936 H   0  0  0  0  0  0  0  0  0  0  0  0
  1  2  1  0  0  0  0
  1 21  1  0  0  0  0
  1 22  1  0  0  0  0
  1 23  1  0  0  0  0
  2 19  2  0  0  0  0
  2  3  1  0  0  0  0
  3  4  2  0  0  0  0
  4  5  1  0  0  0  0
  4 18  1  0  0  0  0
  5  6  1  0  0  0  0
  5 24  1  0  0  0  0
  6  7  2  0  0  0  0
  6  8  1  0  0  0  0
  8  9  1  0  0  0  0
  8 25  1  0  0  0  0
  9 15  1  0  0  0  0
  9 10  1  0  0  0  0
  9 26  1  0  0  0  0
 10 14  1  0  0  0  0
 10 11  1  0  0  0  0
 10 27  1  0  0  0  0
 11 12  1  0  0  0  0
 11 28  1  0  0  0  0
 11 29  1  0  0  0  0
 12 13  1  0  0  0  0
 12 30  1  0  0  0  0
 12 31  1  0  0  0  0
 13 14  1  0  0  0  0
 13 15  1  0  0  0  0
 13 32  1  0  0  0  0
 14 33  1  0  0  0  0
 14 34  1  0  0  0  0
 15 16  1  0  0  0  0
 15 35  1  0  0  0  0
 16 17  1  0  0  0  0
 16 36  1  0  0  0  0
 16 37  1  0  0  0  0
 17 38  1  0  0  0  0
 18 19  1  0  0  0  0
 19 20  1  0  0  0  0
 20 39  1  0  0  0  0
 20 40  1  0  0  0  0
 20 41  1  0  0  0  0
M  END
> <s_m_source_file>
AV-unprocessed.smi

> <i_m_source_file_index>
794

> <i_lp_mmshare_version>
43012

> <i_f3d_flags>
0

> <s_epik_input>
W0NIM11jMW5jKHNjMVtDSDNdKVtOSF1DKD1PKVtOSF1bQ0BIXShbQ0BASF0yMylbQ0BIXShbQ0gyXVtPSF0pW0NAQEhdKFtDSDJdMylbQ0gyXVtDSDJdMg==

> <s_epik_cmdline>
J2VwaWtfcHl0aG9uJywgJy1waCcsICc3LjAnLCAnLXRuJywgJzgnLCAnLW1hJywgJzIwMCcsICctbWV0YWxfYmluZGluZycsICctaW1hZScsICc8aW5maWxlLm1hZT4nLCAnLW9tYWUnLCAnPG91dGZpbGUubWFlPic=

> <r_lp_tautomer_probability>
0.999

> <r_epik_Ionization_Penalty>
0.000713029

> <r_epik_Ionization_Penalty_Charging>
0

> <r_epik_Ionization_Penalty_Neutral>
0.000713029

> <r_epik_State_Penalty>
0.000177984

> <r_epik_Charging_Adjusted_Penalty>
0.000177984

> <i_epik_Tot_Q>
0

> <i_epik_Tot_abs_Q>
0

> <r_epik_Metal_State_Penalty>
-0

> <b_epik_Metal_Only>
0

> <s_lp_Force_Field>
OPLS_2005

> <r_lp_Energy>
46.861

> <b_lp_Chiralities_Consistent>
1

> <s_lp_Variant>
AV-unprocessed.smi:794-8

> <Gold.Version>
5.8.1

> <Gold.Id.Protein>
6NUR|6NUR_protein|mol2

> <Gold.PLP.Fitness>
42.1010

> <Gold.PLP.PLP>
-33.7502

> <Gold.PLP.part.hbond>
-5.0358

> <Gold.PLP.part.metal>
0.0000

> <Gold.PLP.part.buried>
1.5606

> <Gold.PLP.part.nonpolar>
-29.5291

> <Gold.PLP.part.repulsive>
0.1174

> <Gold.PLP.ligand.clash>
0.0000

> <Gold.PLP.ligand.torsion>
0.4064

> <Gold.PLP.Chemscore.Hbond>
3.0486

> <Gold.PLP.Chemscore.CHOScore>
0.0000

> <Gold.PLP.Chemscore.Metal>
0.0000

> <Gold.Chemscore.Hbonds>
donor molecule, donor type, donor heavy atom, donor atom, acceptor molecule, acceptor atom, score
      L1  H     5    24       P1  7948  1.00
      L1  H     8    25       P1  7948  1.00
      L1  H    17    38       P1  7957  1.00
      P1  H  7989  7998       L1    17  0.26

> <Gold.PLP.Chemscore.Internal.Correction>
0.0178

> <Gold.Rescore>
     Score         DG    S(hbond)    S(metal)    S(lipo)     H(rot)  DE(clash)    DE(int)     intcor
     14.02     -15.76       1.82        0.00      74.77       1.78       0.24       1.50       ----

> <Gold.Chemscore.Fitness>
14.0169

> <Gold.Chemscore.DG>
-15.7606

> <Gold.Chemscore.ZeroCoef>
-5.4800

> <Gold.Chemscore.Hbond>
1.8229

> <Gold.Chemscore.Metal>
0.0000

> <Gold.Chemscore.Lipo>
74.7730

> <Gold.Chemscore.Internal_Hbond>
0.0000

> <Gold.Chemscore.DEClash>
0.2416

> <Gold.Chemscore.DEInternal>
1.5022

> <Gold.Chemscore.Rot>
1.7798

> <Gold.Chemscore.Internal.Correction>
   9.000000E+99

> <Gold.Chemscore.Hbonds>
donor molecule, donor type, donor heavy atom, donor atom, acceptor molecule, acceptor atom, score
      L1  H     5    24       P1  7948  0.29
      L1  H     8    25       P1  7948  0.92
      L1  H    17    38       P1  7957  1.00
      P1  H  7989  7998       L1    17  0.03

> <Gold.Chemscore.Hbond.Weighted>
-6.0884

> <Gold.Chemscore.Metal.Weighted>
-0.0000

> <Gold.Chemscore.Lipo.Weighted>
-8.7484

> <Gold.Chemscore.Internal_Hbond.Weighted>
0.0000

> <Gold.Chemscore.DEClash.Weighted>
0.2416

> <Gold.Chemscore.DEInternal.Weighted>
1.5022

> <Gold.Chemscore.Rot.Weighted>
4.5562

> <Gold.Chemscore.Internal.Correction.Weighted>
   9.000000E+99

> <Gold.Protein.RotatedTorsions>
[ 6907 6896 6895 6894 ] final -143.98 input  -60.11 | X-H torsion
[ 7974 7965 7964 7962 ] final -136.40 input  175.53 | X-H torsion
[ 8008 7997 7996 7995 ] final   54.27 input   59.86 | X-H torsion
[ 10167 10162 10161 10158 ] final  -10.04 input  -65.29 | X-H torsion
[ 10718 10713 10712 10709 ] final  171.51 input   66.30 | X-H torsion
[ 10763 10752 10751 10750 ] final  110.28 input  -60.55 | X-H torsion
[ 11005 11000 10999 10996 ] final -167.75 input  -57.11 | X-H torsion

> <Gold.Protein.ActiveResidues>
 VAL166  LYS551  ARG553  GLY616  TRP617  ASP618  TYR619  PRO620  LYS621  CYS622 
 ASP623  PHE694  ASN695  SER759  ASP760  ASP761  ALA762  ILE779  LEU786  VAL792 
 PHE793  MET794  SER795  GLU796  ALA797  LYS798  CYS799  TRP800  GLU811  SER814 

> <Gold.Protein.RotatedAtoms>
  151.1078  133.5195  159.2606 H   0  0  0  0  0  0  0  0  0  0  0  0  # atno 6907 bound_to 6896
  151.2001  135.0438  159.8878 H   0  0  0  0  0  0  0  0  0  0  0  0  # atno 6908 bound_to 6896
  152.5448  134.0907  159.8329 H   0  0  0  0  0  0  0  0  0  0  0  0  # atno 6909 bound_to 6896
  144.8930  140.6669  143.5133 H   0  0  0  0  0  0  0  0  0  0  0  0  # atno 7974 bound_to 7965
  155.4819  140.3468  155.4341 H   0  0  0  0  0  0  0  0  0  0  0  0  # atno 8008 bound_to 7997
  156.1033  140.1441  156.9466 H   0  0  0  0  0  0  0  0  0  0  0  0  # atno 8009 bound_to 7997
  154.4708  140.0901  156.7118 H   0  0  0  0  0  0  0  0  0  0  0  0  # atno 8010 bound_to 7997
  140.7103  143.5792  150.9010 H   0  0  0  0  0  0  0  0  0  0  0  0  # atno 10167 bound_to 10162
  156.9925  131.0152  151.2853 H   0  0  0  0  0  0  0  0  0  0  0  0  # atno 10718 bound_to 10713
  153.4466  135.3753  155.2259 H   0  0  0  0  0  0  0  0  0  0  0  0  # atno 10763 bound_to 10752
  154.8755  135.3876  154.4088 H   0  0  0  0  0  0  0  0  0  0  0  0  # atno 10764 bound_to 10752
  153.4641  135.7087  153.6096 H   0  0  0  0  0  0  0  0  0  0  0  0  # atno 10765 bound_to 10752
  140.5498  134.5440  157.5119 H   0  0  0  0  0  0  0  0  0  0  0  0  # atno 11005 bound_to 11000
  145.3749  139.1650  143.4312 LP  0  0  0  0  0  0  0  0  0  0  0  0  # atno 17320 bound_to 7965
  146.3065  140.3824  142.8685 LP  0  0  0  0  0  0  0  0  0  0  0  0  # atno 17321 bound_to 7965
  139.9518  143.6263  152.3027 LP  0  0  0  0  0  0  0  0  0  0  0  0  # atno 17342 bound_to 10162
  139.6785  144.7657  151.1652 LP  0  0  0  0  0  0  0  0  0  0  0  0  # atno 17343 bound_to 10162
  157.5448  130.8143  149.8073 LP  0  0  0  0  0  0  0  0  0  0  0  0  # atno 17370 bound_to 10713
  156.0201  130.3798  150.1987 LP  0  0  0  0  0  0  0  0  0  0  0  0  # atno 17371 bound_to 10713
  139.9461  134.7699  156.0559 LP  0  0  0  0  0  0  0  0  0  0  0  0  # atno 17394 bound_to 11000
  141.1178  133.6622  156.3139 LP  0  0  0  0  0  0  0  0  0  0  0  0  # atno 17395 bound_to 11000

$$$$
