AV-unprocessed.smi:890|AV-procd|sdf|4057|dock2
  -GOLD-   22720 1543D 1   1.00000     0.00000
 Structure written by MMmdl.
 52 55  0  0  0  0  0  0  0  0  2 V2000
  143.0662  134.1297  157.1615 O   0  0  0  0  0  0  0  0  0  0  0  0
  143.9913  134.8828  157.4640 C   0  0  0  0  0  0  0  0  0  0  0  0
  144.3185  135.2534  158.7130 N   0  0  0  0  0  0  0  0  0  0  0  0
  143.6736  134.9187  159.9386 C   0  0  0  0  0  0  0  0  0  0  0  0
  142.3341  134.4611  159.9973 C   0  0  0  0  0  0  0  0  0  0  0  0
  141.7782  134.1204  161.2431 C   0  0  0  0  0  0  0  0  0  0  0  0
  142.5842  134.2393  162.3883 C   0  0  0  0  0  0  0  0  0  0  0  0
  143.8647  134.6591  162.3482 N   0  0  0  0  0  0  0  0  0  0  0  0
  144.4113  134.9871  161.1518 C   0  0  0  0  0  0  0  0  0  0  0  0
  145.7440  135.4513  161.1460 N   0  0  0  0  0  0  0  0  0  0  0  0
  145.9154  136.7391  161.8137 C   0  0  0  0  0  0  0  0  0  0  0  0
  147.2507  136.6703  162.5579 C   0  0  0  0  0  0  0  0  0  0  0  0
  147.4236  135.1797  162.8211 C   0  0  0  0  0  0  0  0  0  0  0  0
  146.8188  134.5536  161.5663 C   0  0  0  0  0  0  0  0  0  0  0  0
  144.7991  135.4585  156.5616 N   0  0  0  0  0  0  0  0  0  0  0  0
  144.7145  135.2685  155.1165 C   0  0  2  0  0  0  0  0  0  0  0  0
  143.2502  135.3749  154.6594 C   0  0  0  0  0  0  0  0  0  0  0  0
  143.1187  135.1029  153.1512 C   0  0  0  0  0  0  0  0  0  0  0  0
  143.6806  133.7755  152.7974 N   0  3  1  0  0  0  0  0  0  0  0  0
  143.4717  133.4425  151.3714 C   0  0  0  0  0  0  0  0  0  0  0  0
  144.3952  132.3638  150.8547 C   0  0  0  0  0  0  0  0  0  0  0  0
  144.6393  133.8104  150.4860 C   0  0  0  0  0  0  0  0  0  0  0  0
  145.1058  133.6583  153.1933 C   0  0  0  0  0  0  0  0  0  0  0  0
  145.2835  133.8978  154.7015 C   0  0  0  0  0  0  0  0  0  0  0  0
  145.0576  135.9364  158.7936 H   0  0  0  0  0  0  0  0  0  0  0  0
  141.7281  134.3487  159.1119 H   0  0  0  0  0  0  0  0  0  0  0  0
  140.7591  133.7708  161.3172 H   0  0  0  0  0  0  0  0  0  0  0  0
  142.1925  133.9860  163.3623 H   0  0  0  0  0  0  0  0  0  0  0  0
  145.9047  137.5586  161.0946 H   0  0  0  0  0  0  0  0  0  0  0  0
  145.1027  136.9074  162.5227 H   0  0  0  0  0  0  0  0  0  0  0  0
  148.0544  137.0250  161.9112 H   0  0  0  0  0  0  0  0  0  0  0  0
  147.2597  137.2698  163.4685 H   0  0  0  0  0  0  0  0  0  0  0  0
  148.4621  134.8899  162.9835 H   0  0  0  0  0  0  0  0  0  0  0  0
  146.8456  134.8874  163.6990 H   0  0  0  0  0  0  0  0  0  0  0  0
  146.5077  133.5225  161.7355 H   0  0  0  0  0  0  0  0  0  0  0  0
  147.5615  134.5312  160.7682 H   0  0  0  0  0  0  0  0  0  0  0  0
  145.5303  136.0666  156.9008 H   0  0  0  0  0  0  0  0  0  0  0  0
  145.2866  136.0573  154.6234 H   0  0  0  0  0  0  0  0  0  0  0  0
  142.6356  134.6609  155.2103 H   0  0  0  0  0  0  0  0  0  0  0  0
  142.8563  136.3653  154.8906 H   0  0  0  0  0  0  0  0  0  0  0  0
  142.0672  135.1430  152.8650 H   0  0  0  0  0  0  0  0  0  0  0  0
  143.6317  135.8800  152.5823 H   0  0  0  0  0  0  0  0  0  0  0  0
  142.4510  133.5204  151.0006 H   0  0  0  0  0  0  0  0  0  0  0  0
  145.0895  131.8999  151.5528 H   0  0  0  0  0  0  0  0  0  0  0  0
  144.0145  131.7086  150.0738 H   0  0  0  0  0  0  0  0  0  0  0  0
  144.4190  134.1079  149.4627 H   0  0  0  0  0  0  0  0  0  0  0  0
  145.4958  134.3061  150.9399 H   0  0  0  0  0  0  0  0  0  0  0  0
  145.4764  132.6652  152.9366 H   0  0  0  0  0  0  0  0  0  0  0  0
  145.7026  134.3750  152.6266 H   0  0  0  0  0  0  0  0  0  0  0  0
  146.3420  133.8334  154.9564 H   0  0  0  0  0  0  0  0  0  0  0  0
  144.7833  133.1034  155.2574 H   0  0  0  0  0  0  0  0  0  0  0  0
  143.1697  133.0888  153.3337 H   0  0  0  0  0  0  0  0  0  0  0  0
  1  2  2  0  0  0  0
  2  3  1  0  0  0  0
  2 15  1  0  0  0  0
  3  4  1  0  0  0  0
  3 25  1  0  0  0  0
  4  9  1  0  0  0  0
  4  5  2  0  0  0  0
  5  6  1  0  0  0  0
  5 26  1  0  0  0  0
  6  7  2  0  0  0  0
  6 27  1  0  0  0  0
  7  8  1  0  0  0  0
  7 28  1  0  0  0  0
  8  9  2  0  0  0  0
  9 10  1  0  0  0  0
 10 14  1  0  0  0  0
 10 11  1  0  0  0  0
 11 12  1  0  0  0  0
 11 29  1  0  0  0  0
 11 30  1  0  0  0  0
 12 13  1  0  0  0  0
 12 31  1  0  0  0  0
 12 32  1  0  0  0  0
 13 14  1  0  0  0  0
 13 33  1  0  0  0  0
 13 34  1  0  0  0  0
 14 35  1  0  0  0  0
 14 36  1  0  0  0  0
 15 16  1  0  0  0  0
 15 37  1  0  0  0  0
 16 24  1  0  0  0  0
 16 17  1  0  0  0  0
 16 38  1  0  0  0  0
 17 18  1  0  0  0  0
 17 39  1  0  0  0  0
 17 40  1  0  0  0  0
 18 19  1  0  0  0  0
 18 41  1  0  0  0  0
 18 42  1  0  0  0  0
 19 20  1  0  0  0  0
 19 23  1  0  0  0  0
 19 52  1  0  0  0  0
 20 22  1  0  0  0  0
 20 21  1  0  0  0  0
 20 43  1  0  0  0  0
 21 22  1  0  0  0  0
 21 44  1  0  0  0  0
 21 45  1  0  0  0  0
 22 46  1  0  0  0  0
 22 47  1  0  0  0  0
 23 24  1  0  0  0  0
 23 48  1  0  0  0  0
 23 49  1  0  0  0  0
 24 50  1  0  0  0  0
 24 51  1  0  0  0  0
M  CHG  1  19   1
M  END
> <s_m_source_file>
AV-unprocessed.smi

> <i_m_source_file_index>
890

> <i_lp_mmshare_version>
43012

> <i_f3d_flags>
0

> <s_epik_input>
W0NIMl0xW0NIMl1bQ0hdMU4oW0NIMl1bQ0gyXTIpW0NIMl1bQ0gyXVtDSF0yW05IXUMoPU8pW05IXWMzW2NIXVtjSF1bY0hdbmMzTjRbQ0gyXVtDSDJdW0NIMl1bQ0gyXTQ=

> <s_epik_cmdline>
J2VwaWtfcHl0aG9uJywgJy1waCcsICc3LjAnLCAnLXRuJywgJzgnLCAnLW1hJywgJzIwMCcsICctbWV0YWxfYmluZGluZycsICctaW1hZScsICc8aW5maWxlLm1hZT4nLCAnLW9tYWUnLCAnPG91dGZpbGUubWFlPic=

> <r_lp_tautomer_probability>
1

> <r_epik_Ionization_Penalty>
0.193768

> <r_epik_Ionization_Penalty_Charging>
0.115549

> <r_epik_Ionization_Penalty_Neutral>
0.078219

> <r_epik_State_Penalty>
0.174811

> <r_epik_Charging_Adjusted_Penalty>
0.29036

> <i_epik_Tot_Q>
1

> <i_epik_Tot_abs_Q>
1

> <r_epik_Metal_State_Penalty>
0.169761

> <b_epik_Metal_Only>
0

> <s_lp_Force_Field>
OPLS_2005

> <r_lp_Energy>
54.8622

> <b_lp_Chiralities_Consistent>
1

> <s_lp_Variant>
AV-unprocessed.smi:890-1

> <Gold.Version>
5.8.1

> <Gold.Id.Protein>
6NUR|6NUR_protein|mol2

> <Gold.PLP.Fitness>
42.3421

> <Gold.PLP.PLP>
-33.9228

> <Gold.PLP.part.hbond>
-2.0000

> <Gold.PLP.part.metal>
0.0000

> <Gold.PLP.part.buried>
-6.2251

> <Gold.PLP.part.nonpolar>
-25.2305

> <Gold.PLP.part.repulsive>
0.1502

> <Gold.PLP.ligand.clash>
0.0000

> <Gold.PLP.ligand.torsion>
0.9894

> <Gold.PLP.Chemscore.Hbond>
3.0000

> <Gold.PLP.Chemscore.CHOScore>
0.0000

> <Gold.PLP.Chemscore.Metal>
0.0000

> <Gold.Chemscore.Hbonds>
donor molecule, donor type, donor heavy atom, donor atom, acceptor molecule, acceptor atom, score
      L1  H    19    52       P1 10957  2.00
      P1  H 11000 11005       L1     1  0.93

> <Gold.PLP.Chemscore.Internal.Correction>
1.3981

> <Gold.Rescore>
     Score         DG    S(hbond)    S(metal)    S(lipo)     H(rot)  DE(clash)    DE(int)     intcor
     15.17     -18.33       1.86        0.00      85.78       1.33       0.03       3.14       ----

> <Gold.Chemscore.Fitness>
15.1652

> <Gold.Chemscore.DG>
-18.3293

> <Gold.Chemscore.ZeroCoef>
-5.4800

> <Gold.Chemscore.Hbond>
1.8612

> <Gold.Chemscore.Metal>
0.0000

> <Gold.Chemscore.Lipo>
85.7790

> <Gold.Chemscore.Internal_Hbond>
0.0000

> <Gold.Chemscore.DEClash>
0.0270

> <Gold.Chemscore.DEInternal>
3.1372

> <Gold.Chemscore.Rot>
1.3294

> <Gold.Chemscore.Internal.Correction>
   9.000000E+99

> <Gold.Chemscore.Hbonds>
donor molecule, donor type, donor heavy atom, donor atom, acceptor molecule, acceptor atom, score
      L1  H    19    52       P1 10957  0.80
      P1  H 11000 11005       L1     1  0.89

> <Gold.Chemscore.Hbond.Weighted>
-6.2164

> <Gold.Chemscore.Metal.Weighted>
-0.0000

> <Gold.Chemscore.Lipo.Weighted>
-10.0361

> <Gold.Chemscore.Internal_Hbond.Weighted>
0.0000

> <Gold.Chemscore.DEClash.Weighted>
0.0270

> <Gold.Chemscore.DEInternal.Weighted>
3.1372

> <Gold.Chemscore.Rot.Weighted>
3.4032

> <Gold.Chemscore.Internal.Correction.Weighted>
   9.000000E+99

> <Gold.Protein.RotatedTorsions>
[ 6907 6896 6895 6894 ] final  -96.83 input  -60.11 | X-H torsion
[ 7974 7965 7964 7962 ] final  167.83 input  175.53 | X-H torsion
[ 8008 7997 7996 7995 ] final  -15.78 input   59.86 | X-H torsion
[ 10167 10162 10161 10158 ] final -138.27 input  -65.29 | X-H torsion
[ 10718 10713 10712 10709 ] final   99.20 input   66.30 | X-H torsion
[ 10763 10752 10751 10750 ] final  -87.01 input  -60.55 | X-H torsion
[ 11005 11000 10999 10996 ] final  -87.93 input  -57.11 | X-H torsion

> <Gold.Protein.ActiveResidues>
 VAL166  LYS551  ARG553  GLY616  TRP617  ASP618  TYR619  PRO620  LYS621  CYS622 
 ASP623  PHE694  ASN695  SER759  ASP760  ASP761  ALA762  ILE779  LEU786  VAL792 
 PHE793  MET794  SER795  GLU796  ALA797  LYS798  CYS799  TRP800  GLU811  SER814 

> <Gold.Protein.RotatedAtoms>
  150.6999  134.1442  159.4115 H   0  0  0  0  0  0  0  0  0  0  0  0  # atno 6907 bound_to 6896
  151.9426  135.0204  160.0546 H   0  0  0  0  0  0  0  0  0  0  0  0  # atno 6908 bound_to 6896
  152.2081  133.4855  159.5131 H   0  0  0  0  0  0  0  0  0  0  0  0  # atno 6909 bound_to 6896
  144.7410  139.8818  143.6397 H   0  0  0  0  0  0  0  0  0  0  0  0  # atno 7974 bound_to 7965
  154.5104  140.2187  155.9168 H   0  0  0  0  0  0  0  0  0  0  0  0  # atno 8008 bound_to 7997
  156.1545  140.3155  155.8669 H   0  0  0  0  0  0  0  0  0  0  0  0  # atno 8009 bound_to 7997
  155.3874  140.0476  157.3032 H   0  0  0  0  0  0  0  0  0  0  0  0  # atno 8010 bound_to 7997
  139.8495  143.7217  152.2659 H   0  0  0  0  0  0  0  0  0  0  0  0  # atno 10167 bound_to 10162
  157.6881  131.0663  150.4913 H   0  0  0  0  0  0  0  0  0  0  0  0  # atno 10718 bound_to 10713
  154.6289  135.5428  153.7658 H   0  0  0  0  0  0  0  0  0  0  0  0  # atno 10763 bound_to 10752
  153.0274  135.6431  154.1331 H   0  0  0  0  0  0  0  0  0  0  0  0  # atno 10764 bound_to 10752
  154.1261  135.2917  155.3176 H   0  0  0  0  0  0  0  0  0  0  0  0  # atno 10765 bound_to 10752
  141.1609  133.7540  156.9377 H   0  0  0  0  0  0  0  0  0  0  0  0  # atno 11005 bound_to 11000
  146.1206  139.4223  143.0231 LP  0  0  0  0  0  0  0  0  0  0  0  0  # atno 17320 bound_to 7965
  145.7310  141.0042  143.1351 LP  0  0  0  0  0  0  0  0  0  0  0  0  # atno 17321 bound_to 7965
  139.7479  144.7542  151.0551 LP  0  0  0  0  0  0  0  0  0  0  0  0  # atno 17342 bound_to 10162
  140.7789  143.4894  150.9913 LP  0  0  0  0  0  0  0  0  0  0  0  0  # atno 17343 bound_to 10162
  156.5239  130.4168  149.6236 LP  0  0  0  0  0  0  0  0  0  0  0  0  # atno 17370 bound_to 10713
  156.3129  130.7239  151.2135 LP  0  0  0  0  0  0  0  0  0  0  0  0  # atno 17371 bound_to 10713
  140.1343  134.9336  157.2379 LP  0  0  0  0  0  0  0  0  0  0  0  0  # atno 17394 bound_to 11000
  140.2915  134.3235  155.7314 LP  0  0  0  0  0  0  0  0  0  0  0  0  # atno 17395 bound_to 11000

$$$$
