AV-unprocessed.smi:1605|AV-procd|sdf|6460|dock2
  -GOLD-   22720 7113D 1   1.00000     0.00000
 Structure written by MMmdl.
 50 52  0  0  0  0  0  0  0  0  1 V2000
  148.3864  141.3113  154.6099 C   0  0  0  0  0  0  0  0  0  0  0  0
  149.0849  140.1163  154.2980 O   0  0  0  0  0  0  0  0  0  0  0  0
  150.3243  139.9686  154.9793 C   0  0  0  0  0  0  0  0  0  0  0  0
  151.1080  138.7420  154.4715 C   0  0  0  0  0  0  0  0  0  0  0  0
  152.3357  138.4729  155.3599 C   0  0  0  0  0  0  0  0  0  0  0  0
  151.9816  138.2766  156.7674 N   0  0  0  0  0  0  0  0  0  0  0  0
  153.1601  137.9338  157.5685 C   0  0  0  0  0  0  0  0  0  0  0  0
  153.0941  138.3297  159.0605 C   0  0  1  0  0  0  0  0  0  0  0  0
  152.8128  137.1480  159.7858 O   0  0  0  0  0  0  0  0  0  0  0  0
  154.3717  138.9777  159.6354 C   0  0  0  0  0  0  0  0  0  0  0  0
  154.0856  140.0901  160.5246 N   0  0  0  0  0  0  0  0  0  0  0  0
  154.5246  140.2627  161.7864 C   0  0  0  0  0  0  0  0  0  0  0  0
  154.1406  141.3683  162.4184 N   0  0  0  0  0  0  0  0  0  0  0  0
  153.3633  141.9857  161.4529 C   0  0  0  0  0  0  0  0  0  0  0  0
  152.6578  143.2085  161.4868 C   0  0  0  0  0  0  0  0  0  0  0  0
  151.9201  143.6512  160.3656 C   0  0  0  0  0  0  0  0  0  0  0  0
  151.1788  144.9742  160.4449 C   0  0  0  0  0  0  0  0  0  0  0  0
  151.8815  142.8659  159.1853 C   0  0  0  0  0  0  0  0  0  0  0  0
  151.0972  143.3212  157.9674 C   0  0  0  0  0  0  0  0  0  0  0  0
  152.5800  141.6416  159.1348 C   0  0  0  0  0  0  0  0  0  0  0  0
  153.3101  141.2122  160.2569 C   0  0  0  0  0  0  0  0  0  0  0  0
  151.3104  139.4864  157.2556 C   0  0  0  0  0  0  0  0  0  0  0  0
  150.0219  139.7947  156.4761 C   0  0  0  0  0  0  0  0  0  0  0  0
  147.4384  141.3263  154.0722 H   0  0  0  0  0  0  0  0  0  0  0  0
  148.9470  142.1983  154.3158 H   0  0  0  0  0  0  0  0  0  0  0  0
  148.1656  141.3726  155.6764 H   0  0  0  0  0  0  0  0  0  0  0  0
  150.9276  140.8698  154.8542 H   0  0  0  0  0  0  0  0  0  0  0  0
  150.4600  137.8645  154.4728 H   0  0  0  0  0  0  0  0  0  0  0  0
  151.4318  138.8891  153.4415 H   0  0  0  0  0  0  0  0  0  0  0  0
  152.8445  137.5853  154.9820 H   0  0  0  0  0  0  0  0  0  0  0  0
  153.0442  139.2975  155.2664 H   0  0  0  0  0  0  0  0  0  0  0  0
  153.2856  136.8496  157.5510 H   0  0  0  0  0  0  0  0  0  0  0  0
  154.0642  138.3305  157.1038 H   0  0  0  0  0  0  0  0  0  0  0  0
  152.2508  139.0054  159.2092 H   0  0  0  0  0  0  0  0  0  0  0  0
  153.1434  137.2492  160.6651 H   0  0  0  0  0  0  0  0  0  0  0  0
  154.9694  138.2412  160.1743 H   0  0  0  0  0  0  0  0  0  0  0  0
  154.9911  139.3708  158.8308 H   0  0  0  0  0  0  0  0  0  0  0  0
  155.1610  139.5352  162.2685 H   0  0  0  0  0  0  0  0  0  0  0  0
  152.6895  143.8071  162.3852 H   0  0  0  0  0  0  0  0  0  0  0  0
  151.5963  145.6867  159.7330 H   0  0  0  0  0  0  0  0  0  0  0  0
  151.2528  145.4126  161.4406 H   0  0  0  0  0  0  0  0  0  0  0  0
  150.1211  144.8366  160.2192 H   0  0  0  0  0  0  0  0  0  0  0  0
  151.2193  142.6282  157.1342 H   0  0  0  0  0  0  0  0  0  0  0  0
  151.4373  144.3033  157.6377 H   0  0  0  0  0  0  0  0  0  0  0  0
  150.0336  143.3818  158.1999 H   0  0  0  0  0  0  0  0  0  0  0  0
  152.5590  141.0321  158.2432 H   0  0  0  0  0  0  0  0  0  0  0  0
  151.0602  139.3969  158.3085 H   0  0  0  0  0  0  0  0  0  0  0  0
  151.9879  140.3386  157.1829 H   0  0  0  0  0  0  0  0  0  0  0  0
  149.5526  140.6965  156.8702 H   0  0  0  0  0  0  0  0  0  0  0  0
  149.3075  138.9828  156.6201 H   0  0  0  0  0  0  0  0  0  0  0  0
  1  2  1  0  0  0  0
  1 24  1  0  0  0  0
  1 25  1  0  0  0  0
  1 26  1  0  0  0  0
  2  3  1  0  0  0  0
  3 23  1  0  0  0  0
  3  4  1  0  0  0  0
  3 27  1  0  0  0  0
  4  5  1  0  0  0  0
  4 28  1  0  0  0  0
  4 29  1  0  0  0  0
  5  6  1  0  0  0  0
  5 30  1  0  0  0  0
  5 31  1  0  0  0  0
  6  7  1  0  0  0  0
  6 22  1  0  0  0  0
  7  8  1  0  0  0  0
  7 32  1  0  0  0  0
  7 33  1  0  0  0  0
  8  9  1  0  0  0  0
  8 10  1  0  0  0  0
  8 34  1  0  0  0  0
  9 35  1  0  0  0  0
 10 11  1  0  0  0  0
 10 36  1  0  0  0  0
 10 37  1  0  0  0  0
 11 21  1  0  0  0  0
 11 12  1  0  0  0  0
 12 13  2  0  0  0  0
 12 38  1  0  0  0  0
 13 14  1  0  0  0  0
 14 21  2  0  0  0  0
 14 15  1  0  0  0  0
 15 16  2  0  0  0  0
 15 39  1  0  0  0  0
 16 17  1  0  0  0  0
 16 18  1  0  0  0  0
 17 40  1  0  0  0  0
 17 41  1  0  0  0  0
 17 42  1  0  0  0  0
 18 19  1  0  0  0  0
 18 20  2  0  0  0  0
 19 43  1  0  0  0  0
 19 44  1  0  0  0  0
 19 45  1  0  0  0  0
 20 21  1  0  0  0  0
 20 46  1  0  0  0  0
 22 23  1  0  0  0  0
 22 47  1  0  0  0  0
 22 48  1  0  0  0  0
 23 49  1  0  0  0  0
 23 50  1  0  0  0  0
M  END
> <s_m_source_file>
AV-unprocessed.smi

> <i_m_source_file_index>
1605

> <i_lp_mmshare_version>
43012

> <i_f3d_flags>
0

> <s_epik_input>
W0NIM11PW0NIXTFbQ0gyXVtDSDJdTihbQ0gyXVtDSDJdMSlbQ0gyXVtDQEhdKFtPSF0pW0NIMl1uKFtjSF1uMiljKGMyMylbY0hdYyhbQ0gzXSljKFtjSF0zKVtDSDNd

> <s_epik_cmdline>
J2VwaWtfcHl0aG9uJywgJy1waCcsICc3LjAnLCAnLXRuJywgJzgnLCAnLW1hJywgJzIwMCcsICctbWV0YWxfYmluZGluZycsICctaW1hZScsICc8aW5maWxlLm1hZT4nLCAnLW9tYWUnLCAnPG91dGZpbGUubWFlPic=

> <r_epik_Ionization_Penalty>
2.02119

> <r_epik_Ionization_Penalty_Charging>
0

> <r_epik_Ionization_Penalty_Neutral>
2.02119

> <r_epik_State_Penalty>
2.11303

> <r_epik_Charging_Adjusted_Penalty>
2.11303

> <i_epik_Tot_Q>
0

> <i_epik_Tot_abs_Q>
0

> <r_epik_Metal_State_Penalty>
2.04251

> <b_epik_Metal_Only>
0

> <s_lp_Force_Field>
OPLS_2005

> <r_lp_Energy>
33.5926

> <b_lp_Chiralities_Consistent>
1

> <s_lp_Variant>
AV-unprocessed.smi:1605-10

> <Gold.Version>
5.8.1

> <Gold.Id.Protein>
6NUR|6NUR_protein|mol2

> <Gold.PLP.Fitness>
47.5539

> <Gold.PLP.PLP>
-48.6885

> <Gold.PLP.part.hbond>
-1.2881

> <Gold.PLP.part.metal>
0.0000

> <Gold.PLP.part.buried>
-6.7026

> <Gold.PLP.part.nonpolar>
-42.0385

> <Gold.PLP.part.repulsive>
0.6813

> <Gold.PLP.ligand.clash>
0.0000

> <Gold.PLP.ligand.torsion>
1.5973

> <Gold.PLP.Chemscore.Hbond>
0.6500

> <Gold.PLP.Chemscore.CHOScore>
0.0000

> <Gold.PLP.Chemscore.Metal>
0.0000

> <Gold.Chemscore.Hbonds>
donor molecule, donor type, donor heavy atom, donor atom, acceptor molecule, acceptor atom, score
      P1  H  6896  6907       L1     9  0.39

> <Gold.PLP.Chemscore.Internal.Correction>
0.1101

> <Gold.Rescore>
     Score         DG    S(hbond)    S(metal)    S(lipo)     H(rot)  DE(clash)    DE(int)     intcor
     17.52     -18.92       0.95        0.00     134.64       2.14       0.01       1.39       ----

> <Gold.Chemscore.Fitness>
17.5191

> <Gold.Chemscore.DG>
-18.9160

> <Gold.Chemscore.ZeroCoef>
-5.4800

> <Gold.Chemscore.Hbond>
0.9493

> <Gold.Chemscore.Metal>
0.0000

> <Gold.Chemscore.Lipo>
134.6440

> <Gold.Chemscore.Internal_Hbond>
0.0000

> <Gold.Chemscore.DEClash>
0.0097

> <Gold.Chemscore.DEInternal>
1.3872

> <Gold.Chemscore.Rot>
2.1438

> <Gold.Chemscore.Internal.Correction>
   9.000000E+99

> <Gold.Chemscore.Hbonds>
donor molecule, donor type, donor heavy atom, donor atom, acceptor molecule, acceptor atom, score
      P1  H  6896  6907       L1     9  0.08

> <Gold.Chemscore.Hbond.Weighted>
-3.1708

> <Gold.Chemscore.Metal.Weighted>
-0.0000

> <Gold.Chemscore.Lipo.Weighted>
-15.7533

> <Gold.Chemscore.Internal_Hbond.Weighted>
0.0000

> <Gold.Chemscore.DEClash.Weighted>
0.0097

> <Gold.Chemscore.DEInternal.Weighted>
1.3872

> <Gold.Chemscore.Rot.Weighted>
5.4881

> <Gold.Chemscore.Internal.Correction.Weighted>
   9.000000E+99

> <Gold.Protein.RotatedTorsions>
[ 6907 6896 6895 6894 ] final   13.87 input  -60.11 | X-H torsion
[ 7974 7965 7964 7962 ] final  -63.60 input  175.53 | X-H torsion
[ 8008 7997 7996 7995 ] final   69.49 input   59.86 | X-H torsion
[ 10167 10162 10161 10158 ] final -114.52 input  -65.29 | X-H torsion
[ 10718 10713 10712 10709 ] final  -99.97 input   66.30 | X-H torsion
[ 10763 10752 10751 10750 ] final -131.06 input  -60.55 | X-H torsion
[ 11005 11000 10999 10996 ] final -158.26 input  -57.11 | X-H torsion

> <Gold.Protein.ActiveResidues>
 VAL166  LYS551  ARG553  GLY616  TRP617  ASP618  TYR619  PRO620  LYS621  CYS622 
 ASP623  PHE694  ASN695  SER759  ASP760  ASP761  ALA762  ILE779  LEU786  VAL792 
 PHE793  MET794  SER795  GLU796  ALA797  LYS798  CYS799  TRP800  GLU811  SER814 

> <Gold.Protein.RotatedAtoms>
  151.7932  135.0730  160.0389 H   0  0  0  0  0  0  0  0  0  0  0  0  # atno 6907 bound_to 6896
  152.3142  133.5780  159.5709 H   0  0  0  0  0  0  0  0  0  0  0  0  # atno 6908 bound_to 6896
  150.7335  134.0024  159.3684 H   0  0  0  0  0  0  0  0  0  0  0  0  # atno 6909 bound_to 6896
  145.7770  140.8782  143.0350 H   0  0  0  0  0  0  0  0  0  0  0  0  # atno 7974 bound_to 7965
  155.7244  140.3493  155.5031 H   0  0  0  0  0  0  0  0  0  0  0  0  # atno 8008 bound_to 7997
  155.9240  140.1072  157.1206 H   0  0  0  0  0  0  0  0  0  0  0  0  # atno 8009 bound_to 7997
  154.4074  140.1244  156.4702 H   0  0  0  0  0  0  0  0  0  0  0  0  # atno 8010 bound_to 7997
  140.1001  143.4621  152.1817 H   0  0  0  0  0  0  0  0  0  0  0  0  # atno 10167 bound_to 10162
  156.0149  130.5306  150.6749 H   0  0  0  0  0  0  0  0  0  0  0  0  # atno 10718 bound_to 10713
  154.8753  135.3842  154.4185 H   0  0  0  0  0  0  0  0  0  0  0  0  # atno 10763 bound_to 10752
  153.4891  135.7030  153.5899 H   0  0  0  0  0  0  0  0  0  0  0  0  # atno 10764 bound_to 10752
  153.4281  135.3885  155.2120 H   0  0  0  0  0  0  0  0  0  0  0  0  # atno 10765 bound_to 10752
  140.6555  134.4404  157.5235 H   0  0  0  0  0  0  0  0  0  0  0  0  # atno 11005 bound_to 11000
  144.6803  139.9935  143.7484 LP  0  0  0  0  0  0  0  0  0  0  0  0  # atno 17320 bound_to 7965
  146.0112  139.3172  143.0869 LP  0  0  0  0  0  0  0  0  0  0  0  0  # atno 17321 bound_to 7965
  139.5676  144.7444  151.3979 LP  0  0  0  0  0  0  0  0  0  0  0  0  # atno 17342 bound_to 10162
  140.6982  143.7696  150.7361 LP  0  0  0  0  0  0  0  0  0  0  0  0  # atno 17343 bound_to 10162
  157.4464  131.0867  151.0891 LP  0  0  0  0  0  0  0  0  0  0  0  0  # atno 17370 bound_to 10713
  157.1420  130.6147  149.5558 LP  0  0  0  0  0  0  0  0  0  0  0  0  # atno 17371 bound_to 10713
  139.9031  134.8511  156.1815 LP  0  0  0  0  0  0  0  0  0  0  0  0  # atno 17394 bound_to 11000
  141.0504  133.6891  156.1762 LP  0  0  0  0  0  0  0  0  0  0  0  0  # atno 17395 bound_to 11000

$$$$
