AV-unprocessed.smi:765|AV-procd|sdf|3650|dock2
  -GOLD-   22720 1 53D 1   1.00000     0.00000
 Structure written by MMmdl.
 39 40  0  0  0  0  0  0  0  0  1 V2000
  151.0119  142.1453  157.5249 C   0  0  0  0  0  0  0  0  0  0  0  0
  150.6918  140.6543  157.3525 C   0  0  1  0  0  0  0  0  0  0  0  0
  150.9884  140.1760  155.9197 C   0  0  0  0  0  0  0  0  0  0  0  0
  150.6818  138.6813  155.7459 C   0  0  0  0  0  0  0  0  0  0  0  0
  151.4339  137.8319  156.7868 C   0  0  0  0  0  0  0  0  0  0  0  0
  151.1461  138.2758  158.2381 C   0  0  2  0  0  0  0  0  0  0  0  0
  152.0076  137.4972  159.1477 C   0  0  0  0  0  0  0  0  0  0  0  0
  152.6822  136.8853  159.8617 N   0  0  0  0  0  0  0  0  0  0  0  0
  149.7310  138.0205  158.5199 N   0  0  0  0  0  0  0  0  0  0  0  0
  149.1421  136.8286  158.7144 C   0  0  0  0  0  0  0  0  0  0  0  0
  149.7169  135.7539  158.5404 O   0  0  0  0  0  0  0  0  0  0  0  0
  147.6903  136.8775  159.2179 C   0  0  1  0  0  0  0  0  0  0  0  0
  146.6962  136.1732  158.2720 C   0  0  0  0  0  0  0  0  0  0  0  0
  147.6191  136.3481  160.5763 N   0  0  0  0  0  0  0  0  0  0  0  0
  147.7293  135.0335  160.9833 C   0  0  0  0  0  0  0  0  0  0  0  0
  147.5405  135.0043  162.3352 C   0  0  0  0  0  0  0  0  0  0  0  0
  147.3082  136.3661  162.6734 C   0  0  0  0  0  0  0  0  0  0  0  0
  147.3494  137.1659  161.6210 N   0  0  0  0  0  0  0  0  0  0  0  0
  151.4618  139.7877  158.3726 C   0  0  0  0  0  0  0  0  0  0  0  0
  152.0696  142.3476  157.3544 H   0  0  0  0  0  0  0  0  0  0  0  0
  150.7648  142.4853  158.5308 H   0  0  0  0  0  0  0  0  0  0  0  0
  150.4391  142.7523  156.8232 H   0  0  0  0  0  0  0  0  0  0  0  0
  149.6229  140.5348  157.5341 H   0  0  0  0  0  0  0  0  0  0  0  0
  150.4027  140.7540  155.2039 H   0  0  0  0  0  0  0  0  0  0  0  0
  152.0366  140.3599  155.6797 H   0  0  0  0  0  0  0  0  0  0  0  0
  149.6074  138.5156  155.8330 H   0  0  0  0  0  0  0  0  0  0  0  0
  150.9583  138.3631  154.7404 H   0  0  0  0  0  0  0  0  0  0  0  0
  151.1771  136.7795  156.6579 H   0  0  0  0  0  0  0  0  0  0  0  0
  152.5053  137.9050  156.5935 H   0  0  0  0  0  0  0  0  0  0  0  0
  149.1621  138.8399  158.6747 H   0  0  0  0  0  0  0  0  0  0  0  0
  147.4046  137.9295  159.2652 H   0  0  0  0  0  0  0  0  0  0  0  0
  146.7090  136.6255  157.2798 H   0  0  0  0  0  0  0  0  0  0  0  0
  145.6773  136.2515  158.6523 H   0  0  0  0  0  0  0  0  0  0  0  0
  146.9239  135.1129  158.1550 H   0  0  0  0  0  0  0  0  0  0  0  0
  147.9262  134.2346  160.2838 H   0  0  0  0  0  0  0  0  0  0  0  0
  147.5599  134.1411  162.9836 H   0  0  0  0  0  0  0  0  0  0  0  0
  147.1079  136.7944  163.6444 H   0  0  0  0  0  0  0  0  0  0  0  0
  152.5330  139.9408  158.2332 H   0  0  0  0  0  0  0  0  0  0  0  0
  151.2473  140.1317  159.3849 H   0  0  0  0  0  0  0  0  0  0  0  0
  1  2  1  0  0  0  0
  1 20  1  0  0  0  0
  1 21  1  0  0  0  0
  1 22  1  0  0  0  0
  2 19  1  0  0  0  0
  2  3  1  0  0  0  0
  2 23  1  0  0  0  0
  3  4  1  0  0  0  0
  3 24  1  0  0  0  0
  3 25  1  0  0  0  0
  4  5  1  0  0  0  0
  4 26  1  0  0  0  0
  4 27  1  0  0  0  0
  5  6  1  0  0  0  0
  5 28  1  0  0  0  0
  5 29  1  0  0  0  0
  6  7  1  0  0  0  0
  6  9  1  0  0  0  0
  6 19  1  0  0  0  0
  7  8  3  0  0  0  0
  9 10  1  0  0  0  0
  9 30  1  0  0  0  0
 10 11  2  0  0  0  0
 10 12  1  0  0  0  0
 12 13  1  0  0  0  0
 12 14  1  0  0  0  0
 12 31  1  0  0  0  0
 13 32  1  0  0  0  0
 13 33  1  0  0  0  0
 13 34  1  0  0  0  0
 14 18  1  0  0  0  0
 14 15  1  0  0  0  0
 15 16  2  0  0  0  0
 15 35  1  0  0  0  0
 16 17  1  0  0  0  0
 16 36  1  0  0  0  0
 17 18  2  0  0  0  0
 17 37  1  0  0  0  0
 19 38  1  0  0  0  0
 19 39  1  0  0  0  0
M  END
> <s_m_source_file>
AV-unprocessed.smi

> <i_m_source_file_index>
765

> <i_lp_mmshare_version>
43012

> <i_f3d_flags>
0

> <s_epik_input>
W0NIM11bQ0BASF0oW0NIMl0xKVtDSDJdW0NIMl1bQ0gyXVtDQEBdMShDI04pW05IXUMoPU8pW0NASF0oW0NIM10pbjJbY0hdW2NIXVtjSF1uMg==

> <s_epik_cmdline>
J2VwaWtfcHl0aG9uJywgJy1waCcsICc3LjAnLCAnLXRuJywgJzgnLCAnLW1hJywgJzIwMCcsICctbWV0YWxfYmluZGluZycsICctaW1hZScsICc8aW5maWxlLm1hZT4nLCAnLW9tYWUnLCAnPG91dGZpbGUubWFlPic=

> <r_lp_tautomer_probability>
1

> <r_epik_Ionization_Penalty>
2.71142e-05

> <r_epik_Ionization_Penalty_Charging>
0

> <r_epik_Ionization_Penalty_Neutral>
2.71142e-05

> <r_epik_State_Penalty>
-0

> <r_epik_Charging_Adjusted_Penalty>
0

> <i_epik_Tot_Q>
0

> <i_epik_Tot_abs_Q>
0

> <r_epik_Metal_State_Penalty>
-0

> <b_epik_Metal_Only>
0

> <s_lp_Force_Field>
OPLS_2005

> <r_lp_Energy>
11.0403

> <b_lp_Chiralities_Consistent>
1

> <s_lp_Variant>
AV-unprocessed.smi:765-8

> <Gold.Version>
5.8.1

> <Gold.Id.Protein>
6NUR|6NUR_protein|mol2

> <Gold.PLP.Fitness>
42.9408

> <Gold.PLP.PLP>
-32.3977

> <Gold.PLP.part.hbond>
-4.0000

> <Gold.PLP.part.metal>
0.0000

> <Gold.PLP.part.buried>
-5.6457

> <Gold.PLP.part.nonpolar>
-23.2391

> <Gold.PLP.part.repulsive>
0.1687

> <Gold.PLP.ligand.clash>
0.0000

> <Gold.PLP.ligand.torsion>
0.3886

> <Gold.PLP.Chemscore.Hbond>
3.7360

> <Gold.PLP.Chemscore.CHOScore>
0.0000

> <Gold.PLP.Chemscore.Metal>
0.0000

> <Gold.Chemscore.Hbonds>
donor molecule, donor type, donor heavy atom, donor atom, acceptor molecule, acceptor atom, score
      P1  H  6896  6908       L1    11  1.00
      P1  H  6896  6909       L1     8  1.00
      P1  H  6931  6943       L1    18  0.91
      P1  H  6934  6947       L1    18  0.88

> <Gold.PLP.Chemscore.Internal.Correction>
0.1123

> <Gold.Rescore>
     Score         DG    S(hbond)    S(metal)    S(lipo)     H(rot)  DE(clash)    DE(int)     intcor
     18.01     -19.72       3.08        0.00      64.90       1.42       0.00       1.71       ----

> <Gold.Chemscore.Fitness>
18.0100

> <Gold.Chemscore.DG>
-19.7169

> <Gold.Chemscore.ZeroCoef>
-5.4800

> <Gold.Chemscore.Hbond>
3.0761

> <Gold.Chemscore.Metal>
0.0000

> <Gold.Chemscore.Lipo>
64.9035

> <Gold.Chemscore.Internal_Hbond>
0.0000

> <Gold.Chemscore.DEClash>
0.0000

> <Gold.Chemscore.DEInternal>
1.7069

> <Gold.Chemscore.Rot>
1.4183

> <Gold.Chemscore.Internal.Correction>
   9.000000E+99

> <Gold.Chemscore.Hbonds>
donor molecule, donor type, donor heavy atom, donor atom, acceptor molecule, acceptor atom, score
      P1  H  6896  6908       L1    11  0.94
      P1  H  6896  6909       L1     8  0.84
      P1  H  6931  6943       L1    18  0.21
      P1  H  6934  6947       L1    18  0.59

> <Gold.Chemscore.Hbond.Weighted>
-10.2741

> <Gold.Chemscore.Metal.Weighted>
-0.0000

> <Gold.Chemscore.Lipo.Weighted>
-7.5937

> <Gold.Chemscore.Internal_Hbond.Weighted>
0.0000

> <Gold.Chemscore.DEClash.Weighted>
0.0000

> <Gold.Chemscore.DEInternal.Weighted>
1.7069

> <Gold.Chemscore.Rot.Weighted>
3.6309

> <Gold.Chemscore.Internal.Correction.Weighted>
   9.000000E+99

> <Gold.Protein.RotatedTorsions>
[ 6907 6896 6895 6894 ] final  160.06 input  -60.11 | X-H torsion
[ 7974 7965 7964 7962 ] final  -55.81 input  175.53 | X-H torsion
[ 8008 7997 7996 7995 ] final   77.43 input   59.86 | X-H torsion
[ 10167 10162 10161 10158 ] final -129.81 input  -65.29 | X-H torsion
[ 10718 10713 10712 10709 ] final   92.50 input   66.30 | X-H torsion
[ 10763 10752 10751 10750 ] final   68.96 input  -60.55 | X-H torsion
[ 11005 11000 10999 10996 ] final  -70.00 input  -57.11 | X-H torsion

> <Gold.Protein.ActiveResidues>
 VAL166  LYS551  ARG553  GLY616  TRP617  ASP618  TYR619  PRO620  LYS621  CYS622 
 ASP623  PHE694  ASN695  SER759  ASP760  ASP761  ALA762  ILE779  LEU786  VAL792 
 PHE793  MET794  SER795  GLU796  ALA797  LYS798  CYS799  TRP800  GLU811  SER814 

> <Gold.Protein.RotatedAtoms>
  151.9763  133.3742  159.4089 H   0  0  0  0  0  0  0  0  0  0  0  0  # atno 6907 bound_to 6896
  150.6941  134.4086  159.5161 H   0  0  0  0  0  0  0  0  0  0  0  0  # atno 6908 bound_to 6896
  152.1798  134.8763  160.0578 H   0  0  0  0  0  0  0  0  0  0  0  0  # atno 6909 bound_to 6896
  145.8698  140.8224  142.9894 H   0  0  0  0  0  0  0  0  0  0  0  0  # atno 7974 bound_to 7965
  155.8414  140.3462  155.5634 H   0  0  0  0  0  0  0  0  0  0  0  0  # atno 8008 bound_to 7997
  155.8136  140.0902  157.1909 H   0  0  0  0  0  0  0  0  0  0  0  0  # atno 8009 bound_to 7997
  154.4005  140.1443  156.3404 H   0  0  0  0  0  0  0  0  0  0  0  0  # atno 8010 bound_to 7997
  139.9359  143.6219  152.2517 H   0  0  0  0  0  0  0  0  0  0  0  0  # atno 10167 bound_to 10162
  157.6958  131.0445  150.3891 H   0  0  0  0  0  0  0  0  0  0  0  0  # atno 10718 bound_to 10713
  153.0262  135.5228  154.7215 H   0  0  0  0  0  0  0  0  0  0  0  0  # atno 10763 bound_to 10752
  154.6269  135.2895  155.0264 H   0  0  0  0  0  0  0  0  0  0  0  0  # atno 10764 bound_to 10752
  154.1231  135.6604  153.4959 H   0  0  0  0  0  0  0  0  0  0  0  0  # atno 10765 bound_to 10752
  141.1565  133.6779  156.6686 H   0  0  0  0  0  0  0  0  0  0  0  0  # atno 11005 bound_to 11000
  144.6726  140.1222  143.7449 LP  0  0  0  0  0  0  0  0  0  0  0  0  # atno 17320 bound_to 7965
  145.9150  139.2510  143.1415 LP  0  0  0  0  0  0  0  0  0  0  0  0  # atno 17321 bound_to 7965
  139.6744  144.7659  151.1723 LP  0  0  0  0  0  0  0  0  0  0  0  0  # atno 17342 bound_to 10162
  140.7624  143.5817  150.8888 LP  0  0  0  0  0  0  0  0  0  0  0  0  # atno 17343 bound_to 10162
  156.4297  130.3969  149.6769 LP  0  0  0  0  0  0  0  0  0  0  0  0  # atno 17370 bound_to 10713
  156.3990  130.7665  151.2672 LP  0  0  0  0  0  0  0  0  0  0  0  0  # atno 17371 bound_to 10713
  140.3192  134.8022  157.4239 LP  0  0  0  0  0  0  0  0  0  0  0  0  # atno 17394 bound_to 11000
  140.1111  134.5344  155.8265 LP  0  0  0  0  0  0  0  0  0  0  0  0  # atno 17395 bound_to 11000

$$$$
