AV-unprocessed.smi:3303|AV-procd|sdf|12679|dock5
  -GOLD-   2272019 13D 1   1.00000     0.00000
 Structure written by MMmdl.
 44 45  0  0  0  0  0  0  0  0  2 V2000
  147.6106  142.2509  154.1170 C   0  0  0  0  0  0  0  0  0  0  0  0
  148.6017  141.0908  154.3083 C   0  0  2  0  0  0  0  0  0  0  0  0
  147.8988  139.7997  154.7734 C   0  0  0  0  0  0  0  0  0  0  0  0
  148.8565  138.6941  154.8125 N   0  0  0  0  0  0  0  0  0  0  0  0
  148.1705  137.4277  155.0379 C   0  0  0  0  0  0  0  0  0  0  0  0
  149.9712  138.9161  155.7462 C   0  0  2  0  0  0  0  0  0  0  0  0
  149.5753  138.8514  157.2398 C   0  0  0  0  0  0  0  0  0  0  0  0
  150.7114  140.2192  155.3614 C   0  0  0  0  0  0  0  0  0  0  0  0
  149.7867  141.4505  155.2300 C   0  0  2  0  0  0  0  0  0  0  0  0
  149.3194  141.9548  156.5436 N   0  3  0  0  0  0  0  0  0  0  0  0
  150.2490  141.7471  157.6728 C   0  0  0  0  0  0  0  0  0  0  0  0
  151.0601  143.0184  157.9561 C   0  0  0  0  0  0  0  0  0  0  0  0
  151.8004  142.9398  159.2774 C   0  0  0  0  0  0  0  0  0  0  0  0
  152.8344  141.9991  159.4712 C   0  0  0  0  0  0  0  0  0  0  0  0
  153.4807  141.9614  160.7222 C   0  0  0  0  0  0  0  0  0  0  0  0
  153.0689  142.8597  161.7254 C   0  0  0  0  0  0  0  0  0  0  0  0
  152.0259  143.7605  161.4320 C   0  0  0  0  0  0  0  0  0  0  0  0
  151.3992  143.8044  160.2362 N   0  0  0  0  0  0  0  0  0  0  0  0
  147.0894  142.4963  155.0428 H   0  0  0  0  0  0  0  0  0  0  0  0
  146.8537  141.9963  153.3744 H   0  0  0  0  0  0  0  0  0  0  0  0
  148.1202  143.1502  153.7699 H   0  0  0  0  0  0  0  0  0  0  0  0
  149.0201  140.8848  153.3212 H   0  0  0  0  0  0  0  0  0  0  0  0
  147.4212  139.9372  155.7436 H   0  0  0  0  0  0  0  0  0  0  0  0
  147.1050  139.5529  154.0670 H   0  0  0  0  0  0  0  0  0  0  0  0
  148.8827  136.6024  155.0574 H   0  0  0  0  0  0  0  0  0  0  0  0
  147.4619  137.2335  154.2320 H   0  0  0  0  0  0  0  0  0  0  0  0
  147.6160  137.4297  155.9768 H   0  0  0  0  0  0  0  0  0  0  0  0
  150.6777  138.1012  155.5827 H   0  0  0  0  0  0  0  0  0  0  0  0
  150.4261  139.1037  157.8736 H   0  0  0  0  0  0  0  0  0  0  0  0
  149.2621  137.8475  157.5267 H   0  0  0  0  0  0  0  0  0  0  0  0
  148.7645  139.5309  157.4971 H   0  0  0  0  0  0  0  0  0  0  0  0
  151.5334  140.4069  156.0513 H   0  0  0  0  0  0  0  0  0  0  0  0
  151.1898  140.0568  154.3942 H   0  0  0  0  0  0  0  0  0  0  0  0
  150.3471  142.2576  154.7555 H   0  0  0  0  0  0  0  0  0  0  0  0
  149.1743  142.9501  156.4523 H   0  0  0  0  0  0  0  0  0  0  0  0
  149.6897  141.4653  158.5648 H   0  0  0  0  0  0  0  0  0  0  0  0
  150.9238  140.9227  157.4386 H   0  0  0  0  0  0  0  0  0  0  0  0
  151.7765  143.1926  157.1521 H   0  0  0  0  0  0  0  0  0  0  0  0
  150.4005  143.8875  157.9732 H   0  0  0  0  0  0  0  0  0  0  0  0
  153.1274  141.3207  158.6835 H   0  0  0  0  0  0  0  0  0  0  0  0
  154.2771  141.2560  160.9089 H   0  0  0  0  0  0  0  0  0  0  0  0
  153.5411  142.8589  162.6966 H   0  0  0  0  0  0  0  0  0  0  0  0
  151.6851  144.4630  162.1781 H   0  0  0  0  0  0  0  0  0  0  0  0
  148.4330  141.5211  156.7593 H   0  0  0  0  0  0  0  0  0  0  0  0
  1  2  1  0  0  0  0
  1 19  1  0  0  0  0
  1 20  1  0  0  0  0
  1 21  1  0  0  0  0
  2  9  1  0  0  0  0
  2  3  1  0  0  0  0
  2 22  1  0  0  0  0
  3  4  1  0  0  0  0
  3 23  1  0  0  0  0
  3 24  1  0  0  0  0
  4  5  1  0  0  0  0
  4  6  1  0  0  0  0
  5 25  1  0  0  0  0
  5 26  1  0  0  0  0
  5 27  1  0  0  0  0
  6  7  1  0  0  0  0
  6  8  1  0  0  0  0
  6 28  1  0  0  0  0
  7 29  1  0  0  0  0
  7 30  1  0  0  0  0
  7 31  1  0  0  0  0
  8  9  1  0  0  0  0
  8 32  1  0  0  0  0
  8 33  1  0  0  0  0
  9 10  1  0  0  0  0
  9 34  1  0  0  0  0
 10 11  1  0  0  0  0
 10 35  1  0  0  0  0
 10 44  1  0  0  0  0
 11 12  1  0  0  0  0
 11 36  1  0  0  0  0
 11 37  1  0  0  0  0
 12 13  1  0  0  0  0
 12 38  1  0  0  0  0
 12 39  1  0  0  0  0
 13 18  1  0  0  0  0
 13 14  2  0  0  0  0
 14 15  1  0  0  0  0
 14 40  1  0  0  0  0
 15 16  2  0  0  0  0
 15 41  1  0  0  0  0
 16 17  1  0  0  0  0
 16 42  1  0  0  0  0
 17 18  2  0  0  0  0
 17 43  1  0  0  0  0
M  CHG  1  10   1
M  END
> <s_m_source_file>
AV-unprocessed.smi

> <i_m_source_file_index>
3303

> <i_lp_mmshare_version>
43012

> <i_f3d_flags>
0

> <s_epik_input>
W0NIM11bQ0BASF0xW0NIMl1OKFtDSDNdKVtDQEBIXShbQ0gzXSlbQ0gyXVtDQEhdMVtOSF1bQ0gyXVtDSDJdYzJbY0hdW2NIXVtjSF1bY0hdbjI=

> <s_epik_cmdline>
J2VwaWtfcHl0aG9uJywgJy1waCcsICc3LjAnLCAnLXRuJywgJzgnLCAnLW1hJywgJzIwMCcsICctbWV0YWxfYmluZGluZycsICctaW1hZScsICc8aW5maWxlLm1hZT4nLCAnLW9tYWUnLCAnPG91dGZpbGUubWFlPic=

> <r_epik_Ionization_Penalty>
1.37325

> <r_epik_Ionization_Penalty_Charging>
0.000251572

> <r_epik_Ionization_Penalty_Neutral>
1.373

> <r_epik_State_Penalty>
1.46343

> <r_epik_Charging_Adjusted_Penalty>
1.46368

> <i_epik_Tot_Q>
1

> <i_epik_Tot_abs_Q>
1

> <r_epik_Metal_State_Penalty>
1.46331

> <b_epik_Metal_Only>
0

> <s_lp_Force_Field>
OPLS_2005

> <r_lp_Energy>
24.8082

> <b_lp_Chiralities_Consistent>
1

> <s_lp_Variant>
AV-unprocessed.smi:3303-23

> <Gold.Version>
5.8.1

> <Gold.Id.Protein>
6NUR|6NUR_protein|mol2

> <Gold.PLP.Fitness>
41.6177

> <Gold.PLP.PLP>
-36.9690

> <Gold.PLP.part.hbond>
-1.0000

> <Gold.PLP.part.metal>
0.0000

> <Gold.PLP.part.buried>
-3.4890

> <Gold.PLP.part.nonpolar>
-32.2892

> <Gold.PLP.part.repulsive>
0.2271

> <Gold.PLP.ligand.clash>
0.0000

> <Gold.PLP.ligand.torsion>
0.6806

> <Gold.PLP.Chemscore.Hbond>
2.0000

> <Gold.PLP.Chemscore.CHOScore>
0.0000

> <Gold.PLP.Chemscore.Metal>
0.0000

> <Gold.Chemscore.Hbonds>
donor molecule, donor type, donor heavy atom, donor atom, acceptor molecule, acceptor atom, score
      L1  H    10    35       P1  8028  2.00

> <Gold.PLP.Chemscore.Internal.Correction>
0.0100

> <Gold.Rescore>
     Score         DG    S(hbond)    S(metal)    S(lipo)     H(rot)  DE(clash)    DE(int)     intcor
     17.88     -18.70       1.00        0.00     113.60       1.33       0.24       0.59       ----

> <Gold.Chemscore.Fitness>
17.8762

> <Gold.Chemscore.DG>
-18.7022

> <Gold.Chemscore.ZeroCoef>
-5.4800

> <Gold.Chemscore.Hbond>
0.9988

> <Gold.Chemscore.Metal>
0.0000

> <Gold.Chemscore.Lipo>
113.5955

> <Gold.Chemscore.Internal_Hbond>
0.0000

> <Gold.Chemscore.DEClash>
0.2385

> <Gold.Chemscore.DEInternal>
0.5875

> <Gold.Chemscore.Rot>
1.3298

> <Gold.Chemscore.Internal.Correction>
   9.000000E+99

> <Gold.Chemscore.Hbonds>
donor molecule, donor type, donor heavy atom, donor atom, acceptor molecule, acceptor atom, score
      L1  H    10    35       P1  8028  0.98

> <Gold.Chemscore.Hbond.Weighted>
-3.3359

> <Gold.Chemscore.Metal.Weighted>
-0.0000

> <Gold.Chemscore.Lipo.Weighted>
-13.2907

> <Gold.Chemscore.Internal_Hbond.Weighted>
0.0000

> <Gold.Chemscore.DEClash.Weighted>
0.2385

> <Gold.Chemscore.DEInternal.Weighted>
0.5875

> <Gold.Chemscore.Rot.Weighted>
3.4043

> <Gold.Chemscore.Internal.Correction.Weighted>
   9.000000E+99

> <Gold.Protein.RotatedTorsions>
[ 6907 6896 6895 6894 ] final   96.37 input  -60.11 | X-H torsion
[ 7974 7965 7964 7962 ] final -104.27 input  175.53 | X-H torsion
[ 8008 7997 7996 7995 ] final  176.28 input   59.86 | X-H torsion
[ 10167 10162 10161 10158 ] final -137.61 input  -65.29 | X-H torsion
[ 10718 10713 10712 10709 ] final   21.98 input   66.30 | X-H torsion
[ 10763 10752 10751 10750 ] final  -55.64 input  -60.55 | X-H torsion
[ 11005 11000 10999 10996 ] final  -60.89 input  -57.11 | X-H torsion

> <Gold.Protein.ActiveResidues>
 VAL166  LYS551  ARG553  GLY616  TRP617  ASP618  TYR619  PRO620  LYS621  CYS622 
 ASP623  PHE694  ASN695  SER759  ASP760  ASP761  ALA762  ILE779  LEU786  VAL792 
 PHE793  MET794  SER795  GLU796  ALA797  LYS798  CYS799  TRP800  GLU811  SER814 

> <Gold.Protein.RotatedAtoms>
  152.5435  134.0897  159.8270 H   0  0  0  0  0  0  0  0  0  0  0  0  # atno 6907 bound_to 6896
  151.0988  133.5252  159.2618 H   0  0  0  0  0  0  0  0  0  0  0  0  # atno 6908 bound_to 6896
  151.2015  135.0453  159.8928 H   0  0  0  0  0  0  0  0  0  0  0  0  # atno 6909 bound_to 6896
  145.2453  140.9219  143.3126 H   0  0  0  0  0  0  0  0  0  0  0  0  # atno 7974 bound_to 7965
  156.0781  140.1387  156.9746 H   0  0  0  0  0  0  0  0  0  0  0  0  # atno 8008 bound_to 7997
  154.4569  140.0958  156.6833 H   0  0  0  0  0  0  0  0  0  0  0  0  # atno 8009 bound_to 7997
  155.5120  140.3454  155.4392 H   0  0  0  0  0  0  0  0  0  0  0  0  # atno 8010 bound_to 7997
  139.8561  143.7137  152.2654 H   0  0  0  0  0  0  0  0  0  0  0  0  # atno 10167 bound_to 10162
  157.1460  130.6653  149.5996 H   0  0  0  0  0  0  0  0  0  0  0  0  # atno 10718 bound_to 10713
  154.1940  135.6422  153.5068 H   0  0  0  0  0  0  0  0  0  0  0  0  # atno 10763 bound_to 10752
  153.0028  135.5435  154.6385 H   0  0  0  0  0  0  0  0  0  0  0  0  # atno 10764 bound_to 10752
  154.5781  135.2923  155.0733 H   0  0  0  0  0  0  0  0  0  0  0  0  # atno 10765 bound_to 10752
  141.1304  133.6625  156.5292 H   0  0  0  0  0  0  0  0  0  0  0  0  # atno 11005 bound_to 11000
  144.9551  139.4040  143.6383 LP  0  0  0  0  0  0  0  0  0  0  0  0  # atno 17320 bound_to 7965
  146.3317  139.8578  142.8861 LP  0  0  0  0  0  0  0  0  0  0  0  0  # atno 17321 bound_to 7965
  139.7419  144.7557  151.0640 LP  0  0  0  0  0  0  0  0  0  0  0  0  # atno 17342 bound_to 10162
  140.7781  143.4963  150.9829 LP  0  0  0  0  0  0  0  0  0  0  0  0  # atno 17343 bound_to 10162
  155.9779  130.4761  150.6624 LP  0  0  0  0  0  0  0  0  0  0  0  0  # atno 17370 bound_to 10713
  157.4264  131.0843  151.1081 LP  0  0  0  0  0  0  0  0  0  0  0  0  # atno 17371 bound_to 10713
  140.4229  134.7171  157.4900 LP  0  0  0  0  0  0  0  0  0  0  0  0  # atno 17394 bound_to 11000
  140.0347  134.6355  155.9059 LP  0  0  0  0  0  0  0  0  0  0  0  0  # atno 17395 bound_to 11000

$$$$
