AV-unprocessed.smi:2671|AV-procd|sdf|10347|dock8
  -GOLD-   2272014373D 1   1.00000     0.00000
 Structure written by MMmdl.
 28 29  0  0  0  0  0  0  0  0  2 V2000
  152.9614  136.8950  159.7870 O   0  0  0  0  0  0  0  0  0  0  0  0
  153.7558  137.6916  160.2824 C   0  0  0  0  0  0  0  0  0  0  0  0
  154.6803  137.2356  161.3192 C   0  0  0  0  0  0  0  0  0  0  0  0
  155.5592  138.1200  161.8538 C   0  0  0  0  0  0  0  0  0  0  0  0
  156.5306  137.7091  162.9476 C   0  0  0  0  0  0  0  0  0  0  0  0
  157.3946  136.8041  162.4872 F   0  0  0  0  0  0  0  0  0  0  0  0
  157.2240  138.7673  163.3669 F   0  0  0  0  0  0  0  0  0  0  0  0
  155.8960  137.1835  163.9969 F   0  0  0  0  0  0  0  0  0  0  0  0
  155.5700  139.4603  161.4240 N   0  0  0  0  0  0  0  0  0  0  0  0
  154.7485  139.8376  160.5164 C   0  0  0  0  0  0  0  0  0  0  0  0
  154.7602  141.5514  159.9602 S   0  0  0  0  0  0  0  0  0  0  0  0
  153.0066  142.0301  159.9879 C   0  0  0  0  0  0  0  0  0  0  0  0
  152.8321  143.5548  159.9897 C   0  0  1  0  0  0  0  0  0  0  0  0
  151.9941  144.1039  158.8298 C   0  0  0  0  0  0  0  0  0  0  0  0
  151.2633  145.2998  159.4268 C   0  0  0  0  0  0  0  0  0  0  0  0
  151.6840  145.3009  160.8960 C   0  0  0  0  0  0  0  0  0  0  0  0
  152.1033  143.9672  161.1355 O   0  0  0  0  0  0  0  0  0  0  0  0
  153.8289  139.0040  159.9161 N   0  5  0  0  0  0  0  0  0  0  0  0
  154.6608  136.2085  161.6532 H   0  0  0  0  0  0  0  0  0  0  0  0
  152.5475  141.6098  160.8832 H   0  0  0  0  0  0  0  0  0  0  0  0
  152.4961  141.5926  159.1293 H   0  0  0  0  0  0  0  0  0  0  0  0
  153.8073  144.0451  160.0105 H   0  0  0  0  0  0  0  0  0  0  0  0
  152.6148  144.3764  157.9756 H   0  0  0  0  0  0  0  0  0  0  0  0
  151.2682  143.3640  158.4900 H   0  0  0  0  0  0  0  0  0  0  0  0
  151.5240  146.2370  158.9345 H   0  0  0  0  0  0  0  0  0  0  0  0
  150.1851  145.1620  159.3370 H   0  0  0  0  0  0  0  0  0  0  0  0
  152.5253  145.9774  161.0564 H   0  0  0  0  0  0  0  0  0  0  0  0
  150.8762  145.5953  161.5665 H   0  0  0  0  0  0  0  0  0  0  0  0
  1  2  2  0  0  0  0
  2 18  1  0  0  0  0
  2  3  1  0  0  0  0
  3 19  1  0  0  0  0
  3  4  2  0  0  0  0
  4  5  1  0  0  0  0
  4  9  1  0  0  0  0
  5  6  1  0  0  0  0
  5  7  1  0  0  0  0
  5  8  1  0  0  0  0
  9 10  2  0  0  0  0
 10 11  1  0  0  0  0
 10 18  1  0  0  0  0
 11 12  1  0  0  0  0
 12 13  1  0  0  0  0
 12 20  1  0  0  0  0
 12 21  1  0  0  0  0
 13 17  1  0  0  0  0
 13 14  1  0  0  0  0
 13 22  1  0  0  0  0
 14 15  1  0  0  0  0
 14 23  1  0  0  0  0
 14 24  1  0  0  0  0
 15 16  1  0  0  0  0
 15 25  1  0  0  0  0
 15 26  1  0  0  0  0
 16 17  1  0  0  0  0
 16 27  1  0  0  0  0
 16 28  1  0  0  0  0
M  CHG  1  18  -1
M  END
> <s_m_source_file>
AV-unprocessed.smi

> <i_m_source_file_index>
2671

> <i_lp_mmshare_version>
43012

> <i_f3d_flags>
0

> <s_epik_input>
W09IXWMxW2NIXWMoQyhGKShGKUYpbmMobjEpU1tDSDJdW0NAQEhdMltDSDJdW0NIMl1bQ0gyXU8y

> <s_epik_cmdline>
J2VwaWtfcHl0aG9uJywgJy1waCcsICc3LjAnLCAnLXRuJywgJzgnLCAnLW1hJywgJzIwMCcsICctbWV0YWxfYmluZGluZycsICctaW1hZScsICc8aW5maWxlLm1hZT4nLCAnLW9tYWUnLCAnPG91dGZpbGUubWFlPic=

> <r_lp_tautomer_probability>
1

> <r_epik_Ionization_Penalty>
0.972901

> <r_epik_Ionization_Penalty_Charging>
0.00136034

> <r_epik_Ionization_Penalty_Neutral>
0.971541

> <r_epik_State_Penalty>
0.242243

> <r_epik_Charging_Adjusted_Penalty>
0.243604

> <i_epik_Tot_Q>
-1

> <i_epik_Tot_abs_Q>
1

> <r_epik_Metal_State_Penalty>
0.0617458

> <b_epik_Metal_Only>
0

> <s_lp_Force_Field>
OPLS_2005

> <r_lp_Energy>
24.5089

> <b_lp_Chiralities_Consistent>
1

> <s_lp_Variant>
AV-unprocessed.smi:2671-2

> <Gold.Version>
5.8.1

> <Gold.Id.Protein>
6NUR|6NUR_protein|mol2

> <Gold.PLP.Fitness>
44.8991

> <Gold.PLP.PLP>
-44.9765

> <Gold.PLP.part.hbond>
-1.0000

> <Gold.PLP.part.metal>
0.0000

> <Gold.PLP.part.buried>
-4.8899

> <Gold.PLP.part.nonpolar>
-39.9856

> <Gold.PLP.part.repulsive>
0.0985

> <Gold.PLP.ligand.clash>
0.0000

> <Gold.PLP.ligand.torsion>
1.0035

> <Gold.PLP.Chemscore.Hbond>
0.6400

> <Gold.PLP.Chemscore.CHOScore>
0.0000

> <Gold.PLP.Chemscore.Metal>
0.0000

> <Gold.Chemscore.Hbonds>
donor molecule, donor type, donor heavy atom, donor atom, acceptor molecule, acceptor atom, score
      P1  H  6896  6908       L1     1  0.27

> <Gold.PLP.Chemscore.Internal.Correction>
0.0096

> <Gold.Rescore>
     Score         DG    S(hbond)    S(metal)    S(lipo)     H(rot)  DE(clash)    DE(int)     intcor
     14.56     -14.87       0.99        0.00      88.39       1.66       0.04       0.27       ----

> <Gold.Chemscore.Fitness>
14.5600

> <Gold.Chemscore.DG>
-14.8733

> <Gold.Chemscore.ZeroCoef>
-5.4800

> <Gold.Chemscore.Hbond>
0.9920

> <Gold.Chemscore.Metal>
0.0000

> <Gold.Chemscore.Lipo>
88.3948

> <Gold.Chemscore.Internal_Hbond>
0.0000

> <Gold.Chemscore.DEClash>
0.0418

> <Gold.Chemscore.DEInternal>
0.2716

> <Gold.Chemscore.Rot>
1.6649

> <Gold.Chemscore.Internal.Correction>
   9.000000E+99

> <Gold.Chemscore.Hbonds>
donor molecule, donor type, donor heavy atom, donor atom, acceptor molecule, acceptor atom, score
      P1  H  6896  6908       L1     1  0.27

> <Gold.Chemscore.Hbond.Weighted>
-3.3132

> <Gold.Chemscore.Metal.Weighted>
-0.0000

> <Gold.Chemscore.Lipo.Weighted>
-10.3422

> <Gold.Chemscore.Internal_Hbond.Weighted>
0.0000

> <Gold.Chemscore.DEClash.Weighted>
0.0418

> <Gold.Chemscore.DEInternal.Weighted>
0.2716

> <Gold.Chemscore.Rot.Weighted>
4.2620

> <Gold.Chemscore.Internal.Correction.Weighted>
   9.000000E+99

> <Gold.Protein.RotatedTorsions>
[ 6907 6896 6895 6894 ] final  -59.66 input  -60.11 | X-H torsion
[ 7974 7965 7964 7962 ] final   69.32 input  175.53 | X-H torsion
[ 8008 7997 7996 7995 ] final   -8.98 input   59.86 | X-H torsion
[ 10167 10162 10161 10158 ] final  -27.86 input  -65.29 | X-H torsion
[ 10718 10713 10712 10709 ] final  -81.96 input   66.30 | X-H torsion
[ 10763 10752 10751 10750 ] final   58.47 input  -60.55 | X-H torsion
[ 11005 11000 10999 10996 ] final  105.84 input  -57.11 | X-H torsion

> <Gold.Protein.ActiveResidues>
 VAL166  LYS551  ARG553  GLY616  TRP617  ASP618  TYR619  PRO620  LYS621  CYS622 
 ASP623  PHE694  ASN695  SER759  ASP760  ASP761  ALA762  ILE779  LEU786  VAL792 
 PHE793  MET794  SER795  GLU796  ALA797  LYS798  CYS799  TRP800  GLU811  SER814 

> <Gold.Protein.RotatedAtoms>
  150.7914  134.6940  159.6512 H   0  0  0  0  0  0  0  0  0  0  0  0  # atno 6907 bound_to 6896
  152.4020  134.6268  160.0075 H   0  0  0  0  0  0  0  0  0  0  0  0  # atno 6908 bound_to 6896
  151.6536  133.3283  159.3194 H   0  0  0  0  0  0  0  0  0  0  0  0  # atno 6909 bound_to 6896
  145.7919  139.2938  143.1205 H   0  0  0  0  0  0  0  0  0  0  0  0  # atno 7974 bound_to 7965
  154.5690  140.2367  155.8220 H   0  0  0  0  0  0  0  0  0  0  0  0  # atno 8008 bound_to 7997
  156.2091  140.3031  155.9651 H   0  0  0  0  0  0  0  0  0  0  0  0  # atno 8009 bound_to 7997
  155.2748  140.0420  157.3001 H   0  0  0  0  0  0  0  0  0  0  0  0  # atno 8010 bound_to 7997
  140.7274  143.4058  151.1188 H   0  0  0  0  0  0  0  0  0  0  0  0  # atno 10167 bound_to 10162
  156.0041  130.4619  150.4032 H   0  0  0  0  0  0  0  0  0  0  0  0  # atno 10718 bound_to 10713
  152.9871  135.5605  154.5557 H   0  0  0  0  0  0  0  0  0  0  0  0  # atno 10763 bound_to 10752
  154.4986  135.2796  155.1441 H   0  0  0  0  0  0  0  0  0  0  0  0  # atno 10764 bound_to 10752
  154.2881  135.6331  153.5427 H   0  0  0  0  0  0  0  0  0  0  0  0  # atno 10765 bound_to 10752
  139.8807  134.9349  156.5575 H   0  0  0  0  0  0  0  0  0  0  0  0  # atno 11005 bound_to 11000
  145.9968  140.8555  143.0038 LP  0  0  0  0  0  0  0  0  0  0  0  0  # atno 17320 bound_to 7965
  144.6780  140.2295  143.7357 LP  0  0  0  0  0  0  0  0  0  0  0  0  # atno 17321 bound_to 7965
  139.7684  143.8531  152.3115 LP  0  0  0  0  0  0  0  0  0  0  0  0  # atno 17342 bound_to 10162
  139.8441  144.7196  150.9295 LP  0  0  0  0  0  0  0  0  0  0  0  0  # atno 17343 bound_to 10162
  157.2099  131.0458  151.2605 LP  0  0  0  0  0  0  0  0  0  0  0  0  # atno 17370 bound_to 10713
  157.3898  130.7276  149.6689 LP  0  0  0  0  0  0  0  0  0  0  0  0  # atno 17371 bound_to 10713
  140.8194  133.8366  155.8881 LP  0  0  0  0  0  0  0  0  0  0  0  0  # atno 17394 bound_to 11000
  140.9433  134.1873  157.4782 LP  0  0  0  0  0  0  0  0  0  0  0  0  # atno 17395 bound_to 11000

$$$$
