#       Name:                AV-unprocessed.smi:148
#       Creating user name   scv26
#       Creation time:       Thu Mar 26 18:43:38 2020


#       File generated by GOLD software.
#

@<TRIPOS>MOLECULE
AV-unprocessed.smi:148
    73    77     1
SMALL
NO_CHARGES


@<TRIPOS>ATOM
      1 ****        -2.8448  -0.9907  -3.0011 O.3            1 S1                 0.0000
      2 ****        -2.4955   0.2485  -2.4186 C.3            1 S1                 0.0000
      3 ****        -1.5352   1.0550  -3.3329 C.3            1 S1                 0.0000
      4 ****        -0.1702   0.3356  -3.5110 C.3            1 S1                 0.0000
      5 ****         0.4109  -0.1296  -2.2640 N.pl3          1 S1                 0.0000
      6 ****         0.5571  -1.4364  -1.8580 C.2            1 S1                 0.0000
      7 ****         1.1116  -1.5944  -0.6874 N.2            1 S1                 0.0000
      8 ****         1.3673  -0.2986  -0.2537 C.ar           1 S1                 0.0000
      9 ****         1.9375   0.2668   0.9231 C.ar           1 S1                 0.0000
     10 ****         2.3992  -0.4380   1.9828 N.3            1 S1                 0.0000
     11 ****         3.7908  -0.8213   1.7379 C.3            1 S1                 0.0000
     12 ****         4.4497  -1.4024   2.9957 C.3            1 S1                 0.0000
     13 ****         3.6185  -2.5667   3.5428 C.3            1 S1                 0.0000
     14 ****         2.1836  -2.0945   3.8071 C.3            1 S1                 0.0000
     15 ****         1.5331  -1.5004   2.5301 C.3            1 S1                 0.0000
     16 ****         0.0501  -1.0549   2.7495 C.3            1 S1                 0.0000
     17 ****        -0.9369  -2.2154   2.9796 C.3            1 S1                 0.0000
     18 ****        -2.0667  -1.6618   3.8632 C.3            1 S1                 0.0000
     19 ****        -1.7478  -0.1814   4.0901 C.3            1 S1                 0.0000
     20 ****        -0.2335  -0.0838   3.9086 C.3            1 S1                 0.0000
     21 ****         0.1523   1.2428   3.6177 O.3            1 S1                 0.0000
     22 ****         2.0522   1.6166   0.9869 N.ar           1 S1                 0.0000
     23 ****         1.6136   2.3745  -0.0226 C.ar           1 S1                 0.0000
     24 ****         1.0462   1.9920  -1.1685 N.ar           1 S1                 0.0000
     25 ****         0.9443   0.6341  -1.2417 C.ar           1 S1                 0.0000
     26 ****        -2.1773   1.4339  -4.7036 C.3            1 S1                 0.0000
     27 ****        -3.4358   2.2906  -4.6057 C.3            1 S1                 0.0000
     28 ****        -2.8917   3.7132  -4.4743 C.3            1 S1                 0.0000
     29 ****        -1.5890   3.6854  -5.0478 O.3            1 S1                 0.0000
     30 ****        -1.3280   2.3852  -5.5590 C.3            1 S1                 0.0000
     31 ****        -3.4295  -1.4441  -2.4128 H              1 S1                 0.0000
     32 ****        -3.4061   0.8027  -2.2013 H              1 S1                 0.0000
     33 ****        -2.0463   0.0589  -1.4438 H              1 S1                 0.0000
     34 ****        -1.3284   1.9862  -2.8038 H              1 S1                 0.0000
     35 ****        -0.2833  -0.5205  -4.1774 H              1 S1                 0.0000
     36 ****         0.5644   0.9926  -3.9732 H              1 S1                 0.0000
     37 ****         0.2311  -2.2736  -2.4580 H              1 S1                 0.0000
     38 ****         3.8220  -1.5576   0.9331 H              1 S1                 0.0000
     39 ****         4.3660   0.0419   1.3986 H              1 S1                 0.0000
     40 ****         5.4619  -1.7369   2.7674 H              1 S1                 0.0000
     41 ****         4.5413  -0.6249   3.7554 H              1 S1                 0.0000
     42 ****         3.6136  -3.3904   2.8280 H              1 S1                 0.0000
     43 ****         4.0654  -2.9485   4.4611 H              1 S1                 0.0000
     44 ****         1.6034  -2.9306   4.1937 H              1 S1                 0.0000
     45 ****         2.2158  -1.3478   4.6001 H              1 S1                 0.0000
     46 ****         1.5188  -2.3009   1.7905 H              1 S1                 0.0000
     47 ****        -0.3180  -0.5726   1.8437 H              1 S1                 0.0000
     48 ****        -1.3206  -2.5889   2.0294 H              1 S1                 0.0000
     49 ****        -0.4702  -3.0616   3.4814 H              1 S1                 0.0000
     50 ****        -3.0481  -1.7952   3.4071 H              1 S1                 0.0000
     51 ****        -2.0765  -2.1897   4.8176 H              1 S1                 0.0000
     52 ****        -2.2547   0.4156   3.3300 H              1 S1                 0.0000
     53 ****        -2.0788   0.1757   5.0658 H              1 S1                 0.0000
     54 ****         0.2488  -0.4086   4.8294 H              1 S1                 0.0000
     55 ****         1.0821   1.2545   3.4461 H              1 S1                 0.0000
     56 ****         1.7325   3.4400   0.1071 H              1 S1                 0.0000
     57 ****        -2.3847   0.5185  -5.2595 H              1 S1                 0.0000
     58 ****        -3.9947   2.2081  -5.5393 H              1 S1                 0.0000
     59 ****        -4.1259   2.0261  -3.8076 H              1 S1                 0.0000
     60 ****        -3.5292   4.4414  -4.9766 H              1 S1                 0.0000
     61 ****        -2.8059   4.0028  -3.4264 H              1 S1                 0.0000
     62 ****        -0.2621   2.1688  -5.5755 H              1 S1                 0.0000
     63 ****        -1.6697   2.3543  -6.5950 H              1 S1                 0.0000
     64 ****        -2.0213  -1.5389  -3.1473 LP             1 S1                 0.0000
     65 ****        -3.3014  -0.8350  -3.8771 LP             1 S1                 0.0000
     66 ****         1.3077  -2.4516  -0.2112 LP             1 S1                 0.0000
     67 ****         2.3686   0.1845   2.7648 LP             1 S1                 0.0000
     68 ****        -0.0540   1.8329   4.3983 LP             1 S1                 0.0000
     69 ****        -0.3433   1.5693   2.8129 LP             1 S1                 0.0000
     70 ****         2.4655   2.0453   1.7903 LP             1 S1                 0.0000
     71 ****         0.7357   2.6204  -1.8817 LP             1 S1                 0.0000
     72 ****        -0.9112   3.9115  -4.3482 LP             1 S1                 0.0000
     73 ****        -1.5368   4.3530  -5.7905 LP             1 S1                 0.0000
@<TRIPOS>BOND
    1    1    2 1     
    2    1   31 1     
    3    2    3 1     
    4    2   32 1     
    5    2   33 1     
    6    3    4 1     
    7    3   26 1     
    8    3   34 1     
    9    4    5 1     
   10    4   35 1     
   11    4   36 1     
   12    5   25 1     
   13    5    6 1     
   14    6    7 2     
   15    6   37 1     
   16    7    8 1     
   17    8   25 ar    
   18    8    9 ar    
   19    9   10 1     
   20    9   22 ar    
   21   10   15 1     
   22   10   11 1     
   23   11   12 1     
   24   11   38 1     
   25   11   39 1     
   26   12   13 1     
   27   12   40 1     
   28   12   41 1     
   29   13   14 1     
   30   13   42 1     
   31   13   43 1     
   32   14   15 1     
   33   14   44 1     
   34   14   45 1     
   35   15   16 1     
   36   15   46 1     
   37   16   20 1     
   38   16   17 1     
   39   16   47 1     
   40   17   18 1     
   41   17   48 1     
   42   17   49 1     
   43   18   19 1     
   44   18   50 1     
   45   18   51 1     
   46   19   20 1     
   47   19   52 1     
   48   19   53 1     
   49   20   21 1     
   50   20   54 1     
   51   21   55 1     
   52   22   23 ar    
   53   23   24 ar    
   54   23   56 1     
   55   24   25 ar    
   56   26   30 1     
   57   26   27 1     
   58   26   57 1     
   59   27   28 1     
   60   27   58 1     
   61   27   59 1     
   62   28   29 1     
   63   28   60 1     
   64   28   61 1     
   65   29   30 1     
   66   30   62 1     
   67   30   63 1     
   68    1   64 1     
   69    1   65 1     
   70    7   66 1     
   71   10   67 1     
   72   21   68 1     
   73   21   69 1     
   74   22   70 1     
   75   24   71 1     
   76   29   72 1     
   77   29   73 1     
@<TRIPOS>SUBSTRUCTURE
      1 S1             1
@<TRIPOS>SET
LONE_PAIRS      STATIC     ATOMS    <user>   **** ""
10 64 65 66 67 68 69 70 71 72 73
DONOR_HYDROGENS      STATIC     ATOMS    <user>   **** ""
2 31 55
ATOM$BLUE        STATIC     ATOMS    COLORGROUP SYSTEM
10 64 65 66 67 68 69 70 71 72 73
ATOM$RED        STATIC     ATOMS    COLORGROUP SYSTEM
2 31 55
