#       Name:                AV-unprocessed.smi:2510
#       Creating user name   scv26
#       Creation time:       Fri Mar 27 13:50:22 2020


#       File generated by GOLD software.
#

@<TRIPOS>MOLECULE
AV-unprocessed.smi:2510
    53    54     1
SMALL
NO_CHARGES


@<TRIPOS>ATOM
      1 ****         0.2966  -0.4911   1.7787 C.3            1 S1                 0.0000
      2 ****        -0.5956  -1.0725   0.6673 C.3            1 S1                 0.0000
      3 ****        -1.5252  -0.0671  -0.0723 C.3            1 S1                 0.0000
      4 ****        -2.2971   0.7825   0.9559 C.3            1 S1                 0.0000
      5 ****        -3.2623  -0.0150   1.8473 C.3            1 S1                 0.0000
      6 ****        -0.9155   0.7323  -1.2595 C.3            1 S1                 0.0000
      7 ****         0.5331   0.9030  -1.2312 N.am           1 S1                 0.0000
      8 ****         1.1666   2.0376  -0.8970 C.2            1 S1                 0.0000
      9 ****         0.5819   3.0631  -0.5482 O.2            1 S1                 0.0000
     10 ****         2.6946   2.0151  -0.9759 C.3            1 S1                 0.0000
     11 ****         3.2664   1.1449   0.1117 C.2            1 S1                 0.0000
     12 ****         3.5633   1.5061   1.4594 C.2            1 S1                 0.0000
     13 ****         4.0392   0.3551   2.0212 C.2            1 S1                 0.0000
     14 ****         4.5155   0.0537   3.4011 C.3            1 S1                 0.0000
     15 ****         4.0147  -0.5963   1.0279 N.pl3          1 S1                 0.0000
     16 ****         3.5481  -0.1262  -0.1434 N.2            1 S1                 0.0000
     17 ****        -1.3422  -0.3825  -2.2209 C.3            1 S1                 0.0000
     18 ****        -1.7426  -0.0096  -3.6424 C.3            1 S1                 0.0000
     19 ****        -2.4221  -0.6927  -1.1750 C.3            1 S1                 0.0000
     20 ****        -2.6778  -2.0740  -0.9652 O.3            1 S1                 0.0000
     21 ****        -3.5173  -2.6446  -1.9532 C.3            1 S1                 0.0000
     22 ****         4.3101  -1.5565   1.1337 H              1 S1                 0.0000
     23 ****         1.0326  -1.2269   2.1026 H              1 S1                 0.0000
     24 ****        -0.2843  -0.2127   2.6574 H              1 S1                 0.0000
     25 ****         0.8393   0.3913   1.4494 H              1 S1                 0.0000
     26 ****         0.0568  -1.5712  -0.0495 H              1 S1                 0.0000
     27 ****        -1.1858  -1.8784   1.1038 H              1 S1                 0.0000
     28 ****        -1.6137   1.3608   1.5770 H              1 S1                 0.0000
     29 ****        -2.8866   1.5354   0.4318 H              1 S1                 0.0000
     30 ****        -3.8222   0.6545   2.5002 H              1 S1                 0.0000
     31 ****        -2.7349  -0.7238   2.4850 H              1 S1                 0.0000
     32 ****        -3.9842  -0.5731   1.2508 H              1 S1                 0.0000
     33 ****        -1.4652   1.6545  -1.4654 H              1 S1                 0.0000
     34 ****         1.0943   0.1051  -1.4936 H              1 S1                 0.0000
     35 ****         2.9981   1.6599  -1.9616 H              1 S1                 0.0000
     36 ****         3.0764   3.0326  -0.8835 H              1 S1                 0.0000
     37 ****         3.4356   2.4643   1.9409 H              1 S1                 0.0000
     38 ****         4.3915   0.9182   4.0537 H              1 S1                 0.0000
     39 ****         5.5717  -0.2156   3.3958 H              1 S1                 0.0000
     40 ****         3.9550  -0.7761   3.8320 H              1 S1                 0.0000
     41 ****        -0.5991  -1.1823  -2.2273 H              1 S1                 0.0000
     42 ****        -2.5436   0.7300  -3.6500 H              1 S1                 0.0000
     43 ****        -2.0899  -0.8781  -4.2011 H              1 S1                 0.0000
     44 ****        -0.8993   0.4141  -4.1881 H              1 S1                 0.0000
     45 ****        -3.3359  -0.1144  -1.3335 H              1 S1                 0.0000
     46 ****        -3.7095  -3.6892  -1.7083 H              1 S1                 0.0000
     47 ****        -3.0509  -2.6148  -2.9374 H              1 S1                 0.0000
     48 ****        -4.4772  -2.1289  -2.0022 H              1 S1                 0.0000
     49 ****        -0.4170   3.0784  -0.5030 LP             1 S1                 0.0000
     50 ****         1.1057   3.8809  -0.3100 LP             1 S1                 0.0000
     51 ****         3.4390  -0.6203  -1.0059 LP             1 S1                 0.0000
     52 ****        -3.1170  -2.1837  -0.0735 LP             1 S1                 0.0000
     53 ****        -1.8053  -2.5626  -0.9693 LP             1 S1                 0.0000
@<TRIPOS>BOND
    1    1    2 1     
    2    1   23 1     
    3    1   24 1     
    4    1   25 1     
    5    2    3 1     
    6    2   26 1     
    7    2   27 1     
    8    3   19 1     
    9    3    4 1     
   10    3    6 1     
   11    4    5 1     
   12    4   28 1     
   13    4   29 1     
   14    5   30 1     
   15    5   31 1     
   16    5   32 1     
   17    6    7 1     
   18    6   17 1     
   19    6   33 1     
   20    7    8 am    
   21    7   34 1     
   22    8    9 2     
   23    8   10 1     
   24   10   11 1     
   25   10   35 1     
   26   10   36 1     
   27   11   16 2     
   28   11   12 1     
   29   12   13 2     
   30   12   37 1     
   31   13   14 1     
   32   13   15 1     
   33   14   38 1     
   34   14   39 1     
   35   14   40 1     
   36   15   22 1     
   37   15   16 1     
   38   17   18 1     
   39   17   19 1     
   40   17   41 1     
   41   18   42 1     
   42   18   43 1     
   43   18   44 1     
   44   19   20 1     
   45   19   45 1     
   46   20   21 1     
   47   21   46 1     
   48   21   47 1     
   49   21   48 1     
   50    9   49 1     
   51    9   50 1     
   52   16   51 1     
   53   20   52 1     
   54   20   53 1     
@<TRIPOS>SUBSTRUCTURE
      1 S1             1
@<TRIPOS>SET
LONE_PAIRS      STATIC     ATOMS    <user>   **** ""
5 49 50 51 52 53
DONOR_HYDROGENS      STATIC     ATOMS    <user>   **** ""
2 34 22
ATOM$BLUE        STATIC     ATOMS    COLORGROUP SYSTEM
5 49 50 51 52 53
ATOM$RED        STATIC     ATOMS    COLORGROUP SYSTEM
2 34 22
