AV-unprocessed.smi:2753|AV-procd|sdf|10609|dock7
  -GOLD-   2272015 63D 1   1.00000     0.00000
 Structure written by MMmdl.
 28 29  0  0  0  0  0  0  0  0  2 V2000
  150.5850  144.1378  158.8958 F   0  0  0  0  0  0  0  0  0  0  0  0
  151.6511  143.5073  158.4051 C   0  0  0  0  0  0  0  0  0  0  0  0
  152.3351  144.3842  157.6694 F   0  0  0  0  0  0  0  0  0  0  0  0
  152.4222  143.1559  159.4334 F   0  0  0  0  0  0  0  0  0  0  0  0
  151.2425  142.3049  157.6050 C   0  0  0  0  0  0  0  0  0  0  0  0
  151.4989  140.9775  157.8669 C   0  0  0  0  0  0  0  0  0  0  0  0
  150.9085  140.2740  156.8322 N   0  0  0  0  0  0  0  0  0  0  0  0
  150.3350  141.1590  156.0078 C   0  0  0  0  0  0  0  0  0  0  0  0
  149.6010  140.7479  154.7687 C   0  0  2  0  0  0  0  0  0  0  0  0
  148.1131  141.1456  154.8206 C   0  0  0  0  0  0  0  0  0  0  0  0
  147.3888  140.6934  153.5433 C   0  0  0  0  0  0  0  0  0  0  0  0
  147.5906  139.1883  153.3001 C   0  0  0  0  0  0  0  0  0  0  0  0
  149.0310  138.8554  153.2508 N   0  3  0  0  0  0  0  0  0  0  0  0
  149.7563  139.2401  154.4817 C   0  0  0  0  0  0  0  0  0  0  0  0
  150.5019  142.4114  156.4238 N   0  0  0  0  0  0  0  0  0  0  0  0
  150.9121  139.2700  156.7202 H   0  0  0  0  0  0  0  0  0  0  0  0
  152.0329  140.4965  158.6730 H   0  0  0  0  0  0  0  0  0  0  0  0
  150.0530  141.2875  153.9342 H   0  0  0  0  0  0  0  0  0  0  0  0
  147.6354  140.6885  155.6885 H   0  0  0  0  0  0  0  0  0  0  0  0
  148.0137  142.2247  154.9426 H   0  0  0  0  0  0  0  0  0  0  0  0
  146.3248  140.9199  153.6178 H   0  0  0  0  0  0  0  0  0  0  0  0
  147.7661  141.2573  152.6892 H   0  0  0  0  0  0  0  0  0  0  0  0
  147.1142  138.6077  154.0913 H   0  0  0  0  0  0  0  0  0  0  0  0
  147.1239  138.8904  152.3610 H   0  0  0  0  0  0  0  0  0  0  0  0
  149.1329  137.8606  153.1080 H   0  0  0  0  0  0  0  0  0  0  0  0
  150.8092  138.9826  154.3635 H   0  0  0  0  0  0  0  0  0  0  0  0
  149.3757  138.6488  155.3159 H   0  0  0  0  0  0  0  0  0  0  0  0
  149.4460  139.3404  152.4681 H   0  0  0  0  0  0  0  0  0  0  0  0
  1  2  1  0  0  0  0
  2  3  1  0  0  0  0
  2  4  1  0  0  0  0
  2  5  1  0  0  0  0
  5 15  1  0  0  0  0
  5  6  2  0  0  0  0
  6  7  1  0  0  0  0
  6 17  1  0  0  0  0
  7 16  1  0  0  0  0
  7  8  1  0  0  0  0
  8  9  1  0  0  0  0
  8 15  2  0  0  0  0
  9 14  1  0  0  0  0
  9 10  1  0  0  0  0
  9 18  1  0  0  0  0
 10 11  1  0  0  0  0
 10 19  1  0  0  0  0
 10 20  1  0  0  0  0
 11 12  1  0  0  0  0
 11 21  1  0  0  0  0
 11 22  1  0  0  0  0
 12 13  1  0  0  0  0
 12 23  1  0  0  0  0
 12 24  1  0  0  0  0
 13 14  1  0  0  0  0
 13 25  1  0  0  0  0
 13 28  1  0  0  0  0
 14 26  1  0  0  0  0
 14 27  1  0  0  0  0
M  CHG  1  13   1
M  END
> <s_m_source_file>
AV-unprocessed.smi

> <i_m_source_file_index>
2753

> <i_lp_mmshare_version>
43012

> <i_f3d_flags>
0

> <s_epik_input>
RkMoRikoRiljMVtjSF1bbkhdYyhuMSlbQ0BASF0yW0NIMl1bQ0gyXVtDSDJdW05IXVtDSDJdMg==

> <s_epik_cmdline>
J2VwaWtfcHl0aG9uJywgJy1waCcsICc3LjAnLCAnLXRuJywgJzgnLCAnLW1hJywgJzIwMCcsICctbWV0YWxfYmluZGluZycsICctaW1hZScsICc8aW5maWxlLm1hZT4nLCAnLW9tYWUnLCAnPG91dGZpbGUubWFlPic=

> <r_lp_tautomer_probability>
0.5

> <r_epik_Ionization_Penalty>
0.00052307

> <r_epik_Ionization_Penalty_Charging>
0.000431517

> <r_epik_Ionization_Penalty_Neutral>
9.15529e-05

> <r_epik_State_Penalty>
0.103148

> <r_epik_Charging_Adjusted_Penalty>
0.103579

> <i_epik_Tot_Q>
1

> <i_epik_Tot_abs_Q>
1

> <r_epik_Metal_State_Penalty>
0.166025

> <b_epik_Metal_Only>
0

> <s_lp_Force_Field>
OPLS_2005

> <r_lp_Energy>
16.8068

> <b_lp_Chiralities_Consistent>
1

> <s_lp_Variant>
AV-unprocessed.smi:2753-1

> <Gold.Version>
5.8.1

> <Gold.Id.Protein>
6NUR|6NUR_protein|mol2

> <Gold.PLP.Fitness>
41.6644

> <Gold.PLP.PLP>
-33.3448

> <Gold.PLP.part.hbond>
-1.7768

> <Gold.PLP.part.metal>
0.0000

> <Gold.PLP.part.buried>
-3.9090

> <Gold.PLP.part.nonpolar>
-29.8864

> <Gold.PLP.part.repulsive>
1.6112

> <Gold.PLP.ligand.clash>
0.0000

> <Gold.PLP.ligand.torsion>
0.1226

> <Gold.PLP.Chemscore.Hbond>
2.8458

> <Gold.PLP.Chemscore.CHOScore>
0.0000

> <Gold.PLP.Chemscore.Metal>
0.0000

> <Gold.Chemscore.Hbonds>
donor molecule, donor type, donor heavy atom, donor atom, acceptor molecule, acceptor atom, score
      L1  H    13    25       P1  7948  1.95
      L1  H    13    28       P1  7957  0.89

> <Gold.PLP.Chemscore.Internal.Correction>
0.0276

> <Gold.Rescore>
     Score         DG    S(hbond)    S(metal)    S(lipo)     H(rot)  DE(clash)    DE(int)     intcor
     15.14     -15.21       1.97        0.00      48.91       1.00       0.04       0.03       ----

> <Gold.Chemscore.Fitness>
15.1431

> <Gold.Chemscore.DG>
-15.2060

> <Gold.Chemscore.ZeroCoef>
-5.4800

> <Gold.Chemscore.Hbond>
1.9652

> <Gold.Chemscore.Metal>
0.0000

> <Gold.Chemscore.Lipo>
48.9068

> <Gold.Chemscore.Internal_Hbond>
0.0000

> <Gold.Chemscore.DEClash>
0.0354

> <Gold.Chemscore.DEInternal>
0.0275

> <Gold.Chemscore.Rot>
1.0000

> <Gold.Chemscore.Internal.Correction>
   9.000000E+99

> <Gold.Chemscore.Hbonds>
donor molecule, donor type, donor heavy atom, donor atom, acceptor molecule, acceptor atom, score
      L1  H    13    25       P1  7948  0.86
      L1  H    13    28       P1  7957  0.85

> <Gold.Chemscore.Hbond.Weighted>
-6.5639

> <Gold.Chemscore.Metal.Weighted>
-0.0000

> <Gold.Chemscore.Lipo.Weighted>
-5.7221

> <Gold.Chemscore.Internal_Hbond.Weighted>
0.0000

> <Gold.Chemscore.DEClash.Weighted>
0.0354

> <Gold.Chemscore.DEInternal.Weighted>
0.0275

> <Gold.Chemscore.Rot.Weighted>
2.5600

> <Gold.Chemscore.Internal.Correction.Weighted>
   9.000000E+99

> <Gold.Protein.RotatedTorsions>
[ 6907 6896 6895 6894 ] final -137.33 input  -60.11 | X-H torsion
[ 7974 7965 7964 7962 ] final -116.68 input  175.53 | X-H torsion
[ 8008 7997 7996 7995 ] final  -75.93 input   59.86 | X-H torsion
[ 10167 10162 10161 10158 ] final  108.76 input  -65.29 | X-H torsion
[ 10718 10713 10712 10709 ] final  -11.41 input   66.30 | X-H torsion
[ 10763 10752 10751 10750 ] final  -51.66 input  -60.55 | X-H torsion
[ 11005 11000 10999 10996 ] final  133.75 input  -57.11 | X-H torsion

> <Gold.Protein.ActiveResidues>
 VAL166  LYS551  ARG553  GLY616  TRP617  ASP618  TYR619  PRO620  LYS621  CYS622 
 ASP623  PHE694  ASN695  SER759  ASP760  ASP761  ALA762  ILE779  LEU786  VAL792 
 PHE793  MET794  SER795  GLU796  ALA797  LYS798  CYS799  TRP800  GLU811  SER814 

> <Gold.Protein.RotatedAtoms>
  151.0211  133.5876  159.2670 H   0  0  0  0  0  0  0  0  0  0  0  0  # atno 6907 bound_to 6896
  151.2992  135.0763  159.9242 H   0  0  0  0  0  0  0  0  0  0  0  0  # atno 6908 bound_to 6896
  152.5323  133.9896  159.7898 H   0  0  0  0  0  0  0  0  0  0  0  0  # atno 6909 bound_to 6896
  145.0940  140.8508  143.3966 H   0  0  0  0  0  0  0  0  0  0  0  0  # atno 7974 bound_to 7965
  154.5460  140.0735  156.8589 H   0  0  0  0  0  0  0  0  0  0  0  0  # atno 8008 bound_to 7997
  155.3086  140.3389  155.4226 H   0  0  0  0  0  0  0  0  0  0  0  0  # atno 8009 bound_to 7997
  156.1918  140.1689  156.8062 H   0  0  0  0  0  0  0  0  0  0  0  0  # atno 8010 bound_to 7997
  139.6820  144.7117  151.1499 H   0  0  0  0  0  0  0  0  0  0  0  0  # atno 10167 bound_to 10162
  156.6595  130.4978  149.6035 H   0  0  0  0  0  0  0  0  0  0  0  0  # atno 10718 bound_to 10713
  154.1302  135.6521  153.4920 H   0  0  0  0  0  0  0  0  0  0  0  0  # atno 10763 bound_to 10752
  153.0197  135.5291  154.7008 H   0  0  0  0  0  0  0  0  0  0  0  0  # atno 10764 bound_to 10752
  154.6241  135.2968  155.0263 H   0  0  0  0  0  0  0  0  0  0  0  0  # atno 10765 bound_to 10752
  139.9871  134.9528  156.9769 H   0  0  0  0  0  0  0  0  0  0  0  0  # atno 11005 bound_to 11000
  145.1033  139.2807  143.5675 LP  0  0  0  0  0  0  0  0  0  0  0  0  # atno 17320 bound_to 7965
  146.3531  140.0607  142.8629 LP  0  0  0  0  0  0  0  0  0  0  0  0  # atno 17321 bound_to 7965
  140.7655  143.5685  150.9021 LP  0  0  0  0  0  0  0  0  0  0  0  0  # atno 17342 bound_to 10162
  139.9358  143.6440  152.3066 LP  0  0  0  0  0  0  0  0  0  0  0  0  # atno 17343 bound_to 10162
  156.2022  130.6627  151.1180 LP  0  0  0  0  0  0  0  0  0  0  0  0  # atno 17370 bound_to 10713
  157.7114  131.0732  150.6485 LP  0  0  0  0  0  0  0  0  0  0  0  0  # atno 17371 bound_to 10713
  140.4981  134.1125  155.7245 LP  0  0  0  0  0  0  0  0  0  0  0  0  # atno 17394 bound_to 11000
  141.1534  133.8927  157.2040 LP  0  0  0  0  0  0  0  0  0  0  0  0  # atno 17395 bound_to 11000

$$$$
