AV-unprocessed.smi:157|AV-procd|sdf|1296|dock3
  -GOLD-   2262018583D 1   1.00000     0.00000
 Structure written by MMmdl.
 35 37  0  0  0  0  0  0  0  0  1 V2000
  148.1314  142.7868  154.0702 O   0  0  0  0  0  0  0  0  0  0  0  0
  148.5551  141.4407  154.0219 C   0  0  0  0  0  0  0  0  0  0  0  0
  149.1529  141.0165  155.3748 C   0  0  2  0  0  0  0  0  0  0  0  0
  150.0488  142.0111  155.8712 O   0  0  0  0  0  0  0  0  0  0  0  0
  151.1605  141.4049  156.4592 C   0  0  1  0  0  0  0  0  0  0  0  0
  151.4142  142.0293  157.7976 N   0  0  0  0  0  0  0  0  0  0  0  0
  150.7768  143.1065  158.2715 C   0  0  0  0  0  0  0  0  0  0  0  0
  151.1625  143.4909  159.4760 N   0  0  0  0  0  0  0  0  0  0  0  0
  152.1434  142.5650  159.8261 C   0  0  0  0  0  0  0  0  0  0  0  0
  152.3130  141.6440  158.8014 C   0  0  0  0  0  0  0  0  0  0  0  0
  153.1197  140.5429  158.5856 N   0  0  0  0  0  0  0  0  0  0  0  0
  153.6564  139.9696  159.6159 C   0  0  0  0  0  0  0  0  0  0  0  0
  153.6429  140.3406  160.9526 N   0  0  0  0  0  0  0  0  0  0  0  0
  153.9676  141.6835  161.4016 C   0  0  0  0  0  0  0  0  0  0  0  0
  152.8514  142.7036  161.1443 C   0  0  2  0  0  0  0  0  0  0  0  0
  151.8714  142.5857  162.1555 O   0  0  0  0  0  0  0  0  0  0  0  0
  150.8619  139.9109  156.5862 C   0  0  0  0  0  0  0  0  0  0  0  0
  149.9376  139.6934  155.4068 C   0  0  2  0  0  0  0  0  0  0  0  0
  150.6826  139.4725  154.2235 O   0  0  0  0  0  0  0  0  0  0  0  0
  148.3466  140.9482  156.1073 H   0  0  0  0  0  0  0  0  0  0  0  0
  152.0493  141.6122  155.8612 H   0  0  0  0  0  0  0  0  0  0  0  0
  153.2745  143.7048  161.2323 H   0  0  0  0  0  0  0  0  0  0  0  0
  149.2784  138.8388  155.5610 H   0  0  0  0  0  0  0  0  0  0  0  0
  148.4503  143.1729  154.8717 H   0  0  0  0  0  0  0  0  0  0  0  0
  147.7224  140.7992  153.7330 H   0  0  0  0  0  0  0  0  0  0  0  0
  149.3098  141.3498  153.2405 H   0  0  0  0  0  0  0  0  0  0  0  0
  150.0125  143.6282  157.7144 H   0  0  0  0  0  0  0  0  0  0  0  0
  154.2266  139.0528  159.4603 H   0  0  0  0  0  0  0  0  0  0  0  0
  153.8985  139.6520  161.6456 H   0  0  0  0  0  0  0  0  0  0  0  0
  154.2463  141.6675  162.4557 H   0  0  0  0  0  0  0  0  0  0  0  0
  154.8591  141.9972  160.8567 H   0  0  0  0  0  0  0  0  0  0  0  0
  152.2717  142.1748  162.9068 H   0  0  0  0  0  0  0  0  0  0  0  0
  151.7759  139.3164  156.5638 H   0  0  0  0  0  0  0  0  0  0  0  0
  150.3335  139.7117  157.5190 H   0  0  0  0  0  0  0  0  0  0  0  0
  150.1394  138.9955  153.6146 H   0  0  0  0  0  0  0  0  0  0  0  0
  1  2  1  0  0  0  0
  1 24  1  0  0  0  0
  2  3  1  0  0  0  0
  2 25  1  0  0  0  0
  2 26  1  0  0  0  0
  3 20  1  0  0  0  0
  3 18  1  0  0  0  0
  3  4  1  0  0  0  0
  4  5  1  0  0  0  0
  5 21  1  0  0  0  0
  5  6  1  0  0  0  0
  5 17  1  0  0  0  0
  6 10  1  0  0  0  0
  6  7  1  0  0  0  0
  7  8  2  0  0  0  0
  7 27  1  0  0  0  0
  8  9  1  0  0  0  0
  9 15  1  0  0  0  0
  9 10  2  0  0  0  0
 10 11  1  0  0  0  0
 11 12  2  0  0  0  0
 12 13  1  0  0  0  0
 12 28  1  0  0  0  0
 13 14  1  0  0  0  0
 13 29  1  0  0  0  0
 14 15  1  0  0  0  0
 14 30  1  0  0  0  0
 14 31  1  0  0  0  0
 15 22  1  0  0  0  0
 15 16  1  0  0  0  0
 16 32  1  0  0  0  0
 17 18  1  0  0  0  0
 17 33  1  0  0  0  0
 17 34  1  0  0  0  0
 18 23  1  0  0  0  0
 18 19  1  0  0  0  0
 19 35  1  0  0  0  0
M  END
> <s_m_source_file>
AV-unprocessed.smi

> <i_m_source_file_index>
157

> <i_lp_mmshare_version>
43012

> <i_f3d_flags>
0

> <s_epik_input>
W09IXVtDSDJdW0NASF0xT1tDQEhdKFtDSDJdW0NAQEhdMVtPSF0pbihbY0hdbjIpYyhjMjMpTj1bQ0hdW05IXVtDSDJdW0NASF0zW09IXQ==

> <s_epik_cmdline>
J2VwaWtfcHl0aG9uJywgJy1waCcsICc3LjAnLCAnLXRuJywgJzgnLCAnLW1hJywgJzIwMCcsICctbWV0YWxfYmluZGluZycsICctaW1hZScsICc8aW5maWxlLm1hZT4nLCAnLW9tYWUnLCAnPG91dGZpbGUubWFlPic=

> <r_lp_tautomer_probability>
1

> <r_epik_Ionization_Penalty>
0.0357149

> <r_epik_Ionization_Penalty_Charging>
0.0355056

> <r_epik_Ionization_Penalty_Neutral>
0.000209255

> <r_epik_State_Penalty>
0.0296046

> <r_epik_Charging_Adjusted_Penalty>
0.0651102

> <i_epik_Tot_Q>
0

> <i_epik_Tot_abs_Q>
0

> <r_epik_Metal_State_Penalty>
3.03559e-05

> <b_epik_Metal_Only>
0

> <s_epik_Chemistry_Notes>
This compound has an imine and may undergo hydrolysis. This compound contains an acetal/aminal-like group ( X-CH(R)-Y where X, Y are N, S, or O) that may be acid/base labile, releasing an aldehyde.

> <s_lp_Force_Field>
OPLS_2005

> <r_lp_Energy>
46.6241

> <b_lp_Chiralities_Consistent>
1

> <s_lp_Variant>
AV-unprocessed.smi:157-6

> <Gold.Version>
5.8.1

> <Gold.Id.Protein>
6NUR|6NUR_protein|mol2

> <Gold.PLP.Fitness>
47.4208

> <Gold.PLP.PLP>
-35.2376

> <Gold.PLP.part.hbond>
-7.1742

> <Gold.PLP.part.metal>
0.0000

> <Gold.PLP.part.buried>
-2.4518

> <Gold.PLP.part.nonpolar>
-25.8529

> <Gold.PLP.part.repulsive>
1.3076

> <Gold.PLP.ligand.clash>
0.0000

> <Gold.PLP.ligand.torsion>
0.2017

> <Gold.PLP.Chemscore.Hbond>
3.3042

> <Gold.PLP.Chemscore.CHOScore>
0.8905

> <Gold.PLP.Chemscore.Metal>
0.0000

> <Gold.Chemscore.Hbonds>
donor molecule, donor type, donor heavy atom, donor atom, acceptor molecule, acceptor atom, score
      L1  H     1    24       P1  8028  0.85
      P1  H  6933  6945       L1    16  0.96
      P1  H  7989  7998       L1    19  1.00
      P1  H  7997  8009       L1    11  0.48
      L1  C     7    27       P1  8028  0.91

> <Gold.PLP.Chemscore.Internal.Correction>
0.0024

> <Gold.Rescore>
     Score         DG    S(hbond)    S(metal)    S(lipo)     H(rot)  DE(clash)    DE(int)     intcor
     10.56     -11.32       2.64        0.00      54.18       3.64       0.41       0.34       ----

> <Gold.Chemscore.Fitness>
10.5626

> <Gold.Chemscore.DG>
-11.3210

> <Gold.Chemscore.ZeroCoef>
-5.4800

> <Gold.Chemscore.Hbond>
2.6380

> <Gold.Chemscore.Metal>
0.0000

> <Gold.Chemscore.Lipo>
54.1788

> <Gold.Chemscore.Internal_Hbond>
0.0000

> <Gold.Chemscore.DEClash>
0.4144

> <Gold.Chemscore.DEInternal>
0.3440

> <Gold.Chemscore.Rot>
3.6362

> <Gold.Chemscore.Internal.Correction>
   9.000000E+99

> <Gold.Chemscore.Hbonds>
donor molecule, donor type, donor heavy atom, donor atom, acceptor molecule, acceptor atom, score
      L1  H     1    24       P1  8028  0.83
      P1  H  6933  6945       L1    16  0.23
      P1  H  7989  7998       L1    19  0.86
      P1  H  7997  8009       L1    11  0.12

> <Gold.Chemscore.Hbond.Weighted>
-8.8108

> <Gold.Chemscore.Metal.Weighted>
-0.0000

> <Gold.Chemscore.Lipo.Weighted>
-6.3389

> <Gold.Chemscore.Internal_Hbond.Weighted>
0.0000

> <Gold.Chemscore.DEClash.Weighted>
0.4144

> <Gold.Chemscore.DEInternal.Weighted>
0.3440

> <Gold.Chemscore.Rot.Weighted>
9.3087

> <Gold.Chemscore.Internal.Correction.Weighted>
   9.000000E+99

> <Gold.Protein.RotatedTorsions>
[ 6907 6896 6895 6894 ] final   43.81 input  -60.11 | X-H torsion
[ 7974 7965 7964 7962 ] final  -17.82 input  175.53 | X-H torsion
[ 8008 7997 7996 7995 ] final  151.58 input   59.86 | X-H torsion
[ 10167 10162 10161 10158 ] final  -35.25 input  -65.29 | X-H torsion
[ 10718 10713 10712 10709 ] final   10.71 input   66.30 | X-H torsion
[ 10763 10752 10751 10750 ] final  132.21 input  -60.55 | X-H torsion
[ 11005 11000 10999 10996 ] final    6.38 input  -57.11 | X-H torsion

> <Gold.Protein.ActiveResidues>
 VAL166  LYS551  ARG553  GLY616  TRP617  ASP618  TYR619  PRO620  LYS621  CYS622 
 ASP623  PHE694  ASN695  SER759  ASP760  ASP761  ALA762  ILE779  LEU786  VAL792 
 PHE793  MET794  SER795  GLU796  ALA797  LYS798  CYS799  TRP800  GLU811  SER814 

> <Gold.Protein.RotatedAtoms>
  152.2248  134.8378  160.0481 H   0  0  0  0  0  0  0  0  0  0  0  0  # atno 6907 bound_to 6896
  151.9148  133.3565  159.3884 H   0  0  0  0  0  0  0  0  0  0  0  0  # atno 6908 bound_to 6896
  150.7009  134.4620  159.5429 H   0  0  0  0  0  0  0  0  0  0  0  0  # atno 6909 bound_to 6896
  146.1922  140.3834  142.8454 H   0  0  0  0  0  0  0  0  0  0  0  0  # atno 7974 bound_to 7965
  156.2668  140.2044  156.6197 H   0  0  0  0  0  0  0  0  0  0  0  0  # atno 8008 bound_to 7997
  154.6766  140.0544  157.0246 H   0  0  0  0  0  0  0  0  0  0  0  0  # atno 8009 bound_to 7997
  155.1060  140.3211  155.4537 H   0  0  0  0  0  0  0  0  0  0  0  0  # atno 8010 bound_to 7997
  140.7169  143.3490  151.2195 H   0  0  0  0  0  0  0  0  0  0  0  0  # atno 10167 bound_to 10162
  156.9850  130.6020  149.5680 H   0  0  0  0  0  0  0  0  0  0  0  0  # atno 10718 bound_to 10713
  153.7870  135.3160  155.3373 H   0  0  0  0  0  0  0  0  0  0  0  0  # atno 10763 bound_to 10752
  154.8140  135.4648  154.0596 H   0  0  0  0  0  0  0  0  0  0  0  0  # atno 10764 bound_to 10752
  153.1902  135.6907  153.8448 H   0  0  0  0  0  0  0  0  0  0  0  0  # atno 10765 bound_to 10752
  140.5601  134.0200  155.7968 H   0  0  0  0  0  0  0  0  0  0  0  0  # atno 11005 bound_to 11000
  144.8509  140.7000  143.6168 LP  0  0  0  0  0  0  0  0  0  0  0  0  # atno 17320 bound_to 7965
  145.3756  139.1648  143.4308 LP  0  0  0  0  0  0  0  0  0  0  0  0  # atno 17321 bound_to 7965
  139.7016  143.9523  152.2908 LP  0  0  0  0  0  0  0  0  0  0  0  0  # atno 17342 bound_to 10162
  139.9218  144.6795  150.8453 LP  0  0  0  0  0  0  0  0  0  0  0  0  # atno 17343 bound_to 10162
  156.0229  130.5324  150.8327 LP  0  0  0  0  0  0  0  0  0  0  0  0  # atno 17370 bound_to 10713
  157.5499  131.0943  150.9710 LP  0  0  0  0  0  0  0  0  0  0  0  0  # atno 17371 bound_to 10713
  141.1119  133.9602  157.2893 LP  0  0  0  0  0  0  0  0  0  0  0  0  # atno 17394 bound_to 11000
  139.9412  135.0191  156.8713 LP  0  0  0  0  0  0  0  0  0  0  0  0  # atno 17395 bound_to 11000

$$$$
