#       Name:                AV-unprocessed.smi:3337
#       Creating user name   scv26
#       Creation time:       Fri Mar 27 19:26:34 2020


#       File generated by GOLD software.
#

@<TRIPOS>MOLECULE
AV-unprocessed.smi:3337
    50    51     1
SMALL
NO_CHARGES


@<TRIPOS>ATOM
      1 ****        -1.0317   3.0797   3.3730 C.3            1 S1                 0.0000
      2 ****        -1.4011   2.1705   2.1925 C.3            1 S1                 0.0000
      3 ****        -2.9195   2.1688   1.9415 C.3            1 S1                 0.0000
      4 ****        -3.2786   1.2964   0.7259 C.3            1 S1                 0.0000
      5 ****        -4.7889   1.3115   0.4518 C.3            1 S1                 0.0000
      6 ****        -2.4772   1.7574  -0.5102 C.3            1 S1                 0.0000
      7 ****        -1.0112   1.7418  -0.2637 N.4            1 S1                 1.0000
      8 ****        -0.4295   0.3725  -0.2657 C.3            1 S1                 0.0000
      9 ****         1.0889   0.3685  -0.5254 C.3            1 S1                 0.0000
     10 ****         1.6112  -0.9915  -0.5801 N.am           1 S1                 0.0000
     11 ****         1.5604  -1.7924  -1.6570 C.2            1 S1                 0.0000
     12 ****         1.0483  -1.4439  -2.7214 O.2            1 S1                 0.0000
     13 ****         2.1639  -3.1986  -1.4939 C.3            1 S1                 0.0000
     14 ****         1.8250  -4.1393  -2.6685 C.3            1 S1                 0.0000
     15 ****         3.6009  -3.1200  -1.2586 N.pl3          1 S1                 0.0000
     16 ****         4.2902  -3.2088  -0.1189 C.2            1 S1                 0.0000
     17 ****         5.5980  -3.0529  -0.2668 N.2            1 S1                 0.0000
     18 ****         5.6524  -2.8504  -1.6167 C.2            1 S1                 0.0000
     19 ****         4.4837  -2.8683  -2.2572 N.2            1 S1                 0.0000
     20 ****        -0.6457   2.5823   0.9097 C.3            1 S1                 0.0000
     21 ****        -1.3037   4.1173   3.1760 H              1 S1                 0.0000
     22 ****         0.0399   3.0488   3.5727 H              1 S1                 0.0000
     23 ****        -1.5445   2.7689   4.2837 H              1 S1                 0.0000
     24 ****        -1.1013   1.1586   2.4657 H              1 S1                 0.0000
     25 ****        -3.4418   1.8053   2.8274 H              1 S1                 0.0000
     26 ****        -3.2658   3.1900   1.7755 H              1 S1                 0.0000
     27 ****        -3.0043   0.2655   0.9538 H              1 S1                 0.0000
     28 ****        -5.1406   2.3164   0.2155 H              1 S1                 0.0000
     29 ****        -5.3483   0.9582   1.3186 H              1 S1                 0.0000
     30 ****        -5.0417   0.6637  -0.3882 H              1 S1                 0.0000
     31 ****        -2.7170   1.1409  -1.3775 H              1 S1                 0.0000
     32 ****        -2.7681   2.7747  -0.7762 H              1 S1                 0.0000
     33 ****        -0.6562  -0.1452   0.6660 H              1 S1                 0.0000
     34 ****        -0.9111  -0.2047  -1.0562 H              1 S1                 0.0000
     35 ****         1.3227   0.8988  -1.4504 H              1 S1                 0.0000
     36 ****         1.6229   0.8830   0.2724 H              1 S1                 0.0000
     37 ****         2.0482  -1.3486   0.2574 H              1 S1                 0.0000
     38 ****         1.7167  -3.6302  -0.5971 H              1 S1                 0.0000
     39 ****         0.7465  -4.2448  -2.7908 H              1 S1                 0.0000
     40 ****         2.2314  -5.1365  -2.4976 H              1 S1                 0.0000
     41 ****         2.2311  -3.7754  -3.6134 H              1 S1                 0.0000
     42 ****         3.8255  -3.3871   0.8398 H              1 S1                 0.0000
     43 ****         6.5804  -2.6784  -2.1421 H              1 S1                 0.0000
     44 ****        -0.8897   3.6174   0.6663 H              1 S1                 0.0000
     45 ****         0.4302   2.5670   1.0779 H              1 S1                 0.0000
     46 ****        -0.6024   2.1950  -1.0687 H              1 S1                 0.0000
     47 ****         0.6483  -0.5316  -2.8087 LP             1 S1                 0.0000
     48 ****         1.0325  -2.0733  -3.4984 LP             1 S1                 0.0000
     49 ****         6.3317  -3.0767   0.4123 LP             1 S1                 0.0000
     50 ****         4.3028  -2.7306  -3.2310 LP             1 S1                 0.0000
@<TRIPOS>BOND
    1    1    2 1     
    2    1   21 1     
    3    1   22 1     
    4    1   23 1     
    5    2   20 1     
    6    2    3 1     
    7    2   24 1     
    8    3    4 1     
    9    3   25 1     
   10    3   26 1     
   11    4    5 1     
   12    4    6 1     
   13    4   27 1     
   14    5   28 1     
   15    5   29 1     
   16    5   30 1     
   17    6    7 1     
   18    6   31 1     
   19    6   32 1     
   20    7    8 1     
   21    7   20 1     
   22    7   46 1     
   23    8    9 1     
   24    8   33 1     
   25    8   34 1     
   26    9   10 1     
   27    9   35 1     
   28    9   36 1     
   29   10   11 am    
   30   10   37 1     
   31   11   12 2     
   32   11   13 1     
   33   13   14 1     
   34   13   15 1     
   35   13   38 1     
   36   14   39 1     
   37   14   40 1     
   38   14   41 1     
   39   15   19 1     
   40   15   16 1     
   41   16   17 2     
   42   16   42 1     
   43   17   18 1     
   44   18   19 2     
   45   18   43 1     
   46   20   44 1     
   47   20   45 1     
   48   12   47 1     
   49   12   48 1     
   50   17   49 1     
   51   19   50 1     
@<TRIPOS>SUBSTRUCTURE
      1 S1             1
@<TRIPOS>SET
LONE_PAIRS      STATIC     ATOMS    <user>   **** ""
4 47 48 49 50
DONOR_HYDROGENS      STATIC     ATOMS    <user>   **** ""
2 46 37
ATOM$BLUE        STATIC     ATOMS    COLORGROUP SYSTEM
4 47 48 49 50
ATOM$RED        STATIC     ATOMS    COLORGROUP SYSTEM
2 46 37
