#       Name:                AV-unprocessed.smi:55
#       Creating user name   scv26
#       Creation time:       Thu Mar 26 16:47:26 2020


#       File generated by GOLD software.
#

@<TRIPOS>MOLECULE
AV-unprocessed.smi:55
    41    42     1
SMALL
NO_CHARGES


@<TRIPOS>ATOM
      1 ****        -3.6519   1.5846   0.1590 C.3            1 S1                 0.0000
      2 ****        -2.9756   0.2263   0.2209 C.2            1 S1                 0.0000
      3 ****        -1.6313   0.0886   0.2104 C.2            1 S1                 0.0000
      4 ****        -1.0189  -1.1508   0.2642 N.am           1 S1                 0.0000
      5 ****         0.4891  -1.2590   0.2428 C.3            1 S1                 0.0000
      6 ****         1.0224  -1.1350  -1.1863 C.3            1 S1                 0.0000
      7 ****         2.2798  -0.3186  -0.9713 C.3            1 S1                 0.0000
      8 ****         2.6261   0.3901  -2.1436 O.3            1 S1                 0.0000
      9 ****         1.8615   0.6086   0.1739 C.3            1 S1                 0.0000
     10 ****         3.0228   1.1557   1.0182 C.3            1 S1                 0.0000
     11 ****         3.7623   2.1121   0.2886 O.3            1 S1                 0.0000
     12 ****         1.0321  -0.2114   0.9939 O.3            1 S1                 0.0000
     13 ****        -1.8150  -2.3256   0.3074 C.2            1 S1                 0.0000
     14 ****        -1.2455  -3.4170   0.3161 O.2            1 S1                 0.0000
     15 ****        -3.1724  -2.1961   0.3278 N.pl3          1 S1                -1.0000
     16 ****        -3.8004  -0.9858   0.2909 C.2            1 S1                 0.0000
     17 ****        -5.0266  -0.8842   0.3129 O.2            1 S1                 0.0000
     18 ****         0.7669  -2.1923   0.7333 H              1 S1                 0.0000
     19 ****         3.1002  -0.9687  -0.6642 H              1 S1                 0.0000
     20 ****         1.2466   1.4265  -0.2059 H              1 S1                 0.0000
     21 ****        -2.9189   2.3904   0.1131 H              1 S1                 0.0000
     22 ****        -4.2720   1.7420   1.0419 H              1 S1                 0.0000
     23 ****        -4.2868   1.6543  -0.7249 H              1 S1                 0.0000
     24 ****        -1.0194   0.9757   0.1525 H              1 S1                 0.0000
     25 ****         1.1986  -2.1151  -1.6305 H              1 S1                 0.0000
     26 ****         0.3051  -0.5886  -1.8015 H              1 S1                 0.0000
     27 ****         3.3546   0.9582  -1.9430 H              1 S1                 0.0000
     28 ****         2.6350   1.6378   1.9158 H              1 S1                 0.0000
     29 ****         3.6825   0.3514   1.3445 H              1 S1                 0.0000
     30 ****         4.4500   2.4467   0.8440 H              1 S1                 0.0000
     31 ****         1.8466   0.9357  -2.4515 LP             1 S1                 0.0000
     32 ****         2.8873  -0.2535  -2.8630 LP             1 S1                 0.0000
     33 ****         3.1614   2.8604   0.0076 LP             1 S1                 0.0000
     34 ****         4.1617   1.6832  -0.5217 LP             1 S1                 0.0000
     35 ****         1.5783  -0.5900   1.7410 LP             1 S1                 0.0000
     36 ****         0.2902   0.3429   1.3711 LP             1 S1                 0.0000
     37 ****        -0.2467  -3.4600   0.2930 LP             1 S1                 0.0000
     38 ****        -1.7817  -4.2606   0.3462 LP             1 S1                 0.0000
     39 ****        -3.7315  -3.0241   0.3717 LP             1 S1                 0.0000
     40 ****        -5.4541   0.0193   0.2831 LP             1 S1                 0.0000
     41 ****        -5.5956  -1.7052   0.3605 LP             1 S1                 0.0000
@<TRIPOS>BOND
    1    1    2 1     
    2    1   21 1     
    3    1   22 1     
    4    1   23 1     
    5    2   16 1     
    6    2    3 2     
    7    3    4 1     
    8    3   24 1     
    9    4    5 1     
   10    4   13 am    
   11    5   18 1     
   12    5   12 1     
   13    5    6 1     
   14    6    7 1     
   15    6   25 1     
   16    6   26 1     
   17    7   19 1     
   18    7    8 1     
   19    7    9 1     
   20    8   27 1     
   21    9   20 1     
   22    9   10 1     
   23    9   12 1     
   24   10   11 1     
   25   10   28 1     
   26   10   29 1     
   27   11   30 1     
   28   13   14 2     
   29   13   15 1     
   30   15   16 1     
   31   16   17 2     
   32    8   31 1     
   33    8   32 1     
   34   11   33 1     
   35   11   34 1     
   36   12   35 1     
   37   12   36 1     
   38   14   37 1     
   39   14   38 1     
   40   15   39 1     
   41   17   40 1     
   42   17   41 1     
@<TRIPOS>SUBSTRUCTURE
      1 S1             1
@<TRIPOS>SET
LONE_PAIRS      STATIC     ATOMS    <user>   **** ""
11 31 32 33 34 35 36 37 38 39 40 41
DONOR_HYDROGENS      STATIC     ATOMS    <user>   **** ""
2 27 30
ATOM$BLUE        STATIC     ATOMS    COLORGROUP SYSTEM
11 31 32 33 34 35 36 37 38 39 40 41
ATOM$RED        STATIC     ATOMS    COLORGROUP SYSTEM
2 27 30
