AV-unprocessed.smi:154|AV-procd|sdf|1266|dock6
  -GOLD-   2262018523D 1   1.00000     0.00000
 Structure written by MMmdl.
 53 57  0  0  0  0  0  0  0  0  1 V2000
  151.9398  139.9161  154.7020 O   0  0  0  0  0  0  0  0  0  0  0  0
  150.9555  139.4000  155.5819 C   0  0  0  0  0  0  0  0  0  0  0  0
  151.4226  137.9952  156.0381 C   0  0  0  0  0  0  0  0  0  0  0  0
  150.7530  137.5125  157.2368 N   0  0  0  0  0  0  0  0  0  0  0  0
  151.3354  137.2341  158.4495 C   0  0  0  0  0  0  0  0  0  0  0  0
  150.5165  136.8062  159.3690 N   0  0  0  0  0  0  0  0  0  0  0  0
  149.2663  136.7893  158.7564 C   0  0  0  0  0  0  0  0  0  0  0  0
  147.9415  136.4263  159.1614 C   0  0  0  0  0  0  0  0  0  0  0  0
  147.5653  135.9759  160.3957 N   0  0  0  0  0  0  0  0  0  0  0  0
  147.1888  136.9370  161.4368 C   0  0  2  0  0  0  0  0  0  0  0  0
  147.7148  136.4548  162.8087 C   0  0  0  0  0  0  0  0  0  0  0  0
  147.3871  134.9870  163.1465 C   0  0  0  0  0  0  0  0  0  0  0  0
  147.4725  134.0550  161.9223 C   0  0  0  0  0  0  0  0  0  0  0  0
  146.9444  134.6692  160.6051 C   0  0  1  0  0  0  0  0  0  0  0  0
  145.4021  134.7947  160.4974 C   0  0  0  0  0  0  0  0  0  0  0  0
  144.7887  135.9431  161.3313 C   0  0  0  0  0  0  0  0  0  0  0  0
  143.6068  136.2607  160.8023 F   0  0  0  0  0  0  0  0  0  0  0  0
  144.5439  135.5351  162.5724 F   0  0  0  0  0  0  0  0  0  0  0  0
  145.6690  137.2127  161.3502 C   0  0  0  0  0  0  0  0  0  0  0  0
  146.9626  136.5651  158.2273 N   0  0  0  0  0  0  0  0  0  0  0  0
  147.2362  137.0060  156.9979 C   0  0  0  0  0  0  0  0  0  0  0  0
  148.4117  137.3672  156.4873 N   0  0  0  0  0  0  0  0  0  0  0  0
  149.4069  137.2409  157.4094 C   0  0  0  0  0  0  0  0  0  0  0  0
  150.8389  140.3492  156.7918 C   0  0  0  0  0  0  0  0  0  0  0  0
  150.2195  141.7050  156.4089 C   0  0  0  0  0  0  0  0  0  0  0  0
  148.9557  141.5043  155.7877 O   0  0  0  0  0  0  0  0  0  0  0  0
  149.0532  140.7782  154.5685 C   0  0  0  0  0  0  0  0  0  0  0  0
  149.6039  139.3659  154.8346 C   0  0  0  0  0  0  0  0  0  0  0  0
  152.7816  139.8621  155.1278 H   0  0  0  0  0  0  0  0  0  0  0  0
  151.2675  137.2652  155.2423 H   0  0  0  0  0  0  0  0  0  0  0  0
  152.4959  138.0046  156.2322 H   0  0  0  0  0  0  0  0  0  0  0  0
  152.3938  137.3521  158.6300 H   0  0  0  0  0  0  0  0  0  0  0  0
  147.6741  137.8982  161.2725 H   0  0  0  0  0  0  0  0  0  0  0  0
  148.8007  136.5577  162.7981 H   0  0  0  0  0  0  0  0  0  0  0  0
  147.3637  137.1115  163.6051 H   0  0  0  0  0  0  0  0  0  0  0  0
  148.0785  134.6345  163.9124 H   0  0  0  0  0  0  0  0  0  0  0  0
  146.4148  134.9078  163.6204 H   0  0  0  0  0  0  0  0  0  0  0  0
  148.5227  133.8021  161.7706 H   0  0  0  0  0  0  0  0  0  0  0  0
  146.9691  133.1109  162.1327 H   0  0  0  0  0  0  0  0  0  0  0  0
  147.2787  133.9787  159.8338 H   0  0  0  0  0  0  0  0  0  0  0  0
  145.1547  134.9848  159.4536 H   0  0  0  0  0  0  0  0  0  0  0  0
  144.9206  133.8470  160.7402 H   0  0  0  0  0  0  0  0  0  0  0  0
  145.3519  137.8852  162.1479 H   0  0  0  0  0  0  0  0  0  0  0  0
  145.4937  137.7568  160.4208 H   0  0  0  0  0  0  0  0  0  0  0  0
  146.3919  137.0800  156.3286 H   0  0  0  0  0  0  0  0  0  0  0  0
  150.2082  139.8876  157.5527 H   0  0  0  0  0  0  0  0  0  0  0  0
  151.8140  140.5011  157.2565 H   0  0  0  0  0  0  0  0  0  0  0  0
  150.0770  142.3133  157.3020 H   0  0  0  0  0  0  0  0  0  0  0  0
  150.8794  142.2680  155.7470 H   0  0  0  0  0  0  0  0  0  0  0  0
  148.0614  140.7115  154.1210 H   0  0  0  0  0  0  0  0  0  0  0  0
  149.6827  141.3180  153.8595 H   0  0  0  0  0  0  0  0  0  0  0  0
  149.6929  138.8256  153.8914 H   0  0  0  0  0  0  0  0  0  0  0  0
  148.8761  138.8181  155.4344 H   0  0  0  0  0  0  0  0  0  0  0  0
  1  2  1  0  0  0  0
  1 29  1  0  0  0  0
  2 28  1  0  0  0  0
  2  3  1  0  0  0  0
  2 24  1  0  0  0  0
  3  4  1  0  0  0  0
  3 30  1  0  0  0  0
  3 31  1  0  0  0  0
  4 23  1  0  0  0  0
  4  5  1  0  0  0  0
  5  6  2  0  0  0  0
  5 32  1  0  0  0  0
  6  7  1  0  0  0  0
  7 23  2  0  0  0  0
  7  8  1  0  0  0  0
  8  9  1  0  0  0  0
  8 20  2  0  0  0  0
  9 14  1  0  0  0  0
  9 10  1  0  0  0  0
 10 19  1  0  0  0  0
 10 11  1  0  0  0  0
 10 33  1  0  0  0  0
 11 12  1  0  0  0  0
 11 34  1  0  0  0  0
 11 35  1  0  0  0  0
 12 13  1  0  0  0  0
 12 36  1  0  0  0  0
 12 37  1  0  0  0  0
 13 14  1  0  0  0  0
 13 38  1  0  0  0  0
 13 39  1  0  0  0  0
 14 15  1  0  0  0  0
 14 40  1  0  0  0  0
 15 16  1  0  0  0  0
 15 41  1  0  0  0  0
 15 42  1  0  0  0  0
 16 17  1  0  0  0  0
 16 18  1  0  0  0  0
 16 19  1  0  0  0  0
 19 43  1  0  0  0  0
 19 44  1  0  0  0  0
 20 21  1  0  0  0  0
 21 22  2  0  0  0  0
 21 45  1  0  0  0  0
 22 23  1  0  0  0  0
 24 25  1  0  0  0  0
 24 46  1  0  0  0  0
 24 47  1  0  0  0  0
 25 26  1  0  0  0  0
 25 48  1  0  0  0  0
 25 49  1  0  0  0  0
 26 27  1  0  0  0  0
 27 28  1  0  0  0  0
 27 50  1  0  0  0  0
 27 51  1  0  0  0  0
 28 52  1  0  0  0  0
 28 53  1  0  0  0  0
M  END
> <s_m_source_file>
AV-unprocessed.smi

> <i_m_source_file_index>
154

> <i_lp_mmshare_version>
43012

> <i_f3d_flags>
0

> <s_epik_input>
W0NIMl0xW0NIMl1PW0NIMl1bQ0gyXUMxKFtPSF0pW0NIMl1uKFtjSF1uMiljKGMyMyluW2NIXW5jM04oW0NAQEhdNDUpW0NIXShbQ0gyXVtDSDJdW0NIMl00KVtDSDJdQyhGKShGKVtDSDJdNQ==

> <s_epik_cmdline>
J2VwaWtfcHl0aG9uJywgJy1waCcsICc3LjAnLCAnLXRuJywgJzgnLCAnLW1hJywgJzIwMCcsICctbWV0YWxfYmluZGluZycsICctaW1hZScsICc8aW5maWxlLm1hZT4nLCAnLW9tYWUnLCAnPG91dGZpbGUubWFlPic=

> <r_lp_tautomer_probability>
1

> <r_epik_Ionization_Penalty>
0.00333769

> <r_epik_Ionization_Penalty_Charging>
0

> <r_epik_Ionization_Penalty_Neutral>
0.00333769

> <r_epik_State_Penalty>
0.0022021

> <r_epik_Charging_Adjusted_Penalty>
0.0022021

> <i_epik_Tot_Q>
0

> <i_epik_Tot_abs_Q>
0

> <r_epik_Metal_State_Penalty>
-0

> <b_epik_Metal_Only>
0

> <s_lp_Force_Field>
OPLS_2005

> <r_lp_Energy>
50.9218

> <b_lp_Chiralities_Consistent>
1

> <s_lp_Variant>
AV-unprocessed.smi:154-1

> <Gold.Version>
5.8.1

> <Gold.Id.Protein>
6NUR|6NUR_protein|mol2

> <Gold.PLP.Fitness>
42.7042

> <Gold.PLP.PLP>
-39.8836

> <Gold.PLP.part.hbond>
-1.7265

> <Gold.PLP.part.metal>
0.0000

> <Gold.PLP.part.buried>
-4.2908

> <Gold.PLP.part.nonpolar>
-33.7229

> <Gold.PLP.part.repulsive>
0.1161

> <Gold.PLP.ligand.clash>
0.0000

> <Gold.PLP.ligand.torsion>
1.5494

> <Gold.PLP.Chemscore.Hbond>
1.9120

> <Gold.PLP.Chemscore.CHOScore>
0.0000

> <Gold.PLP.Chemscore.Metal>
0.0000

> <Gold.Chemscore.Hbonds>
donor molecule, donor type, donor heavy atom, donor atom, acceptor molecule, acceptor atom, score
      P1  H  6896  6909       L1     6  1.00
      P1  H  7989  7998       L1     1  0.91

> <Gold.PLP.Chemscore.Internal.Correction>
0.1835

> <Gold.Rescore>
     Score         DG    S(hbond)    S(metal)    S(lipo)     H(rot)  DE(clash)    DE(int)     intcor
     15.29     -17.23       1.53        0.00      95.89       1.78       0.06       1.88       ----

> <Gold.Chemscore.Fitness>
15.2932

> <Gold.Chemscore.DG>
-17.2288

> <Gold.Chemscore.ZeroCoef>
-5.4800

> <Gold.Chemscore.Hbond>
1.5265

> <Gold.Chemscore.Metal>
0.0000

> <Gold.Chemscore.Lipo>
95.8865

> <Gold.Chemscore.Internal_Hbond>
0.0000

> <Gold.Chemscore.DEClash>
0.0598

> <Gold.Chemscore.DEInternal>
1.8758

> <Gold.Chemscore.Rot>
1.7845

> <Gold.Chemscore.Internal.Correction>
   9.000000E+99

> <Gold.Chemscore.Hbonds>
donor molecule, donor type, donor heavy atom, donor atom, acceptor molecule, acceptor atom, score
      P1  H  6896  6909       L1     6  0.47
      P1  H  7989  7998       L1     1  0.83

> <Gold.Chemscore.Hbond.Weighted>
-5.0985

> <Gold.Chemscore.Metal.Weighted>
-0.0000

> <Gold.Chemscore.Lipo.Weighted>
-11.2187

> <Gold.Chemscore.Internal_Hbond.Weighted>
0.0000

> <Gold.Chemscore.DEClash.Weighted>
0.0598

> <Gold.Chemscore.DEInternal.Weighted>
1.8758

> <Gold.Chemscore.Rot.Weighted>
4.5684

> <Gold.Chemscore.Internal.Correction.Weighted>
   9.000000E+99

> <Gold.Protein.RotatedTorsions>
[ 6907 6896 6895 6894 ] final   92.31 input  -60.11 | X-H torsion
[ 7974 7965 7964 7962 ] final -113.14 input  175.53 | X-H torsion
[ 8008 7997 7996 7995 ] final    5.33 input   59.86 | X-H torsion
[ 10167 10162 10161 10158 ] final -103.81 input  -65.29 | X-H torsion
[ 10718 10713 10712 10709 ] final  151.45 input   66.30 | X-H torsion
[ 10763 10752 10751 10750 ] final -109.77 input  -60.55 | X-H torsion
[ 11005 11000 10999 10996 ] final -170.97 input  -57.11 | X-H torsion

> <Gold.Protein.ActiveResidues>
 VAL166  LYS551  ARG553  GLY616  TRP617  ASP618  TYR619  PRO620  LYS621  CYS622 
 ASP623  PHE694  ASN695  SER759  ASP760  ASP761  ALA762  ILE779  LEU786  VAL792 
 PHE793  MET794  SER795  GLU796  ALA797  LYS798  CYS799  TRP800  GLU811  SER814 

> <Gold.Protein.RotatedAtoms>
  152.5452  134.1522  159.8522 H   0  0  0  0  0  0  0  0  0  0  0  0  # atno 6907 bound_to 6896
  151.1548  133.4876  159.2602 H   0  0  0  0  0  0  0  0  0  0  0  0  # atno 6908 bound_to 6896
  151.1434  135.0202  159.8691 H   0  0  0  0  0  0  0  0  0  0  0  0  # atno 6909 bound_to 6896
  145.1356  140.8749  143.3732 H   0  0  0  0  0  0  0  0  0  0  0  0  # atno 7974 bound_to 7965
  154.7271  140.2723  155.6489 H   0  0  0  0  0  0  0  0  0  0  0  0  # atno 8008 bound_to 7997
  156.2839  140.2723  156.1884 H   0  0  0  0  0  0  0  0  0  0  0  0  # atno 8009 bound_to 7997
  155.0431  140.0371  157.2506 H   0  0  0  0  0  0  0  0  0  0  0  0  # atno 8010 bound_to 7997
  140.2160  143.3711  152.1010 H   0  0  0  0  0  0  0  0  0  0  0  0  # atno 10167 bound_to 10162
  157.2705  131.0816  151.1603 H   0  0  0  0  0  0  0  0  0  0  0  0  # atno 10718 bound_to 10713
  154.8211  135.4589  154.0783 H   0  0  0  0  0  0  0  0  0  0  0  0  # atno 10763 bound_to 10752
  153.2135  135.6885  153.8091 H   0  0  0  0  0  0  0  0  0  0  0  0  # atno 10764 bound_to 10752
  153.7534  135.3295  155.3302 H   0  0  0  0  0  0  0  0  0  0  0  0  # atno 10765 bound_to 10752
  140.5135  134.5779  157.5026 H   0  0  0  0  0  0  0  0  0  0  0  0  # atno 11005 bound_to 11000
  145.0588  139.3122  143.5891 LP  0  0  0  0  0  0  0  0  0  0  0  0  # atno 17320 bound_to 7965
  146.3510  140.0023  142.8675 LP  0  0  0  0  0  0  0  0  0  0  0  0  # atno 17321 bound_to 7965
  139.5162  144.6974  151.5592 LP  0  0  0  0  0  0  0  0  0  0  0  0  # atno 17342 bound_to 10162
  140.6289  143.9114  150.6589 LP  0  0  0  0  0  0  0  0  0  0  0  0  # atno 17343 bound_to 10162
  157.3077  130.6874  149.6198 LP  0  0  0  0  0  0  0  0  0  0  0  0  # atno 17370 bound_to 10713
  155.9663  130.4373  150.5169 LP  0  0  0  0  0  0  0  0  0  0  0  0  # atno 17371 bound_to 10713
  139.9646  134.7395  156.0166 LP  0  0  0  0  0  0  0  0  0  0  0  0  # atno 17394 bound_to 11000
  141.1373  133.6572  156.3629 LP  0  0  0  0  0  0  0  0  0  0  0  0  # atno 17395 bound_to 11000

$$$$
