AV-unprocessed.smi:458|AV-procd|sdf|2622|dock6
  -GOLD-   2262023 23D 1   1.00000     0.00000
 Structure written by MMmdl.
 37 39  0  0  0  0  0  0  0  0  2 V2000
  146.9234  138.1846  151.0060 O   0  0  0  0  0  0  0  0  0  0  0  0
  146.1281  137.6253  152.0277 C   0  0  0  0  0  0  0  0  0  0  0  0
  145.7785  136.1994  151.7552 C   0  0  0  0  0  0  0  0  0  0  0  0
  146.6709  135.1859  151.5734 N   0  3  0  0  0  0  0  0  0  0  0  0
  145.9899  133.9962  151.3161 C   0  0  0  0  0  0  0  0  0  0  0  0
  146.4658  132.7134  151.0632 C   0  0  0  0  0  0  0  0  0  0  0  0
  145.4986  131.7142  150.8299 C   0  0  0  0  0  0  0  0  0  0  0  0
  144.1201  132.0079  150.8540 C   0  0  0  0  0  0  0  0  0  0  0  0
  143.6500  133.3116  151.1149 C   0  0  0  0  0  0  0  0  0  0  0  0
  144.6122  134.2959  151.3443 C   0  0  0  0  0  0  0  0  0  0  0  0
  144.5286  135.6680  151.6179 N   0  0  0  0  0  0  0  0  0  0  0  0
  143.2091  136.3181  151.6972 C   0  0  0  0  0  0  0  0  0  0  0  0
  143.0268  137.1258  152.9980 C   0  0  2  0  0  0  0  0  0  0  0  0
  143.6059  136.3922  154.0572 O   0  0  0  0  0  0  0  0  0  0  0  0
  141.5690  137.4749  153.2638 C   0  0  0  0  0  0  0  0  0  0  0  0
  140.6392  136.4473  153.5328 C   0  0  0  0  0  0  0  0  0  0  0  0
  139.2951  136.7609  153.8129 C   0  0  0  0  0  0  0  0  0  0  0  0
  138.8724  138.1039  153.8238 C   0  0  0  0  0  0  0  0  0  0  0  0
  137.5810  138.4056  154.0964 F   0  0  0  0  0  0  0  0  0  0  0  0
  139.7944  139.1332  153.5538 C   0  0  0  0  0  0  0  0  0  0  0  0
  141.1389  138.8203  153.2748 C   0  0  0  0  0  0  0  0  0  0  0  0
  146.5437  139.0109  150.7474 H   0  0  0  0  0  0  0  0  0  0  0  0
  146.6675  137.6899  152.9729 H   0  0  0  0  0  0  0  0  0  0  0  0
  145.2195  138.2165  152.1386 H   0  0  0  0  0  0  0  0  0  0  0  0
  147.5216  132.4866  151.0421 H   0  0  0  0  0  0  0  0  0  0  0  0
  145.8204  130.7029  150.6273 H   0  0  0  0  0  0  0  0  0  0  0  0
  143.4075  131.2173  150.6678 H   0  0  0  0  0  0  0  0  0  0  0  0
  142.5908  133.5203  151.1253 H   0  0  0  0  0  0  0  0  0  0  0  0
  143.0486  136.9398  150.8167 H   0  0  0  0  0  0  0  0  0  0  0  0
  142.4611  135.5267  151.6416 H   0  0  0  0  0  0  0  0  0  0  0  0
  143.5962  138.0528  152.9228 H   0  0  0  0  0  0  0  0  0  0  0  0
  143.0994  135.6051  154.1891 H   0  0  0  0  0  0  0  0  0  0  0  0
  140.9570  135.4147  153.5357 H   0  0  0  0  0  0  0  0  0  0  0  0
  138.5889  135.9708  154.0216 H   0  0  0  0  0  0  0  0  0  0  0  0
  139.4711  140.1637  153.5635 H   0  0  0  0  0  0  0  0  0  0  0  0
  141.8409  139.6178  153.0795 H   0  0  0  0  0  0  0  0  0  0  0  0
  147.6748  135.3055  151.6150 H   0  0  0  0  0  0  0  0  0  0  0  0
  1  2  1  0  0  0  0
  1 22  1  0  0  0  0
  2  3  1  0  0  0  0
  2 23  1  0  0  0  0
  2 24  1  0  0  0  0
  3 11  1  0  0  0  0
  3  4  2  0  0  0  0
  4  5  1  0  0  0  0
  4 37  1  0  0  0  0
  5 10  2  0  0  0  0
  5  6  1  0  0  0  0
  6  7  2  0  0  0  0
  6 25  1  0  0  0  0
  7  8  1  0  0  0  0
  7 26  1  0  0  0  0
  8  9  2  0  0  0  0
  8 27  1  0  0  0  0
  9 10  1  0  0  0  0
  9 28  1  0  0  0  0
 10 11  1  0  0  0  0
 11 12  1  0  0  0  0
 12 13  1  0  0  0  0
 12 29  1  0  0  0  0
 12 30  1  0  0  0  0
 13 14  1  0  0  0  0
 13 15  1  0  0  0  0
 13 31  1  0  0  0  0
 14 32  1  0  0  0  0
 15 21  1  0  0  0  0
 15 16  2  0  0  0  0
 16 17  1  0  0  0  0
 16 33  1  0  0  0  0
 17 18  2  0  0  0  0
 17 34  1  0  0  0  0
 18 19  1  0  0  0  0
 18 20  1  0  0  0  0
 20 21  2  0  0  0  0
 20 35  1  0  0  0  0
 21 36  1  0  0  0  0
M  CHG  1   4   1
M  END
> <s_m_source_file>
AV-unprocessed.smi

> <i_m_source_file_index>
458

> <i_lp_mmshare_version>
43012

> <i_f3d_flags>
0

> <s_epik_input>
W2NIXTFbY0hdW2NIXVtjSF1jKGMxMiluKGMobjIpW0NIMl1bT0hdKVtDSDJdW0NASF0oW09IXSljM1tjSF1bY0hdYyhGKVtjSF1bY0hdMw==

> <s_epik_cmdline>
J2VwaWtfcHl0aG9uJywgJy1waCcsICc3LjAnLCAnLXRuJywgJzgnLCAnLW1hJywgJzIwMCcsICctbWV0YWxfYmluZGluZycsICctaW1hZScsICc8aW5maWxlLm1hZT4nLCAnLW9tYWUnLCAnPG91dGZpbGUubWFlPic=

> <r_epik_Ionization_Penalty>
1.35643

> <r_epik_Ionization_Penalty_Charging>
1.35557

> <r_epik_Ionization_Penalty_Neutral>
0.00085758

> <r_epik_State_Penalty>
1.43401

> <r_epik_Charging_Adjusted_Penalty>
2.78958

> <i_epik_Tot_Q>
1

> <i_epik_Tot_abs_Q>
1

> <r_epik_Metal_State_Penalty>
5.47166

> <b_epik_Metal_Only>
0

> <s_lp_Force_Field>
OPLS_2005

> <r_lp_Energy>
15.2314

> <b_lp_Chiralities_Consistent>
1

> <s_lp_Variant>
AV-unprocessed.smi:458-3

> <Gold.Version>
5.8.1

> <Gold.Id.Protein>
6NUR|6NUR_protein|mol2

> <Gold.PLP.Fitness>
51.5613

> <Gold.PLP.PLP>
-43.0104

> <Gold.PLP.part.hbond>
-3.6445

> <Gold.PLP.part.metal>
0.0000

> <Gold.PLP.part.buried>
-3.3964

> <Gold.PLP.part.nonpolar>
-35.4017

> <Gold.PLP.part.repulsive>
0.0882

> <Gold.PLP.ligand.clash>
0.0000

> <Gold.PLP.ligand.torsion>
0.2404

> <Gold.PLP.Chemscore.Hbond>
3.0000

> <Gold.PLP.Chemscore.CHOScore>
0.0000

> <Gold.PLP.Chemscore.Metal>
0.0000

> <Gold.Chemscore.Hbonds>
donor molecule, donor type, donor heavy atom, donor atom, acceptor molecule, acceptor atom, score
      L1  H     4    37       P1  7948  2.00
      P1  H  7954  7966       L1     1  1.00

> <Gold.PLP.Chemscore.Internal.Correction>
0.0317

> <Gold.Rescore>
     Score         DG    S(hbond)    S(metal)    S(lipo)     H(rot)  DE(clash)    DE(int)     intcor
     14.14     -15.96       1.72        0.00     102.28       2.82       1.17       0.65       ----

> <Gold.Chemscore.Fitness>
14.1434

> <Gold.Chemscore.DG>
-15.9630

> <Gold.Chemscore.ZeroCoef>
-5.4800

> <Gold.Chemscore.Hbond>
1.7188

> <Gold.Chemscore.Metal>
0.0000

> <Gold.Chemscore.Lipo>
102.2764

> <Gold.Chemscore.Internal_Hbond>
0.0000

> <Gold.Chemscore.DEClash>
1.1671

> <Gold.Chemscore.DEInternal>
0.6525

> <Gold.Chemscore.Rot>
2.8219

> <Gold.Chemscore.Internal.Correction>
   9.000000E+99

> <Gold.Chemscore.Hbonds>
donor molecule, donor type, donor heavy atom, donor atom, acceptor molecule, acceptor atom, score
      L1  H     4    37       P1  7948  0.71
      P1  H  7954  7966       L1     1  0.55

> <Gold.Chemscore.Hbond.Weighted>
-5.7407

> <Gold.Chemscore.Metal.Weighted>
-0.0000

> <Gold.Chemscore.Lipo.Weighted>
-11.9663

> <Gold.Chemscore.Internal_Hbond.Weighted>
0.0000

> <Gold.Chemscore.DEClash.Weighted>
1.1671

> <Gold.Chemscore.DEInternal.Weighted>
0.6525

> <Gold.Chemscore.Rot.Weighted>
7.2240

> <Gold.Chemscore.Internal.Correction.Weighted>
   9.000000E+99

> <Gold.Protein.RotatedTorsions>
[ 6907 6896 6895 6894 ] final  123.50 input  -60.11 | X-H torsion
[ 7974 7965 7964 7962 ] final   15.47 input  175.53 | X-H torsion
[ 8008 7997 7996 7995 ] final  -73.45 input   59.86 | X-H torsion
[ 10167 10162 10161 10158 ] final  124.95 input  -65.29 | X-H torsion
[ 10718 10713 10712 10709 ] final  -22.37 input   66.30 | X-H torsion
[ 10763 10752 10751 10750 ] final   60.47 input  -60.55 | X-H torsion
[ 11005 11000 10999 10996 ] final   -4.67 input  -57.11 | X-H torsion

> <Gold.Protein.ActiveResidues>
 VAL166  LYS551  ARG553  GLY616  TRP617  ASP618  TYR619  PRO620  LYS621  CYS622 
 ASP623  PHE694  ASN695  SER759  ASP760  ASP761  ALA762  ILE779  LEU786  VAL792 
 PHE793  MET794  SER795  GLU796  ALA797  LYS798  CYS799  TRP800  GLU811  SER814 

> <Gold.Protein.RotatedAtoms>
  152.4157  133.7034  159.6436 H   0  0  0  0  0  0  0  0  0  0  0  0  # atno 6907 bound_to 6896
  150.8034  133.8545  159.3223 H   0  0  0  0  0  0  0  0  0  0  0  0  # atno 6908 bound_to 6896
  151.6275  135.1028  160.0166 H   0  0  0  0  0  0  0  0  0  0  0  0  # atno 6909 bound_to 6896
  146.2277  139.8889  142.8558 H   0  0  0  0  0  0  0  0  0  0  0  0  # atno 7974 bound_to 7965
  154.5248  140.0779  156.8238 H   0  0  0  0  0  0  0  0  0  0  0  0  # atno 8008 bound_to 7997
  155.3499  140.3412  155.4221 H   0  0  0  0  0  0  0  0  0  0  0  0  # atno 8009 bound_to 7997
  156.1720  140.1623  156.8417 H   0  0  0  0  0  0  0  0  0  0  0  0  # atno 8010 bound_to 7997
  139.5713  144.6940  151.3772 H   0  0  0  0  0  0  0  0  0  0  0  0  # atno 10167 bound_to 10162
  156.5055  130.4598  149.6677 H   0  0  0  0  0  0  0  0  0  0  0  0  # atno 10718 bound_to 10713
  152.9922  135.5535  154.5879 H   0  0  0  0  0  0  0  0  0  0  0  0  # atno 10763 bound_to 10752
  154.5247  135.2810  155.1234 H   0  0  0  0  0  0  0  0  0  0  0  0  # atno 10764 bound_to 10752
  154.2573  135.6387  153.5314 H   0  0  0  0  0  0  0  0  0  0  0  0  # atno 10765 bound_to 10752
  140.6828  133.9139  155.8566 H   0  0  0  0  0  0  0  0  0  0  0  0  # atno 11005 bound_to 11000
  145.2438  141.0019  143.3921 LP  0  0  0  0  0  0  0  0  0  0  0  0  # atno 17320 bound_to 7965
  144.9430  139.4167  143.6439 LP  0  0  0  0  0  0  0  0  0  0  0  0  # atno 17321 bound_to 7965
  140.6997  143.7662  150.7383 LP  0  0  0  0  0  0  0  0  0  0  0  0  # atno 17342 bound_to 10162
  140.1169  143.4647  152.2336 LP  0  0  0  0  0  0  0  0  0  0  0  0  # atno 17343 bound_to 10162
  156.3291  130.7322  151.2248 LP  0  0  0  0  0  0  0  0  0  0  0  0  # atno 17370 bound_to 10713
  157.7457  131.0435  150.4745 LP  0  0  0  0  0  0  0  0  0  0  0  0  # atno 17371 bound_to 10713
  141.0304  134.0764  157.4020 LP  0  0  0  0  0  0  0  0  0  0  0  0  # atno 17394 bound_to 11000
  139.8947  135.0137  156.6962 LP  0  0  0  0  0  0  0  0  0  0  0  0  # atno 17395 bound_to 11000

$$$$
