AV-unprocessed.smi:1279|AV-procd|sdf|5356|dock6
  -GOLD-   22720 4493D 1   1.00000     0.00000
 Structure written by MMmdl.
 46 47  0  0  0  0  0  0  0  0  2 V2000
  150.8893  142.5826  157.2129 C   0  0  0  0  0  0  0  0  0  0  0  0
  150.6408  141.5181  156.1855 C   0  0  0  0  0  0  0  0  0  0  0  0
  149.5460  141.4121  155.2790 C   0  0  0  0  0  0  0  0  0  0  0  0
  149.8354  140.2661  154.5902 C   0  0  0  0  0  0  0  0  0  0  0  0
  149.1370  139.6724  153.5861 N   0  0  0  0  0  0  0  0  0  0  0  0
  147.8493  139.2857  153.5735 C   0  0  0  0  0  0  0  0  0  0  0  0
  147.0550  139.4091  154.5060 O   0  0  0  0  0  0  0  0  0  0  0  0
  147.5216  138.7272  152.3994 N   0  0  0  0  0  0  0  0  0  0  0  0
  146.2031  138.2016  152.0638 C   0  0  0  0  0  0  0  0  0  0  0  0
  145.8007  137.0440  152.9985 C   0  0  0  0  0  0  0  0  0  0  0  0
  146.3412  135.7360  152.5494 N   0  3  2  0  0  0  0  0  0  0  0  0
  145.6884  135.2609  151.3019 C   0  0  0  0  0  0  0  0  0  0  0  0
  146.3473  133.9717  150.7788 C   0  0  0  0  0  0  0  0  0  0  0  0
  146.3631  132.8548  151.8377 C   0  0  2  0  0  0  0  0  0  0  0  0
  144.9767  132.2240  152.0579 C   0  0  0  0  0  0  0  0  0  0  0  0
  146.9868  133.3945  153.1375 C   0  0  0  0  0  0  0  0  0  0  0  0
  146.3140  134.6953  153.6116 C   0  0  0  0  0  0  0  0  0  0  0  0
  151.0190  139.7474  155.0666 N   0  0  0  0  0  0  0  0  0  0  0  0
  151.7347  138.5554  154.6549 C   0  0  0  0  0  0  0  0  0  0  0  0
  151.5134  140.5253  156.0538 N   0  0  0  0  0  0  0  0  0  0  0  0
  150.0949  143.3291  157.2072 H   0  0  0  0  0  0  0  0  0  0  0  0
  151.8305  143.0992  157.0233 H   0  0  0  0  0  0  0  0  0  0  0  0
  150.9365  142.1572  158.2155 H   0  0  0  0  0  0  0  0  0  0  0  0
  148.7031  142.0775  155.1690 H   0  0  0  0  0  0  0  0  0  0  0  0
  149.6659  139.4907  152.7458 H   0  0  0  0  0  0  0  0  0  0  0  0
  148.2331  138.6665  151.6854 H   0  0  0  0  0  0  0  0  0  0  0  0
  145.4622  139.0019  152.1052 H   0  0  0  0  0  0  0  0  0  0  0  0
  146.2442  137.8700  151.0271 H   0  0  0  0  0  0  0  0  0  0  0  0
  146.1176  137.2438  154.0234 H   0  0  0  0  0  0  0  0  0  0  0  0
  144.7116  136.9859  153.0211 H   0  0  0  0  0  0  0  0  0  0  0  0
  144.6241  135.1030  151.4815 H   0  0  0  0  0  0  0  0  0  0  0  0
  145.7646  136.0307  150.5327 H   0  0  0  0  0  0  0  0  0  0  0  0
  145.8385  133.6303  149.8766 H   0  0  0  0  0  0  0  0  0  0  0  0
  147.3725  134.1949  150.4801 H   0  0  0  0  0  0  0  0  0  0  0  0
  147.0093  132.0578  151.4674 H   0  0  0  0  0  0  0  0  0  0  0  0
  144.2494  132.9447  152.4302 H   0  0  0  0  0  0  0  0  0  0  0  0
  145.0292  131.4075  152.7787 H   0  0  0  0  0  0  0  0  0  0  0  0
  144.5840  131.8118  151.1278 H   0  0  0  0  0  0  0  0  0  0  0  0
  146.9370  132.6390  153.9226 H   0  0  0  0  0  0  0  0  0  0  0  0
  148.0477  133.5868  152.9714 H   0  0  0  0  0  0  0  0  0  0  0  0
  146.8338  135.0496  154.5009 H   0  0  0  0  0  0  0  0  0  0  0  0
  145.2829  134.5033  153.9110 H   0  0  0  0  0  0  0  0  0  0  0  0
  151.0545  137.7036  154.6429 H   0  0  0  0  0  0  0  0  0  0  0  0
  152.5534  138.3418  155.3438 H   0  0  0  0  0  0  0  0  0  0  0  0
  152.1418  138.7018  153.6542 H   0  0  0  0  0  0  0  0  0  0  0  0
  147.3109  135.8931  152.3141 H   0  0  0  0  0  0  0  0  0  0  0  0
  1  2  1  0  0  0  0
  1 21  1  0  0  0  0
  1 22  1  0  0  0  0
  1 23  1  0  0  0  0
  2 20  2  0  0  0  0
  2  3  1  0  0  0  0
  3  4  2  0  0  0  0
  3 24  1  0  0  0  0
  4  5  1  0  0  0  0
  4 18  1  0  0  0  0
  5  6  1  0  0  0  0
  5 25  1  0  0  0  0
  6  7  2  0  0  0  0
  6  8  1  0  0  0  0
  8  9  1  0  0  0  0
  8 26  1  0  0  0  0
  9 10  1  0  0  0  0
  9 27  1  0  0  0  0
  9 28  1  0  0  0  0
 10 11  1  0  0  0  0
 10 29  1  0  0  0  0
 10 30  1  0  0  0  0
 11 17  1  0  0  0  0
 11 12  1  0  0  0  0
 11 46  1  0  0  0  0
 12 13  1  0  0  0  0
 12 31  1  0  0  0  0
 12 32  1  0  0  0  0
 13 14  1  0  0  0  0
 13 33  1  0  0  0  0
 13 34  1  0  0  0  0
 14 15  1  0  0  0  0
 14 16  1  0  0  0  0
 14 35  1  0  0  0  0
 15 36  1  0  0  0  0
 15 37  1  0  0  0  0
 15 38  1  0  0  0  0
 16 17  1  0  0  0  0
 16 39  1  0  0  0  0
 16 40  1  0  0  0  0
 17 41  1  0  0  0  0
 17 42  1  0  0  0  0
 18 19  1  0  0  0  0
 18 20  1  0  0  0  0
 19 43  1  0  0  0  0
 19 44  1  0  0  0  0
 19 45  1  0  0  0  0
M  CHG  1  11   1
M  END
> <s_m_source_file>
AV-unprocessed.smi

> <i_m_source_file_index>
1279

> <i_lp_mmshare_version>
43012

> <i_f3d_flags>
0

> <s_epik_input>
W0NIM11jMVtjSF1jKG4objEpW0NIM10pW05IXUMoPU8pW05IXVtDSDJdW0NIMl1OMltDSDJdW0NIMl1bQ0hdKFtDSDNdKVtDSDJdW0NIMl0y

> <s_epik_cmdline>
J2VwaWtfcHl0aG9uJywgJy1waCcsICc3LjAnLCAnLXRuJywgJzgnLCAnLW1hJywgJzIwMCcsICctbWV0YWxfYmluZGluZycsICctaW1hZScsICc8aW5maWxlLm1hZT4nLCAnLW9tYWUnLCAnPG91dGZpbGUubWFlPic=

> <r_lp_tautomer_probability>
1

> <r_epik_Ionization_Penalty>
0.00166091

> <r_epik_Ionization_Penalty_Charging>
0.0015841

> <r_epik_Ionization_Penalty_Neutral>
7.68112e-05

> <r_epik_State_Penalty>
0.00106518

> <r_epik_Charging_Adjusted_Penalty>
0.00264928

> <i_epik_Tot_Q>
1

> <i_epik_Tot_abs_Q>
1

> <r_epik_Metal_State_Penalty>
-0

> <b_epik_Metal_Only>
0

> <s_lp_Force_Field>
OPLS_2005

> <r_lp_Energy>
19.8524

> <b_lp_Chiralities_Consistent>
1

> <s_lp_Variant>
AV-unprocessed.smi:1279-2

> <Gold.Version>
5.8.1

> <Gold.Id.Protein>
6NUR|6NUR_protein|mol2

> <Gold.PLP.Fitness>
46.6321

> <Gold.PLP.PLP>
-38.1635

> <Gold.PLP.part.hbond>
-3.9095

> <Gold.PLP.part.metal>
0.0000

> <Gold.PLP.part.buried>
-2.8442

> <Gold.PLP.part.nonpolar>
-31.9606

> <Gold.PLP.part.repulsive>
0.3184

> <Gold.PLP.ligand.clash>
0.0000

> <Gold.PLP.ligand.torsion>
0.7250

> <Gold.PLP.Chemscore.Hbond>
3.2960

> <Gold.PLP.Chemscore.CHOScore>
0.0000

> <Gold.PLP.Chemscore.Metal>
0.0000

> <Gold.Chemscore.Hbonds>
donor molecule, donor type, donor heavy atom, donor atom, acceptor molecule, acceptor atom, score
      L1  H     5    25       P1  7957  0.72
      L1  H     8    26       P1  7957  0.61
      L1  H    11    46       P1  7948  2.00

> <Gold.PLP.Chemscore.Internal.Correction>
0.0305

> <Gold.Rescore>
     Score         DG    S(hbond)    S(metal)    S(lipo)     H(rot)  DE(clash)    DE(int)     intcor
     17.52     -18.22       2.43        0.00      72.09       1.48       0.01       0.70       ----

> <Gold.Chemscore.Fitness>
17.5203

> <Gold.Chemscore.DG>
-18.2217

> <Gold.Chemscore.ZeroCoef>
-5.4800

> <Gold.Chemscore.Hbond>
2.4267

> <Gold.Chemscore.Metal>
0.0000

> <Gold.Chemscore.Lipo>
72.0936

> <Gold.Chemscore.Internal_Hbond>
0.0000

> <Gold.Chemscore.DEClash>
0.0054

> <Gold.Chemscore.DEInternal>
0.6960

> <Gold.Chemscore.Rot>
1.4838

> <Gold.Chemscore.Internal.Correction>
   9.000000E+99

> <Gold.Chemscore.Hbonds>
donor molecule, donor type, donor heavy atom, donor atom, acceptor molecule, acceptor atom, score
      L1  H     5    25       P1  7957  0.72
      L1  H     8    26       P1  7957  0.35
      L1  H    11    46       P1  7948  1.00

> <Gold.Chemscore.Hbond.Weighted>
-8.1053

> <Gold.Chemscore.Metal.Weighted>
-0.0000

> <Gold.Chemscore.Lipo.Weighted>
-8.4350

> <Gold.Chemscore.Internal_Hbond.Weighted>
0.0000

> <Gold.Chemscore.DEClash.Weighted>
0.0054

> <Gold.Chemscore.DEInternal.Weighted>
0.6960

> <Gold.Chemscore.Rot.Weighted>
3.7985

> <Gold.Chemscore.Internal.Correction.Weighted>
   9.000000E+99

> <Gold.Protein.RotatedTorsions>
[ 6907 6896 6895 6894 ] final -105.64 input  -60.11 | X-H torsion
[ 7974 7965 7964 7962 ] final  -35.15 input  175.53 | X-H torsion
[ 8008 7997 7996 7995 ] final -166.23 input   59.86 | X-H torsion
[ 10167 10162 10161 10158 ] final   15.69 input  -65.29 | X-H torsion
[ 10718 10713 10712 10709 ] final   37.21 input   66.30 | X-H torsion
[ 10763 10752 10751 10750 ] final   29.96 input  -60.55 | X-H torsion
[ 11005 11000 10999 10996 ] final  -13.85 input  -57.11 | X-H torsion

> <Gold.Protein.ActiveResidues>
 VAL166  LYS551  ARG553  GLY616  TRP617  ASP618  TYR619  PRO620  LYS621  CYS622 
 ASP623  PHE694  ASN695  SER759  ASP760  ASP761  ALA762  ILE779  LEU786  VAL792 
 PHE793  MET794  SER795  GLU796  ALA797  LYS798  CYS799  TRP800  GLU811  SER814 

> <Gold.Protein.RotatedAtoms>
  150.7347  134.0096  159.3665 H   0  0  0  0  0  0  0  0  0  0  0  0  # atno 6907 bound_to 6896
  151.8055  135.0694  160.0415 H   0  0  0  0  0  0  0  0  0  0  0  0  # atno 6908 bound_to 6896
  152.3110  133.5716  159.5717 H   0  0  0  0  0  0  0  0  0  0  0  0  # atno 6909 bound_to 6896
  146.0770  140.6125  142.8926 H   0  0  0  0  0  0  0  0  0  0  0  0  # atno 7974 bound_to 7965
  155.8610  140.0978  157.1613 H   0  0  0  0  0  0  0  0  0  0  0  0  # atno 8008 bound_to 7997
  154.3990  140.1365  156.4023 H   0  0  0  0  0  0  0  0  0  0  0  0  # atno 8009 bound_to 7997
  155.7857  140.3457  155.5324 H   0  0  0  0  0  0  0  0  0  0  0  0  # atno 8010 bound_to 7997
  140.5849  143.8908  150.6822 H   0  0  0  0  0  0  0  0  0  0  0  0  # atno 10167 bound_to 10162
  157.3442  130.7564  149.6933 H   0  0  0  0  0  0  0  0  0  0  0  0  # atno 10718 bound_to 10713
  153.0399  135.6476  154.0972 H   0  0  0  0  0  0  0  0  0  0  0  0  # atno 10763 bound_to 10752
  154.0680  135.2883  155.3315 H   0  0  0  0  0  0  0  0  0  0  0  0  # atno 10764 bound_to 10752
  154.6613  135.5390  153.8086 H   0  0  0  0  0  0  0  0  0  0  0  0  # atno 10765 bound_to 10752
  140.7803  133.8368  155.9286 H   0  0  0  0  0  0  0  0  0  0  0  0  # atno 11005 bound_to 11000
  144.7268  140.4549  143.6967 LP  0  0  0  0  0  0  0  0  0  0  0  0  # atno 17320 bound_to 7965
  145.6288  139.1533  143.2981 LP  0  0  0  0  0  0  0  0  0  0  0  0  # atno 17321 bound_to 7965
  140.2417  143.3659  152.1481 LP  0  0  0  0  0  0  0  0  0  0  0  0  # atno 17342 bound_to 10162
  139.5192  144.7016  151.5477 LP  0  0  0  0  0  0  0  0  0  0  0  0  # atno 17343 bound_to 10162
  155.9712  130.4159  150.4204 LP  0  0  0  0  0  0  0  0  0  0  0  0  # atno 17370 bound_to 10713
  157.2256  131.0492  151.2521 LP  0  0  0  0  0  0  0  0  0  0  0  0  # atno 17371 bound_to 10713
  140.9489  134.1805  157.4743 LP  0  0  0  0  0  0  0  0  0  0  0  0  # atno 17394 bound_to 11000
  139.8743  134.9901  156.5488 LP  0  0  0  0  0  0  0  0  0  0  0  0  # atno 17395 bound_to 11000

$$$$
