#       Name:                AV-unprocessed.smi:3091
#       Creating user name   scv26
#       Creation time:       Fri Mar 27 17:16:22 2020


#       File generated by GOLD software.
#

@<TRIPOS>MOLECULE
AV-unprocessed.smi:3091
    34    35     1
SMALL
NO_CHARGES


@<TRIPOS>ATOM
      1 ****        -4.2626   0.1730  -0.8362 N.3            1 S1                 0.0000
      2 ****        -3.8277  -0.9063   0.0275 C.3            1 S1                 0.0000
      3 ****        -2.3283  -1.1200  -0.0232 C.ar           1 S1                 0.0000
      4 ****        -1.7874  -2.2990  -0.5740 C.ar           1 S1                 0.0000
      5 ****        -0.3869  -2.4444  -0.5993 C.ar           1 S1                 0.0000
      6 ****         0.4639  -1.5102  -0.1246 N.ar           1 S1                 0.0000
      7 ****        -0.0570  -0.3746   0.4038 C.ar           1 S1                 0.0000
      8 ****         0.7983   0.5932   0.8928 O.3            1 S1                 0.0000
      9 ****         2.2110   0.4093   0.7776 C.3            1 S1                 0.0000
     10 ****         2.6932   0.7458  -0.6278 C.3            1 S1                 0.0000
     11 ****         2.9572   2.2413  -0.5351 C.3            1 S1                 0.0000
     12 ****         3.5433   2.3793   0.7478 O.3            1 S1                 0.0000
     13 ****         2.9011   1.4754   1.6423 C.3            1 S1                 0.0000
     14 ****        -1.4454  -0.1405   0.4759 C.ar           1 S1                 0.0000
     15 ****        -3.4766   0.5145  -1.3712 H              1 S1                 0.0000
     16 ****        -4.9398  -0.1724  -1.5010 H              1 S1                 0.0000
     17 ****        -4.1278  -0.6869   1.0524 H              1 S1                 0.0000
     18 ****        -4.3422  -1.8215  -0.2668 H              1 S1                 0.0000
     19 ****        -2.4262  -3.0754  -0.9687 H              1 S1                 0.0000
     20 ****         0.0623  -3.3349  -1.0135 H              1 S1                 0.0000
     21 ****         2.5148  -0.5898   1.0950 H              1 S1                 0.0000
     22 ****         3.6274   0.2217  -0.8331 H              1 S1                 0.0000
     23 ****         1.9839   0.4882  -1.4146 H              1 S1                 0.0000
     24 ****         3.6181   2.6047  -1.3222 H              1 S1                 0.0000
     25 ****         2.0242   2.8056  -0.5756 H              1 S1                 0.0000
     26 ****         2.1846   2.0134   2.2645 H              1 S1                 0.0000
     27 ****         3.6479   1.0341   2.3028 H              1 S1                 0.0000
     28 ****        -1.8244   0.7759   0.9044 H              1 S1                 0.0000
     29 ****        -4.6553   0.8945  -0.2659 LP             1 S1                 0.0000
     30 ****         1.4532  -1.6516  -0.1615 LP             1 S1                 0.0000
     31 ****         0.5969   0.6936   1.8671 LP             1 S1                 0.0000
     32 ****         0.5764   1.4444   0.4171 LP             1 S1                 0.0000
     33 ****         3.4236   3.3172   1.0735 LP             1 S1                 0.0000
     34 ****         4.5190   2.1662   0.6968 LP             1 S1                 0.0000
@<TRIPOS>BOND
    1    1    2 1     
    2    1   15 1     
    3    1   16 1     
    4    2    3 1     
    5    2   17 1     
    6    2   18 1     
    7    3   14 ar    
    8    3    4 ar    
    9    4    5 ar    
   10    4   19 1     
   11    5    6 ar    
   12    5   20 1     
   13    6    7 ar    
   14    7    8 1     
   15    7   14 ar    
   16    8    9 1     
   17    9   13 1     
   18    9   10 1     
   19    9   21 1     
   20   10   11 1     
   21   10   22 1     
   22   10   23 1     
   23   11   12 1     
   24   11   24 1     
   25   11   25 1     
   26   12   13 1     
   27   13   26 1     
   28   13   27 1     
   29   14   28 1     
   30    1   29 1     
   31    6   30 1     
   32    8   31 1     
   33    8   32 1     
   34   12   33 1     
   35   12   34 1     
@<TRIPOS>SUBSTRUCTURE
      1 S1             1
@<TRIPOS>SET
LONE_PAIRS      STATIC     ATOMS    <user>   **** ""
6 29 30 31 32 33 34
DONOR_HYDROGENS      STATIC     ATOMS    <user>   **** ""
2 15 16
ATOM$BLUE        STATIC     ATOMS    COLORGROUP SYSTEM
6 29 30 31 32 33 34
ATOM$RED        STATIC     ATOMS    COLORGROUP SYSTEM
2 15 16
