AV-unprocessed.smi:553|AV-procd|sdf|2904|dock2
  -GOLD-   2262023393D 1   1.00000     0.00000
 Structure written by MMmdl.
 43 45  0  0  0  0  0  0  0  0  1 V2000
  150.5695  135.7448  156.5245 O   0  0  0  0  0  0  0  0  0  0  0  0
  150.1333  136.1663  155.4557 C   0  0  0  0  0  0  0  0  0  0  0  0
  150.1237  137.4635  155.0907 N   0  0  0  0  0  0  0  0  0  0  0  0
  150.4974  138.5999  155.8567 C   0  0  0  0  0  0  0  0  0  0  0  0
  150.6924  139.8209  155.1830 C   0  0  0  0  0  0  0  0  0  0  0  0
  151.0393  140.9678  155.9222 C   0  0  0  0  0  0  0  0  0  0  0  0
  151.1763  140.8687  157.3270 C   0  0  0  0  0  0  0  0  0  0  0  0
  151.5215  142.0046  158.0920 N   0  0  0  0  0  0  0  0  0  0  0  0
  152.6718  141.9039  158.9891 C   0  0  0  0  0  0  0  0  0  0  0  0
  152.7161  143.1093  159.9432 C   0  0  0  0  0  0  0  0  0  0  0  0
  152.7108  144.3172  159.1903 O   0  0  0  0  0  0  0  0  0  0  0  0
  151.5282  144.4476  158.4083 C   0  0  0  0  0  0  0  0  0  0  0  0
  151.4374  143.2887  157.4004 C   0  0  0  0  0  0  0  0  0  0  0  0
  150.9686  139.6966  157.9759 N   0  0  0  0  0  0  0  0  0  0  0  0
  150.6392  138.5986  157.2642 C   0  0  0  0  0  0  0  0  0  0  0  0
  149.6567  135.3251  154.5207 N   0  0  0  0  0  0  0  0  0  0  0  0
  149.5278  133.8688  154.5916 C   0  0  2  0  0  0  0  0  0  0  0  0
  148.8379  133.3165  153.3304 C   0  0  0  0  0  0  0  0  0  0  0  0
  148.4091  131.8687  153.5982 C   0  0  0  0  0  0  0  0  0  0  0  0
  148.0347  131.7746  155.3900 S   0  0  0  0  0  0  0  0  0  0  0  0
  146.5779  131.7786  155.5906 O   0  0  0  0  0  0  0  0  0  0  0  0
  148.8808  130.7379  155.9998 O   0  0  0  0  0  0  0  0  0  0  0  0
  148.7006  133.4289  155.8105 C   0  0  0  0  0  0  0  0  0  0  0  0
  149.8418  137.6548  154.1405 H   0  0  0  0  0  0  0  0  0  0  0  0
  150.5773  139.8824  154.1105 H   0  0  0  0  0  0  0  0  0  0  0  0
  151.1772  141.9067  155.4074 H   0  0  0  0  0  0  0  0  0  0  0  0
  152.6179  140.9844  159.5734 H   0  0  0  0  0  0  0  0  0  0  0  0
  153.5876  141.8623  158.3979 H   0  0  0  0  0  0  0  0  0  0  0  0
  151.8693  143.0922  160.6314 H   0  0  0  0  0  0  0  0  0  0  0  0
  153.6204  143.0736  160.5508 H   0  0  0  0  0  0  0  0  0  0  0  0
  150.6509  144.4681  159.0570 H   0  0  0  0  0  0  0  0  0  0  0  0
  151.5556  145.4014  157.8812 H   0  0  0  0  0  0  0  0  0  0  0  0
  152.2559  143.3549  156.6825 H   0  0  0  0  0  0  0  0  0  0  0  0
  150.5121  143.3849  156.8346 H   0  0  0  0  0  0  0  0  0  0  0  0
  150.4659  137.7138  157.8563 H   0  0  0  0  0  0  0  0  0  0  0  0
  149.3990  135.7425  153.6379 H   0  0  0  0  0  0  0  0  0  0  0  0
  150.5148  133.4062  154.6490 H   0  0  0  0  0  0  0  0  0  0  0  0
  147.9463  133.9093  153.1198 H   0  0  0  0  0  0  0  0  0  0  0  0
  149.4804  133.3864  152.4522 H   0  0  0  0  0  0  0  0  0  0  0  0
  147.5402  131.5664  153.0136 H   0  0  0  0  0  0  0  0  0  0  0  0
  149.2268  131.1787  153.3895 H   0  0  0  0  0  0  0  0  0  0  0  0
  149.2828  133.3758  156.7304 H   0  0  0  0  0  0  0  0  0  0  0  0
  147.8531  134.0956  155.9738 H   0  0  0  0  0  0  0  0  0  0  0  0
  1  2  2  0  0  0  0
  2  3  1  0  0  0  0
  2 16  1  0  0  0  0
  3  4  1  0  0  0  0
  3 24  1  0  0  0  0
  4 15  1  0  0  0  0
  4  5  2  0  0  0  0
  5  6  1  0  0  0  0
  5 25  1  0  0  0  0
  6  7  2  0  0  0  0
  6 26  1  0  0  0  0
  7  8  1  0  0  0  0
  7 14  1  0  0  0  0
  8 13  1  0  0  0  0
  8  9  1  0  0  0  0
  9 10  1  0  0  0  0
  9 27  1  0  0  0  0
  9 28  1  0  0  0  0
 10 11  1  0  0  0  0
 10 29  1  0  0  0  0
 10 30  1  0  0  0  0
 11 12  1  0  0  0  0
 12 13  1  0  0  0  0
 12 31  1  0  0  0  0
 12 32  1  0  0  0  0
 13 33  1  0  0  0  0
 13 34  1  0  0  0  0
 14 15  2  0  0  0  0
 15 35  1  0  0  0  0
 16 17  1  0  0  0  0
 16 36  1  0  0  0  0
 17 23  1  0  0  0  0
 17 18  1  0  0  0  0
 17 37  1  0  0  0  0
 18 19  1  0  0  0  0
 18 38  1  0  0  0  0
 18 39  1  0  0  0  0
 19 20  1  0  0  0  0
 19 40  1  0  0  0  0
 19 41  1  0  0  0  0
 20 21  2  0  0  0  0
 20 22  2  0  0  0  0
 20 23  1  0  0  0  0
 23 42  1  0  0  0  0
 23 43  1  0  0  0  0
M  END
> <s_m_source_file>
AV-unprocessed.smi

> <i_m_source_file_index>
553

> <i_lp_mmshare_version>
43012

> <i_f3d_flags>
0

> <s_epik_input>
Tz1TMSg9TylbQ0gyXVtDSDJdW0NASF0oW0NIMl0xKVtOSF1DKD1PKVtOSF1jMltjSF1bY0hdYyhuW2NIXTIpTjNbQ0gyXVtDSDJdT1tDSDJdW0NIMl0z

> <s_epik_cmdline>
J2VwaWtfcHl0aG9uJywgJy1waCcsICc3LjAnLCAnLXRuJywgJzgnLCAnLW1hJywgJzIwMCcsICctbWV0YWxfYmluZGluZycsICctaW1hZScsICc8aW5maWxlLm1hZT4nLCAnLW9tYWUnLCAnPG91dGZpbGUubWFlPic=

> <r_lp_tautomer_probability>
1

> <r_epik_Ionization_Penalty>
0.00171806

> <r_epik_Ionization_Penalty_Charging>
0

> <r_epik_Ionization_Penalty_Neutral>
0.00171806

> <r_epik_State_Penalty>
0.00114322

> <r_epik_Charging_Adjusted_Penalty>
0.00114322

> <i_epik_Tot_Q>
0

> <i_epik_Tot_abs_Q>
0

> <r_epik_Metal_State_Penalty>
-0

> <b_epik_Metal_Only>
0

> <s_lp_Force_Field>
OPLS_2005

> <r_lp_Energy>
31.553

> <b_lp_Chiralities_Consistent>
1

> <s_lp_Variant>
AV-unprocessed.smi:553-1

> <Gold.Version>
5.8.1

> <Gold.Id.Protein>
6NUR|6NUR_protein|mol2

> <Gold.PLP.Fitness>
38.7315

> <Gold.PLP.PLP>
-35.8947

> <Gold.PLP.part.hbond>
-1.1835

> <Gold.PLP.part.metal>
0.0000

> <Gold.PLP.part.buried>
-4.0539

> <Gold.PLP.part.nonpolar>
-29.6273

> <Gold.PLP.part.repulsive>
0.1723

> <Gold.PLP.ligand.clash>
0.0000

> <Gold.PLP.ligand.torsion>
0.2559

> <Gold.PLP.Chemscore.Hbond>
1.0000

> <Gold.PLP.Chemscore.CHOScore>
0.0000

> <Gold.PLP.Chemscore.Metal>
0.0000

> <Gold.Chemscore.Hbonds>
donor molecule, donor type, donor heavy atom, donor atom, acceptor molecule, acceptor atom, score
      L1  H    16    36       P1  7948  1.00

> <Gold.PLP.Chemscore.Internal.Correction>
0.3486

> <Gold.Rescore>
     Score         DG    S(hbond)    S(metal)    S(lipo)     H(rot)  DE(clash)    DE(int)     intcor
     14.16     -15.60       0.93        0.00      87.80       1.27       0.04       1.40       ----

> <Gold.Chemscore.Fitness>
14.1614

> <Gold.Chemscore.DG>
-15.6008

> <Gold.Chemscore.ZeroCoef>
-5.4800

> <Gold.Chemscore.Hbond>
0.9282

> <Gold.Chemscore.Metal>
0.0000

> <Gold.Chemscore.Lipo>
87.8008

> <Gold.Chemscore.Internal_Hbond>
0.0000

> <Gold.Chemscore.DEClash>
0.0368

> <Gold.Chemscore.DEInternal>
1.4026

> <Gold.Chemscore.Rot>
1.2703

> <Gold.Chemscore.Internal.Correction>
   9.000000E+99

> <Gold.Chemscore.Hbonds>
donor molecule, donor type, donor heavy atom, donor atom, acceptor molecule, acceptor atom, score
      L1  H    16    36       P1  7948  0.45

> <Gold.Chemscore.Hbond.Weighted>
-3.1001

> <Gold.Chemscore.Metal.Weighted>
-0.0000

> <Gold.Chemscore.Lipo.Weighted>
-10.2727

> <Gold.Chemscore.Internal_Hbond.Weighted>
0.0000

> <Gold.Chemscore.DEClash.Weighted>
0.0368

> <Gold.Chemscore.DEInternal.Weighted>
1.4026

> <Gold.Chemscore.Rot.Weighted>
3.2520

> <Gold.Chemscore.Internal.Correction.Weighted>
   9.000000E+99

> <Gold.Protein.RotatedTorsions>
[ 6907 6896 6895 6894 ] final -111.59 input  -60.11 | X-H torsion
[ 7974 7965 7964 7962 ] final  148.15 input  175.53 | X-H torsion
[ 8008 7997 7996 7995 ] final  -76.52 input   59.86 | X-H torsion
[ 10167 10162 10161 10158 ] final  -86.88 input  -65.29 | X-H torsion
[ 10718 10713 10712 10709 ] final   93.17 input   66.30 | X-H torsion
[ 10763 10752 10751 10750 ] final  170.08 input  -60.55 | X-H torsion
[ 11005 11000 10999 10996 ] final   51.35 input  -57.11 | X-H torsion

> <Gold.Protein.ActiveResidues>
 VAL166  LYS551  ARG553  GLY616  TRP617  ASP618  TYR619  PRO620  LYS621  CYS622 
 ASP623  PHE694  ASN695  SER759  ASP760  ASP761  ALA762  ILE779  LEU786  VAL792 
 PHE793  MET794  SER795  GLU796  ALA797  LYS798  CYS799  TRP800  GLU811  SER814 

> <Gold.Protein.RotatedAtoms>
  150.7700  133.9213  159.3398 H   0  0  0  0  0  0  0  0  0  0  0  0  # atno 6907 bound_to 6896
  151.7102  135.0912  160.0276 H   0  0  0  0  0  0  0  0  0  0  0  0  # atno 6908 bound_to 6896
  152.3714  133.6386  159.6125 H   0  0  0  0  0  0  0  0  0  0  0  0  # atno 6909 bound_to 6896
  144.8536  139.6117  143.5962 H   0  0  0  0  0  0  0  0  0  0  0  0  # atno 7974 bound_to 7965
  154.5513  140.0726  156.8671 H   0  0  0  0  0  0  0  0  0  0  0  0  # atno 8008 bound_to 7997
  155.2988  140.3383  155.4230 H   0  0  0  0  0  0  0  0  0  0  0  0  # atno 8009 bound_to 7997
  156.1963  140.1705  156.7977 H   0  0  0  0  0  0  0  0  0  0  0  0  # atno 8010 bound_to 7997
  140.3899  143.2710  151.9278 H   0  0  0  0  0  0  0  0  0  0  0  0  # atno 10167 bound_to 10162
  157.6956  131.0469  150.3994 H   0  0  0  0  0  0  0  0  0  0  0  0  # atno 10718 bound_to 10713
  154.3925  135.2754  155.2146 H   0  0  0  0  0  0  0  0  0  0  0  0  # atno 10763 bound_to 10752
  154.4206  135.6001  153.6011 H   0  0  0  0  0  0  0  0  0  0  0  0  # atno 10764 bound_to 10752
  152.9832  135.5971  154.4181 H   0  0  0  0  0  0  0  0  0  0  0  0  # atno 10765 bound_to 10752
  140.0940  134.5171  155.8825 H   0  0  0  0  0  0  0  0  0  0  0  0  # atno 11005 bound_to 11000
  146.2805  139.6865  142.9232 LP  0  0  0  0  0  0  0  0  0  0  0  0  # atno 17320 bound_to 7965
  145.4450  141.0425  143.2836 LP  0  0  0  0  0  0  0  0  0  0  0  0  # atno 17321 bound_to 7965
  139.4789  144.5738  151.8045 LP  0  0  0  0  0  0  0  0  0  0  0  0  # atno 17342 bound_to 10162
  140.4851  144.1393  150.5939 LP  0  0  0  0  0  0  0  0  0  0  0  0  # atno 17343 bound_to 10162
  156.4389  130.3987  149.6710 LP  0  0  0  0  0  0  0  0  0  0  0  0  # atno 17370 bound_to 10713
  156.3901  130.7623  151.2623 LP  0  0  0  0  0  0  0  0  0  0  0  0  # atno 17371 bound_to 10713
  141.2086  133.6676  156.6385 LP  0  0  0  0  0  0  0  0  0  0  0  0  # atno 17394 bound_to 11000
  140.3312  134.7927  157.4328 LP  0  0  0  0  0  0  0  0  0  0  0  0  # atno 17395 bound_to 11000

$$$$
