AV-unprocessed.smi:177|AV-procd|sdf|1438|dock3
  -GOLD-   2262019223D 1   1.00000     0.00000
 Structure written by MMmdl.
 61 65  0  0  0  0  0  0  0  0  1 V2000
  145.9835  129.8322  152.2686 C   0  0  0  0  0  0  0  0  0  0  0  0
  146.0794  131.2001  152.6345 O   0  0  0  0  0  0  0  0  0  0  0  0
  146.3096  132.0933  151.5493 C   0  0  1  0  0  0  0  0  0  0  0  0
  145.1242  131.9609  150.5753 C   0  0  0  0  0  0  0  0  0  0  0  0
  143.8227  132.5218  151.1730 C   0  0  0  0  0  0  0  0  0  0  0  0
  144.0130  133.9737  151.6358 C   0  0  1  0  0  0  0  0  0  0  0  0
  142.7986  134.4467  152.2073 O   0  0  0  0  0  0  0  0  0  0  0  0
  142.8886  135.8205  152.5660 C   0  0  0  0  0  0  0  0  0  0  0  0
  143.9859  135.9992  153.6259 C   0  0  0  0  0  0  0  0  0  0  0  0
  145.2578  135.4612  153.1512 N   0  0  0  0  0  0  0  0  0  0  0  0
  146.2421  135.7526  154.0353 C   0  0  0  0  0  0  0  0  0  0  0  0
  146.8414  134.7646  154.7526 N   0  0  0  0  0  0  0  0  0  0  0  0
  147.7914  135.0662  155.6427 C   0  0  0  0  0  0  0  0  0  0  0  0
  148.2727  136.2660  155.9752 N   0  0  0  0  0  0  0  0  0  0  0  0
  147.6633  137.2602  155.2674 C   0  0  0  0  0  0  0  0  0  0  0  0
  146.6510  137.0898  154.2824 C   0  0  0  0  0  0  0  0  0  0  0  0
  146.2782  138.3216  153.7620 N   0  0  0  0  0  0  0  0  0  0  0  0
  147.0289  139.1743  154.4040 C   0  0  0  0  0  0  0  0  0  0  0  0
  147.8731  138.6267  155.3457 N   0  0  0  0  0  0  0  0  0  0  0  0
  148.8034  139.3455  156.2061 C   0  0  0  0  0  0  0  0  0  0  0  0
  149.8308  140.2509  155.4537 C   0  0  0  0  0  0  0  0  0  0  0  0
  149.1067  141.3291  154.6036 C   0  0  0  0  0  0  0  0  0  0  0  0
  148.2843  142.1678  155.3902 O   0  0  0  0  0  0  0  0  0  0  0  0
  150.7761  140.9873  156.4364 C   0  0  0  0  0  0  0  0  0  0  0  0
  151.7789  140.0418  157.1220 C   0  0  0  0  0  0  0  0  0  0  0  0
  152.5405  139.3531  156.1393 O   0  0  0  0  0  0  0  0  0  0  0  0
  151.7392  138.5286  155.3030 C   0  0  0  0  0  0  0  0  0  0  0  0
  150.7264  139.3904  154.5270 C   0  0  0  0  0  0  0  0  0  0  0  0
  145.1548  134.0772  152.6745 C   0  0  2  0  0  0  0  0  0  0  0  0
  146.4618  133.5532  152.0310 C   0  0  0  0  0  0  0  0  0  0  0  0
  145.7250  129.2425  153.1478 H   0  0  0  0  0  0  0  0  0  0  0  0
  146.9263  129.4465  151.8825 H   0  0  0  0  0  0  0  0  0  0  0  0
  145.2049  129.6739  151.5215 H   0  0  0  0  0  0  0  0  0  0  0  0
  147.2150  131.7867  151.0230 H   0  0  0  0  0  0  0  0  0  0  0  0
  145.3544  132.4982  149.6545 H   0  0  0  0  0  0  0  0  0  0  0  0
  144.9864  130.9166  150.2934 H   0  0  0  0  0  0  0  0  0  0  0  0
  143.0239  132.4687  150.4328 H   0  0  0  0  0  0  0  0  0  0  0  0
  143.5064  131.9046  152.0150 H   0  0  0  0  0  0  0  0  0  0  0  0
  144.2504  134.5852  150.7627 H   0  0  0  0  0  0  0  0  0  0  0  0
  143.0947  136.4291  151.6842 H   0  0  0  0  0  0  0  0  0  0  0  0
  141.9274  136.1484  152.9616 H   0  0  0  0  0  0  0  0  0  0  0  0
  144.0877  137.0578  153.8695 H   0  0  0  0  0  0  0  0  0  0  0  0
  143.6982  135.4857  154.5446 H   0  0  0  0  0  0  0  0  0  0  0  0
  148.2243  134.2271  156.1668 H   0  0  0  0  0  0  0  0  0  0  0  0
  146.9791  140.2364  154.2133 H   0  0  0  0  0  0  0  0  0  0  0  0
  148.2148  139.9245  156.9165 H   0  0  0  0  0  0  0  0  0  0  0  0
  149.3304  138.6061  156.8105 H   0  0  0  0  0  0  0  0  0  0  0  0
  149.8210  141.9469  154.0596 H   0  0  0  0  0  0  0  0  0  0  0  0
  148.4774  140.8617  153.8453 H   0  0  0  0  0  0  0  0  0  0  0  0
  148.4977  143.0670  155.1929 H   0  0  0  0  0  0  0  0  0  0  0  0
  151.3500  141.7381  155.8913 H   0  0  0  0  0  0  0  0  0  0  0  0
  150.2099  141.5414  157.1845 H   0  0  0  0  0  0  0  0  0  0  0  0
  152.4597  140.6164  157.7497 H   0  0  0  0  0  0  0  0  0  0  0  0
  151.2800  139.3278  157.7768 H   0  0  0  0  0  0  0  0  0  0  0  0
  152.3926  138.0067  154.6036 H   0  0  0  0  0  0  0  0  0  0  0  0
  151.2422  137.7600  155.8953 H   0  0  0  0  0  0  0  0  0  0  0  0
  150.1154  138.7512  153.8890 H   0  0  0  0  0  0  0  0  0  0  0  0
  151.2855  140.0418  153.8537 H   0  0  0  0  0  0  0  0  0  0  0  0
  144.9018  133.4451  153.5274 H   0  0  0  0  0  0  0  0  0  0  0  0
  147.3060  133.6321  152.7133 H   0  0  0  0  0  0  0  0  0  0  0  0
  146.7195  134.1847  151.1795 H   0  0  0  0  0  0  0  0  0  0  0  0
  1  2  1  0  0  0  0
  1 31  1  0  0  0  0
  1 32  1  0  0  0  0
  1 33  1  0  0  0  0
  2  3  1  0  0  0  0
  3 30  1  0  0  0  0
  3  4  1  0  0  0  0
  3 34  1  0  0  0  0
  4  5  1  0  0  0  0
  4 35  1  0  0  0  0
  4 36  1  0  0  0  0
  5  6  1  0  0  0  0
  5 37  1  0  0  0  0
  5 38  1  0  0  0  0
  6 29  1  0  0  0  0
  6  7  1  0  0  0  0
  6 39  1  0  0  0  0
  7  8  1  0  0  0  0
  8  9  1  0  0  0  0
  8 40  1  0  0  0  0
  8 41  1  0  0  0  0
  9 10  1  0  0  0  0
  9 42  1  0  0  0  0
  9 43  1  0  0  0  0
 10 11  1  0  0  0  0
 10 29  1  0  0  0  0
 11 16  1  0  0  0  0
 11 12  2  0  0  0  0
 12 13  1  0  0  0  0
 13 14  2  0  0  0  0
 13 44  1  0  0  0  0
 14 15  1  0  0  0  0
 15 19  1  0  0  0  0
 15 16  2  0  0  0  0
 16 17  1  0  0  0  0
 17 18  2  0  0  0  0
 18 19  1  0  0  0  0
 18 45  1  0  0  0  0
 19 20  1  0  0  0  0
 20 21  1  0  0  0  0
 20 46  1  0  0  0  0
 20 47  1  0  0  0  0
 21 28  1  0  0  0  0
 21 22  1  0  0  0  0
 21 24  1  0  0  0  0
 22 23  1  0  0  0  0
 22 48  1  0  0  0  0
 22 49  1  0  0  0  0
 23 50  1  0  0  0  0
 24 25  1  0  0  0  0
 24 51  1  0  0  0  0
 24 52  1  0  0  0  0
 25 26  1  0  0  0  0
 25 53  1  0  0  0  0
 25 54  1  0  0  0  0
 26 27  1  0  0  0  0
 27 28  1  0  0  0  0
 27 55  1  0  0  0  0
 27 56  1  0  0  0  0
 28 57  1  0  0  0  0
 28 58  1  0  0  0  0
 29 30  1  0  0  0  0
 29 59  1  0  0  0  0
 30 60  1  0  0  0  0
 30 61  1  0  0  0  0
M  END
> <s_m_source_file>
AV-unprocessed.smi

> <i_m_source_file_index>
177

> <i_lp_mmshare_version>
43012

> <i_f3d_flags>
0

> <s_epik_input>
W0NIM11PW0NASF0oW0NIMl1bQ0gyXTEpW0NIMl1bQ0BIXShbQ0BASF0xMilOKFtDSDJdW0NIMl1PMiljKG5bY0hdbjMpYyhjMzQpbltjSF1uNFtDSDJdQzUoW0NIMl1bT0hdKVtDSDJdW0NIMl1PW0NIMl1bQ0gyXTU=

> <s_epik_cmdline>
J2VwaWtfcHl0aG9uJywgJy1waCcsICc3LjAnLCAnLXRuJywgJzgnLCAnLW1hJywgJzIwMCcsICctbWV0YWxfYmluZGluZycsICctaW1hZScsICc8aW5maWxlLm1hZT4nLCAnLW9tYWUnLCAnPG91dGZpbGUubWFlPic=

> <r_lp_tautomer_probability>
1

> <r_epik_Ionization_Penalty>
0.0065899

> <r_epik_Ionization_Penalty_Charging>
0

> <r_epik_Ionization_Penalty_Neutral>
0.0065899

> <r_epik_State_Penalty>
0.00470042

> <r_epik_Charging_Adjusted_Penalty>
0.00470042

> <i_epik_Tot_Q>
0

> <i_epik_Tot_abs_Q>
0

> <r_epik_Metal_State_Penalty>
-0

> <b_epik_Metal_Only>
0

> <s_lp_Force_Field>
OPLS_2005

> <r_lp_Energy>
42.9311

> <b_lp_Chiralities_Consistent>
1

> <s_lp_Variant>
AV-unprocessed.smi:177-2

> <Gold.Version>
5.8.1

> <Gold.Id.Protein>
6NUR|6NUR_protein|mol2

> <Gold.PLP.Fitness>
43.5633

> <Gold.PLP.PLP>
-38.0138

> <Gold.PLP.part.hbond>
-2.0000

> <Gold.PLP.part.metal>
0.0000

> <Gold.PLP.part.buried>
-5.6396

> <Gold.PLP.part.nonpolar>
-31.6050

> <Gold.PLP.part.repulsive>
0.7507

> <Gold.PLP.ligand.clash>
0.0000

> <Gold.PLP.ligand.torsion>
0.3084

> <Gold.PLP.Chemscore.Hbond>
2.0000

> <Gold.PLP.Chemscore.CHOScore>
0.0000

> <Gold.PLP.Chemscore.Metal>
0.0000

> <Gold.Chemscore.Hbonds>
donor molecule, donor type, donor heavy atom, donor atom, acceptor molecule, acceptor atom, score
      L1  H    23    50       P1  8028  1.00
      P1  H  7997  8010       L1    26  1.00

> <Gold.PLP.Chemscore.Internal.Correction>
0.1662

> <Gold.Rescore>
     Score         DG    S(hbond)    S(metal)    S(lipo)     H(rot)  DE(clash)    DE(int)     intcor
     13.60     -16.11       1.90        0.00      93.12       2.58       0.14       2.36       ----

> <Gold.Chemscore.Fitness>
13.6040

> <Gold.Chemscore.DG>
-16.1069

> <Gold.Chemscore.ZeroCoef>
-5.4800

> <Gold.Chemscore.Hbond>
1.8976

> <Gold.Chemscore.Metal>
0.0000

> <Gold.Chemscore.Lipo>
93.1222

> <Gold.Chemscore.Internal_Hbond>
0.0000

> <Gold.Chemscore.DEClash>
0.1390

> <Gold.Chemscore.DEInternal>
2.3639

> <Gold.Chemscore.Rot>
2.5806

> <Gold.Chemscore.Internal.Correction>
   9.000000E+99

> <Gold.Chemscore.Hbonds>
donor molecule, donor type, donor heavy atom, donor atom, acceptor molecule, acceptor atom, score
      L1  H    23    50       P1  8028  0.98
      P1  H  7997  8010       L1    26  0.58

> <Gold.Chemscore.Hbond.Weighted>
-6.3378

> <Gold.Chemscore.Metal.Weighted>
-0.0000

> <Gold.Chemscore.Lipo.Weighted>
-10.8953

> <Gold.Chemscore.Internal_Hbond.Weighted>
0.0000

> <Gold.Chemscore.DEClash.Weighted>
0.1390

> <Gold.Chemscore.DEInternal.Weighted>
2.3639

> <Gold.Chemscore.Rot.Weighted>
6.6062

> <Gold.Chemscore.Internal.Correction.Weighted>
   9.000000E+99

> <Gold.Protein.RotatedTorsions>
[ 6907 6896 6895 6894 ] final  109.20 input  -60.11 | X-H torsion
[ 7974 7965 7964 7962 ] final -124.92 input  175.53 | X-H torsion
[ 8008 7997 7996 7995 ] final   90.42 input   59.86 | X-H torsion
[ 10167 10162 10161 10158 ] final    4.60 input  -65.29 | X-H torsion
[ 10718 10713 10712 10709 ] final  -50.87 input   66.30 | X-H torsion
[ 10763 10752 10751 10750 ] final   59.49 input  -60.55 | X-H torsion
[ 11005 11000 10999 10996 ] final   57.10 input  -57.11 | X-H torsion

> <Gold.Protein.ActiveResidues>
 VAL166  LYS551  ARG553  GLY616  TRP617  ASP618  TYR619  PRO620  LYS621  CYS622 
 ASP623  PHE694  ASN695  SER759  ASP760  ASP761  ALA762  ILE779  LEU786  VAL792 
 PHE793  MET794  SER795  GLU796  ALA797  LYS798  CYS799  TRP800  GLU811  SER814 

> <Gold.Protein.RotatedAtoms>
  152.5078  133.8979  159.7425 H   0  0  0  0  0  0  0  0  0  0  0  0  # atno 6907 bound_to 6896
  150.9402  133.6657  159.2799 H   0  0  0  0  0  0  0  0  0  0  0  0  # atno 6908 bound_to 6896
  151.3971  135.0970  159.9597 H   0  0  0  0  0  0  0  0  0  0  0  0  # atno 6909 bound_to 6896
  145.0030  140.7837  143.4485 H   0  0  0  0  0  0  0  0  0  0  0  0  # atno 7974 bound_to 7965
  156.0117  140.3349  155.6947 H   0  0  0  0  0  0  0  0  0  0  0  0  # atno 8008 bound_to 7997
  155.6148  140.0669  157.2713 H   0  0  0  0  0  0  0  0  0  0  0  0  # atno 8009 bound_to 7997
  154.4284  140.1787  156.1298 H   0  0  0  0  0  0  0  0  0  0  0  0  # atno 8010 bound_to 7997
  140.6526  143.7507  150.7600 H   0  0  0  0  0  0  0  0  0  0  0  0  # atno 10167 bound_to 10162
  156.1761  130.4150  149.9574 H   0  0  0  0  0  0  0  0  0  0  0  0  # atno 10718 bound_to 10713
  152.9896  135.5569  154.5722 H   0  0  0  0  0  0  0  0  0  0  0  0  # atno 10763 bound_to 10752
  154.5120  135.2803  155.1337 H   0  0  0  0  0  0  0  0  0  0  0  0  # atno 10764 bound_to 10752
  154.2725  135.6360  153.5368 H   0  0  0  0  0  0  0  0  0  0  0  0  # atno 10765 bound_to 10752
  140.0478  134.5780  155.9301 H   0  0  0  0  0  0  0  0  0  0  0  0  # atno 11005 bound_to 11000
  145.2127  139.2197  143.5134 LP  0  0  0  0  0  0  0  0  0  0  0  0  # atno 17320 bound_to 7965
  146.3455  140.1969  142.8589 LP  0  0  0  0  0  0  0  0  0  0  0  0  # atno 17321 bound_to 7965
  140.1161  143.4655  152.2341 LP  0  0  0  0  0  0  0  0  0  0  0  0  # atno 17342 bound_to 10162
  139.5743  144.7479  151.3806 LP  0  0  0  0  0  0  0  0  0  0  0  0  # atno 17343 bound_to 10162
  156.7359  130.9061  151.3629 LP  0  0  0  0  0  0  0  0  0  0  0  0  # atno 17370 bound_to 10713
  157.6837  130.9164  150.0331 LP  0  0  0  0  0  0  0  0  0  0  0  0  # atno 17371 bound_to 10713
  141.1915  133.6572  156.5462 LP  0  0  0  0  0  0  0  0  0  0  0  0  # atno 17394 bound_to 11000
  140.3965  134.7394  157.4754 LP  0  0  0  0  0  0  0  0  0  0  0  0  # atno 17395 bound_to 11000

$$$$
