AV-unprocessed.smi:3323|AV-procd|sdf|12778|dock8
  -GOLD-   2272019123D 1   1.00000     0.00000
 Structure written by MMmdl.
 37 38  0  0  0  0  0  0  0  0  1 V2000
  151.4688  138.5320  155.2070 C   0  0  0  0  0  0  0  0  0  0  0  0
  150.3943  139.3010  154.4302 C   0  0  1  0  0  0  0  0  0  0  0  0
  149.0880  138.4959  154.2978 C   0  0  0  0  0  0  0  0  0  0  0  0
  148.0041  139.3209  153.5797 C   0  0  1  0  0  0  0  0  0  0  0  0
  146.6512  138.5848  153.4895 C   0  0  0  0  0  0  0  0  0  0  0  0
  146.7579  137.3021  152.8019 N   0  0  0  0  0  0  0  0  0  0  0  0
  145.7253  136.5114  152.4783 C   0  0  0  0  0  0  0  0  0  0  0  0
  144.5547  136.7840  152.7422 O   0  0  0  0  0  0  0  0  0  0  0  0
  146.1479  135.4012  151.8492 N   0  0  0  0  0  0  0  0  0  0  0  0
  145.3872  134.3013  151.3666 C   0  0  0  0  0  0  0  0  0  0  0  0
  145.9163  133.2245  150.6140 C   0  0  0  0  0  0  0  0  0  0  0  0
  145.0509  132.1916  150.2047 C   0  0  0  0  0  0  0  0  0  0  0  0
  143.6924  132.2678  150.5675 C   0  0  0  0  0  0  0  0  0  0  0  0
  143.1769  133.2804  151.2956 N   0  0  0  0  0  0  0  0  0  0  0  0
  144.0126  134.2669  151.6842 C   0  0  0  0  0  0  0  0  0  0  0  0
  147.8572  140.6722  154.2963 C   0  0  0  0  0  0  0  0  0  0  0  0
  149.2201  141.3690  154.4351 C   0  0  0  0  0  0  0  0  0  0  0  0
  150.1331  140.5192  155.1210 O   0  0  0  0  0  0  0  0  0  0  0  0
  151.7139  137.5921  154.7119 H   0  0  0  0  0  0  0  0  0  0  0  0
  151.1357  138.3010  156.2192 H   0  0  0  0  0  0  0  0  0  0  0  0
  152.3867  139.1153  155.2832 H   0  0  0  0  0  0  0  0  0  0  0  0
  150.7841  139.5316  153.4371 H   0  0  0  0  0  0  0  0  0  0  0  0
  149.2845  137.5712  153.7544 H   0  0  0  0  0  0  0  0  0  0  0  0
  148.7333  138.2068  155.2881 H   0  0  0  0  0  0  0  0  0  0  0  0
  148.3506  139.5214  152.5646 H   0  0  0  0  0  0  0  0  0  0  0  0
  146.2625  138.3969  154.4907 H   0  0  0  0  0  0  0  0  0  0  0  0
  145.9116  139.2105  152.9871 H   0  0  0  0  0  0  0  0  0  0  0  0
  147.6870  136.9976  152.5507 H   0  0  0  0  0  0  0  0  0  0  0  0
  147.1482  135.3037  151.7553 H   0  0  0  0  0  0  0  0  0  0  0  0
  146.9603  133.1600  150.3512 H   0  0  0  0  0  0  0  0  0  0  0  0
  145.4216  131.3576  149.6276 H   0  0  0  0  0  0  0  0  0  0  0  0
  143.0021  131.4926  150.2687 H   0  0  0  0  0  0  0  0  0  0  0  0
  143.5658  135.0604  152.2656 H   0  0  0  0  0  0  0  0  0  0  0  0
  147.1662  141.3156  153.7507 H   0  0  0  0  0  0  0  0  0  0  0  0
  147.4273  140.5215  155.2875 H   0  0  0  0  0  0  0  0  0  0  0  0
  149.6212  141.6396  153.4571 H   0  0  0  0  0  0  0  0  0  0  0  0
  149.1103  142.2947  155.0002 H   0  0  0  0  0  0  0  0  0  0  0  0
  1  2  1  0  0  0  0
  1 19  1  0  0  0  0
  1 20  1  0  0  0  0
  1 21  1  0  0  0  0
  2 18  1  0  0  0  0
  2  3  1  0  0  0  0
  2 22  1  0  0  0  0
  3  4  1  0  0  0  0
  3 23  1  0  0  0  0
  3 24  1  0  0  0  0
  4  5  1  0  0  0  0
  4 16  1  0  0  0  0
  4 25  1  0  0  0  0
  5  6  1  0  0  0  0
  5 26  1  0  0  0  0
  5 27  1  0  0  0  0
  6  7  1  0  0  0  0
  6 28  1  0  0  0  0
  7  8  2  0  0  0  0
  7  9  1  0  0  0  0
  9 10  1  0  0  0  0
  9 29  1  0  0  0  0
 10 15  1  0  0  0  0
 10 11  2  0  0  0  0
 11 12  1  0  0  0  0
 11 30  1  0  0  0  0
 12 13  2  0  0  0  0
 12 31  1  0  0  0  0
 13 14  1  0  0  0  0
 13 32  1  0  0  0  0
 14 15  2  0  0  0  0
 15 33  1  0  0  0  0
 16 17  1  0  0  0  0
 16 34  1  0  0  0  0
 16 35  1  0  0  0  0
 17 18  1  0  0  0  0
 17 36  1  0  0  0  0
 17 37  1  0  0  0  0
M  END
> <s_m_source_file>
AV-unprocessed.smi

> <i_m_source_file_index>
3323

> <i_lp_mmshare_version>
43012

> <i_f3d_flags>
0

> <s_epik_input>
W0NIM11bQ0BASF0xW0NIMl1bQ0BIXShbQ0gyXVtDSDJdTzEpW0NIMl1bTkhdQyg9TylbTkhdYzJbY0hdW2NIXVtjSF1uW2NIXTI=

> <s_epik_cmdline>
J2VwaWtfcHl0aG9uJywgJy1waCcsICc3LjAnLCAnLXRuJywgJzgnLCAnLW1hJywgJzIwMCcsICctbWV0YWxfYmluZGluZycsICctaW1hZScsICc8aW5maWxlLm1hZT4nLCAnLW9tYWUnLCAnPG91dGZpbGUubWFlPic=

> <r_epik_Ionization_Penalty>
0.00485293

> <r_epik_Ionization_Penalty_Charging>
0

> <r_epik_Ionization_Penalty_Neutral>
0.00485293

> <r_epik_State_Penalty>
0.00349083

> <r_epik_Charging_Adjusted_Penalty>
0.00349083

> <i_epik_Tot_Q>
0

> <i_epik_Tot_abs_Q>
0

> <r_epik_Metal_State_Penalty>
-0

> <b_epik_Metal_Only>
0

> <s_lp_Force_Field>
OPLS_2005

> <r_lp_Energy>
10.9361

> <b_lp_Chiralities_Consistent>
1

> <s_lp_Variant>
AV-unprocessed.smi:3323-2

> <Gold.Version>
5.8.1

> <Gold.Id.Protein>
6NUR|6NUR_protein|mol2

> <Gold.PLP.Fitness>
40.5842

> <Gold.PLP.PLP>
-32.1225

> <Gold.PLP.part.hbond>
-2.7791

> <Gold.PLP.part.metal>
0.0000

> <Gold.PLP.part.buried>
-3.3598

> <Gold.PLP.part.nonpolar>
-26.6225

> <Gold.PLP.part.repulsive>
0.8456

> <Gold.PLP.ligand.clash>
0.0000

> <Gold.PLP.ligand.torsion>
0.0292

> <Gold.PLP.Chemscore.Hbond>
1.9600

> <Gold.PLP.Chemscore.CHOScore>
0.8792

> <Gold.PLP.Chemscore.Metal>
0.0000

> <Gold.Chemscore.Hbonds>
donor molecule, donor type, donor heavy atom, donor atom, acceptor molecule, acceptor atom, score
      L1  H     6    28       P1  7948  1.00
      L1  H     9    29       P1  7948  0.94
      L1  C    13    32       P1 10952  0.92

> <Gold.PLP.Chemscore.Internal.Correction>
0.0024

> <Gold.Rescore>
     Score         DG    S(hbond)    S(metal)    S(lipo)     H(rot)  DE(clash)    DE(int)     intcor
     17.42     -18.88       1.92        0.00      86.69       1.23       0.01       1.45       ----

> <Gold.Chemscore.Fitness>
17.4218

> <Gold.Chemscore.DG>
-18.8832

> <Gold.Chemscore.ZeroCoef>
-5.4800

> <Gold.Chemscore.Hbond>
1.9168

> <Gold.Chemscore.Metal>
0.0000

> <Gold.Chemscore.Lipo>
86.6907

> <Gold.Chemscore.Internal_Hbond>
0.0000

> <Gold.Chemscore.DEClash>
0.0143

> <Gold.Chemscore.DEInternal>
1.4471

> <Gold.Chemscore.Rot>
1.2273

> <Gold.Chemscore.Internal.Correction>
   9.000000E+99

> <Gold.Chemscore.Hbonds>
donor molecule, donor type, donor heavy atom, donor atom, acceptor molecule, acceptor atom, score
      L1  H     6    28       P1  7948  0.99
      L1  H     9    29       P1  7948  0.87

> <Gold.Chemscore.Hbond.Weighted>
-6.4022

> <Gold.Chemscore.Metal.Weighted>
-0.0000

> <Gold.Chemscore.Lipo.Weighted>
-10.1428

> <Gold.Chemscore.Internal_Hbond.Weighted>
0.0000

> <Gold.Chemscore.DEClash.Weighted>
0.0143

> <Gold.Chemscore.DEInternal.Weighted>
1.4471

> <Gold.Chemscore.Rot.Weighted>
3.1418

> <Gold.Chemscore.Internal.Correction.Weighted>
   9.000000E+99

> <Gold.Protein.RotatedTorsions>
[ 6907 6896 6895 6894 ] final -110.72 input  -60.11 | X-H torsion
[ 7974 7965 7964 7962 ] final -162.04 input  175.53 | X-H torsion
[ 8008 7997 7996 7995 ] final   99.50 input   59.86 | X-H torsion
[ 10167 10162 10161 10158 ] final  106.75 input  -65.29 | X-H torsion
[ 10718 10713 10712 10709 ] final  177.22 input   66.30 | X-H torsion
[ 10763 10752 10751 10750 ] final  122.63 input  -60.55 | X-H torsion
[ 11005 11000 10999 10996 ] final  -64.36 input  -57.11 | X-H torsion

> <Gold.Protein.ActiveResidues>
 VAL166  LYS551  ARG553  GLY616  TRP617  ASP618  TYR619  PRO620  LYS621  CYS622 
 ASP623  PHE694  ASN695  SER759  ASP760  ASP761  ALA762  ILE779  LEU786  VAL792 
 PHE793  MET794  SER795  GLU796  ALA797  LYS798  CYS799  TRP800  GLU811  SER814 

> <Gold.Protein.RotatedAtoms>
  150.7643  133.9340  159.3435 H   0  0  0  0  0  0  0  0  0  0  0  0  # atno 6907 bound_to 6896
  151.7241  135.0886  160.0298 H   0  0  0  0  0  0  0  0  0  0  0  0  # atno 6908 bound_to 6896
  152.3631  133.6284  159.6066 H   0  0  0  0  0  0  0  0  0  0  0  0  # atno 6909 bound_to 6896
  144.7370  140.3310  143.6153 H   0  0  0  0  0  0  0  0  0  0  0  0  # atno 7974 bound_to 7965
  156.1111  140.3227  155.8074 H   0  0  0  0  0  0  0  0  0  0  0  0  # atno 8008 bound_to 7997
  155.4671  140.0544  157.3001 H   0  0  0  0  0  0  0  0  0  0  0  0  # atno 8009 bound_to 7997
  154.4761  140.2033  155.9890 H   0  0  0  0  0  0  0  0  0  0  0  0  # atno 8010 bound_to 7997
  139.6983  144.7098  151.1229 H   0  0  0  0  0  0  0  0  0  0  0  0  # atno 10167 bound_to 10162
  156.9085  130.9902  151.3024 H   0  0  0  0  0  0  0  0  0  0  0  0  # atno 10718 bound_to 10713
  153.6328  135.3393  155.3047 H   0  0  0  0  0  0  0  0  0  0  0  0  # atno 10763 bound_to 10752
  154.8576  135.4299  154.2088 H   0  0  0  0  0  0  0  0  0  0  0  0  # atno 10764 bound_to 10752
  153.2988  135.7023  153.7297 H   0  0  0  0  0  0  0  0  0  0  0  0  # atno 10765 bound_to 10752
  141.1422  133.6664  156.5820 H   0  0  0  0  0  0  0  0  0  0  0  0  # atno 11005 bound_to 11000
  145.7472  139.1782  143.2342 LP  0  0  0  0  0  0  0  0  0  0  0  0  # atno 17320 bound_to 7965
  146.1089  140.7453  142.9513 LP  0  0  0  0  0  0  0  0  0  0  0  0  # atno 17321 bound_to 7965
  140.7702  143.5460  150.9258 LP  0  0  0  0  0  0  0  0  0  0  0  0  # atno 17342 bound_to 10162
  139.9141  143.6685  152.3109 LP  0  0  0  0  0  0  0  0  0  0  0  0  # atno 17343 bound_to 10162
  157.5982  130.8493  149.8761 LP  0  0  0  0  0  0  0  0  0  0  0  0  # atno 17370 bound_to 10713
  156.0547  130.3710  150.1118 LP  0  0  0  0  0  0  0  0  0  0  0  0  # atno 17371 bound_to 10713
  140.3830  134.7507  157.4673 LP  0  0  0  0  0  0  0  0  0  0  0  0  # atno 17394 bound_to 11000
  140.0623  134.5978  155.8734 LP  0  0  0  0  0  0  0  0  0  0  0  0  # atno 17395 bound_to 11000

$$$$
