#       Name:                AV-unprocessed.smi:109
#       Creating user name   scv26
#       Creation time:       Thu Mar 26 18:11:46 2020


#       File generated by GOLD software.
#

@<TRIPOS>MOLECULE
AV-unprocessed.smi:109
    71    74     1
SMALL
NO_CHARGES


@<TRIPOS>ATOM
      1 ****        -2.0901   2.6604  -4.5425 O.3            1 S1                 0.0000
      2 ****        -1.5963   2.4148  -3.2436 C.3            1 S1                 0.0000
      3 ****        -2.7640   2.1014  -2.2925 C.3            1 S1                 0.0000
      4 ****        -2.3383   1.8801  -0.8204 C.3            1 S1                 0.0000
      5 ****        -1.4362   0.7285  -0.7453 N.pl3          1 S1                 0.0000
      6 ****        -0.0987   0.8635  -0.6027 C.ar           1 S1                 0.0000
      7 ****         0.4891   2.0852  -0.5140 N.ar           1 S1                 0.0000
      8 ****         1.8144   2.1833  -0.3734 C.ar           1 S1                 0.0000
      9 ****         2.7208   1.2055  -0.3014 N.ar           1 S1                 0.0000
     10 ****         2.1339  -0.0228  -0.3938 C.ar           1 S1                 0.0000
     11 ****         0.7429  -0.2767  -0.5433 C.ar           1 S1                 0.0000
     12 ****         0.5185  -1.6461  -0.6004 N.2            1 S1                 0.0000
     13 ****         1.7116  -2.1663  -0.4881 C.2            1 S1                 0.0000
     14 ****         2.7410  -1.2585  -0.3571 N.pl3          1 S1                 0.0000
     15 ****         4.2090  -1.5091  -0.2066 C.3            1 S1                 0.0000
     16 ****         4.4966  -2.7158  -0.8488 O.3            1 S1                 0.0000
     17 ****         5.1559  -3.6169   0.0388 C.3            1 S1                 0.0000
     18 ****         4.8527  -5.0796  -0.3310 C.3            1 S1                 0.0000
     19 ****         5.6939  -5.4973  -1.3844 O.3            1 S1                 0.0000
     20 ****         4.7012  -3.1770   1.4374 C.3            1 S1                 0.0000
     21 ****         3.4555  -3.7622   1.7810 O.3            1 S1                 0.0000
     22 ****         4.6188  -1.6652   1.2703 C.3            1 S1                 0.0000
     23 ****         3.7695  -1.0399   2.2179 O.3            1 S1                 0.0000
     24 ****        -3.5348   1.6615   0.1498 C.3            1 S1                 0.0000
     25 ****        -4.5677   2.8160   0.1159 C.3            1 S1                 0.0000
     26 ****        -5.7206   2.6042   1.1112 C.3            1 S1                 0.0000
     27 ****        -5.2015   2.4073   2.5405 C.3            1 S1                 0.0000
     28 ****        -4.2003   1.2478   2.5945 C.3            1 S1                 0.0000
     29 ****        -3.0435   1.4692   1.6081 C.3            1 S1                 0.0000
     30 ****         4.6891  -0.6679  -0.7081 H              1 S1                 0.0000
     31 ****         6.2291  -3.4292  -0.0337 H              1 S1                 0.0000
     32 ****         5.4266  -3.4567   2.2021 H              1 S1                 0.0000
     33 ****         5.6196  -1.2429   1.3701 H              1 S1                 0.0000
     34 ****        -2.5316   1.8828  -4.8482 H              1 S1                 0.0000
     35 ****        -0.8911   1.5852  -3.2934 H              1 S1                 0.0000
     36 ****        -1.0470   3.2922  -2.9014 H              1 S1                 0.0000
     37 ****        -3.4532   2.9414  -2.3576 H              1 S1                 0.0000
     38 ****        -3.3087   1.2274  -2.6521 H              1 S1                 0.0000
     39 ****        -1.8349   2.7869  -0.4864 H              1 S1                 0.0000
     40 ****        -1.8849  -0.1748  -0.7971 H              1 S1                 0.0000
     41 ****         2.2039   3.1886  -0.3097 H              1 S1                 0.0000
     42 ****         1.8719  -3.2345  -0.4989 H              1 S1                 0.0000
     43 ****         5.0519  -5.7318   0.5199 H              1 S1                 0.0000
     44 ****         3.8062  -5.2121  -0.6074 H              1 S1                 0.0000
     45 ****         5.4911  -6.3964  -1.5931 H              1 S1                 0.0000
     46 ****         3.5728  -4.6963   1.8604 H              1 S1                 0.0000
     47 ****         3.6988  -0.1236   1.9980 H              1 S1                 0.0000
     48 ****        -4.0508   0.7489  -0.1534 H              1 S1                 0.0000
     49 ****        -4.0690   3.7622   0.3301 H              1 S1                 0.0000
     50 ****        -5.0090   2.9138  -0.8745 H              1 S1                 0.0000
     51 ****        -6.3999   3.4564   1.0782 H              1 S1                 0.0000
     52 ****        -6.3045   1.7327   0.8122 H              1 S1                 0.0000
     53 ****        -4.7230   3.3237   2.8884 H              1 S1                 0.0000
     54 ****        -6.0343   2.2140   3.2175 H              1 S1                 0.0000
     55 ****        -3.8092   1.1421   3.6068 H              1 S1                 0.0000
     56 ****        -4.7078   0.3114   2.3595 H              1 S1                 0.0000
     57 ****        -2.3674   0.6173   1.6808 H              1 S1                 0.0000
     58 ****        -2.4665   2.3417   1.9175 H              1 S1                 0.0000
     59 ****        -1.3314   2.8804  -5.1557 LP             1 S1                 0.0000
     60 ****        -2.7329   3.4261  -4.5197 LP             1 S1                 0.0000
     61 ****        -0.0711   2.9126  -0.5540 LP             1 S1                 0.0000
     62 ****         3.7037   1.3544  -0.1936 LP             1 S1                 0.0000
     63 ****        -0.3542  -2.1233  -0.7036 LP             1 S1                 0.0000
     64 ****         5.0894  -2.5363  -1.6339 LP             1 S1                 0.0000
     65 ****         3.6432  -3.1312  -1.1637 LP             1 S1                 0.0000
     66 ****         6.6502  -5.4245  -1.1012 LP             1 S1                 0.0000
     67 ****         5.5394  -4.9218  -2.1875 LP             1 S1                 0.0000
     68 ****         2.7831  -3.5666   1.0671 LP             1 S1                 0.0000
     69 ****         3.1360  -3.3876   2.6514 LP             1 S1                 0.0000
     70 ****         4.1568  -1.1379   3.1346 LP             1 S1                 0.0000
     71 ****         2.8643  -1.4640   2.1913 LP             1 S1                 0.0000
@<TRIPOS>BOND
    1    1    2 1     
    2    1   34 1     
    3    2    3 1     
    4    2   35 1     
    5    2   36 1     
    6    3    4 1     
    7    3   37 1     
    8    3   38 1     
    9    4    5 1     
   10    4   24 1     
   11    4   39 1     
   12    5    6 1     
   13    5   40 1     
   14    6   11 ar    
   15    6    7 ar    
   16    7    8 ar    
   17    8    9 ar    
   18    8   41 1     
   19    9   10 ar    
   20   10   14 1     
   21   10   11 ar    
   22   11   12 1     
   23   12   13 2     
   24   13   14 1     
   25   13   42 1     
   26   14   15 1     
   27   15   30 1     
   28   15   22 1     
   29   15   16 1     
   30   16   17 1     
   31   17   31 1     
   32   17   18 1     
   33   17   20 1     
   34   18   19 1     
   35   18   43 1     
   36   18   44 1     
   37   19   45 1     
   38   20   32 1     
   39   20   21 1     
   40   20   22 1     
   41   21   46 1     
   42   22   33 1     
   43   22   23 1     
   44   23   47 1     
   45   24   29 1     
   46   24   25 1     
   47   24   48 1     
   48   25   26 1     
   49   25   49 1     
   50   25   50 1     
   51   26   27 1     
   52   26   51 1     
   53   26   52 1     
   54   27   28 1     
   55   27   53 1     
   56   27   54 1     
   57   28   29 1     
   58   28   55 1     
   59   28   56 1     
   60   29   57 1     
   61   29   58 1     
   62    1   59 1     
   63    1   60 1     
   64    7   61 1     
   65    9   62 1     
   66   12   63 1     
   67   16   64 1     
   68   16   65 1     
   69   19   66 1     
   70   19   67 1     
   71   21   68 1     
   72   21   69 1     
   73   23   70 1     
   74   23   71 1     
@<TRIPOS>SUBSTRUCTURE
      1 S1             1
@<TRIPOS>SET
LONE_PAIRS      STATIC     ATOMS    <user>   **** ""
13 59 60 61 62 63 64 65 66 67 68 69 70 71
DONOR_HYDROGENS      STATIC     ATOMS    <user>   **** ""
5 34 40 45 46 47
ATOM$BLUE        STATIC     ATOMS    COLORGROUP SYSTEM
13 59 60 61 62 63 64 65 66 67 68 69 70 71
ATOM$RED        STATIC     ATOMS    COLORGROUP SYSTEM
5 34 40 45 46 47
