AV-unprocessed.smi:767|AV-procd|sdf|3659|dock5
  -GOLD-   22720 1 73D 1   1.00000     0.00000
 Structure written by MMmdl.
 47 49  0  0  0  0  0  0  0  0  1 V2000
  152.1566  143.9969  161.1601 C   0  0  0  0  0  0  0  0  0  0  0  0
  152.4034  142.5897  160.6580 C   0  0  0  0  0  0  0  0  0  0  0  0
  153.5988  141.9104  160.9735 C   0  0  0  0  0  0  0  0  0  0  0  0
  153.7786  140.6054  160.4771 C   0  0  0  0  0  0  0  0  0  0  0  0
  152.7595  140.0294  159.6912 C   0  0  0  0  0  0  0  0  0  0  0  0
  152.8976  138.6173  159.1486 C   0  0  0  0  0  0  0  0  0  0  0  0
  151.6565  138.1326  158.3726 C   0  0  0  0  0  0  0  0  0  0  0  0
  150.5165  137.8573  159.2415 N   0  0  0  0  0  0  0  0  0  0  0  0
  149.8314  136.7066  159.2740 C   0  0  0  0  0  0  0  0  0  0  0  0
  150.0633  135.7418  158.5453 O   0  0  0  0  0  0  0  0  0  0  0  0
  148.8766  136.7292  160.2120 N   0  0  0  0  0  0  0  0  0  0  0  0
  147.9831  135.6136  160.5265 C   0  0  2  0  0  0  0  0  0  0  0  0
  146.6627  135.6621  159.7244 C   0  0  2  0  0  0  0  0  0  0  0  0
  146.4432  136.6005  158.5626 C   0  0  0  0  0  0  0  0  0  0  0  0
  145.7104  137.7791  159.2105 C   0  0  0  0  0  0  0  0  0  0  0  0
  146.0052  137.6754  160.6020 O   0  0  0  0  0  0  0  0  0  0  0  0
  146.0147  136.2917  160.9466 C   0  0  2  0  0  0  0  0  0  0  0  0
  147.1796  135.8174  161.8403 C   0  0  0  0  0  0  0  0  0  0  0  0
  146.8935  134.5220  162.6054 C   0  0  0  0  0  0  0  0  0  0  0  0
  147.6898  136.8251  162.8789 C   0  0  0  0  0  0  0  0  0  0  0  0
  151.6041  140.7954  159.4309 C   0  0  0  0  0  0  0  0  0  0  0  0
  151.4235  142.0486  159.9006 N   0  0  0  0  0  0  0  0  0  0  0  0
  152.8377  144.2485  161.9735 H   0  0  0  0  0  0  0  0  0  0  0  0
  151.1360  144.1015  161.5299 H   0  0  0  0  0  0  0  0  0  0  0  0
  152.3062  144.7155  160.3540 H   0  0  0  0  0  0  0  0  0  0  0  0
  154.3608  142.3749  161.5821 H   0  0  0  0  0  0  0  0  0  0  0  0
  154.6801  140.0554  160.7028 H   0  0  0  0  0  0  0  0  0  0  0  0
  153.7760  138.5711  158.5042 H   0  0  0  0  0  0  0  0  0  0  0  0
  153.0983  137.9384  159.9782 H   0  0  0  0  0  0  0  0  0  0  0  0
  151.3448  138.9059  157.6702 H   0  0  0  0  0  0  0  0  0  0  0  0
  151.8989  137.2530  157.7743 H   0  0  0  0  0  0  0  0  0  0  0  0
  150.2505  138.5869  159.8863 H   0  0  0  0  0  0  0  0  0  0  0  0
  148.7714  137.5653  160.7680 H   0  0  0  0  0  0  0  0  0  0  0  0
  148.4642  134.6356  160.4638 H   0  0  0  0  0  0  0  0  0  0  0  0
  146.2775  134.6557  159.5528 H   0  0  0  0  0  0  0  0  0  0  0  0
  147.3806  136.9174  158.1063 H   0  0  0  0  0  0  0  0  0  0  0  0
  145.8377  136.1479  157.7768 H   0  0  0  0  0  0  0  0  0  0  0  0
  146.0242  138.7419  158.8069 H   0  0  0  0  0  0  0  0  0  0  0  0
  144.6330  137.6835  159.0686 H   0  0  0  0  0  0  0  0  0  0  0  0
  145.0279  135.8926  161.1856 H   0  0  0  0  0  0  0  0  0  0  0  0
  146.1431  134.6718  163.3822 H   0  0  0  0  0  0  0  0  0  0  0  0
  147.7929  134.1348  163.0853 H   0  0  0  0  0  0  0  0  0  0  0  0
  146.5194  133.7385  161.9455 H   0  0  0  0  0  0  0  0  0  0  0  0
  146.9737  136.9616  163.6897 H   0  0  0  0  0  0  0  0  0  0  0  0
  147.8638  137.8108  162.4474 H   0  0  0  0  0  0  0  0  0  0  0  0
  148.6294  136.4957  163.3230 H   0  0  0  0  0  0  0  0  0  0  0  0
  150.8002  140.3902  158.8340 H   0  0  0  0  0  0  0  0  0  0  0  0
  1  2  1  0  0  0  0
  1 23  1  0  0  0  0
  1 24  1  0  0  0  0
  1 25  1  0  0  0  0
  2 22  1  0  0  0  0
  2  3  2  0  0  0  0
  3  4  1  0  0  0  0
  3 26  1  0  0  0  0
  4  5  2  0  0  0  0
  4 27  1  0  0  0  0
  5  6  1  0  0  0  0
  5 21  1  0  0  0  0
  6  7  1  0  0  0  0
  6 28  1  0  0  0  0
  6 29  1  0  0  0  0
  7  8  1  0  0  0  0
  7 30  1  0  0  0  0
  7 31  1  0  0  0  0
  8  9  1  0  0  0  0
  8 32  1  0  0  0  0
  9 10  2  0  0  0  0
  9 11  1  0  0  0  0
 11 12  1  0  0  0  0
 11 33  1  0  0  0  0
 12 18  1  0  0  0  0
 12 13  1  0  0  0  0
 12 34  1  0  0  0  0
 13 17  1  0  0  0  0
 13 14  1  0  0  0  0
 13 35  1  0  0  0  0
 14 15  1  0  0  0  0
 14 36  1  0  0  0  0
 14 37  1  0  0  0  0
 15 16  1  0  0  0  0
 15 38  1  0  0  0  0
 15 39  1  0  0  0  0
 16 17  1  0  0  0  0
 17 18  1  0  0  0  0
 17 40  1  0  0  0  0
 18 19  1  0  0  0  0
 18 20  1  0  0  0  0
 19 41  1  0  0  0  0
 19 42  1  0  0  0  0
 19 43  1  0  0  0  0
 20 44  1  0  0  0  0
 20 45  1  0  0  0  0
 20 46  1  0  0  0  0
 21 22  2  0  0  0  0
 21 47  1  0  0  0  0
M  END
> <s_m_source_file>
AV-unprocessed.smi

> <i_m_source_file_index>
767

> <i_lp_mmshare_version>
43012

> <i_f3d_flags>
0

> <s_epik_input>
W0NIM11jMVtjSF1bY0hdYyhbY0hdbjEpW0NIMl1bQ0gyXVtOSF1DKD1PKVtOSF1bQ0BIXTJDKFtDSDNdKShbQ0gzXSlbQ0BIXShbQ0BASF0yMylPW0NIMl1bQ0gyXTM=

> <s_epik_cmdline>
J2VwaWtfcHl0aG9uJywgJy1waCcsICc3LjAnLCAnLXRuJywgJzgnLCAnLW1hJywgJzIwMCcsICctbWV0YWxfYmluZGluZycsICctaW1hZScsICc8aW5maWxlLm1hZT4nLCAnLW9tYWUnLCAnPG91dGZpbGUubWFlPic=

> <r_epik_Ionization_Penalty>
0.0567523

> <r_epik_Ionization_Penalty_Charging>
0

> <r_epik_Ionization_Penalty_Neutral>
0.0567523

> <r_epik_State_Penalty>
0.0489186

> <r_epik_Charging_Adjusted_Penalty>
0.0489186

> <i_epik_Tot_Q>
0

> <i_epik_Tot_abs_Q>
0

> <r_epik_Metal_State_Penalty>
0.044622

> <b_epik_Metal_Only>
0

> <s_lp_Force_Field>
OPLS_2005

> <r_lp_Energy>
34.1608

> <b_lp_Chiralities_Consistent>
1

> <s_lp_Variant>
AV-unprocessed.smi:767-3

> <Gold.Version>
5.8.1

> <Gold.Id.Protein>
6NUR|6NUR_protein|mol2

> <Gold.PLP.Fitness>
45.0856

> <Gold.PLP.PLP>
-39.5336

> <Gold.PLP.part.hbond>
-2.9581

> <Gold.PLP.part.metal>
0.0000

> <Gold.PLP.part.buried>
-3.6388

> <Gold.PLP.part.nonpolar>
-33.5231

> <Gold.PLP.part.repulsive>
0.4950

> <Gold.PLP.ligand.clash>
0.0000

> <Gold.PLP.ligand.torsion>
0.3101

> <Gold.PLP.Chemscore.Hbond>
1.9920

> <Gold.PLP.Chemscore.CHOScore>
0.0000

> <Gold.PLP.Chemscore.Metal>
0.0000

> <Gold.Chemscore.Hbonds>
donor molecule, donor type, donor heavy atom, donor atom, acceptor molecule, acceptor atom, score
      P1  H  6896  6907       L1    10  0.93
      P1  H  6934  6947       L1    16  1.00

> <Gold.PLP.Chemscore.Internal.Correction>
0.1961

> <Gold.Rescore>
     Score         DG    S(hbond)    S(metal)    S(lipo)     H(rot)  DE(clash)    DE(int)     intcor
     18.43     -20.26       1.73        0.00     108.72       1.45       1.56       0.27       ----

> <Gold.Chemscore.Fitness>
18.4294

> <Gold.Chemscore.DG>
-20.2577

> <Gold.Chemscore.ZeroCoef>
-5.4800

> <Gold.Chemscore.Hbond>
1.7271

> <Gold.Chemscore.Metal>
0.0000

> <Gold.Chemscore.Lipo>
108.7212

> <Gold.Chemscore.Internal_Hbond>
0.0000

> <Gold.Chemscore.DEClash>
1.5610

> <Gold.Chemscore.DEInternal>
0.2673

> <Gold.Chemscore.Rot>
1.4497

> <Gold.Chemscore.Internal.Correction>
   9.000000E+99

> <Gold.Chemscore.Hbonds>
donor molecule, donor type, donor heavy atom, donor atom, acceptor molecule, acceptor atom, score
      P1  H  6896  6907       L1    10  0.54
      P1  H  6934  6947       L1    16  0.45

> <Gold.Chemscore.Hbond.Weighted>
-5.7685

> <Gold.Chemscore.Metal.Weighted>
-0.0000

> <Gold.Chemscore.Lipo.Weighted>
-12.7204

> <Gold.Chemscore.Internal_Hbond.Weighted>
0.0000

> <Gold.Chemscore.DEClash.Weighted>
1.5610

> <Gold.Chemscore.DEInternal.Weighted>
0.2673

> <Gold.Chemscore.Rot.Weighted>
3.7112

> <Gold.Chemscore.Internal.Correction.Weighted>
   9.000000E+99

> <Gold.Protein.RotatedTorsions>
[ 6907 6896 6895 6894 ] final  -73.94 input  -60.11 | X-H torsion
[ 7974 7965 7964 7962 ] final    5.22 input  175.53 | X-H torsion
[ 8008 7997 7996 7995 ] final  -96.06 input   59.86 | X-H torsion
[ 10167 10162 10161 10158 ] final  -19.54 input  -65.29 | X-H torsion
[ 10718 10713 10712 10709 ] final -154.85 input   66.30 | X-H torsion
[ 10763 10752 10751 10750 ] final   59.70 input  -60.55 | X-H torsion
[ 11005 11000 10999 10996 ] final -129.93 input  -57.11 | X-H torsion

> <Gold.Protein.ActiveResidues>
 VAL166  LYS551  ARG553  GLY616  TRP617  ASP618  TYR619  PRO620  LYS621  CYS622 
 ASP623  PHE694  ASN695  SER759  ASP760  ASP761  ALA762  ILE779  LEU786  VAL792 
 PHE793  MET794  SER795  GLU796  ALA797  LYS798  CYS799  TRP800  GLU811  SER814 

> <Gold.Protein.RotatedAtoms>
  150.7111  134.4943  159.5530 H   0  0  0  0  0  0  0  0  0  0  0  0  # atno 6907 bound_to 6896
  152.2554  134.8087  160.0448 H   0  0  0  0  0  0  0  0  0  0  0  0  # atno 6908 bound_to 6896
  151.8819  133.3462  159.3806 H   0  0  0  0  0  0  0  0  0  0  0  0  # atno 6909 bound_to 6896
  146.2441  140.0417  142.8381 H   0  0  0  0  0  0  0  0  0  0  0  0  # atno 7974 bound_to 7965
  154.7694  140.0474  157.1039 H   0  0  0  0  0  0  0  0  0  0  0  0  # atno 8008 bound_to 7997
  154.9839  140.3105  155.4915 H   0  0  0  0  0  0  0  0  0  0  0  0  # atno 8009 bound_to 7997
  156.2918  140.2231  156.4939 H   0  0  0  0  0  0  0  0  0  0  0  0  # atno 8010 bound_to 7997
  140.7269  143.4809  151.0119 H   0  0  0  0  0  0  0  0  0  0  0  0  # atno 10167 bound_to 10162
  156.5049  130.8408  151.2623 H   0  0  0  0  0  0  0  0  0  0  0  0  # atno 10718 bound_to 10713
  152.9901  135.5562  154.5755 H   0  0  0  0  0  0  0  0  0  0  0  0  # atno 10763 bound_to 10752
  154.5147  135.2804  155.1315 H   0  0  0  0  0  0  0  0  0  0  0  0  # atno 10764 bound_to 10752
  154.2693  135.6366  153.5357 H   0  0  0  0  0  0  0  0  0  0  0  0  # atno 10765 bound_to 10752
  140.9390  134.1219  157.4168 H   0  0  0  0  0  0  0  0  0  0  0  0  # atno 11005 bound_to 11000
  145.1063  140.9377  143.4683 LP  0  0  0  0  0  0  0  0  0  0  0  0  # atno 17320 bound_to 7965
  145.0621  139.3097  143.5875 LP  0  0  0  0  0  0  0  0  0  0  0  0  # atno 17321 bound_to 7965
  139.8507  143.7442  152.3178 LP  0  0  0  0  0  0  0  0  0  0  0  0  # atno 17342 bound_to 10162
  139.7623  144.7502  151.0346 LP  0  0  0  0  0  0  0  0  0  0  0  0  # atno 17343 bound_to 10162
  157.7458  130.9969  150.2797 LP  0  0  0  0  0  0  0  0  0  0  0  0  # atno 17370 bound_to 10713
  156.3297  130.3798  149.7502 LP  0  0  0  0  0  0  0  0  0  0  0  0  # atno 17371 bound_to 10713
  139.8815  135.0030  156.6161 LP  0  0  0  0  0  0  0  0  0  0  0  0  # atno 17394 bound_to 11000
  140.7760  133.8699  155.8530 LP  0  0  0  0  0  0  0  0  0  0  0  0  # atno 17395 bound_to 11000

$$$$
