AV-unprocessed.smi:2600|AV-procd|sdf|10182|dock7
  -GOLD-   2272014193D 1   1.00000     0.00000
 Structure written by MMmdl.
 44 45  0  0  0  0  0  0  0  0  1 V2000
  148.9616  141.6630  154.6615 C   0  0  0  0  0  0  0  0  0  0  0  0
  148.8884  140.1605  154.3433 C   0  0  0  0  0  0  0  0  0  0  0  0
  149.7415  139.2443  155.2527 C   0  0  2  0  0  0  0  0  0  0  0  0
  149.6221  137.7960  154.7266 C   0  0  0  0  0  0  0  0  0  0  0  0
  149.3095  139.3495  156.7399 C   0  0  0  0  0  0  0  0  0  0  0  0
  150.2641  138.6197  157.5868 N   0  0  0  0  0  0  0  0  0  0  0  0
  150.0275  137.4965  158.3090 C   0  0  0  0  0  0  0  0  0  0  0  0
  150.9260  136.8116  158.7993 O   0  0  0  0  0  0  0  0  0  0  0  0
  148.7269  137.1911  158.4627 N   0  0  0  0  0  0  0  0  0  0  0  0
  148.1979  136.0434  159.1959 C   0  0  0  0  0  0  0  0  0  0  0  0
  148.2740  136.2370  160.7227 C   0  0  0  0  0  0  0  0  0  0  0  0
  147.2307  135.5013  161.5079 C   0  0  0  0  0  0  0  0  0  0  0  0
  146.2288  135.9901  162.2985 C   0  0  0  0  0  0  0  0  0  0  0  0
  145.5511  134.8289  162.7597 C   0  0  0  0  0  0  0  0  0  0  0  0
  146.0928  133.7126  162.3057 N   0  0  0  0  0  0  0  0  0  0  0  0
  147.1288  134.1206  161.5423 N   0  0  0  0  0  0  0  0  0  0  0  0
  147.9479  133.1192  160.8866 C   0  0  0  0  0  0  0  0  0  0  0  0
  151.5969  139.2129  157.4591 C   0  0  0  0  0  0  0  0  0  0  0  0
  152.0512  139.0787  155.9969 C   0  0  0  0  0  0  0  0  0  0  0  0
  151.0987  139.6888  155.1225 O   0  0  0  0  0  0  0  0  0  0  0  0
  148.4150  142.2376  153.9134 H   0  0  0  0  0  0  0  0  0  0  0  0
  149.9907  142.0228  154.6628 H   0  0  0  0  0  0  0  0  0  0  0  0
  148.5192  141.8970  155.6291 H   0  0  0  0  0  0  0  0  0  0  0  0
  147.8453  139.8439  154.3813 H   0  0  0  0  0  0  0  0  0  0  0  0
  149.2031  140.0217  153.3082 H   0  0  0  0  0  0  0  0  0  0  0  0
  148.5868  137.4550  154.7544 H   0  0  0  0  0  0  0  0  0  0  0  0
  150.2055  137.0869  155.3115 H   0  0  0  0  0  0  0  0  0  0  0  0
  149.9655  137.7218  153.6945 H   0  0  0  0  0  0  0  0  0  0  0  0
  149.3113  140.3870  157.0732 H   0  0  0  0  0  0  0  0  0  0  0  0
  148.2771  139.0173  156.8472 H   0  0  0  0  0  0  0  0  0  0  0  0
  148.0495  137.8055  158.0345 H   0  0  0  0  0  0  0  0  0  0  0  0
  147.1712  135.8332  158.8936 H   0  0  0  0  0  0  0  0  0  0  0  0
  148.7767  135.1643  158.9131 H   0  0  0  0  0  0  0  0  0  0  0  0
  149.2643  135.9462  161.0736 H   0  0  0  0  0  0  0  0  0  0  0  0
  148.1905  137.3020  160.9428 H   0  0  0  0  0  0  0  0  0  0  0  0
  146.0061  137.0258  162.5076 H   0  0  0  0  0  0  0  0  0  0  0  0
  144.6888  134.7647  163.4070 H   0  0  0  0  0  0  0  0  0  0  0  0
  148.9631  133.4902  160.7483 H   0  0  0  0  0  0  0  0  0  0  0  0
  147.5205  132.8773  159.9135 H   0  0  0  0  0  0  0  0  0  0  0  0
  147.9903  132.2122  161.4909 H   0  0  0  0  0  0  0  0  0  0  0  0
  151.5562  140.2651  157.7440 H   0  0  0  0  0  0  0  0  0  0  0  0
  152.3332  138.7519  158.1187 H   0  0  0  0  0  0  0  0  0  0  0  0
  153.0125  139.5739  155.8589 H   0  0  0  0  0  0  0  0  0  0  0  0
  152.2046  138.0325  155.7319 H   0  0  0  0  0  0  0  0  0  0  0  0
  1  2  1  0  0  0  0
  1 21  1  0  0  0  0
  1 22  1  0  0  0  0
  1 23  1  0  0  0  0
  2  3  1  0  0  0  0
  2 24  1  0  0  0  0
  2 25  1  0  0  0  0
  3 20  1  0  0  0  0
  3  4  1  0  0  0  0
  3  5  1  0  0  0  0
  4 26  1  0  0  0  0
  4 27  1  0  0  0  0
  4 28  1  0  0  0  0
  5  6  1  0  0  0  0
  5 29  1  0  0  0  0
  5 30  1  0  0  0  0
  6  7  1  0  0  0  0
  6 18  1  0  0  0  0
  7  8  2  0  0  0  0
  7  9  1  0  0  0  0
  9 10  1  0  0  0  0
  9 31  1  0  0  0  0
 10 11  1  0  0  0  0
 10 32  1  0  0  0  0
 10 33  1  0  0  0  0
 11 12  1  0  0  0  0
 11 34  1  0  0  0  0
 11 35  1  0  0  0  0
 12 16  1  0  0  0  0
 12 13  2  0  0  0  0
 13 14  1  0  0  0  0
 13 36  1  0  0  0  0
 14 15  2  0  0  0  0
 14 37  1  0  0  0  0
 15 16  1  0  0  0  0
 16 17  1  0  0  0  0
 17 38  1  0  0  0  0
 17 39  1  0  0  0  0
 17 40  1  0  0  0  0
 18 19  1  0  0  0  0
 18 41  1  0  0  0  0
 18 42  1  0  0  0  0
 19 20  1  0  0  0  0
 19 43  1  0  0  0  0
 19 44  1  0  0  0  0
M  END
> <s_m_source_file>
AV-unprocessed.smi

> <i_m_source_file_index>
2600

> <i_lp_mmshare_version>
43012

> <i_f3d_flags>
0

> <s_epik_input>
W0NIM11bQ0gyXVtDQEBdMShbQ0gzXSlbQ0gyXU4oW0NIMl1bQ0gyXU8xKUMoPU8pW05IXVtDSDJdW0NIMl1jMltjSF1bY0hdbm4yW0NIM10=

> <s_epik_cmdline>
J2VwaWtfcHl0aG9uJywgJy1waCcsICc3LjAnLCAnLXRuJywgJzgnLCAnLW1hJywgJzIwMCcsICctbWV0YWxfYmluZGluZycsICctaW1hZScsICc8aW5maWxlLm1hZT4nLCAnLW9tYWUnLCAnPG91dGZpbGUubWFlPic=

> <r_lp_tautomer_probability>
1

> <r_epik_Ionization_Penalty>
0.00252014

> <r_epik_Ionization_Penalty_Charging>
0

> <r_epik_Ionization_Penalty_Neutral>
0.00252014

> <r_epik_State_Penalty>
0.00172506

> <r_epik_Charging_Adjusted_Penalty>
0.00172506

> <i_epik_Tot_Q>
0

> <i_epik_Tot_abs_Q>
0

> <r_epik_Metal_State_Penalty>
-0

> <b_epik_Metal_Only>
0

> <s_lp_Force_Field>
OPLS_2005

> <r_lp_Energy>
29.2507

> <b_lp_Chiralities_Consistent>
1

> <s_lp_Variant>
AV-unprocessed.smi:2600-2

> <Gold.Version>
5.8.1

> <Gold.Id.Protein>
6NUR|6NUR_protein|mol2

> <Gold.PLP.Fitness>
37.3851

> <Gold.PLP.PLP>
-32.3323

> <Gold.PLP.part.hbond>
-1.8979

> <Gold.PLP.part.metal>
0.0000

> <Gold.PLP.part.buried>
-5.0979

> <Gold.PLP.part.nonpolar>
-26.0105

> <Gold.PLP.part.repulsive>
0.1951

> <Gold.PLP.ligand.clash>
0.0000

> <Gold.PLP.ligand.torsion>
0.3409

> <Gold.PLP.Chemscore.Hbond>
1.9013

> <Gold.PLP.Chemscore.CHOScore>
0.0000

> <Gold.PLP.Chemscore.Metal>
0.0000

> <Gold.Chemscore.Hbonds>
donor molecule, donor type, donor heavy atom, donor atom, acceptor molecule, acceptor atom, score
      P1  H  6896  6909       L1     8  1.00
      P1  H  7989  7998       L1    20  0.89

> <Gold.PLP.Chemscore.Internal.Correction>
0.0308

> <Gold.Rescore>
     Score         DG    S(hbond)    S(metal)    S(lipo)     H(rot)  DE(clash)    DE(int)     intcor
     16.72     -17.03       1.75        0.00      80.91       1.47       0.05       0.25       ----

> <Gold.Chemscore.Fitness>
16.7248

> <Gold.Chemscore.DG>
-17.0285

> <Gold.Chemscore.ZeroCoef>
-5.4800

> <Gold.Chemscore.Hbond>
1.7526

> <Gold.Chemscore.Metal>
0.0000

> <Gold.Chemscore.Lipo>
80.9130

> <Gold.Chemscore.Internal_Hbond>
0.0000

> <Gold.Chemscore.DEClash>
0.0501

> <Gold.Chemscore.DEInternal>
0.2535

> <Gold.Chemscore.Rot>
1.4735

> <Gold.Chemscore.Internal.Correction>
   9.000000E+99

> <Gold.Chemscore.Hbonds>
donor molecule, donor type, donor heavy atom, donor atom, acceptor molecule, acceptor atom, score
      P1  H  6896  6909       L1     8  0.89
      P1  H  7989  7998       L1    20  0.83

> <Gold.Chemscore.Hbond.Weighted>
-5.8537

> <Gold.Chemscore.Metal.Weighted>
-0.0000

> <Gold.Chemscore.Lipo.Weighted>
-9.4668

> <Gold.Chemscore.Internal_Hbond.Weighted>
0.0000

> <Gold.Chemscore.DEClash.Weighted>
0.0501

> <Gold.Chemscore.DEInternal.Weighted>
0.2535

> <Gold.Chemscore.Rot.Weighted>
3.7721

> <Gold.Chemscore.Internal.Correction.Weighted>
   9.000000E+99

> <Gold.Protein.RotatedTorsions>
[ 6907 6896 6895 6894 ] final   95.29 input  -60.11 | X-H torsion
[ 7974 7965 7964 7962 ] final   20.95 input  175.53 | X-H torsion
[ 8008 7997 7996 7995 ] final  -82.22 input   59.86 | X-H torsion
[ 10167 10162 10161 10158 ] final  136.59 input  -65.29 | X-H torsion
[ 10718 10713 10712 10709 ] final   -9.29 input   66.30 | X-H torsion
[ 10763 10752 10751 10750 ] final   88.91 input  -60.55 | X-H torsion
[ 11005 11000 10999 10996 ] final   45.14 input  -57.11 | X-H torsion

> <Gold.Protein.ActiveResidues>
 VAL166  LYS551  ARG553  GLY616  TRP617  ASP618  TYR619  PRO620  LYS621  CYS622 
 ASP623  PHE694  ASN695  SER759  ASP760  ASP761  ALA762  ILE779  LEU786  VAL792 
 PHE793  MET794  SER795  GLU796  ALA797  LYS798  CYS799  TRP800  GLU811  SER814 

> <Gold.Protein.RotatedAtoms>
  152.5444  134.1062  159.8338 H   0  0  0  0  0  0  0  0  0  0  0  0  # atno 6907 bound_to 6896
  151.1134  133.5149  159.2612 H   0  0  0  0  0  0  0  0  0  0  0  0  # atno 6908 bound_to 6896
  151.1859  135.0391  159.8866 H   0  0  0  0  0  0  0  0  0  0  0  0  # atno 6909 bound_to 6896
  146.2091  139.8096  142.8703 H   0  0  0  0  0  0  0  0  0  0  0  0  # atno 7974 bound_to 7965
  154.6063  140.0636  156.9436 H   0  0  0  0  0  0  0  0  0  0  0  0  # atno 8008 bound_to 7997
  155.2047  140.3318  155.4319 H   0  0  0  0  0  0  0  0  0  0  0  0  # atno 8009 bound_to 7997
  156.2350  140.1858  156.7128 H   0  0  0  0  0  0  0  0  0  0  0  0  # atno 8010 bound_to 7997
  139.5174  144.6456  151.5449 H   0  0  0  0  0  0  0  0  0  0  0  0  # atno 10167 bound_to 10162
  156.6902  130.5062  149.5946 H   0  0  0  0  0  0  0  0  0  0  0  0  # atno 10718 bound_to 10713
  153.1817  135.4489  155.0036 H   0  0  0  0  0  0  0  0  0  0  0  0  # atno 10763 bound_to 10752
  154.8034  135.3264  154.7495 H   0  0  0  0  0  0  0  0  0  0  0  0  # atno 10764 bound_to 10752
  153.7959  135.6966  153.4918 H   0  0  0  0  0  0  0  0  0  0  0  0  # atno 10765 bound_to 10752
  140.1487  134.4490  155.8397 H   0  0  0  0  0  0  0  0  0  0  0  0  # atno 11005 bound_to 11000
  145.3210  141.0244  143.3501 LP  0  0  0  0  0  0  0  0  0  0  0  0  # atno 17320 bound_to 7965
  144.8867  139.4830  143.6697 LP  0  0  0  0  0  0  0  0  0  0  0  0  # atno 17321 bound_to 7965
  140.6240  143.9205  150.6549 LP  0  0  0  0  0  0  0  0  0  0  0  0  # atno 17342 bound_to 10162
  140.2487  143.3609  152.1424 LP  0  0  0  0  0  0  0  0  0  0  0  0  # atno 17343 bound_to 10162
  156.1803  130.6495  151.0944 LP  0  0  0  0  0  0  0  0  0  0  0  0  # atno 17370 bound_to 10713
  157.7012  131.0775  150.6815 LP  0  0  0  0  0  0  0  0  0  0  0  0  # atno 17371 bound_to 10713
  141.2196  133.6863  156.7381 LP  0  0  0  0  0  0  0  0  0  0  0  0  # atno 17394 bound_to 11000
  140.2632  134.8450  157.3778 LP  0  0  0  0  0  0  0  0  0  0  0  0  # atno 17395 bound_to 11000

$$$$
