AV-unprocessed.smi:1100|AV-procd|sdf|4760|dock1
  -GOLD-   22720 3293D 1   1.00000     0.00000
 Structure written by MMmdl.
 43 44  0  0  0  0  0  0  0  0  1 V2000
  147.1996  139.7933  153.1959 C   0  0  0  0  0  0  0  0  0  0  0  0
  147.6876  140.4733  154.5007 C   0  0  1  0  0  0  0  0  0  0  0  0
  149.0094  141.2422  154.2062 C   0  0  0  0  0  0  0  0  0  0  0  0
  149.4027  142.1559  155.2759 N   0  0  0  0  0  0  0  0  0  0  0  0
  150.0878  141.8089  156.3749 C   0  0  0  0  0  0  0  0  0  0  0  0
  150.4348  140.6528  156.6140 O   0  0  0  0  0  0  0  0  0  0  0  0
  150.3458  142.8866  157.1380 N   0  0  0  0  0  0  0  0  0  0  0  0
  151.0321  142.9631  158.3581 C   0  0  0  0  0  0  0  0  0  0  0  0
  150.8882  144.0266  159.3419 C   0  0  0  0  0  0  0  0  0  0  0  0
  151.5960  144.0066  160.4888 C   0  0  0  0  0  0  0  0  0  0  0  0
  152.5350  142.9250  160.7965 C   0  0  0  0  0  0  0  0  0  0  0  0
  153.1842  142.8952  161.8424 O   0  0  0  0  0  0  0  0  0  0  0  0
  152.6454  141.9532  159.8457 N   0  0  0  0  0  0  0  0  0  0  0  0
  153.5614  140.8294  160.0556 C   0  0  0  0  0  0  0  0  0  0  0  0
  151.9058  141.9817  158.6487 C   0  0  0  0  0  0  0  0  0  0  0  0
  146.6456  141.3182  155.1299 N   0  0  0  0  0  0  0  0  0  0  0  0
  146.2006  142.4071  154.2520 C   0  0  0  0  0  0  0  0  0  0  0  0
  145.0950  143.2719  154.8815 C   0  0  0  0  0  0  0  0  0  0  0  0
  143.9910  142.4522  155.2377 O   0  0  0  0  0  0  0  0  0  0  0  0
  144.3608  141.4303  156.1529 C   0  0  0  0  0  0  0  0  0  0  0  0
  145.4612  140.5508  155.5335 C   0  0  0  0  0  0  0  0  0  0  0  0
  147.9816  139.2096  152.7121 H   0  0  0  0  0  0  0  0  0  0  0  0
  146.8474  140.5308  152.4741 H   0  0  0  0  0  0  0  0  0  0  0  0
  146.3923  139.0851  153.3766 H   0  0  0  0  0  0  0  0  0  0  0  0
  147.9318  139.6727  155.2007 H   0  0  0  0  0  0  0  0  0  0  0  0
  149.8232  140.5332  154.0512 H   0  0  0  0  0  0  0  0  0  0  0  0
  148.9417  141.8370  153.2962 H   0  0  0  0  0  0  0  0  0  0  0  0
  149.1560  143.1274  155.1560 H   0  0  0  0  0  0  0  0  0  0  0  0
  150.0160  143.7724  156.7837 H   0  0  0  0  0  0  0  0  0  0  0  0
  150.2281  144.8630  159.1807 H   0  0  0  0  0  0  0  0  0  0  0  0
  151.4735  144.8117  161.1983 H   0  0  0  0  0  0  0  0  0  0  0  0
  153.5083  140.0872  159.2584 H   0  0  0  0  0  0  0  0  0  0  0  0
  153.3329  140.3147  160.9901 H   0  0  0  0  0  0  0  0  0  0  0  0
  154.5921  141.1833  160.1059 H   0  0  0  0  0  0  0  0  0  0  0  0
  152.0894  141.1501  157.9833 H   0  0  0  0  0  0  0  0  0  0  0  0
  147.0287  143.0732  154.0165 H   0  0  0  0  0  0  0  0  0  0  0  0
  145.8439  141.9968  153.3061 H   0  0  0  0  0  0  0  0  0  0  0  0
  145.4683  143.7976  155.7618 H   0  0  0  0  0  0  0  0  0  0  0  0
  144.7600  144.0306  154.1740 H   0  0  0  0  0  0  0  0  0  0  0  0
  144.7024  141.8752  157.0889 H   0  0  0  0  0  0  0  0  0  0  0  0
  143.4826  140.8283  156.3868 H   0  0  0  0  0  0  0  0  0  0  0  0
  145.0557  140.0155  154.6736 H   0  0  0  0  0  0  0  0  0  0  0  0
  145.7220  139.8028  156.2792 H   0  0  0  0  0  0  0  0  0  0  0  0
  1  2  1  0  0  0  0
  1 22  1  0  0  0  0
  1 23  1  0  0  0  0
  1 24  1  0  0  0  0
  2  3  1  0  0  0  0
  2 16  1  0  0  0  0
  2 25  1  0  0  0  0
  3  4  1  0  0  0  0
  3 26  1  0  0  0  0
  3 27  1  0  0  0  0
  4  5  1  0  0  0  0
  4 28  1  0  0  0  0
  5  6  2  0  0  0  0
  5  7  1  0  0  0  0
  7  8  1  0  0  0  0
  7 29  1  0  0  0  0
  8 15  2  0  0  0  0
  8  9  1  0  0  0  0
  9 10  2  0  0  0  0
  9 30  1  0  0  0  0
 10 11  1  0  0  0  0
 10 31  1  0  0  0  0
 11 12  2  0  0  0  0
 11 13  1  0  0  0  0
 13 14  1  0  0  0  0
 13 15  1  0  0  0  0
 14 32  1  0  0  0  0
 14 33  1  0  0  0  0
 14 34  1  0  0  0  0
 15 35  1  0  0  0  0
 16 21  1  0  0  0  0
 16 17  1  0  0  0  0
 17 18  1  0  0  0  0
 17 36  1  0  0  0  0
 17 37  1  0  0  0  0
 18 19  1  0  0  0  0
 18 38  1  0  0  0  0
 18 39  1  0  0  0  0
 19 20  1  0  0  0  0
 20 21  1  0  0  0  0
 20 40  1  0  0  0  0
 20 41  1  0  0  0  0
 21 42  1  0  0  0  0
 21 43  1  0  0  0  0
M  END
> <s_m_source_file>
AV-unprocessed.smi

> <i_m_source_file_index>
1100

> <i_lp_mmshare_version>
43012

> <i_f3d_flags>
0

> <s_epik_input>
W0NIMl0xW0NIMl1PW0NIMl1bQ0gyXU4xW0NASF0oW0NIM10pW0NIMl1bTkhdQyg9TylbTkhdYzJbY0hdW2NIXWMoPU8pbihbQ0gzXSlbY0hdMg==

> <s_epik_cmdline>
J2VwaWtfcHl0aG9uJywgJy1waCcsICc3LjAnLCAnLXRuJywgJzgnLCAnLW1hJywgJzIwMCcsICctbWV0YWxfYmluZGluZycsICctaW1hZScsICc8aW5maWxlLm1hZT4nLCAnLW9tYWUnLCAnPG91dGZpbGUubWFlPic=

> <r_lp_tautomer_probability>
1

> <r_epik_Ionization_Penalty>
0.266016

> <r_epik_Ionization_Penalty_Charging>
5.79683e-06

> <r_epik_Ionization_Penalty_Neutral>
0.26601

> <r_epik_State_Penalty>
0.257924

> <r_epik_Charging_Adjusted_Penalty>
0.25793

> <i_epik_Tot_Q>
0

> <i_epik_Tot_abs_Q>
0

> <r_epik_Metal_State_Penalty>
0.260326

> <b_epik_Metal_Only>
0

> <s_lp_Force_Field>
OPLS_2005

> <r_lp_Energy>
41.8839

> <b_lp_Chiralities_Consistent>
1

> <s_lp_Variant>
AV-unprocessed.smi:1100-2

> <Gold.Version>
5.8.1

> <Gold.Id.Protein>
6NUR|6NUR_protein|mol2

> <Gold.PLP.Fitness>
44.9247

> <Gold.PLP.PLP>
-39.8546

> <Gold.PLP.part.hbond>
-2.0000

> <Gold.PLP.part.metal>
0.0000

> <Gold.PLP.part.buried>
-5.4841

> <Gold.PLP.part.nonpolar>
-33.5991

> <Gold.PLP.part.repulsive>
0.5880

> <Gold.PLP.ligand.clash>
0.0000

> <Gold.PLP.ligand.torsion>
0.4219

> <Gold.PLP.Chemscore.Hbond>
1.9600

> <Gold.PLP.Chemscore.CHOScore>
0.0000

> <Gold.PLP.Chemscore.Metal>
0.0000

> <Gold.Chemscore.Hbonds>
donor molecule, donor type, donor heavy atom, donor atom, acceptor molecule, acceptor atom, score
      L1  H     4    28       P1  8028  1.00
      L1  H     7    29       P1  8028  1.00

> <Gold.PLP.Chemscore.Internal.Correction>
0.0338

> <Gold.Rescore>
     Score         DG    S(hbond)    S(metal)    S(lipo)     H(rot)  DE(clash)    DE(int)     intcor
     15.82     -17.58       1.92        0.00      81.21       1.49       0.07       1.69       ----

> <Gold.Chemscore.Fitness>
15.8190

> <Gold.Chemscore.DG>
-17.5821

> <Gold.Chemscore.ZeroCoef>
-5.4800

> <Gold.Chemscore.Hbond>
1.9237

> <Gold.Chemscore.Metal>
0.0000

> <Gold.Chemscore.Lipo>
81.2052

> <Gold.Chemscore.Internal_Hbond>
0.0000

> <Gold.Chemscore.DEClash>
0.0747

> <Gold.Chemscore.DEInternal>
1.6884

> <Gold.Chemscore.Rot>
1.4938

> <Gold.Chemscore.Internal.Correction>
   9.000000E+99

> <Gold.Chemscore.Hbonds>
donor molecule, donor type, donor heavy atom, donor atom, acceptor molecule, acceptor atom, score
      L1  H     4    28       P1  8028  0.99
      L1  H     7    29       P1  8028  0.95

> <Gold.Chemscore.Hbond.Weighted>
-6.4252

> <Gold.Chemscore.Metal.Weighted>
-0.0000

> <Gold.Chemscore.Lipo.Weighted>
-9.5010

> <Gold.Chemscore.Internal_Hbond.Weighted>
0.0000

> <Gold.Chemscore.DEClash.Weighted>
0.0747

> <Gold.Chemscore.DEInternal.Weighted>
1.6884

> <Gold.Chemscore.Rot.Weighted>
3.8242

> <Gold.Chemscore.Internal.Correction.Weighted>
   9.000000E+99

> <Gold.Protein.RotatedTorsions>
[ 6907 6896 6895 6894 ] final   92.71 input  -60.11 | X-H torsion
[ 7974 7965 7964 7962 ] final -157.60 input  175.53 | X-H torsion
[ 8008 7997 7996 7995 ] final -168.62 input   59.86 | X-H torsion
[ 10167 10162 10161 10158 ] final -164.82 input  -65.29 | X-H torsion
[ 10718 10713 10712 10709 ] final   27.06 input   66.30 | X-H torsion
[ 10763 10752 10751 10750 ] final  -74.23 input  -60.55 | X-H torsion
[ 11005 11000 10999 10996 ] final -109.28 input  -57.11 | X-H torsion

> <Gold.Protein.ActiveResidues>
 VAL166  LYS551  ARG553  GLY616  TRP617  ASP618  TYR619  PRO620  LYS621  CYS622 
 ASP623  PHE694  ASN695  SER759  ASP760  ASP761  ALA762  ILE779  LEU786  VAL792 
 PHE793  MET794  SER795  GLU796  ALA797  LYS798  CYS799  TRP800  GLU811  SER814 

> <Gold.Protein.RotatedAtoms>
  152.5453  134.1459  159.8498 H   0  0  0  0  0  0  0  0  0  0  0  0  # atno 6907 bound_to 6896
  151.1491  133.4912  159.2603 H   0  0  0  0  0  0  0  0  0  0  0  0  # atno 6908 bound_to 6896
  151.1491  135.0229  159.8715 H   0  0  0  0  0  0  0  0  0  0  0  0  # atno 6909 bound_to 6896
  144.7541  140.3946  143.6025 H   0  0  0  0  0  0  0  0  0  0  0  0  # atno 7974 bound_to 7965
  155.8939  140.1029  157.1398 H   0  0  0  0  0  0  0  0  0  0  0  0  # atno 8008 bound_to 7997
  154.4018  140.1305  156.4415 H   0  0  0  0  0  0  0  0  0  0  0  0  # atno 8009 bound_to 7997
  155.7501  140.3465  155.5148 H   0  0  0  0  0  0  0  0  0  0  0  0  # atno 8010 bound_to 7997
  139.6224  144.0598  152.1944 H   0  0  0  0  0  0  0  0  0  0  0  0  # atno 10167 bound_to 10162
  157.2151  130.6952  149.6245 H   0  0  0  0  0  0  0  0  0  0  0  0  # atno 10718 bound_to 10713
  154.4703  135.5871  153.6317 H   0  0  0  0  0  0  0  0  0  0  0  0  # atno 10763 bound_to 10752
  152.9834  135.6065  154.3375 H   0  0  0  0  0  0  0  0  0  0  0  0  # atno 10764 bound_to 10752
  154.3256  135.2843  155.2476 H   0  0  0  0  0  0  0  0  0  0  0  0  # atno 10765 bound_to 10752
  141.0856  133.9145  157.2193 H   0  0  0  0  0  0  0  0  0  0  0  0  # atno 11005 bound_to 11000
  145.6840  139.1624  143.2684 LP  0  0  0  0  0  0  0  0  0  0  0  0  # atno 17320 bound_to 7965
  146.1529  140.6899  142.9313 LP  0  0  0  0  0  0  0  0  0  0  0  0  # atno 17321 bound_to 7965
  140.0244  144.6129  150.7540 LP  0  0  0  0  0  0  0  0  0  0  0  0  # atno 17342 bound_to 10162
  140.7390  143.2786  151.3668 LP  0  0  0  0  0  0  0  0  0  0  0  0  # atno 17343 bound_to 10162
  155.9687  130.4538  150.5826 LP  0  0  0  0  0  0  0  0  0  0  0  0  # atno 17370 bound_to 10713
  157.3633  131.0753  151.1619 LP  0  0  0  0  0  0  0  0  0  0  0  0  # atno 17371 bound_to 10713
  139.9674  135.0138  156.9422 LP  0  0  0  0  0  0  0  0  0  0  0  0  # atno 17394 bound_to 11000
  140.5371  134.0757  155.7331 LP  0  0  0  0  0  0  0  0  0  0  0  0  # atno 17395 bound_to 11000

$$$$
