AV-unprocessed.smi:83|AV-procd|sdf|800|dock1
  -GOLD-   2262017183D 1   1.00000     0.00000
 Structure written by MMmdl.
 56 59  0  0  0  0  0  0  0  0  1 V2000
  146.8280  133.2853  151.6405 C   0  0  0  0  0  0  0  0  0  0  0  0
  146.8274  133.7492  153.0983 C   0  0  0  0  0  0  0  0  0  0  0  0
  145.8846  134.4260  153.5078 O   0  0  0  0  0  0  0  0  0  0  0  0
  147.8643  133.4000  153.8865 N   0  0  0  0  0  0  0  0  0  0  0  0
  148.9963  132.5969  153.4324 C   0  0  0  0  0  0  0  0  0  0  0  0
  149.8751  132.3929  154.6703 C   0  0  0  0  0  0  0  0  0  0  0  0
  149.5504  133.5851  155.5696 C   0  0  1  0  0  0  0  0  0  0  0  0
  150.4525  134.7897  155.2047 C   0  0  0  0  0  0  0  0  0  0  0  0
  150.3652  135.9111  156.1418 N   0  0  0  0  0  0  0  0  0  0  0  0
  149.7362  135.6473  157.4349 C   0  0  0  0  0  0  0  0  0  0  0  0
  150.4799  137.2058  155.7175 C   0  0  0  0  0  0  0  0  0  0  0  0
  150.5463  137.4360  154.3773 N   0  0  0  0  0  0  0  0  0  0  0  0
  150.7014  138.6707  153.8946 C   0  0  0  0  0  0  0  0  0  0  0  0
  150.8149  139.8166  154.5637 N   0  0  0  0  0  0  0  0  0  0  0  0
  150.7356  139.6101  155.9076 C   0  0  0  0  0  0  0  0  0  0  0  0
  150.5600  138.3563  156.5663 C   0  0  0  0  0  0  0  0  0  0  0  0
  150.5109  138.5724  157.9407 N   0  0  0  0  0  0  0  0  0  0  0  0
  150.6701  139.8580  158.0848 C   0  0  0  0  0  0  0  0  0  0  0  0
  150.8141  140.5582  156.9123 N   0  0  0  0  0  0  0  0  0  0  0  0
  151.0084  141.9911  156.7794 C   0  0  0  0  0  0  0  0  0  0  0  0
  151.1279  142.6970  158.1436 C   0  0  2  0  0  0  0  0  0  0  0  0
  150.6556  144.0282  158.0599 O   0  0  0  0  0  0  0  0  0  0  0  0
  152.5621  142.6598  158.7102 C   0  0  2  0  0  0  0  0  0  0  0  0
  153.1749  141.2742  158.9333 C   0  0  0  0  0  0  0  0  0  0  0  0
  154.2278  141.5820  159.9742 C   0  0  0  0  0  0  0  0  0  0  0  0
  153.5159  142.6197  160.8385 C   0  0  0  0  0  0  0  0  0  0  0  0
  152.6654  143.3464  159.9558 O   0  0  0  0  0  0  0  0  0  0  0  0
  148.0554  133.7943  155.2800 C   0  0  0  0  0  0  0  0  0  0  0  0
  147.7524  133.5761  151.1413 H   0  0  0  0  0  0  0  0  0  0  0  0
  145.9963  133.7316  151.0946 H   0  0  0  0  0  0  0  0  0  0  0  0
  146.7242  132.2021  151.5810 H   0  0  0  0  0  0  0  0  0  0  0  0
  148.6752  131.6447  153.0076 H   0  0  0  0  0  0  0  0  0  0  0  0
  149.5392  133.1473  152.6623 H   0  0  0  0  0  0  0  0  0  0  0  0
  149.5818  131.4702  155.1731 H   0  0  0  0  0  0  0  0  0  0  0  0
  150.9346  132.3083  154.4260 H   0  0  0  0  0  0  0  0  0  0  0  0
  149.7067  133.3275  156.6179 H   0  0  0  0  0  0  0  0  0  0  0  0
  151.4889  134.4508  155.2173 H   0  0  0  0  0  0  0  0  0  0  0  0
  150.2951  135.0938  154.1756 H   0  0  0  0  0  0  0  0  0  0  0  0
  150.2284  136.2105  158.2286 H   0  0  0  0  0  0  0  0  0  0  0  0
  149.8008  134.5902  157.6936 H   0  0  0  0  0  0  0  0  0  0  0  0
  148.6811  135.9222  157.4140 H   0  0  0  0  0  0  0  0  0  0  0  0
  150.7467  138.7506  152.8183 H   0  0  0  0  0  0  0  0  0  0  0  0
  150.6879  140.3320  159.0554 H   0  0  0  0  0  0  0  0  0  0  0  0
  151.9109  142.1573  156.1901 H   0  0  0  0  0  0  0  0  0  0  0  0
  150.1807  142.4044  156.2018 H   0  0  0  0  0  0  0  0  0  0  0  0
  150.4778  142.1845  158.8539 H   0  0  0  0  0  0  0  0  0  0  0  0
  149.9303  144.0516  157.4546 H   0  0  0  0  0  0  0  0  0  0  0  0
  153.2133  143.2016  158.0222 H   0  0  0  0  0  0  0  0  0  0  0  0
  152.4493  140.5736  159.3474 H   0  0  0  0  0  0  0  0  0  0  0  0
  153.5865  140.8395  158.0222 H   0  0  0  0  0  0  0  0  0  0  0  0
  154.5465  140.7043  160.5371 H   0  0  0  0  0  0  0  0  0  0  0  0
  155.1055  142.0242  159.5011 H   0  0  0  0  0  0  0  0  0  0  0  0
  152.8951  142.1270  161.5876 H   0  0  0  0  0  0  0  0  0  0  0  0
  154.2115  143.2802  161.3565 H   0  0  0  0  0  0  0  0  0  0  0  0
  147.7165  134.8049  155.4937 H   0  0  0  0  0  0  0  0  0  0  0  0
  147.4605  133.1248  155.9029 H   0  0  0  0  0  0  0  0  0  0  0  0
  1  2  1  0  0  0  0
  1 29  1  0  0  0  0
  1 30  1  0  0  0  0
  1 31  1  0  0  0  0
  2  3  2  0  0  0  0
  2  4  1  0  0  0  0
  4 28  1  0  0  0  0
  4  5  1  0  0  0  0
  5  6  1  0  0  0  0
  5 32  1  0  0  0  0
  5 33  1  0  0  0  0
  6  7  1  0  0  0  0
  6 34  1  0  0  0  0
  6 35  1  0  0  0  0
  7  8  1  0  0  0  0
  7 28  1  0  0  0  0
  7 36  1  0  0  0  0
  8  9  1  0  0  0  0
  8 37  1  0  0  0  0
  8 38  1  0  0  0  0
  9 10  1  0  0  0  0
  9 11  1  0  0  0  0
 10 39  1  0  0  0  0
 10 40  1  0  0  0  0
 10 41  1  0  0  0  0
 11 16  1  0  0  0  0
 11 12  2  0  0  0  0
 12 13  1  0  0  0  0
 13 14  2  0  0  0  0
 13 42  1  0  0  0  0
 14 15  1  0  0  0  0
 15 19  1  0  0  0  0
 15 16  2  0  0  0  0
 16 17  1  0  0  0  0
 17 18  2  0  0  0  0
 18 19  1  0  0  0  0
 18 43  1  0  0  0  0
 19 20  1  0  0  0  0
 20 21  1  0  0  0  0
 20 44  1  0  0  0  0
 20 45  1  0  0  0  0
 21 22  1  0  0  0  0
 21 23  1  0  0  0  0
 21 46  1  0  0  0  0
 22 47  1  0  0  0  0
 23 27  1  0  0  0  0
 23 24  1  0  0  0  0
 23 48  1  0  0  0  0
 24 25  1  0  0  0  0
 24 49  1  0  0  0  0
 24 50  1  0  0  0  0
 25 26  1  0  0  0  0
 25 51  1  0  0  0  0
 25 52  1  0  0  0  0
 26 27  1  0  0  0  0
 26 53  1  0  0  0  0
 26 54  1  0  0  0  0
 28 55  1  0  0  0  0
 28 56  1  0  0  0  0
M  END
> <s_m_source_file>
AV-unprocessed.smi

> <i_m_source_file_index>
83

> <i_lp_mmshare_version>
43012

> <i_f3d_flags>
0

> <s_epik_input>
W0NIM11DKD1PKU4xW0NIMl1bQ0gyXVtDQEhdKFtDSDJdMSlbQ0gyXU4oW0NIM10pYyhuW2NIXW4yKWMoYzIzKW5bY0hdbjNbQ0gyXVtDQEhdKFtPSF0pW0NAQEhdNFtDSDJdW0NIMl1bQ0gyXU80

> <s_epik_cmdline>
J2VwaWtfcHl0aG9uJywgJy1waCcsICc3LjAnLCAnLXRuJywgJzgnLCAnLW1hJywgJzIwMCcsICctbWV0YWxfYmluZGluZycsICctaW1hZScsICc8aW5maWxlLm1hZT4nLCAnLW9tYWUnLCAnPG91dGZpbGUubWFlPic=

> <r_lp_tautomer_probability>
1

> <r_epik_Ionization_Penalty>
0.00109752

> <r_epik_Ionization_Penalty_Charging>
0

> <r_epik_Ionization_Penalty_Neutral>
0.00109752

> <r_epik_State_Penalty>
0.000634803

> <r_epik_Charging_Adjusted_Penalty>
0.000634803

> <i_epik_Tot_Q>
0

> <i_epik_Tot_abs_Q>
0

> <r_epik_Metal_State_Penalty>
-0

> <b_epik_Metal_Only>
0

> <s_lp_Force_Field>
OPLS_2005

> <r_lp_Energy>
57.114

> <b_lp_Chiralities_Consistent>
1

> <s_lp_Variant>
AV-unprocessed.smi:83-1

> <Gold.Version>
5.8.1

> <Gold.Id.Protein>
6NUR|6NUR_protein|mol2

> <Gold.PLP.Fitness>
53.2194

> <Gold.PLP.PLP>
-46.1641

> <Gold.PLP.part.hbond>
-2.5156

> <Gold.PLP.part.metal>
0.0000

> <Gold.PLP.part.buried>
-8.6754

> <Gold.PLP.part.nonpolar>
-36.4552

> <Gold.PLP.part.repulsive>
0.4037

> <Gold.PLP.ligand.clash>
0.0022

> <Gold.PLP.ligand.torsion>
0.8524

> <Gold.PLP.Chemscore.Hbond>
2.0000

> <Gold.PLP.Chemscore.CHOScore>
0.7856

> <Gold.PLP.Chemscore.Metal>
0.0000

> <Gold.Chemscore.Hbonds>
donor molecule, donor type, donor heavy atom, donor atom, acceptor molecule, acceptor atom, score
      L1  H    22    47       P1  8028  0.68
      P1  H  7989  7998       L1    14  1.00
      L1  C    13    42       P1  7957  0.82

> <Gold.PLP.Chemscore.Internal.Correction>
0.4057

> <Gold.Rescore>
     Score         DG    S(hbond)    S(metal)    S(lipo)     H(rot)  DE(clash)    DE(int)     intcor
     13.64     -15.91       1.87        0.00      92.83       2.62       0.11       2.16       ----

> <Gold.Chemscore.Fitness>
13.6397

> <Gold.Chemscore.DG>
-15.9074

> <Gold.Chemscore.ZeroCoef>
-5.4800

> <Gold.Chemscore.Hbond>
1.8745

> <Gold.Chemscore.Metal>
0.0000

> <Gold.Chemscore.Lipo>
92.8339

> <Gold.Chemscore.Internal_Hbond>
0.0000

> <Gold.Chemscore.DEClash>
0.1116

> <Gold.Chemscore.DEInternal>
2.1561

> <Gold.Chemscore.Rot>
2.6152

> <Gold.Chemscore.Internal.Correction>
   9.000000E+99

> <Gold.Chemscore.Hbonds>
donor molecule, donor type, donor heavy atom, donor atom, acceptor molecule, acceptor atom, score
      L1  H    22    47       P1  8028  0.40
      P1  H  7989  7998       L1    14  0.50

> <Gold.Chemscore.Hbond.Weighted>
-6.2607

> <Gold.Chemscore.Metal.Weighted>
-0.0000

> <Gold.Chemscore.Lipo.Weighted>
-10.8616

> <Gold.Chemscore.Internal_Hbond.Weighted>
0.0000

> <Gold.Chemscore.DEClash.Weighted>
0.1116

> <Gold.Chemscore.DEInternal.Weighted>
2.1561

> <Gold.Chemscore.Rot.Weighted>
6.6949

> <Gold.Chemscore.Internal.Correction.Weighted>
   9.000000E+99

> <Gold.Protein.RotatedTorsions>
[ 6907 6896 6895 6894 ] final    9.56 input  -60.11 | X-H torsion
[ 7974 7965 7964 7962 ] final   20.54 input  175.53 | X-H torsion
[ 8008 7997 7996 7995 ] final -165.93 input   59.86 | X-H torsion
[ 10167 10162 10161 10158 ] final  139.88 input  -65.29 | X-H torsion
[ 10718 10713 10712 10709 ] final -122.98 input   66.30 | X-H torsion
[ 10763 10752 10751 10750 ] final  -72.25 input  -60.55 | X-H torsion
[ 11005 11000 10999 10996 ] final  165.16 input  -57.11 | X-H torsion

> <Gold.Protein.ActiveResidues>
 VAL166  LYS551  ARG553  GLY616  TRP617  ASP618  TYR619  PRO620  LYS621  CYS622 
 ASP623  PHE694  ASN695  SER759  ASP760  ASP761  ALA762  ILE779  LEU786  VAL792 
 PHE793  MET794  SER795  GLU796  ALA797  LYS798  CYS799  TRP800  GLU811  SER814 

> <Gold.Protein.RotatedAtoms>
  151.7241  135.0888  160.0288 H   0  0  0  0  0  0  0  0  0  0  0  0  # atno 6907 bound_to 6896
  152.3583  133.6260  159.6004 H   0  0  0  0  0  0  0  0  0  0  0  0  # atno 6908 bound_to 6896
  150.7586  133.9381  159.3489 H   0  0  0  0  0  0  0  0  0  0  0  0  # atno 6909 bound_to 6896
  146.2107  139.8155  142.8691 H   0  0  0  0  0  0  0  0  0  0  0  0  # atno 7974 bound_to 7965
  155.8566  140.0971  157.1640 H   0  0  0  0  0  0  0  0  0  0  0  0  # atno 8008 bound_to 7997
  154.3988  140.1373  156.3972 H   0  0  0  0  0  0  0  0  0  0  0  0  # atno 8009 bound_to 7997
  155.7902  140.3456  155.5347 H   0  0  0  0  0  0  0  0  0  0  0  0  # atno 8010 bound_to 7997
  139.5065  144.6268  151.5917 H   0  0  0  0  0  0  0  0  0  0  0  0  # atno 10167 bound_to 10162
  156.1464  130.6503  150.9848 H   0  0  0  0  0  0  0  0  0  0  0  0  # atno 10718 bound_to 10713
  154.4430  135.5936  153.6142 H   0  0  0  0  0  0  0  0  0  0  0  0  # atno 10763 bound_to 10752
  152.9807  135.6002  154.3699 H   0  0  0  0  0  0  0  0  0  0  0  0  # atno 10764 bound_to 10752
  154.3551  135.2841  155.2330 H   0  0  0  0  0  0  0  0  0  0  0  0  # atno 10765 bound_to 10752
  140.2533  134.7960  157.3522 H   0  0  0  0  0  0  0  0  0  0  0  0  # atno 11005 bound_to 11000
  145.3151  141.0229  143.3532 LP  0  0  0  0  0  0  0  0  0  0  0  0  # atno 17320 bound_to 7965
  144.8908  139.4778  143.6679 LP  0  0  0  0  0  0  0  0  0  0  0  0  # atno 17321 bound_to 7965
  140.5987  143.9649  150.6372 LP  0  0  0  0  0  0  0  0  0  0  0  0  # atno 17342 bound_to 10162
  140.2853  143.3361  152.1113 LP  0  0  0  0  0  0  0  0  0  0  0  0  # atno 17343 bound_to 10162
  157.6620  131.0879  150.7817 LP  0  0  0  0  0  0  0  0  0  0  0  0  # atno 17370 bound_to 10713
  156.7888  130.4883  149.5388 LP  0  0  0  0  0  0  0  0  0  0  0  0  # atno 17371 bound_to 10713
  140.1536  134.4818  155.7943 LP  0  0  0  0  0  0  0  0  0  0  0  0  # atno 17394 bound_to 11000
  141.2199  133.6872  156.7422 LP  0  0  0  0  0  0  0  0  0  0  0  0  # atno 17395 bound_to 11000

$$$$
