#       Name:                AV-unprocessed.smi:2061
#       Creating user name   scv26
#       Creation time:       Fri Mar 27 11:06:54 2020


#       File generated by GOLD software.
#

@<TRIPOS>MOLECULE
AV-unprocessed.smi:2061
    53    54     1
SMALL
NO_CHARGES


@<TRIPOS>ATOM
      1 ****        -6.5811   4.7917   1.4905 C.3            1 S1                 0.0000
      2 ****        -5.2442   4.1754   1.7252 C.2            1 S1                 0.0000
      3 ****        -4.2792   3.7037   0.8809 C.2            1 S1                 0.0000
      4 ****        -3.2657   3.2483   1.7680 C.2            1 S1                 0.0000
      5 ****        -2.0896   2.7072   1.4141 N.pl3          1 S1                -1.0000
      6 ****        -2.0050   1.3899   1.1200 C.2            1 S1                 0.0000
      7 ****        -2.9327   0.5777   1.1133 O.2            1 S1                 0.0000
      8 ****        -0.7646   0.9883   0.8142 N.am           1 S1                 0.0000
      9 ****        -0.3778  -0.3754   0.4703 C.3            1 S1                 0.0000
     10 ****         1.1598  -0.5758   0.5092 C.3            1 S1                 0.0000
     11 ****         1.7138  -0.1686   1.8967 C.3            1 S1                 0.0000
     12 ****         1.5642  -1.9821   0.1607 N.4            1 S1                 1.0000
     13 ****         0.9467  -2.5611  -1.0636 C.3            1 S1                 0.0000
     14 ****         1.5609  -1.9463  -2.3386 C.3            1 S1                 0.0000
     15 ****         0.9746  -2.5595  -3.6145 C.3            1 S1                 0.0000
     16 ****         2.9637  -2.1960  -2.3340 O.3            1 S1                 0.0000
     17 ****         3.6327  -1.6306  -1.2103 C.3            1 S1                 0.0000
     18 ****         5.1274  -1.9426  -1.3428 C.3            1 S1                 0.0000
     19 ****         3.0326  -2.2179   0.0864 C.3            1 S1                 0.0000
     20 ****        -3.5808   3.4418   3.0376 N.2            1 S1                 0.0000
     21 ****        -4.8512   4.0296   3.0193 O.3            1 S1                 0.0000
     22 ****        -6.4978   5.6526   0.8270 H              1 S1                 0.0000
     23 ****        -7.0290   5.1291   2.4254 H              1 S1                 0.0000
     24 ****        -7.2602   4.0739   1.0301 H              1 S1                 0.0000
     25 ****        -4.2961   3.6843  -0.1984 H              1 S1                 0.0000
     26 ****        -0.0345   1.6854   0.8313 H              1 S1                 0.0000
     27 ****        -0.8625  -1.0828   1.1455 H              1 S1                 0.0000
     28 ****        -0.7773  -0.5465  -0.5284 H              1 S1                 0.0000
     29 ****         1.5870   0.1036  -0.2279 H              1 S1                 0.0000
     30 ****         1.3718   0.8192   2.2041 H              1 S1                 0.0000
     31 ****         2.8004  -0.1076   1.9115 H              1 S1                 0.0000
     32 ****         1.4027  -0.8737   2.6680 H              1 S1                 0.0000
     33 ****         1.1441  -3.6342  -1.0611 H              1 S1                 0.0000
     34 ****        -0.1386  -2.4875  -1.0619 H              1 S1                 0.0000
     35 ****         1.3845  -0.8701  -2.3643 H              1 S1                 0.0000
     36 ****        -0.1008  -2.3892  -3.6729 H              1 S1                 0.0000
     37 ****         1.1463  -3.6357  -3.6519 H              1 S1                 0.0000
     38 ****         1.4287  -2.1190  -4.5024 H              1 S1                 0.0000
     39 ****         3.5109  -0.5470  -1.2295 H              1 S1                 0.0000
     40 ****         5.6919  -1.5175  -0.5126 H              1 S1                 0.0000
     41 ****         5.5321  -1.5266  -2.2658 H              1 S1                 0.0000
     42 ****         5.3081  -3.0179  -1.3549 H              1 S1                 0.0000
     43 ****         3.5590  -1.8481   0.9631 H              1 S1                 0.0000
     44 ****         3.1982  -3.2963   0.0964 H              1 S1                 0.0000
     45 ****         1.2262  -2.5441   0.9291 H              1 S1                 0.0000
     46 ****        -1.2718   3.2808   1.3676 LP             1 S1                 0.0000
     47 ****        -3.8596   0.8755   1.3415 LP             1 S1                 0.0000
     48 ****        -2.7581  -0.3789   0.8795 LP             1 S1                 0.0000
     49 ****         3.3581  -1.8075  -3.1668 LP             1 S1                 0.0000
     50 ****         3.1101  -3.1852  -2.3260 LP             1 S1                 0.0000
     51 ****        -3.0288   3.2161   3.8403 LP             1 S1                 0.0000
     52 ****        -5.5003   3.4437   3.5044 LP             1 S1                 0.0000
     53 ****        -4.8144   4.9250   3.4629 LP             1 S1                 0.0000
@<TRIPOS>BOND
    1    1    2 1     
    2    1   22 1     
    3    1   23 1     
    4    1   24 1     
    5    2   21 1     
    6    2    3 2     
    7    3    4 1     
    8    3   25 1     
    9    4    5 1     
   10    4   20 2     
   11    5    6 1     
   12    6    7 2     
   13    6    8 am    
   14    8    9 1     
   15    8   26 1     
   16    9   10 1     
   17    9   27 1     
   18    9   28 1     
   19   10   11 1     
   20   10   12 1     
   21   10   29 1     
   22   11   30 1     
   23   11   31 1     
   24   11   32 1     
   25   12   19 1     
   26   12   13 1     
   27   12   45 1     
   28   13   14 1     
   29   13   33 1     
   30   13   34 1     
   31   14   15 1     
   32   14   16 1     
   33   14   35 1     
   34   15   36 1     
   35   15   37 1     
   36   15   38 1     
   37   16   17 1     
   38   17   18 1     
   39   17   19 1     
   40   17   39 1     
   41   18   40 1     
   42   18   41 1     
   43   18   42 1     
   44   19   43 1     
   45   19   44 1     
   46   20   21 1     
   47    5   46 1     
   48    7   47 1     
   49    7   48 1     
   50   16   49 1     
   51   16   50 1     
   52   20   51 1     
   53   21   52 1     
   54   21   53 1     
@<TRIPOS>SUBSTRUCTURE
      1 S1             1
@<TRIPOS>SET
LONE_PAIRS      STATIC     ATOMS    <user>   **** ""
8 46 47 48 49 50 51 52 53
DONOR_HYDROGENS      STATIC     ATOMS    <user>   **** ""
2 26 45
ATOM$BLUE        STATIC     ATOMS    COLORGROUP SYSTEM
8 46 47 48 49 50 51 52 53
ATOM$RED        STATIC     ATOMS    COLORGROUP SYSTEM
2 26 45
