AV-unprocessed.smi:1712|AV-procd|sdf|6901|dock10
  -GOLD-   22720 8103D 1   1.00000     0.00000
 Structure written by MMmdl.
 37 38  0  0  0  0  0  0  0  0  1 V2000
  148.2870  141.5117  154.3284 C   0  0  0  0  0  0  0  0  0  0  0  0
  148.8524  140.1133  153.9916 C   0  0  2  0  0  0  0  0  0  0  0  0
  147.9176  139.0438  154.6144 C   0  0  0  0  0  0  0  0  0  0  0  0
  147.5434  138.0079  153.6533 N   0  0  0  0  0  0  0  0  0  0  0  0
  146.2969  137.5775  153.4136 C   0  0  0  0  0  0  0  0  0  0  0  0
  145.2978  138.0282  153.9746 O   0  0  0  0  0  0  0  0  0  0  0  0
  146.2893  136.5957  152.4973 N   0  0  0  0  0  0  0  0  0  0  0  0
  145.1620  135.9078  151.9818 C   0  0  0  0  0  0  0  0  0  0  0  0
  144.0180  135.5451  152.7432 C   0  0  0  0  0  0  0  0  0  0  0  0
  143.1248  134.9065  152.0005 N   0  0  0  0  0  0  0  0  0  0  0  0
  143.6885  134.8574  150.7723 N   0  0  0  0  0  0  0  0  0  0  0  0
  144.9285  135.4546  150.7136 C   0  0  0  0  0  0  0  0  0  0  0  0
  150.2782  139.9517  154.3522 N   0  0  0  0  0  0  0  0  0  0  0  0
  150.5591  140.3481  155.7354 C   0  0  0  0  0  0  0  0  0  0  0  0
  152.0394  140.1659  156.1127 C   0  0  0  0  0  0  0  0  0  0  0  0
  152.4240  138.8138  155.9024 O   0  0  0  0  0  0  0  0  0  0  0  0
  152.2306  138.4040  154.5550 C   0  0  0  0  0  0  0  0  0  0  0  0
  150.7518  138.5767  154.1676 C   0  0  0  0  0  0  0  0  0  0  0  0
  143.2203  134.4172  149.9928 H   0  0  0  0  0  0  0  0  0  0  0  0
  147.2104  141.5531  154.1614 H   0  0  0  0  0  0  0  0  0  0  0  0
  148.7209  142.2908  153.7025 H   0  0  0  0  0  0  0  0  0  0  0  0
  148.4685  141.7775  155.3704 H   0  0  0  0  0  0  0  0  0  0  0  0
  148.7660  140.0001  152.9099 H   0  0  0  0  0  0  0  0  0  0  0  0
  148.3902  138.6054  155.4949 H   0  0  0  0  0  0  0  0  0  0  0  0
  147.0053  139.4983  154.9990 H   0  0  0  0  0  0  0  0  0  0  0  0
  148.3003  137.5699  153.1488 H   0  0  0  0  0  0  0  0  0  0  0  0
  147.1848  136.3089  152.1299 H   0  0  0  0  0  0  0  0  0  0  0  0
  143.8106  135.7202  153.7887 H   0  0  0  0  0  0  0  0  0  0  0  0
  145.5080  135.4967  149.8035 H   0  0  0  0  0  0  0  0  0  0  0  0
  150.3093  141.3961  155.8925 H   0  0  0  0  0  0  0  0  0  0  0  0
  149.9374  139.7689  156.4198 H   0  0  0  0  0  0  0  0  0  0  0  0
  152.6730  140.8291  155.5215 H   0  0  0  0  0  0  0  0  0  0  0  0
  152.1979  140.4219  157.1604 H   0  0  0  0  0  0  0  0  0  0  0  0
  152.8739  138.9867  153.8935 H   0  0  0  0  0  0  0  0  0  0  0  0
  152.5289  137.3603  154.4541 H   0  0  0  0  0  0  0  0  0  0  0  0
  150.1407  137.8929  154.7588 H   0  0  0  0  0  0  0  0  0  0  0  0
  150.6488  138.2728  153.1271 H   0  0  0  0  0  0  0  0  0  0  0  0
  1  2  1  0  0  0  0
  1 20  1  0  0  0  0
  1 21  1  0  0  0  0
  1 22  1  0  0  0  0
  2  3  1  0  0  0  0
  2 13  1  0  0  0  0
  2 23  1  0  0  0  0
  3  4  1  0  0  0  0
  3 24  1  0  0  0  0
  3 25  1  0  0  0  0
  4  5  1  0  0  0  0
  4 26  1  0  0  0  0
  5  6  2  0  0  0  0
  5  7  1  0  0  0  0
  7  8  1  0  0  0  0
  7 27  1  0  0  0  0
  8 12  2  0  0  0  0
  8  9  1  0  0  0  0
  9 10  2  0  0  0  0
  9 28  1  0  0  0  0
 10 11  1  0  0  0  0
 11 19  1  0  0  0  0
 11 12  1  0  0  0  0
 12 29  1  0  0  0  0
 13 18  1  0  0  0  0
 13 14  1  0  0  0  0
 14 15  1  0  0  0  0
 14 30  1  0  0  0  0
 14 31  1  0  0  0  0
 15 16  1  0  0  0  0
 15 32  1  0  0  0  0
 15 33  1  0  0  0  0
 16 17  1  0  0  0  0
 17 18  1  0  0  0  0
 17 34  1  0  0  0  0
 17 35  1  0  0  0  0
 18 36  1  0  0  0  0
 18 37  1  0  0  0  0
M  END
> <s_m_source_file>
AV-unprocessed.smi

> <i_m_source_file_index>
1712

> <i_lp_mmshare_version>
43012

> <i_f3d_flags>
0

> <s_epik_input>
W0NIMl0xW0NIMl1PW0NIMl1bQ0gyXU4xW0NASF0oW0NIM10pW0NIMl1bTkhdQyg9TylbTkhdYzJbY0hdbltuSF1bY0hdMg==

> <s_epik_cmdline>
J2VwaWtfcHl0aG9uJywgJy1waCcsICc3LjAnLCAnLXRuJywgJzgnLCAnLW1hJywgJzIwMCcsICctbWV0YWxfYmluZGluZycsICctaW1hZScsICc8aW5maWxlLm1hZT4nLCAnLW9tYWUnLCAnPG91dGZpbGUubWFlPic=

> <r_lp_tautomer_probability>
0.5

> <r_epik_Ionization_Penalty>
0.242772

> <r_epik_Ionization_Penalty_Charging>
0

> <r_epik_Ionization_Penalty_Neutral>
0.242772

> <r_epik_State_Penalty>
0.233765

> <r_epik_Charging_Adjusted_Penalty>
0.233765

> <i_epik_Tot_Q>
0

> <i_epik_Tot_abs_Q>
0

> <r_epik_Metal_State_Penalty>
0.233764

> <b_epik_Metal_Only>
0

> <s_lp_Force_Field>
OPLS_2005

> <r_lp_Energy>
36.7302

> <b_lp_Chiralities_Consistent>
1

> <s_lp_Variant>
AV-unprocessed.smi:1712-1

> <Gold.Version>
5.8.1

> <Gold.Id.Protein>
6NUR|6NUR_protein|mol2

> <Gold.PLP.Fitness>
39.2450

> <Gold.PLP.PLP>
-28.9256

> <Gold.PLP.part.hbond>
-4.0331

> <Gold.PLP.part.metal>
0.0000

> <Gold.PLP.part.buried>
-4.5641

> <Gold.PLP.part.nonpolar>
-21.8114

> <Gold.PLP.part.repulsive>
0.5236

> <Gold.PLP.ligand.clash>
0.0000

> <Gold.PLP.ligand.torsion>
1.0834

> <Gold.PLP.Chemscore.Hbond>
3.1498

> <Gold.PLP.Chemscore.CHOScore>
1.0000

> <Gold.PLP.Chemscore.Metal>
0.0000

> <Gold.Chemscore.Hbonds>
donor molecule, donor type, donor heavy atom, donor atom, acceptor molecule, acceptor atom, score
      L1  H     4    26       P1  7948  1.00
      L1  H     7    27       P1  7948  1.00
      L1  H    11    19       P1 10186  0.25
      P1  H  7989  7998       L1    13  1.00
      L1  C    12    29       P1  7921  1.00

> <Gold.PLP.Chemscore.Internal.Correction>
0.0370

> <Gold.Rescore>
     Score         DG    S(hbond)    S(metal)    S(lipo)     H(rot)  DE(clash)    DE(int)     intcor
     15.34     -17.38       2.64        0.00      61.99       1.63       0.22       1.82       ----

> <Gold.Chemscore.Fitness>
15.3431

> <Gold.Chemscore.DG>
-17.3828

> <Gold.Chemscore.ZeroCoef>
-5.4800

> <Gold.Chemscore.Hbond>
2.6423

> <Gold.Chemscore.Metal>
0.0000

> <Gold.Chemscore.Lipo>
61.9935

> <Gold.Chemscore.Internal_Hbond>
0.0000

> <Gold.Chemscore.DEClash>
0.2237

> <Gold.Chemscore.DEInternal>
1.8160

> <Gold.Chemscore.Rot>
1.6311

> <Gold.Chemscore.Internal.Correction>
   9.000000E+99

> <Gold.Chemscore.Hbonds>
donor molecule, donor type, donor heavy atom, donor atom, acceptor molecule, acceptor atom, score
      L1  H     4    26       P1  7948  0.94
      L1  H     7    27       P1  7948  1.00
      L1  H    11    19       P1 10186  0.23
      P1  H  7989  7998       L1    13  0.06

> <Gold.Chemscore.Hbond.Weighted>
-8.8253

> <Gold.Chemscore.Metal.Weighted>
-0.0000

> <Gold.Chemscore.Lipo.Weighted>
-7.2532

> <Gold.Chemscore.Internal_Hbond.Weighted>
0.0000

> <Gold.Chemscore.DEClash.Weighted>
0.2237

> <Gold.Chemscore.DEInternal.Weighted>
1.8160

> <Gold.Chemscore.Rot.Weighted>
4.1757

> <Gold.Chemscore.Internal.Correction.Weighted>
   9.000000E+99

> <Gold.Protein.RotatedTorsions>
[ 6907 6896 6895 6894 ] final   98.97 input  -60.11 | X-H torsion
[ 7974 7965 7964 7962 ] final -123.28 input  175.53 | X-H torsion
[ 8008 7997 7996 7995 ] final   -8.37 input   59.86 | X-H torsion
[ 10167 10162 10161 10158 ] final  -34.15 input  -65.29 | X-H torsion
[ 10718 10713 10712 10709 ] final  -41.95 input   66.30 | X-H torsion
[ 10763 10752 10751 10750 ] final -100.43 input  -60.55 | X-H torsion
[ 11005 11000 10999 10996 ] final  -50.56 input  -57.11 | X-H torsion

> <Gold.Protein.ActiveResidues>
 VAL166  LYS551  ARG553  GLY616  TRP617  ASP618  TYR619  PRO620  LYS621  CYS622 
 ASP623  PHE694  ASN695  SER759  ASP760  ASP761  ALA762  ILE779  LEU786  VAL792 
 PHE793  MET794  SER795  GLU796  ALA797  LYS798  CYS799  TRP800  GLU811  SER814 

> <Gold.Protein.RotatedAtoms>
  152.5400  134.0499  159.8104 H   0  0  0  0  0  0  0  0  0  0  0  0  # atno 6907 bound_to 6896
  151.0642  133.5511  159.2639 H   0  0  0  0  0  0  0  0  0  0  0  0  # atno 6908 bound_to 6896
  151.2399  135.0593  159.9074 H   0  0  0  0  0  0  0  0  0  0  0  0  # atno 6909 bound_to 6896
  145.0203  140.7983  143.4385 H   0  0  0  0  0  0  0  0  0  0  0  0  # atno 7974 bound_to 7965
  154.5748  140.2383  155.8139 H   0  0  0  0  0  0  0  0  0  0  0  0  # atno 8008 bound_to 7997
  156.2134  140.3019  155.9742 H   0  0  0  0  0  0  0  0  0  0  0  0  # atno 8009 bound_to 7997
  155.2647  140.0416  157.2991 H   0  0  0  0  0  0  0  0  0  0  0  0  # atno 8010 bound_to 7997
  140.7191  143.3569  151.2042 H   0  0  0  0  0  0  0  0  0  0  0  0  # atno 10167 bound_to 10162
  156.2648  130.4200  149.8502 H   0  0  0  0  0  0  0  0  0  0  0  0  # atno 10718 bound_to 10713
  154.7578  135.4935  153.9407 H   0  0  0  0  0  0  0  0  0  0  0  0  # atno 10763 bound_to 10752
  153.1216  135.6733  153.9334 H   0  0  0  0  0  0  0  0  0  0  0  0  # atno 10764 bound_to 10752
  153.9065  135.3104  155.3427 H   0  0  0  0  0  0  0  0  0  0  0  0  # atno 10765 bound_to 10752
  141.0823  133.6650  156.3749 H   0  0  0  0  0  0  0  0  0  0  0  0  # atno 11005 bound_to 11000
  145.1904  139.2304  143.5246 LP  0  0  0  0  0  0  0  0  0  0  0  0  # atno 17320 bound_to 7965
  146.3484  140.1698  142.8590 LP  0  0  0  0  0  0  0  0  0  0  0  0  # atno 17321 bound_to 7965
  139.7112  143.9373  152.2948 LP  0  0  0  0  0  0  0  0  0  0  0  0  # atno 17342 bound_to 10162
  139.9099  144.6862  150.8573 LP  0  0  0  0  0  0  0  0  0  0  0  0  # atno 17343 bound_to 10162
  156.6005  130.8544  151.3430 LP  0  0  0  0  0  0  0  0  0  0  0  0  # atno 17370 bound_to 10713
  157.7263  130.9628  150.1652 LP  0  0  0  0  0  0  0  0  0  0  0  0  # atno 17371 bound_to 10713
  140.5441  134.6091  157.5388 LP  0  0  0  0  0  0  0  0  0  0  0  0  # atno 17394 bound_to 11000
  139.9638  134.7408  156.0182 LP  0  0  0  0  0  0  0  0  0  0  0  0  # atno 17395 bound_to 11000

$$$$
