AV-unprocessed.smi:1817|AV-procd|sdf|7376|dock6
  -GOLD-   22720 9 43D 1   1.00000     0.00000
 Structure written by MMmdl.
 42 43  0  0  0  0  0  0  0  0  3 V2000
  143.5113  132.7263  150.0100 C   0  0  0  0  0  0  0  0  0  0  0  0
  144.6681  132.3740  150.9561 C   0  0  0  0  0  0  0  0  0  0  0  0
  145.8861  133.1195  150.6303 N   0  0  0  0  0  0  0  0  0  0  0  0
  145.6451  134.5553  150.4936 C   0  0  0  0  0  0  0  0  0  0  0  0
  145.3348  135.2280  151.8472 C   0  0  0  0  0  0  0  0  0  0  0  0
  146.4412  135.0200  152.8215 N   0  3  0  0  0  0  0  0  0  0  0  0
  146.2299  135.6917  154.1455 C   0  0  2  0  0  0  0  0  0  0  0  0
  146.1363  137.2286  154.0212 C   0  0  0  0  0  0  0  0  0  0  0  0
  147.3345  135.3404  155.1715 C   0  0  0  0  0  0  0  0  0  0  0  0
  148.6248  135.9076  154.7867 N   0  0  0  0  0  0  0  0  0  0  0  0
  149.6860  136.0802  155.5843 C   0  0  0  0  0  0  0  0  0  0  0  0
  149.6343  135.7396  156.7678 O   0  0  0  0  0  0  0  0  0  0  0  0
  150.7421  136.6408  154.9537 N   0  5  0  0  0  0  0  0  0  0  0  0
  151.1592  137.8685  155.3048 C   0  0  0  0  0  0  0  0  0  0  0  0
  152.1108  138.0658  156.2312 N   0  0  0  0  0  0  0  0  0  0  0  0
  152.3961  139.4080  156.4429 N   0  0  0  0  0  0  0  0  0  0  0  0
  151.6558  140.1919  155.6594 C   0  0  0  0  0  0  0  0  0  0  0  0
  150.5446  139.3618  154.5903 S   0  0  0  0  0  0  0  0  0  0  0  0
  146.7276  133.5635  152.9410 C   0  0  0  0  0  0  0  0  0  0  0  0
  147.0006  132.9289  151.5616 C   0  0  0  0  0  0  0  0  0  0  0  0
  142.5884  132.2530  150.3451 H   0  0  0  0  0  0  0  0  0  0  0  0
  143.6957  132.3845  148.9920 H   0  0  0  0  0  0  0  0  0  0  0  0
  143.3375  133.8025  149.9811 H   0  0  0  0  0  0  0  0  0  0  0  0
  144.3643  132.6382  151.9698 H   0  0  0  0  0  0  0  0  0  0  0  0
  144.8398  131.2984  150.9571 H   0  0  0  0  0  0  0  0  0  0  0  0
  146.5288  135.0173  150.0508 H   0  0  0  0  0  0  0  0  0  0  0  0
  144.8287  134.7247  149.7906 H   0  0  0  0  0  0  0  0  0  0  0  0
  145.1994  136.2894  151.6457 H   0  0  0  0  0  0  0  0  0  0  0  0
  144.3948  134.8634  152.2636 H   0  0  0  0  0  0  0  0  0  0  0  0
  145.2787  135.3415  154.5496 H   0  0  0  0  0  0  0  0  0  0  0  0
  146.0991  137.6994  155.0039 H   0  0  0  0  0  0  0  0  0  0  0  0
  145.2328  137.5466  153.5015 H   0  0  0  0  0  0  0  0  0  0  0  0
  146.9978  137.6409  153.4945 H   0  0  0  0  0  0  0  0  0  0  0  0
  147.0335  135.6825  156.1632 H   0  0  0  0  0  0  0  0  0  0  0  0
  147.4480  134.2607  155.2666 H   0  0  0  0  0  0  0  0  0  0  0  0
  148.7298  136.1963  153.8258 H   0  0  0  0  0  0  0  0  0  0  0  0
  151.7669  141.2649  155.7083 H   0  0  0  0  0  0  0  0  0  0  0  0
  147.6152  133.3999  153.5497 H   0  0  0  0  0  0  0  0  0  0  0  0
  145.9062  133.0601  153.4520 H   0  0  0  0  0  0  0  0  0  0  0  0
  147.2292  131.8694  151.6712 H   0  0  0  0  0  0  0  0  0  0  0  0
  147.8935  133.3812  151.1273 H   0  0  0  0  0  0  0  0  0  0  0  0
  147.2628  135.4436  152.4139 H   0  0  0  0  0  0  0  0  0  0  0  0
  1  2  1  0  0  0  0
  1 21  1  0  0  0  0
  1 22  1  0  0  0  0
  1 23  1  0  0  0  0
  2  3  1  0  0  0  0
  2 24  1  0  0  0  0
  2 25  1  0  0  0  0
  3 20  1  0  0  0  0
  3  4  1  0  0  0  0
  4  5  1  0  0  0  0
  4 26  1  0  0  0  0
  4 27  1  0  0  0  0
  5  6  1  0  0  0  0
  5 28  1  0  0  0  0
  5 29  1  0  0  0  0
  6  7  1  0  0  0  0
  6 19  1  0  0  0  0
  6 42  1  0  0  0  0
  7  8  1  0  0  0  0
  7  9  1  0  0  0  0
  7 30  1  0  0  0  0
  8 31  1  0  0  0  0
  8 32  1  0  0  0  0
  8 33  1  0  0  0  0
  9 10  1  0  0  0  0
  9 34  1  0  0  0  0
  9 35  1  0  0  0  0
 10 11  1  0  0  0  0
 10 36  1  0  0  0  0
 11 12  2  0  0  0  0
 11 13  1  0  0  0  0
 13 14  1  0  0  0  0
 14 18  1  0  0  0  0
 14 15  2  0  0  0  0
 15 16  1  0  0  0  0
 16 17  2  0  0  0  0
 17 18  1  0  0  0  0
 17 37  1  0  0  0  0
 19 20  1  0  0  0  0
 19 38  1  0  0  0  0
 19 39  1  0  0  0  0
 20 40  1  0  0  0  0
 20 41  1  0  0  0  0
M  CHG  1   6   1
M  CHG  1  13  -1
M  END
> <s_m_source_file>
AV-unprocessed.smi

> <i_m_source_file_index>
1817

> <i_lp_mmshare_version>
43012

> <i_f3d_flags>
0

> <s_epik_input>
W0NIM11bQ0gyXU4xW0NIMl1bQ0gyXU4oW0NIMl1bQ0gyXTEpW0NASF0oW0NIM10pW0NIMl1bTkhdQyg9TylbTkhdYzJubltjSF1zMg==

> <s_epik_cmdline>
J2VwaWtfcHl0aG9uJywgJy1waCcsICc3LjAnLCAnLXRuJywgJzgnLCAnLW1hJywgJzIwMCcsICctbWV0YWxfYmluZGluZycsICctaW1hZScsICc8aW5maWxlLm1hZT4nLCAnLW9tYWUnLCAnPG91dGZpbGUubWFlPic=

> <r_epik_Ionization_Penalty>
3.16835

> <r_epik_Ionization_Penalty_Charging>
3.13468

> <r_epik_Ionization_Penalty_Neutral>
0.0336711

> <r_epik_State_Penalty>
3.95884

> <r_epik_Charging_Adjusted_Penalty>
7.09351

> <i_epik_Tot_Q>
0

> <i_epik_Tot_abs_Q>
2

> <r_epik_Metal_State_Penalty>
1.39003

> <b_epik_Metal_Only>
1

> <s_lp_Force_Field>
OPLS_2005

> <r_lp_Energy>
20.7646

> <b_lp_Chiralities_Consistent>
1

> <s_lp_Variant>
AV-unprocessed.smi:1817-9

> <Gold.Version>
5.8.1

> <Gold.Id.Protein>
6NUR|6NUR_protein|mol2

> <Gold.PLP.Fitness>
44.9037

> <Gold.PLP.PLP>
-30.0375

> <Gold.PLP.part.hbond>
-4.7145

> <Gold.PLP.part.metal>
0.0000

> <Gold.PLP.part.buried>
-3.3512

> <Gold.PLP.part.nonpolar>
-23.8187

> <Gold.PLP.part.repulsive>
1.6532

> <Gold.PLP.ligand.clash>
0.0000

> <Gold.PLP.ligand.torsion>
1.6040

> <Gold.PLP.Chemscore.Hbond>
6.0000

> <Gold.PLP.Chemscore.CHOScore>
0.0000

> <Gold.PLP.Chemscore.Metal>
0.0000

> <Gold.Chemscore.Hbonds>
donor molecule, donor type, donor heavy atom, donor atom, acceptor molecule, acceptor atom, score
      L1  H     6    42       P1  7948  2.00
      L1  H    10    36       P1  7948  1.00
      P1  H  7997  8009       L1    16  0.86

> <Gold.PLP.Chemscore.Internal.Correction>
0.0743

> <Gold.Rescore>
     Score         DG    S(hbond)    S(metal)    S(lipo)     H(rot)  DE(clash)    DE(int)     intcor
     14.43     -16.97       2.84        0.00      58.44       1.88       0.87       1.68       ----

> <Gold.Chemscore.Fitness>
14.4288

> <Gold.Chemscore.DG>
-16.9744

> <Gold.Chemscore.ZeroCoef>
-5.4800

> <Gold.Chemscore.Hbond>
2.8372

> <Gold.Chemscore.Metal>
0.0000

> <Gold.Chemscore.Lipo>
58.4378

> <Gold.Chemscore.Internal_Hbond>
0.0000

> <Gold.Chemscore.DEClash>
0.8696

> <Gold.Chemscore.DEInternal>
1.6760

> <Gold.Chemscore.Rot>
1.8825

> <Gold.Chemscore.Internal.Correction>
   9.000000E+99

> <Gold.Chemscore.Hbonds>
donor molecule, donor type, donor heavy atom, donor atom, acceptor molecule, acceptor atom, score
      L1  H     6    42       P1  7948  1.00
      L1  H    10    36       P1  7948  0.98
      P1  H  7997  8009       L1    16  0.68
      P1  H 10752 10764       L1    13  0.01

> <Gold.Chemscore.Hbond.Weighted>
-9.4764

> <Gold.Chemscore.Metal.Weighted>
-0.0000

> <Gold.Chemscore.Lipo.Weighted>
-6.8372

> <Gold.Chemscore.Internal_Hbond.Weighted>
0.0000

> <Gold.Chemscore.DEClash.Weighted>
0.8696

> <Gold.Chemscore.DEInternal.Weighted>
1.6760

> <Gold.Chemscore.Rot.Weighted>
4.8191

> <Gold.Chemscore.Internal.Correction.Weighted>
   9.000000E+99

> <Gold.Protein.RotatedTorsions>
[ 6907 6896 6895 6894 ] final -155.95 input  -60.11 | X-H torsion
[ 7974 7965 7964 7962 ] final   12.91 input  175.53 | X-H torsion
[ 8008 7997 7996 7995 ] final -178.21 input   59.86 | X-H torsion
[ 10167 10162 10161 10158 ] final  125.98 input  -65.29 | X-H torsion
[ 10718 10713 10712 10709 ] final -115.30 input   66.30 | X-H torsion
[ 10763 10752 10751 10750 ] final  -65.61 input  -60.55 | X-H torsion
[ 11005 11000 10999 10996 ] final   60.68 input  -57.11 | X-H torsion

> <Gold.Protein.ActiveResidues>
 VAL166  LYS551  ARG553  GLY616  TRP617  ASP618  TYR619  PRO620  LYS621  CYS622 
 ASP623  PHE694  ASN695  SER759  ASP760  ASP761  ALA762  ILE779  LEU786  VAL792 
 PHE793  MET794  SER795  GLU796  ALA797  LYS798  CYS799  TRP800  GLU811  SER814 

> <Gold.Protein.RotatedAtoms>
  151.2802  133.4213  159.2626 H   0  0  0  0  0  0  0  0  0  0  0  0  # atno 6907 bound_to 6896
  151.0367  134.9579  159.8150 H   0  0  0  0  0  0  0  0  0  0  0  0  # atno 6908 bound_to 6896
  152.5357  134.2761  159.9042 H   0  0  0  0  0  0  0  0  0  0  0  0  # atno 6909 bound_to 6896
  146.2341  139.9266  142.8502 H   0  0  0  0  0  0  0  0  0  0  0  0  # atno 7974 bound_to 7965
  156.0161  140.1251  157.0405 H   0  0  0  0  0  0  0  0  0  0  0  0  # atno 8008 bound_to 7997
  154.4294  140.1078  156.5967 H   0  0  0  0  0  0  0  0  0  0  0  0  # atno 8009 bound_to 7997
  155.6011  140.3470  155.4596 H   0  0  0  0  0  0  0  0  0  0  0  0  # atno 8010 bound_to 7997
  139.5656  144.6909  151.3920 H   0  0  0  0  0  0  0  0  0  0  0  0  # atno 10167 bound_to 10162
  156.0886  130.6073  150.8888 H   0  0  0  0  0  0  0  0  0  0  0  0  # atno 10718 bound_to 10713
  154.3476  135.6143  153.5627 H   0  0  0  0  0  0  0  0  0  0  0  0  # atno 10763 bound_to 10752
  152.9800  135.5784  154.4780 H   0  0  0  0  0  0  0  0  0  0  0  0  # atno 10764 bound_to 10752
  154.4496  135.2852  155.1768 H   0  0  0  0  0  0  0  0  0  0  0  0  # atno 10765 bound_to 10752
  140.0215  134.6146  155.9633 H   0  0  0  0  0  0  0  0  0  0  0  0  # atno 11005 bound_to 11000
  145.2085  140.9885  143.4114 LP  0  0  0  0  0  0  0  0  0  0  0  0  # atno 17320 bound_to 7965
  144.9712  139.3878  143.6308 LP  0  0  0  0  0  0  0  0  0  0  0  0  # atno 17321 bound_to 7965
  140.6939  143.7795  150.7297 LP  0  0  0  0  0  0  0  0  0  0  0  0  # atno 17342 bound_to 10162
  140.1286  143.4546  152.2268 LP  0  0  0  0  0  0  0  0  0  0  0  0  # atno 17343 bound_to 10162
  157.6029  131.0940  150.8929 LP  0  0  0  0  0  0  0  0  0  0  0  0  # atno 17370 bound_to 10713
  156.9083  130.5271  149.5281 LP  0  0  0  0  0  0  0  0  0  0  0  0  # atno 17371 bound_to 10713
  141.1776  133.6542  156.4891 LP  0  0  0  0  0  0  0  0  0  0  0  0  # atno 17394 bound_to 11000
  140.4380  134.7042  157.4977 LP  0  0  0  0  0  0  0  0  0  0  0  0  # atno 17395 bound_to 11000

$$$$
