AV-unprocessed.smi:1240|AV-procd|sdf|5201|dock10
  -GOLD-   22720 4293D 1   1.00000     0.00000
 Structure written by MMmdl.
 48 50  0  0  0  0  0  0  0  0  2 V2000
  148.3268  132.5011  154.5414 O   0  0  0  0  0  0  0  0  0  0  0  0
  148.4546  133.5279  153.8754 C   0  0  0  0  0  0  0  0  0  0  0  0
  149.2591  134.5375  154.2309 N   0  0  0  0  0  0  0  0  0  0  0  0
  150.0604  134.5595  155.4506 C   0  0  0  0  0  0  0  0  0  0  0  0
  149.6854  135.7556  156.3617 C   0  0  2  0  0  0  0  0  0  0  0  0
  148.2710  135.5634  157.0025 C   0  0  1  0  0  0  0  0  0  0  0  0
  148.1243  134.2895  157.8279 C   0  0  0  0  0  0  0  0  0  0  0  0
  146.9608  134.6181  158.7480 C   0  0  0  0  0  0  0  0  0  0  0  0
  147.2282  135.9551  159.1270 O   0  0  0  0  0  0  0  0  0  0  0  0
  147.8652  136.6273  158.0453 C   0  0  0  0  0  0  0  0  0  0  0  0
  149.8792  137.0182  155.5703 N   0  3  0  0  0  0  0  0  0  0  0  0
  149.5563  138.3144  156.2219 C   0  0  0  0  0  0  0  0  0  0  0  0
  149.6926  139.4705  155.2160 C   0  0  0  0  0  0  0  0  0  0  0  0
  151.0085  139.4884  154.6802 O   0  0  0  0  0  0  0  0  0  0  0  0
  151.3092  138.2891  153.9799 C   0  0  0  0  0  0  0  0  0  0  0  0
  151.2257  137.0958  154.9460 C   0  0  0  0  0  0  0  0  0  0  0  0
  147.8406  133.7823  152.7069 N   0  0  0  0  0  0  0  0  0  0  0  0
  146.9024  132.9755  152.0087 C   0  0  0  0  0  0  0  0  0  0  0  0
  146.4688  133.4166  150.7415 C   0  0  0  0  0  0  0  0  0  0  0  0
  145.5252  132.6403  150.0393 C   0  0  0  0  0  0  0  0  0  0  0  0
  145.0009  131.4945  150.5226 N   0  0  0  0  0  0  0  0  0  0  0  0
  145.4050  131.0826  151.7428 C   0  0  0  0  0  0  0  0  0  0  0  0
  146.3446  131.7820  152.5264 C   0  0  0  0  0  0  0  0  0  0  0  0
  149.3016  135.3498  153.6333 H   0  0  0  0  0  0  0  0  0  0  0  0
  149.9434  133.6115  155.9760 H   0  0  0  0  0  0  0  0  0  0  0  0
  151.1146  134.6045  155.1765 H   0  0  0  0  0  0  0  0  0  0  0  0
  150.3984  135.7667  157.1878 H   0  0  0  0  0  0  0  0  0  0  0  0
  147.5089  135.5184  156.2231 H   0  0  0  0  0  0  0  0  0  0  0  0
  147.9336  133.4040  157.2205 H   0  0  0  0  0  0  0  0  0  0  0  0
  149.0202  134.1101  158.4242 H   0  0  0  0  0  0  0  0  0  0  0  0
  146.0123  134.5715  158.2109 H   0  0  0  0  0  0  0  0  0  0  0  0
  146.9038  133.9576  159.6135 H   0  0  0  0  0  0  0  0  0  0  0  0
  148.7276  137.1686  158.4356 H   0  0  0  0  0  0  0  0  0  0  0  0
  147.1744  137.3568  157.6228 H   0  0  0  0  0  0  0  0  0  0  0  0
  148.5351  138.3186  156.5995 H   0  0  0  0  0  0  0  0  0  0  0  0
  150.2296  138.4870  157.0620 H   0  0  0  0  0  0  0  0  0  0  0  0
  148.9605  139.3772  154.4123 H   0  0  0  0  0  0  0  0  0  0  0  0
  149.5007  140.4227  155.7109 H   0  0  0  0  0  0  0  0  0  0  0  0
  150.6253  138.1601  153.1393 H   0  0  0  0  0  0  0  0  0  0  0  0
  152.3141  138.3662  153.5646 H   0  0  0  0  0  0  0  0  0  0  0  0
  151.9833  137.1952  155.7250 H   0  0  0  0  0  0  0  0  0  0  0  0
  151.4528  136.1800  154.4015 H   0  0  0  0  0  0  0  0  0  0  0  0
  148.1158  134.6299  152.2331 H   0  0  0  0  0  0  0  0  0  0  0  0
  146.8530  134.3281  150.3074 H   0  0  0  0  0  0  0  0  0  0  0  0
  145.1813  132.9500  149.0636 H   0  0  0  0  0  0  0  0  0  0  0  0
  144.9608  130.1695  152.1106 H   0  0  0  0  0  0  0  0  0  0  0  0
  146.6044  131.4001  153.5017 H   0  0  0  0  0  0  0  0  0  0  0  0
  149.2221  136.9453  154.8065 H   0  0  0  0  0  0  0  0  0  0  0  0
  1  2  2  0  0  0  0
  2  3  1  0  0  0  0
  2 17  1  0  0  0  0
  3  4  1  0  0  0  0
  3 24  1  0  0  0  0
  4  5  1  0  0  0  0
  4 25  1  0  0  0  0
  4 26  1  0  0  0  0
  5  6  1  0  0  0  0
  5 11  1  0  0  0  0
  5 27  1  0  0  0  0
  6 10  1  0  0  0  0
  6  7  1  0  0  0  0
  6 28  1  0  0  0  0
  7  8  1  0  0  0  0
  7 29  1  0  0  0  0
  7 30  1  0  0  0  0
  8  9  1  0  0  0  0
  8 31  1  0  0  0  0
  8 32  1  0  0  0  0
  9 10  1  0  0  0  0
 10 33  1  0  0  0  0
 10 34  1  0  0  0  0
 11 16  1  0  0  0  0
 11 12  1  0  0  0  0
 11 48  1  0  0  0  0
 12 13  1  0  0  0  0
 12 35  1  0  0  0  0
 12 36  1  0  0  0  0
 13 14  1  0  0  0  0
 13 37  1  0  0  0  0
 13 38  1  0  0  0  0
 14 15  1  0  0  0  0
 15 16  1  0  0  0  0
 15 39  1  0  0  0  0
 15 40  1  0  0  0  0
 16 41  1  0  0  0  0
 16 42  1  0  0  0  0
 17 18  1  0  0  0  0
 17 43  1  0  0  0  0
 18 23  1  0  0  0  0
 18 19  2  0  0  0  0
 19 20  1  0  0  0  0
 19 44  1  0  0  0  0
 20 21  2  0  0  0  0
 20 45  1  0  0  0  0
 21 22  1  0  0  0  0
 22 23  2  0  0  0  0
 22 46  1  0  0  0  0
 23 47  1  0  0  0  0
M  CHG  1  11   1
M  END
> <s_m_source_file>
AV-unprocessed.smi

> <i_m_source_file_index>
1240

> <i_lp_mmshare_version>
43012

> <i_f3d_flags>
0

> <s_epik_input>
W2NIXTFbY0hdbltjSF1bY0hdYzFbTkhdQyg9TylbTkhdW0NIMl1bQ0BIXShbQ0BASF0yW0NIMl1bQ0gyXU9bQ0gyXTIpTjNbQ0gyXVtDSDJdT1tDSDJdW0NIMl0z

> <s_epik_cmdline>
J2VwaWtfcHl0aG9uJywgJy1waCcsICc3LjAnLCAnLXRuJywgJzgnLCAnLW1hJywgJzIwMCcsICctbWV0YWxfYmluZGluZycsICctaW1hZScsICc8aW5maWxlLm1hZT4nLCAnLW9tYWUnLCAnPG91dGZpbGUubWFlPic=

> <r_epik_Ionization_Penalty>
1.08433

> <r_epik_Ionization_Penalty_Charging>
0.98326

> <r_epik_Ionization_Penalty_Neutral>
0.10107

> <r_epik_State_Penalty>
1.11265

> <r_epik_Charging_Adjusted_Penalty>
2.09591

> <i_epik_Tot_Q>
1

> <i_epik_Tot_abs_Q>
1

> <r_epik_Metal_State_Penalty>
1.10731

> <b_epik_Metal_Only>
0

> <s_lp_Force_Field>
OPLS_2005

> <r_lp_Energy>
52.9252

> <b_lp_Chiralities_Consistent>
1

> <s_lp_Variant>
AV-unprocessed.smi:1240-7

> <Gold.Version>
5.8.1

> <Gold.Id.Protein>
6NUR|6NUR_protein|mol2

> <Gold.PLP.Fitness>
40.2997

> <Gold.PLP.PLP>
-28.5723

> <Gold.PLP.part.hbond>
-3.0000

> <Gold.PLP.part.metal>
0.0000

> <Gold.PLP.part.buried>
-5.9043

> <Gold.PLP.part.nonpolar>
-19.9334

> <Gold.PLP.part.repulsive>
0.2802

> <Gold.PLP.ligand.clash>
0.0000

> <Gold.PLP.ligand.torsion>
0.0801

> <Gold.PLP.Chemscore.Hbond>
2.9920

> <Gold.PLP.Chemscore.CHOScore>
0.9331

> <Gold.PLP.Chemscore.Metal>
0.0000

> <Gold.Chemscore.Hbonds>
donor molecule, donor type, donor heavy atom, donor atom, acceptor molecule, acceptor atom, score
      L1  H     3    24       P1  7948  0.99
      L1  H    17    43       P1  7948  1.00
      P1  H  7989  7998       L1    14  1.00
      L1  C    20    45       P1  7921  0.95

> <Gold.PLP.Chemscore.Internal.Correction>
0.1122

> <Gold.Rescore>
     Score         DG    S(hbond)    S(metal)    S(lipo)     H(rot)  DE(clash)    DE(int)     intcor
     14.73     -17.59       2.19        0.00      78.27       1.70       1.39       1.47       ----

> <Gold.Chemscore.Fitness>
14.7267

> <Gold.Chemscore.DG>
-17.5857

> <Gold.Chemscore.ZeroCoef>
-5.4800

> <Gold.Chemscore.Hbond>
2.1873

> <Gold.Chemscore.Metal>
0.0000

> <Gold.Chemscore.Lipo>
78.2702

> <Gold.Chemscore.Internal_Hbond>
0.0000

> <Gold.Chemscore.DEClash>
1.3896

> <Gold.Chemscore.DEInternal>
1.4694

> <Gold.Chemscore.Rot>
1.7021

> <Gold.Chemscore.Internal.Correction>
   9.000000E+99

> <Gold.Chemscore.Hbonds>
donor molecule, donor type, donor heavy atom, donor atom, acceptor molecule, acceptor atom, score
      L1  H     3    24       P1  7948  0.28
      L1  H    17    43       P1  7948  0.26
      P1  H  7989  7998       L1    14  0.39

> <Gold.Chemscore.Hbond.Weighted>
-7.3056

> <Gold.Chemscore.Metal.Weighted>
-0.0000

> <Gold.Chemscore.Lipo.Weighted>
-9.1576

> <Gold.Chemscore.Internal_Hbond.Weighted>
0.0000

> <Gold.Chemscore.DEClash.Weighted>
1.3896

> <Gold.Chemscore.DEInternal.Weighted>
1.4694

> <Gold.Chemscore.Rot.Weighted>
4.3575

> <Gold.Chemscore.Internal.Correction.Weighted>
   9.000000E+99

> <Gold.Protein.RotatedTorsions>
[ 6907 6896 6895 6894 ] final -109.67 input  -60.11 | X-H torsion
[ 7974 7965 7964 7962 ] final  157.98 input  175.53 | X-H torsion
[ 8008 7997 7996 7995 ] final   40.92 input   59.86 | X-H torsion
[ 10167 10162 10161 10158 ] final  -46.93 input  -65.29 | X-H torsion
[ 10718 10713 10712 10709 ] final  -42.59 input   66.30 | X-H torsion
[ 10763 10752 10751 10750 ] final -120.25 input  -60.55 | X-H torsion
[ 11005 11000 10999 10996 ] final   66.78 input  -57.11 | X-H torsion

> <Gold.Protein.ActiveResidues>
 VAL166  LYS551  ARG553  GLY616  TRP617  ASP618  TYR619  PRO620  LYS621  CYS622 
 ASP623  PHE694  ASN695  SER759  ASP760  ASP761  ALA762  ILE779  LEU786  VAL792 
 PHE793  MET794  SER795  GLU796  ALA797  LYS798  CYS799  TRP800  GLU811  SER814 

> <Gold.Protein.RotatedAtoms>
  150.7576  133.9495  159.3481 H   0  0  0  0  0  0  0  0  0  0  0  0  # atno 6907 bound_to 6896
  151.7411  135.0852  160.0325 H   0  0  0  0  0  0  0  0  0  0  0  0  # atno 6908 bound_to 6896
  152.3528  133.6163  159.5993 H   0  0  0  0  0  0  0  0  0  0  0  0  # atno 6909 bound_to 6896
  144.7872  139.7416  143.6236 H   0  0  0  0  0  0  0  0  0  0  0  0  # atno 7974 bound_to 7965
  155.2611  140.3359  155.4273 H   0  0  0  0  0  0  0  0  0  0  0  0  # atno 8008 bound_to 7997
  156.2174  140.1795  156.7599 H   0  0  0  0  0  0  0  0  0  0  0  0  # atno 8009 bound_to 7997
  154.5774  140.0659  156.9039 H   0  0  0  0  0  0  0  0  0  0  0  0  # atno 8010 bound_to 7997
  140.6796  143.2807  151.3854 H   0  0  0  0  0  0  0  0  0  0  0  0  # atno 10167 bound_to 10162
  156.2580  130.4194  149.8574 H   0  0  0  0  0  0  0  0  0  0  0  0  # atno 10718 bound_to 10713
  154.8639  135.4209  154.2430 H   0  0  0  0  0  0  0  0  0  0  0  0  # atno 10763 bound_to 10752
  153.3391  135.6992  153.6888 H   0  0  0  0  0  0  0  0  0  0  0  0  # atno 10764 bound_to 10752
  153.5873  135.3561  155.2871 H   0  0  0  0  0  0  0  0  0  0  0  0  # atno 10765 bound_to 10752
  139.9811  134.6743  156.0262 H   0  0  0  0  0  0  0  0  0  0  0  0  # atno 11005 bound_to 11000
  146.2108  139.5464  142.9682 LP  0  0  0  0  0  0  0  0  0  0  0  0  # atno 17320 bound_to 7965
  145.5891  141.0372  143.2080 LP  0  0  0  0  0  0  0  0  0  0  0  0  # atno 17321 bound_to 7965
  139.6110  144.1098  152.2299 LP  0  0  0  0  0  0  0  0  0  0  0  0  # atno 17342 bound_to 10162
  140.0512  144.5931  150.7335 LP  0  0  0  0  0  0  0  0  0  0  0  0  # atno 17343 bound_to 10162
  156.6099  130.8582  151.3452 LP  0  0  0  0  0  0  0  0  0  0  0  0  # atno 17370 bound_to 10713
  157.7240  130.9597  150.1555 LP  0  0  0  0  0  0  0  0  0  0  0  0  # atno 17371 bound_to 10713
  141.1482  133.6552  156.3933 LP  0  0  0  0  0  0  0  0  0  0  0  0  # atno 17394 bound_to 11000
  140.5095  134.6408  157.5279 LP  0  0  0  0  0  0  0  0  0  0  0  0  # atno 17395 bound_to 11000

$$$$
