#       Name:                AV-unprocessed.smi:334
#       Creating user name   scv26
#       Creation time:       Thu Mar 26 22:28:32 2020


#       File generated by GOLD software.
#

@<TRIPOS>MOLECULE
AV-unprocessed.smi:334
    50    52     1
SMALL
NO_CHARGES


@<TRIPOS>ATOM
      1 ****        -1.1871   1.2893  -2.1553 C.3            1 S1                 0.0000
      2 ****        -1.2203   0.4547  -0.8615 C.3            1 S1                 0.0000
      3 ****         0.0854  -0.1752  -0.6709 N.am           1 S1                 0.0000
      4 ****         1.1377   0.3805  -0.0509 C.2            1 S1                 0.0000
      5 ****         1.1133   1.5093   0.4416 O.2            1 S1                 0.0000
      6 ****         2.4006  -0.4884   0.0341 C.3            1 S1                 0.0000
      7 ****         3.6266   0.2894   0.2807 N.am           1 S1                 0.0000
      8 ****         4.0754   0.3723   1.6137 C.2            1 S1                 0.0000
      9 ****         5.1807   1.0633   1.9552 C.2            1 S1                 0.0000
     10 ****         5.6241   1.1417   3.3298 N.pl3          1 S1                 1.0000
     11 ****         6.6274   1.7990   3.5879 O.2            1 S1                 0.0000
     12 ****         4.9868   0.5499   4.1960 O.2            1 S1                -1.0000
     13 ****         5.9120   1.7319   0.8963 C.2            1 S1                 0.0000
     14 ****         5.4861   1.6588  -0.3800 C.2            1 S1                 0.0000
     15 ****         4.2810   0.9089  -0.7489 C.2            1 S1                 0.0000
     16 ****         3.8845   0.8416  -1.9125 O.2            1 S1                 0.0000
     17 ****        -2.3218  -0.6344  -0.8777 C.3            1 S1                 0.0000
     18 ****        -2.3381  -1.5232   0.3922 C.3            1 S1                 0.0000
     19 ****        -3.7957  -1.4287   0.8753 C.3            1 S1                 0.0000
     20 ****        -4.7169  -2.1663  -0.1131 C.3            1 S1                 0.0000
     21 ****        -4.7247  -1.2260  -1.3325 C.3            1 S1                 0.0000
     22 ****        -3.7746  -0.0938  -0.8958 C.3            1 S1                 0.0000
     23 ****        -4.1170   0.0307   0.5855 C.3            1 S1                 0.0000
     24 ****        -2.1100   1.8483  -2.3023 H              1 S1                 0.0000
     25 ****        -1.0372   0.6572  -3.0311 H              1 S1                 0.0000
     26 ****        -0.3766   2.0186  -2.1322 H              1 S1                 0.0000
     27 ****        -1.4135   1.1268  -0.0238 H              1 S1                 0.0000
     28 ****         0.1949  -1.1085  -1.0405 H              1 S1                 0.0000
     29 ****         2.2508  -1.2283   0.8216 H              1 S1                 0.0000
     30 ****         2.5030  -1.0691  -0.8847 H              1 S1                 0.0000
     31 ****         3.4578  -0.1532   2.3277 H              1 S1                 0.0000
     32 ****         6.8053   2.2968   1.1191 H              1 S1                 0.0000
     33 ****         6.0457   2.1660  -1.1524 H              1 S1                 0.0000
     34 ****        -2.1574  -1.2617  -1.7555 H              1 S1                 0.0000
     35 ****        -2.0348  -2.5501   0.1845 H              1 S1                 0.0000
     36 ****        -1.6719  -1.1335   1.1635 H              1 S1                 0.0000
     37 ****        -3.9325  -1.7339   1.9131 H              1 S1                 0.0000
     38 ****        -4.3464  -3.1626  -0.3569 H              1 S1                 0.0000
     39 ****        -5.7227  -2.2726   0.2956 H              1 S1                 0.0000
     40 ****        -4.3943  -1.7224  -2.2456 H              1 S1                 0.0000
     41 ****        -5.7294  -0.8398  -1.5099 H              1 S1                 0.0000
     42 ****        -3.9175   0.8189  -1.4725 H              1 S1                 0.0000
     43 ****        -5.1619   0.2878   0.7684 H              1 S1                 0.0000
     44 ****        -3.4782   0.7312   1.1255 H              1 S1                 0.0000
     45 ****         0.2798   2.0593   0.3901 LP             1 S1                 0.0000
     46 ****         1.9271   1.8756   0.8929 LP             1 S1                 0.0000
     47 ****         7.1209   2.2670   2.8547 LP             1 S1                 0.0000
     48 ****         6.9517   1.8667   4.5314 LP             1 S1                 0.0000
     49 ****         3.0587   0.3212  -2.1301 LP             1 S1                 0.0000
     50 ****         4.3883   1.3072  -2.6401 LP             1 S1                 0.0000
@<TRIPOS>BOND
    1    1    2 1     
    2    1   24 1     
    3    1   25 1     
    4    1   26 1     
    5    2    3 1     
    6    2   17 1     
    7    2   27 1     
    8    3    4 am    
    9    3   28 1     
   10    4    5 2     
   11    4    6 1     
   12    6    7 1     
   13    6   29 1     
   14    6   30 1     
   15    7   15 am    
   16    7    8 1     
   17    8    9 2     
   18    8   31 1     
   19    9   10 1     
   20    9   13 1     
   21   10   11 2     
   22   10   12 1     
   23   13   14 2     
   24   13   32 1     
   25   14   15 1     
   26   14   33 1     
   27   15   16 2     
   28   17   22 1     
   29   17   18 1     
   30   17   34 1     
   31   18   19 1     
   32   18   35 1     
   33   18   36 1     
   34   19   23 1     
   35   19   20 1     
   36   19   37 1     
   37   20   21 1     
   38   20   38 1     
   39   20   39 1     
   40   21   22 1     
   41   21   40 1     
   42   21   41 1     
   43   22   23 1     
   44   22   42 1     
   45   23   43 1     
   46   23   44 1     
   47    5   45 1     
   48    5   46 1     
   49   11   47 1     
   50   11   48 1     
   51   16   49 1     
   52   16   50 1     
@<TRIPOS>SUBSTRUCTURE
      1 S1             1
@<TRIPOS>SET
LONE_PAIRS      STATIC     ATOMS    <user>   **** ""
7 45 46 47 48 12 49 50
DONOR_HYDROGENS      STATIC     ATOMS    <user>   **** ""
1 28
ATOM$BLUE        STATIC     ATOMS    COLORGROUP SYSTEM
7 45 46 47 48 12 49 50
ATOM$RED        STATIC     ATOMS    COLORGROUP SYSTEM
1 28
