AV-unprocessed.smi:1060|AV-procd|sdf|4659|dock6
  -GOLD-   22720 3173D 1   1.00000     0.00000
 Structure written by MMmdl.
 36 37  0  0  0  0  0  0  0  0  2 V2000
  150.5621  137.9476  156.2009 O   0  0  0  0  0  0  0  0  0  0  0  0
  150.0843  137.8495  157.3305 C   0  0  0  0  0  0  0  0  0  0  0  0
  149.5289  136.5032  157.7891 C   0  0  0  0  0  0  0  0  0  0  0  0
  148.9125  136.6684  159.0560 O   0  0  0  0  0  0  0  0  0  0  0  0
  148.4052  135.4509  159.5760 C   0  0  0  0  0  0  0  0  0  0  0  0
  147.6043  135.7429  160.8511 C   0  0  1  0  0  0  0  0  0  0  0  0
  147.4369  134.5301  161.7611 C   0  0  0  0  0  0  0  0  0  0  0  0
  147.1198  135.1672  163.1004 C   0  0  0  0  0  0  0  0  0  0  0  0
  147.7875  136.5432  163.0127 C   0  0  0  0  0  0  0  0  0  0  0  0
  148.3083  136.6454  161.6912 O   0  0  0  0  0  0  0  0  0  0  0  0
  149.9693  138.8534  158.2223 N   0  0  0  0  0  0  0  0  0  0  0  0
  150.3612  140.1987  158.1102 C   0  0  0  0  0  0  0  0  0  0  0  0
  151.3275  140.7929  158.8639 C   0  0  0  0  0  0  0  0  0  0  0  0
  151.6889  142.1959  158.7050 C   0  0  0  0  0  0  0  0  0  0  0  0
  152.7080  142.9064  159.5784 C   0  0  0  0  0  0  0  0  0  0  0  0
  153.9193  142.3667  159.4408 F   0  0  0  0  0  0  0  0  0  0  0  0
  152.7862  144.1997  159.2646 F   0  0  0  0  0  0  0  0  0  0  0  0
  152.3532  142.8108  160.8589 F   0  0  0  0  0  0  0  0  0  0  0  0
  150.9242  142.8286  157.7440 C   0  0  0  0  0  0  0  0  0  0  0  0
  149.9561  142.3155  156.9537 N   0  5  0  0  0  0  0  0  0  0  0  0
  149.6318  141.0003  157.1055 C   0  0  0  0  0  0  0  0  0  0  0  0
  148.7510  140.4720  156.4260 O   0  0  0  0  0  0  0  0  0  0  0  0
  148.8079  136.1423  157.0536 H   0  0  0  0  0  0  0  0  0  0  0  0
  150.3356  135.7706  157.8521 H   0  0  0  0  0  0  0  0  0  0  0  0
  147.7528  134.9939  158.8301 H   0  0  0  0  0  0  0  0  0  0  0  0
  149.2118  134.7458  159.7836 H   0  0  0  0  0  0  0  0  0  0  0  0
  146.6244  136.1570  160.6064 H   0  0  0  0  0  0  0  0  0  0  0  0
  146.6597  133.8454  161.4201 H   0  0  0  0  0  0  0  0  0  0  0  0
  148.3742  133.9755  161.8282 H   0  0  0  0  0  0  0  0  0  0  0  0
  146.0416  135.2828  163.2187 H   0  0  0  0  0  0  0  0  0  0  0  0
  147.4897  134.5735  163.9369 H   0  0  0  0  0  0  0  0  0  0  0  0
  147.0617  137.3381  163.1881 H   0  0  0  0  0  0  0  0  0  0  0  0
  148.5937  136.6537  163.7382 H   0  0  0  0  0  0  0  0  0  0  0  0
  149.4933  138.6301  159.0844 H   0  0  0  0  0  0  0  0  0  0  0  0
  151.8555  140.2397  159.6228 H   0  0  0  0  0  0  0  0  0  0  0  0
  151.1162  143.9119  157.5900 H   0  0  0  0  0  0  0  0  0  0  0  0
  1  2  2  0  0  0  0
  2  3  1  0  0  0  0
  2 11  1  0  0  0  0
  3  4  1  0  0  0  0
  3 23  1  0  0  0  0
  3 24  1  0  0  0  0
  4  5  1  0  0  0  0
  5  6  1  0  0  0  0
  5 25  1  0  0  0  0
  5 26  1  0  0  0  0
  6 10  1  0  0  0  0
  6  7  1  0  0  0  0
  6 27  1  0  0  0  0
  7  8  1  0  0  0  0
  7 28  1  0  0  0  0
  7 29  1  0  0  0  0
  8  9  1  0  0  0  0
  8 30  1  0  0  0  0
  8 31  1  0  0  0  0
  9 10  1  0  0  0  0
  9 32  1  0  0  0  0
  9 33  1  0  0  0  0
 11 12  1  0  0  0  0
 11 34  1  0  0  0  0
 12 21  1  0  0  0  0
 12 13  2  0  0  0  0
 13 14  1  0  0  0  0
 13 35  1  0  0  0  0
 14 15  1  0  0  0  0
 14 19  2  0  0  0  0
 15 16  1  0  0  0  0
 15 17  1  0  0  0  0
 15 18  1  0  0  0  0
 19 20  1  0  0  0  0
 19 36  1  0  0  0  0
 20 21  1  0  0  0  0
 21 22  2  0  0  0  0
M  CHG  1  20  -1
M  END
> <s_m_source_file>
AV-unprocessed.smi

> <i_m_source_file_index>
1060

> <i_lp_mmshare_version>
43012

> <i_f3d_flags>
0

> <s_epik_input>
Tz1jMVtuSF1bY0hdYyhDKEYpKEYpRilbY0hdYzFbTkhdQyg9TylbQ0gyXU9bQ0gyXVtDQEBIXTJbQ0gyXVtDSDJdW0NIMl1PMg==

> <s_epik_cmdline>
J2VwaWtfcHl0aG9uJywgJy1waCcsICc3LjAnLCAnLXRuJywgJzgnLCAnLW1hJywgJzIwMCcsICctbWV0YWxfYmluZGluZycsICctaW1hZScsICc8aW5maWxlLm1hZT4nLCAnLW9tYWUnLCAnPG91dGZpbGUubWFlPic=

> <r_epik_Ionization_Penalty>
2.50578

> <r_epik_Ionization_Penalty_Charging>
0.0523173

> <r_epik_Ionization_Penalty_Neutral>
2.45346

> <r_epik_State_Penalty>
2.61512

> <r_epik_Charging_Adjusted_Penalty>
2.66744

> <i_epik_Tot_Q>
-1

> <i_epik_Tot_abs_Q>
1

> <r_epik_Metal_State_Penalty>
0.513209

> <b_epik_Metal_Only>
0

> <s_lp_Force_Field>
OPLS_2005

> <r_lp_Energy>
36.6163

> <b_lp_Chiralities_Consistent>
1

> <s_lp_Variant>
AV-unprocessed.smi:1060-4

> <Gold.Version>
5.8.1

> <Gold.Id.Protein>
6NUR|6NUR_protein|mol2

> <Gold.PLP.Fitness>
40.8942

> <Gold.PLP.PLP>
-39.8902

> <Gold.PLP.part.hbond>
-1.0000

> <Gold.PLP.part.metal>
0.0000

> <Gold.PLP.part.buried>
-5.9855

> <Gold.PLP.part.nonpolar>
-34.3583

> <Gold.PLP.part.repulsive>
1.5448

> <Gold.PLP.ligand.clash>
0.0000

> <Gold.PLP.ligand.torsion>
0.8402

> <Gold.PLP.Chemscore.Hbond>
0.8500

> <Gold.PLP.Chemscore.CHOScore>
0.0000

> <Gold.PLP.Chemscore.Metal>
0.0000

> <Gold.Chemscore.Hbonds>
donor molecule, donor type, donor heavy atom, donor atom, acceptor molecule, acceptor atom, score
      P1  H  6931  6943       L1    10  0.80

> <Gold.PLP.Chemscore.Internal.Correction>
0.1344

> <Gold.Rescore>
     Score         DG    S(hbond)    S(metal)    S(lipo)     H(rot)  DE(clash)    DE(int)     intcor
     11.65     -12.57       0.60        0.00      85.35       1.92       0.02       0.89       ----

> <Gold.Chemscore.Fitness>
11.6544

> <Gold.Chemscore.DG>
-12.5691

> <Gold.Chemscore.ZeroCoef>
-5.4800

> <Gold.Chemscore.Hbond>
0.6034

> <Gold.Chemscore.Metal>
0.0000

> <Gold.Chemscore.Lipo>
85.3543

> <Gold.Chemscore.Internal_Hbond>
0.0000

> <Gold.Chemscore.DEClash>
0.0235

> <Gold.Chemscore.DEInternal>
0.8912

> <Gold.Chemscore.Rot>
1.9190

> <Gold.Chemscore.Internal.Correction>
   9.000000E+99

> <Gold.Chemscore.Hbonds>
donor molecule, donor type, donor heavy atom, donor atom, acceptor molecule, acceptor atom, score
      P1  H  6931  6943       L1    10  0.12

> <Gold.Chemscore.Hbond.Weighted>
-2.0153

> <Gold.Chemscore.Metal.Weighted>
-0.0000

> <Gold.Chemscore.Lipo.Weighted>
-9.9865

> <Gold.Chemscore.Internal_Hbond.Weighted>
0.0000

> <Gold.Chemscore.DEClash.Weighted>
0.0235

> <Gold.Chemscore.DEInternal.Weighted>
0.8912

> <Gold.Chemscore.Rot.Weighted>
4.9126

> <Gold.Chemscore.Internal.Correction.Weighted>
   9.000000E+99

> <Gold.Protein.RotatedTorsions>
[ 6907 6896 6895 6894 ] final   52.58 input  -60.11 | X-H torsion
[ 7974 7965 7964 7962 ] final -158.36 input  175.53 | X-H torsion
[ 8008 7997 7996 7995 ] final  -69.62 input   59.86 | X-H torsion
[ 10167 10162 10161 10158 ] final   60.44 input  -65.29 | X-H torsion
[ 10718 10713 10712 10709 ] final -108.60 input   66.30 | X-H torsion
[ 10763 10752 10751 10750 ] final  -91.72 input  -60.55 | X-H torsion
[ 11005 11000 10999 10996 ] final   52.62 input  -57.11 | X-H torsion

> <Gold.Protein.ActiveResidues>
 VAL166  LYS551  ARG553  GLY616  TRP617  ASP618  TYR619  PRO620  LYS621  CYS622 
 ASP623  PHE694  ASN695  SER759  ASP760  ASP761  ALA762  ILE779  LEU786  VAL792 
 PHE793  MET794  SER795  GLU796  ALA797  LYS798  CYS799  TRP800  GLU811  SER814 

> <Gold.Protein.RotatedAtoms>
  152.3247  134.7335  160.0304 H   0  0  0  0  0  0  0  0  0  0  0  0  # atno 6907 bound_to 6896
  151.7772  133.3341  159.3469 H   0  0  0  0  0  0  0  0  0  0  0  0  # atno 6908 bound_to 6896
  150.7389  134.5896  159.6025 H   0  0  0  0  0  0  0  0  0  0  0  0  # atno 6909 bound_to 6896
  144.7509  140.3838  143.6049 H   0  0  0  0  0  0  0  0  0  0  0  0  # atno 7974 bound_to 7965
  154.4952  140.0850  156.7680 H   0  0  0  0  0  0  0  0  0  0  0  0  # atno 8008 bound_to 7997
  155.4134  140.3442  155.4247 H   0  0  0  0  0  0  0  0  0  0  0  0  # atno 8009 bound_to 7997
  156.1384  140.1522  156.8947 H   0  0  0  0  0  0  0  0  0  0  0  0  # atno 8010 bound_to 7997
  140.1656  144.4328  150.6687 H   0  0  0  0  0  0  0  0  0  0  0  0  # atno 10167 bound_to 10162
  156.0494  130.5721  150.7984 H   0  0  0  0  0  0  0  0  0  0  0  0  # atno 10718 bound_to 10713
  154.6789  135.5257  153.8236 H   0  0  0  0  0  0  0  0  0  0  0  0  # atno 10763 bound_to 10752
  153.0551  135.6547  154.0607 H   0  0  0  0  0  0  0  0  0  0  0  0  # atno 10764 bound_to 10752
  154.0497  135.2970  155.3322 H   0  0  0  0  0  0  0  0  0  0  0  0  # atno 10765 bound_to 10752
  140.0834  134.5308  155.8924 H   0  0  0  0  0  0  0  0  0  0  0  0  # atno 11005 bound_to 11000
  145.6949  139.1647  143.2626 LP  0  0  0  0  0  0  0  0  0  0  0  0  # atno 17320 bound_to 7965
  146.1457  140.6996  142.9346 LP  0  0  0  0  0  0  0  0  0  0  0  0  # atno 17321 bound_to 7965
  140.6615  143.2254  151.5844 LP  0  0  0  0  0  0  0  0  0  0  0  0  # atno 17342 bound_to 10162
  139.5361  144.2777  152.1254 LP  0  0  0  0  0  0  0  0  0  0  0  0  # atno 17343 bound_to 10162
  157.5404  131.0940  150.9835 LP  0  0  0  0  0  0  0  0  0  0  0  0  # atno 17370 bound_to 10713
  157.0119  130.5640  149.5322 LP  0  0  0  0  0  0  0  0  0  0  0  0  # atno 17371 bound_to 10713
  141.2054  133.6647  156.6180 LP  0  0  0  0  0  0  0  0  0  0  0  0  # atno 17394 bound_to 11000
  140.3455  134.7813  157.4429 LP  0  0  0  0  0  0  0  0  0  0  0  0  # atno 17395 bound_to 11000

$$$$
