AV-unprocessed.smi:3274|AV-procd|sdf|12526|dock5
  -GOLD-   2272018443D 1   1.00000     0.00000
 Structure written by MMmdl.
 43 44  0  0  0  0  0  0  0  0  2 V2000
  151.5573  145.4038  159.4933 C   0  0  0  0  0  0  0  0  0  0  0  0
  152.0154  143.9657  159.6728 C   0  0  0  0  0  0  0  0  0  0  0  0
  152.6368  143.5751  160.8031 C   0  0  0  0  0  0  0  0  0  0  0  0
  153.1844  142.1806  161.0539 C   0  0  0  0  0  0  0  0  0  0  0  0
  152.8133  141.1754  159.9508 C   0  0  0  0  0  0  0  0  0  0  0  0
  152.8137  141.8366  158.5614 C   0  0  1  0  0  0  0  0  0  0  0  0
  152.6742  140.8054  157.4283 C   0  0  0  0  0  0  0  0  0  0  0  0
  151.7864  143.0023  158.5006 C   0  0  1  0  0  0  0  0  0  0  0  0
  150.3173  142.5101  158.4289 C   0  0  0  0  0  0  0  0  0  0  0  0
  149.8622  142.2656  157.0447 N   0  3  0  0  0  0  0  0  0  0  0  0
  148.7978  141.2464  156.8993 C   0  0  1  0  0  0  0  0  0  0  0  0
  147.4502  141.7883  157.4035 C   0  0  0  0  0  0  0  0  0  0  0  0
  148.6872  140.7979  155.4268 C   0  0  0  0  0  0  0  0  0  0  0  0
  149.9212  140.2373  154.9002 N   0  0  0  0  0  0  0  0  0  0  0  0
  151.1242  140.7930  154.7462 C   0  0  0  0  0  0  0  0  0  0  0  0
  152.0216  139.9855  154.1989 N   0  0  0  0  0  0  0  0  0  0  0  0
  151.2468  138.8766  154.0093 C   0  0  0  0  0  0  0  0  0  0  0  0
  149.9781  138.9774  154.4060 N   0  0  0  0  0  0  0  0  0  0  0  0
  151.8985  145.7976  158.5356 H   0  0  0  0  0  0  0  0  0  0  0  0
  151.9644  146.0438  160.2769 H   0  0  0  0  0  0  0  0  0  0  0  0
  150.4731  145.4879  159.5402 H   0  0  0  0  0  0  0  0  0  0  0  0
  152.8014  144.2900  161.5963 H   0  0  0  0  0  0  0  0  0  0  0  0
  154.2694  142.2660  161.1205 H   0  0  0  0  0  0  0  0  0  0  0  0
  152.8372  141.8214  162.0228 H   0  0  0  0  0  0  0  0  0  0  0  0
  153.5124  140.3389  159.9766 H   0  0  0  0  0  0  0  0  0  0  0  0
  151.8307  140.7505  160.1571 H   0  0  0  0  0  0  0  0  0  0  0  0
  153.8003  142.2847  158.4280 H   0  0  0  0  0  0  0  0  0  0  0  0
  151.7807  140.1916  157.5402 H   0  0  0  0  0  0  0  0  0  0  0  0
  153.5280  140.1272  157.4175 H   0  0  0  0  0  0  0  0  0  0  0  0
  152.6324  141.2931  156.4539 H   0  0  0  0  0  0  0  0  0  0  0  0
  151.9992  143.5550  157.5841 H   0  0  0  0  0  0  0  0  0  0  0  0
  150.2002  141.5708  158.9675 H   0  0  0  0  0  0  0  0  0  0  0  0
  149.6596  143.2349  158.9073 H   0  0  0  0  0  0  0  0  0  0  0  0
  149.5410  143.1339  156.6408 H   0  0  0  0  0  0  0  0  0  0  0  0
  149.0627  140.3769  157.5032 H   0  0  0  0  0  0  0  0  0  0  0  0
  146.6599  141.0482  157.2743 H   0  0  0  0  0  0  0  0  0  0  0  0
  147.1546  142.6855  156.8584 H   0  0  0  0  0  0  0  0  0  0  0  0
  147.4840  142.0387  158.4635 H   0  0  0  0  0  0  0  0  0  0  0  0
  147.9077  140.0424  155.3210 H   0  0  0  0  0  0  0  0  0  0  0  0
  148.3938  141.6390  154.7965 H   0  0  0  0  0  0  0  0  0  0  0  0
  151.3495  141.8075  155.0409 H   0  0  0  0  0  0  0  0  0  0  0  0
  151.6279  137.9689  153.5644 H   0  0  0  0  0  0  0  0  0  0  0  0
  150.6654  141.9466  156.5218 H   0  0  0  0  0  0  0  0  0  0  0  0
  1  2  1  0  0  0  0
  1 19  1  0  0  0  0
  1 20  1  0  0  0  0
  1 21  1  0  0  0  0
  2  8  1  0  0  0  0
  2  3  2  0  0  0  0
  3  4  1  0  0  0  0
  3 22  1  0  0  0  0
  4  5  1  0  0  0  0
  4 23  1  0  0  0  0
  4 24  1  0  0  0  0
  5  6  1  0  0  0  0
  5 25  1  0  0  0  0
  5 26  1  0  0  0  0
  6  7  1  0  0  0  0
  6  8  1  0  0  0  0
  6 27  1  0  0  0  0
  7 28  1  0  0  0  0
  7 29  1  0  0  0  0
  7 30  1  0  0  0  0
  8  9  1  0  0  0  0
  8 31  1  0  0  0  0
  9 10  1  0  0  0  0
  9 32  1  0  0  0  0
  9 33  1  0  0  0  0
 10 11  1  0  0  0  0
 10 34  1  0  0  0  0
 10 43  1  0  0  0  0
 11 12  1  0  0  0  0
 11 13  1  0  0  0  0
 11 35  1  0  0  0  0
 12 36  1  0  0  0  0
 12 37  1  0  0  0  0
 12 38  1  0  0  0  0
 13 14  1  0  0  0  0
 13 39  1  0  0  0  0
 13 40  1  0  0  0  0
 14 18  1  0  0  0  0
 14 15  1  0  0  0  0
 15 16  2  0  0  0  0
 15 41  1  0  0  0  0
 16 17  1  0  0  0  0
 17 18  2  0  0  0  0
 17 42  1  0  0  0  0
M  CHG  1  10   1
M  END
> <s_m_source_file>
AV-unprocessed.smi

> <i_m_source_file_index>
3274

> <i_lp_mmshare_version>
43012

> <i_f3d_flags>
0

> <s_epik_input>
W0NIM11DMT1bQ0hdW0NIMl1bQ0gyXVtDQEBIXShbQ0gzXSlbQ0BIXTFbQ0gyXVtOSF1bQ0BIXShbQ0gzXSlbQ0gyXW4yW2NIXW5bY0hdbjI=

> <s_epik_cmdline>
J2VwaWtfcHl0aG9uJywgJy1waCcsICc3LjAnLCAnLXRuJywgJzgnLCAnLW1hJywgJzIwMCcsICctbWV0YWxfYmluZGluZycsICctaW1hZScsICc8aW5maWxlLm1hZT4nLCAnLW9tYWUnLCAnPG91dGZpbGUubWFlPic=

> <r_lp_tautomer_probability>
1

> <r_epik_Ionization_Penalty>
0.0017527

> <r_epik_Ionization_Penalty_Charging>
0.00175191

> <r_epik_Ionization_Penalty_Neutral>
7.94565e-07

> <r_epik_State_Penalty>
0.00118605

> <r_epik_Charging_Adjusted_Penalty>
0.00293796

> <i_epik_Tot_Q>
1

> <i_epik_Tot_abs_Q>
1

> <r_epik_Metal_State_Penalty>
-0

> <b_epik_Metal_Only>
0

> <s_lp_Force_Field>
OPLS_2005

> <r_lp_Energy>
18.0154

> <b_lp_Chiralities_Consistent>
1

> <s_lp_Variant>
AV-unprocessed.smi:3274-5

> <Gold.Version>
5.8.1

> <Gold.Id.Protein>
6NUR|6NUR_protein|mol2

> <Gold.PLP.Fitness>
47.4479

> <Gold.PLP.PLP>
-37.0880

> <Gold.PLP.part.hbond>
-2.0000

> <Gold.PLP.part.metal>
0.0000

> <Gold.PLP.part.buried>
-4.4674

> <Gold.PLP.part.nonpolar>
-31.5259

> <Gold.PLP.part.repulsive>
1.1429

> <Gold.PLP.ligand.clash>
0.0000

> <Gold.PLP.ligand.torsion>
0.6457

> <Gold.PLP.Chemscore.Hbond>
2.8500

> <Gold.PLP.Chemscore.CHOScore>
0.9996

> <Gold.PLP.Chemscore.Metal>
0.0000

> <Gold.Chemscore.Hbonds>
donor molecule, donor type, donor heavy atom, donor atom, acceptor molecule, acceptor atom, score
      L1  H    10    34       P1  8028  2.00
      L1  C    17    42       P1  7949  0.07

> <Gold.PLP.Chemscore.Internal.Correction>
0.1026

> <Gold.Rescore>
     Score         DG    S(hbond)    S(metal)    S(lipo)     H(rot)  DE(clash)    DE(int)     intcor
     13.45     -14.09       1.00        0.00      96.79       2.36       0.07       0.57       ----

> <Gold.Chemscore.Fitness>
13.4475

> <Gold.Chemscore.DG>
-14.0884

> <Gold.Chemscore.ZeroCoef>
-5.4800

> <Gold.Chemscore.Hbond>
0.9967

> <Gold.Chemscore.Metal>
0.0000

> <Gold.Chemscore.Lipo>
96.7922

> <Gold.Chemscore.Internal_Hbond>
0.0000

> <Gold.Chemscore.DEClash>
0.0712

> <Gold.Chemscore.DEInternal>
0.5697

> <Gold.Chemscore.Rot>
2.3615

> <Gold.Chemscore.Internal.Correction>
   9.000000E+99

> <Gold.Chemscore.Hbonds>
donor molecule, donor type, donor heavy atom, donor atom, acceptor molecule, acceptor atom, score
      L1  H    10    34       P1  8028  0.98

> <Gold.Chemscore.Hbond.Weighted>
-3.3291

> <Gold.Chemscore.Metal.Weighted>
-0.0000

> <Gold.Chemscore.Lipo.Weighted>
-11.3247

> <Gold.Chemscore.Internal_Hbond.Weighted>
0.0000

> <Gold.Chemscore.DEClash.Weighted>
0.0712

> <Gold.Chemscore.DEInternal.Weighted>
0.5697

> <Gold.Chemscore.Rot.Weighted>
6.0454

> <Gold.Chemscore.Internal.Correction.Weighted>
   9.000000E+99

> <Gold.Protein.RotatedTorsions>
[ 6907 6896 6895 6894 ] final  -43.54 input  -60.11 | X-H torsion
[ 7974 7965 7964 7962 ] final  -63.00 input  175.53 | X-H torsion
[ 8008 7997 7996 7995 ] final  -19.58 input   59.86 | X-H torsion
[ 10167 10162 10161 10158 ] final  -12.48 input  -65.29 | X-H torsion
[ 10718 10713 10712 10709 ] final  -95.16 input   66.30 | X-H torsion
[ 10763 10752 10751 10750 ] final   -4.72 input  -60.55 | X-H torsion
[ 11005 11000 10999 10996 ] final -116.22 input  -57.11 | X-H torsion

> <Gold.Protein.ActiveResidues>
 VAL166  LYS551  ARG553  GLY616  TRP617  ASP618  TYR619  PRO620  LYS621  CYS622 
 ASP623  PHE694  ASN695  SER759  ASP760  ASP761  ALA762  ILE779  LEU786  VAL792 
 PHE793  MET794  SER795  GLU796  ALA797  LYS798  CYS799  TRP800  GLU811  SER814 

> <Gold.Protein.RotatedAtoms>
  150.9428  134.8835  159.7622 H   0  0  0  0  0  0  0  0  0  0  0  0  # atno 6907 bound_to 6896
  152.5087  134.3917  159.9396 H   0  0  0  0  0  0  0  0  0  0  0  0  # atno 6908 bound_to 6896
  151.3937  133.3740  159.2759 H   0  0  0  0  0  0  0  0  0  0  0  0  # atno 6909 bound_to 6896
  145.7844  140.8744  143.0313 H   0  0  0  0  0  0  0  0  0  0  0  0  # atno 7974 bound_to 7965
  154.4827  140.2085  155.9726 H   0  0  0  0  0  0  0  0  0  0  0  0  # atno 8008 bound_to 7997
  156.1190  140.3216  155.8149 H   0  0  0  0  0  0  0  0  0  0  0  0  # atno 8009 bound_to 7997
  155.4502  140.0516  157.2992 H   0  0  0  0  0  0  0  0  0  0  0  0  # atno 8010 bound_to 7997
  140.7162  143.5528  150.9282 H   0  0  0  0  0  0  0  0  0  0  0  0  # atno 10167 bound_to 10162
  156.0039  130.5098  150.6035 H   0  0  0  0  0  0  0  0  0  0  0  0  # atno 10718 bound_to 10713
  153.3886  135.7001  153.6511 H   0  0  0  0  0  0  0  0  0  0  0  0  # atno 10763 bound_to 10752
  153.5093  135.3635  155.2579 H   0  0  0  0  0  0  0  0  0  0  0  0  # atno 10764 bound_to 10752
  154.8700  135.4131  154.3199 H   0  0  0  0  0  0  0  0  0  0  0  0  # atno 10765 bound_to 10752
  141.0436  133.9797  157.2954 H   0  0  0  0  0  0  0  0  0  0  0  0  # atno 11005 bound_to 11000
  144.6791  140.0034  143.7484 LP  0  0  0  0  0  0  0  0  0  0  0  0  # atno 17320 bound_to 7965
  146.0041  139.3115  143.0910 LP  0  0  0  0  0  0  0  0  0  0  0  0  # atno 17321 bound_to 7965
  139.9252  143.6558  152.3088 LP  0  0  0  0  0  0  0  0  0  0  0  0  # atno 17342 bound_to 10162
  139.6989  144.7637  151.1307 LP  0  0  0  0  0  0  0  0  0  0  0  0  # atno 17343 bound_to 10162
  157.3880  131.0791  151.1419 LP  0  0  0  0  0  0  0  0  0  0  0  0  # atno 17370 bound_to 10713
  157.2119  130.6442  149.5777 LP  0  0  0  0  0  0  0  0  0  0  0  0  # atno 17371 bound_to 10713
  139.9295  135.0200  156.8350 LP  0  0  0  0  0  0  0  0  0  0  0  0  # atno 17394 bound_to 11000
  140.6188  134.0013  155.7609 LP  0  0  0  0  0  0  0  0  0  0  0  0  # atno 17395 bound_to 11000

$$$$
