AV-unprocessed.smi:857|AV-procd|sdf|3961|dock3
  -GOLD-   22720 1433D 1   1.00000     0.00000
 Structure written by MMmdl.
 29 30  0  0  0  0  0  0  0  0  2 V2000
  153.4955  143.4834  162.5335 C   0  0  0  0  0  0  0  0  0  0  0  0
  153.2385  142.7033  161.2610 C   0  0  0  0  0  0  0  0  0  0  0  0
  154.0979  141.6597  160.8751 C   0  0  0  0  0  0  0  0  0  0  0  0
  153.8572  140.9286  159.6833 C   0  0  0  0  0  0  0  0  0  0  0  0
  154.8287  139.8222  159.3443 C   0  0  0  0  0  0  0  0  0  0  0  0
  154.7772  139.2450  158.2432 O   0  0  0  0  0  0  0  0  0  0  0  0
  155.6882  139.4980  160.1948 O   0  5  0  0  0  0  0  0  0  0  0  0
  152.7151  141.2850  158.8856 C   0  0  0  0  0  0  0  0  0  0  0  0
  151.9990  140.9345  157.6603 C   0  0  0  0  0  0  0  0  0  0  0  0
  152.2143  139.9022  156.5877 C   0  0  0  0  0  0  0  0  0  0  0  0
  150.9477  141.7034  157.4899 N   0  0  0  0  0  0  0  0  0  0  0  0
  150.9087  142.5637  158.5272 N   0  0  0  0  0  0  0  0  0  0  0  0
  149.8292  143.5329  158.5913 C   0  0  0  0  0  0  0  0  0  0  0  0
  150.2296  144.7647  159.4144 C   0  0  0  0  0  0  0  0  0  0  0  0
  149.1028  145.5888  159.6222 O   0  0  0  0  0  0  0  0  0  0  0  0
  151.9454  142.3687  159.4162 C   0  0  0  0  0  0  0  0  0  0  0  0
  152.1575  143.0818  160.5579 N   0  0  0  0  0  0  0  0  0  0  0  0
  154.3857  143.1214  163.0489 H   0  0  0  0  0  0  0  0  0  0  0  0
  152.6481  143.3892  163.2134 H   0  0  0  0  0  0  0  0  0  0  0  0
  153.6404  144.5403  162.3077 H   0  0  0  0  0  0  0  0  0  0  0  0
  154.9439  141.4274  161.5059 H   0  0  0  0  0  0  0  0  0  0  0  0
  153.0728  139.2621  156.7140 H   0  0  0  0  0  0  0  0  0  0  0  0
  152.3310  140.3810  155.6150 H   0  0  0  0  0  0  0  0  0  0  0  0
  151.3497  139.2421  156.5134 H   0  0  0  0  0  0  0  0  0  0  0  0
  149.5627  143.8238  157.5744 H   0  0  0  0  0  0  0  0  0  0  0  0
  148.9472  143.0555  159.0213 H   0  0  0  0  0  0  0  0  0  0  0  0
  150.6357  144.4664  160.3815 H   0  0  0  0  0  0  0  0  0  0  0  0
  150.9995  145.3390  158.8982 H   0  0  0  0  0  0  0  0  0  0  0  0
  148.5200  145.4940  158.8841 H   0  0  0  0  0  0  0  0  0  0  0  0
  1  2  1  0  0  0  0
  1 18  1  0  0  0  0
  1 19  1  0  0  0  0
  1 20  1  0  0  0  0
  2 17  1  0  0  0  0
  2  3  2  0  0  0  0
  3  4  1  0  0  0  0
  3 21  1  0  0  0  0
  4  5  1  0  0  0  0
  4  8  2  0  0  0  0
  5  6  2  0  0  0  0
  5  7  1  0  0  0  0
  8 16  1  0  0  0  0
  8  9  1  0  0  0  0
  9 10  1  0  0  0  0
  9 11  2  0  0  0  0
 10 22  1  0  0  0  0
 10 23  1  0  0  0  0
 10 24  1  0  0  0  0
 11 12  1  0  0  0  0
 12 13  1  0  0  0  0
 12 16  1  0  0  0  0
 13 14  1  0  0  0  0
 13 25  1  0  0  0  0
 13 26  1  0  0  0  0
 14 15  1  0  0  0  0
 14 27  1  0  0  0  0
 14 28  1  0  0  0  0
 15 29  1  0  0  0  0
 16 17  2  0  0  0  0
M  CHG  1   7  -1
M  END
> <s_m_source_file>
AV-unprocessed.smi

> <i_m_source_file_index>
857

> <i_lp_mmshare_version>
43012

> <i_f3d_flags>
0

> <s_epik_input>
Tz1DKFtPSF0pYzFbY0hdYyhbQ0gzXSluYyhjMTIpbihuYzJbQ0gzXSlbQ0gyXVtDSDJdW09IXQ==

> <s_epik_cmdline>
J2VwaWtfcHl0aG9uJywgJy1waCcsICc3LjAnLCAnLXRuJywgJzgnLCAnLW1hJywgJzIwMCcsICctbWV0YWxfYmluZGluZycsICctaW1hZScsICc8aW5maWxlLm1hZT4nLCAnLW9tYWUnLCAnPG91dGZpbGUubWFlPic=

> <r_lp_tautomer_probability>
1

> <r_epik_Ionization_Penalty>
0.000221063

> <r_epik_Ionization_Penalty_Charging>
0.000215421

> <r_epik_Ionization_Penalty_Neutral>
5.64189e-06

> <r_epik_State_Penalty>
-0

> <r_epik_Charging_Adjusted_Penalty>
0.000215421

> <i_epik_Tot_Q>
-1

> <i_epik_Tot_abs_Q>
1

> <r_epik_Metal_State_Penalty>
-0

> <b_epik_Metal_Only>
0

> <s_lp_Force_Field>
OPLS_2005

> <r_lp_Energy>
11.0008

> <b_lp_Chiralities_Consistent>
1

> <s_lp_Variant>
AV-unprocessed.smi:857-1

> <Gold.Version>
5.8.1

> <Gold.Id.Protein>
6NUR|6NUR_protein|mol2

> <Gold.PLP.Fitness>
42.0699

> <Gold.PLP.PLP>
-33.8711

> <Gold.PLP.part.hbond>
-3.4018

> <Gold.PLP.part.metal>
0.0000

> <Gold.PLP.part.buried>
-3.3949

> <Gold.PLP.part.nonpolar>
-25.8887

> <Gold.PLP.part.repulsive>
0.1083

> <Gold.PLP.ligand.clash>
0.0000

> <Gold.PLP.ligand.torsion>
0.4014

> <Gold.PLP.Chemscore.Hbond>
3.0000

> <Gold.PLP.Chemscore.CHOScore>
0.0000

> <Gold.PLP.Chemscore.Metal>
0.0000

> <Gold.Chemscore.Hbonds>
donor molecule, donor type, donor heavy atom, donor atom, acceptor molecule, acceptor atom, score
      L1  H    15    29       P1  8029  1.00
      P1  H  7997  8009       L1     6  0.55

> <Gold.PLP.Chemscore.Internal.Correction>
0.0014

> <Gold.Rescore>
     Score         DG    S(hbond)    S(metal)    S(lipo)     H(rot)  DE(clash)    DE(int)     intcor
     13.91     -16.23       1.99        0.00      75.34       1.84       0.08       2.24       ----

> <Gold.Chemscore.Fitness>
13.9062

> <Gold.Chemscore.DG>
-16.2253

> <Gold.Chemscore.ZeroCoef>
-5.4800

> <Gold.Chemscore.Hbond>
1.9920

> <Gold.Chemscore.Metal>
0.0000

> <Gold.Chemscore.Lipo>
75.3381

> <Gold.Chemscore.Internal_Hbond>
0.0000

> <Gold.Chemscore.DEClash>
0.0756

> <Gold.Chemscore.DEInternal>
2.2435

> <Gold.Chemscore.Rot>
1.8448

> <Gold.Chemscore.Internal.Correction>
   9.000000E+99

> <Gold.Chemscore.Hbonds>
donor molecule, donor type, donor heavy atom, donor atom, acceptor molecule, acceptor atom, score
      L1  H    15    29       P1  8029  0.97
      P1  H  7997  8009       L1     6  0.20

> <Gold.Chemscore.Hbond.Weighted>
-6.6533

> <Gold.Chemscore.Metal.Weighted>
-0.0000

> <Gold.Chemscore.Lipo.Weighted>
-8.8146

> <Gold.Chemscore.Internal_Hbond.Weighted>
0.0000

> <Gold.Chemscore.DEClash.Weighted>
0.0756

> <Gold.Chemscore.DEInternal.Weighted>
2.2435

> <Gold.Chemscore.Rot.Weighted>
4.7226

> <Gold.Chemscore.Internal.Correction.Weighted>
   9.000000E+99

> <Gold.Protein.RotatedTorsions>
[ 6907 6896 6895 6894 ] final  -73.50 input  -60.11 | X-H torsion
[ 7974 7965 7964 7962 ] final  -80.57 input  175.53 | X-H torsion
[ 8008 7997 7996 7995 ] final  115.73 input   59.86 | X-H torsion
[ 10167 10162 10161 10158 ] final   55.68 input  -65.29 | X-H torsion
[ 10718 10713 10712 10709 ] final   90.06 input   66.30 | X-H torsion
[ 10763 10752 10751 10750 ] final  -74.02 input  -60.55 | X-H torsion
[ 11005 11000 10999 10996 ] final  113.90 input  -57.11 | X-H torsion

> <Gold.Protein.ActiveResidues>
 VAL166  LYS551  ARG553  GLY616  TRP617  ASP618  TYR619  PRO620  LYS621  CYS622 
 ASP623  PHE694  ASN695  SER759  ASP760  ASP761  ALA762  ILE779  LEU786  VAL792 
 PHE793  MET794  SER795  GLU796  ALA797  LYS798  CYS799  TRP800  GLU811  SER814 

> <Gold.Protein.RotatedAtoms>
  150.7128  134.5007  159.5559 H   0  0  0  0  0  0  0  0  0  0  0  0  # atno 6907 bound_to 6896
  152.2605  134.8036  160.0440 H   0  0  0  0  0  0  0  0  0  0  0  0  # atno 6908 bound_to 6896
  151.8751  133.3448  159.3784 H   0  0  0  0  0  0  0  0  0  0  0  0  # atno 6909 bound_to 6896
  145.5582  140.9486  143.1462 H   0  0  0  0  0  0  0  0  0  0  0  0  # atno 7974 bound_to 7965
  156.2399  140.2932  156.0414 H   0  0  0  0  0  0  0  0  0  0  0  0  # atno 8008 bound_to 7997
  155.1983  140.0409  157.2930 H   0  0  0  0  0  0  0  0  0  0  0  0  # atno 8009 bound_to 7997
  154.6148  140.2461  155.7631 H   0  0  0  0  0  0  0  0  0  0  0  0  # atno 8010 bound_to 7997
  140.2168  144.3831  150.6466 H   0  0  0  0  0  0  0  0  0  0  0  0  # atno 10167 bound_to 10162
  157.6958  131.0356  150.3520 H   0  0  0  0  0  0  0  0  0  0  0  0  # atno 10718 bound_to 10713
  154.4674  135.5878  153.6298 H   0  0  0  0  0  0  0  0  0  0  0  0  # atno 10763 bound_to 10752
  152.9830  135.6058  154.3409 H   0  0  0  0  0  0  0  0  0  0  0  0  # atno 10764 bound_to 10752
  154.3288  135.2843  155.2461 H   0  0  0  0  0  0  0  0  0  0  0  0  # atno 10765 bound_to 10752
  139.8965  134.9558  156.6810 H   0  0  0  0  0  0  0  0  0  0  0  0  # atno 11005 bound_to 11000
  144.7496  139.7229  143.7278 LP  0  0  0  0  0  0  0  0  0  0  0  0  # atno 17320 bound_to 7965
  146.1869  139.5090  142.9830 LP  0  0  0  0  0  0  0  0  0  0  0  0  # atno 17321 bound_to 7965
  140.6284  143.2184  151.6548 LP  0  0  0  0  0  0  0  0  0  0  0  0  # atno 17342 bound_to 10162
  139.5159  144.3364  152.0780 LP  0  0  0  0  0  0  0  0  0  0  0  0  # atno 17343 bound_to 10162
  156.3967  130.3908  149.6989 LP  0  0  0  0  0  0  0  0  0  0  0  0  # atno 17370 bound_to 10713
  156.4321  130.7820  151.2840 LP  0  0  0  0  0  0  0  0  0  0  0  0  # atno 17371 bound_to 10713
  140.7299  133.9068  155.8204 LP  0  0  0  0  0  0  0  0  0  0  0  0  # atno 17394 bound_to 11000
  141.0161  134.0953  157.4170 LP  0  0  0  0  0  0  0  0  0  0  0  0  # atno 17395 bound_to 11000

$$$$
