AV-unprocessed.smi:2671|AV-procd|sdf|10353|dock3
  -GOLD-   2272014373D 1   1.00000     0.00000
 Structure written by MMmdl.
 29 30  0  0  0  0  0  0  0  0  1 V2000
  149.5395  138.7113  153.2196 O   0  0  0  0  0  0  0  0  0  0  0  0
  150.2047  138.9974  154.3751 C   0  0  0  0  0  0  0  0  0  0  0  0
  150.7600  137.9513  155.1408 C   0  0  0  0  0  0  0  0  0  0  0  0
  151.4353  138.3245  156.3258 C   0  0  0  0  0  0  0  0  0  0  0  0
  152.0823  137.2998  157.2450 C   0  0  0  0  0  0  0  0  0  0  0  0
  151.5758  137.4136  158.4730 F   0  0  0  0  0  0  0  0  0  0  0  0
  151.8728  136.0547  156.8150 F   0  0  0  0  0  0  0  0  0  0  0  0
  153.3969  137.5125  157.2994 F   0  0  0  0  0  0  0  0  0  0  0  0
  151.5399  139.6206  156.6991 N   0  0  0  0  0  0  0  0  0  0  0  0
  150.9760  140.5236  155.8959 C   0  0  0  0  0  0  0  0  0  0  0  0
  151.1377  142.2187  156.4333 S   0  0  0  0  0  0  0  0  0  0  0  0
  150.9988  142.0871  158.2421 C   0  0  0  0  0  0  0  0  0  0  0  0
  151.8193  143.1697  158.9558 C   0  0  1  0  0  0  0  0  0  0  0  0
  151.3836  144.6048  158.6546 C   0  0  0  0  0  0  0  0  0  0  0  0
  151.7849  145.3763  159.9035 C   0  0  0  0  0  0  0  0  0  0  0  0
  152.1351  144.2880  160.9217 C   0  0  0  0  0  0  0  0  0  0  0  0
  151.6338  143.0845  160.3590 O   0  0  0  0  0  0  0  0  0  0  0  0
  150.3159  140.2871  154.7591 N   0  0  0  0  0  0  0  0  0  0  0  0
  149.4592  137.7840  153.0587 H   0  0  0  0  0  0  0  0  0  0  0  0
  150.6709  136.9200  154.8331 H   0  0  0  0  0  0  0  0  0  0  0  0
  149.9502  142.1563  158.5333 H   0  0  0  0  0  0  0  0  0  0  0  0
  151.3549  141.1033  158.5489 H   0  0  0  0  0  0  0  0  0  0  0  0
  152.8819  143.0450  158.7384 H   0  0  0  0  0  0  0  0  0  0  0  0
  151.8436  144.9992  157.7480 H   0  0  0  0  0  0  0  0  0  0  0  0
  150.3011  144.6547  158.5291 H   0  0  0  0  0  0  0  0  0  0  0  0
  152.6411  146.0263  159.7206 H   0  0  0  0  0  0  0  0  0  0  0  0
  150.9596  145.9981  160.2520 H   0  0  0  0  0  0  0  0  0  0  0  0
  153.2166  144.2052  161.0378 H   0  0  0  0  0  0  0  0  0  0  0  0
  151.7013  144.4760  161.9041 H   0  0  0  0  0  0  0  0  0  0  0  0
  1  2  1  0  0  0  0
  1 19  1  0  0  0  0
  2 18  1  0  0  0  0
  2  3  2  0  0  0  0
  3  4  1  0  0  0  0
  3 20  1  0  0  0  0
  4  5  1  0  0  0  0
  4  9  2  0  0  0  0
  5  6  1  0  0  0  0
  5  7  1  0  0  0  0
  5  8  1  0  0  0  0
  9 10  1  0  0  0  0
 10 11  1  0  0  0  0
 10 18  2  0  0  0  0
 11 12  1  0  0  0  0
 12 13  1  0  0  0  0
 12 21  1  0  0  0  0
 12 22  1  0  0  0  0
 13 17  1  0  0  0  0
 13 14  1  0  0  0  0
 13 23  1  0  0  0  0
 14 15  1  0  0  0  0
 14 24  1  0  0  0  0
 14 25  1  0  0  0  0
 15 16  1  0  0  0  0
 15 26  1  0  0  0  0
 15 27  1  0  0  0  0
 16 17  1  0  0  0  0
 16 28  1  0  0  0  0
 16 29  1  0  0  0  0
M  END
> <s_m_source_file>
AV-unprocessed.smi

> <i_m_source_file_index>
2671

> <i_lp_mmshare_version>
43012

> <i_f3d_flags>
0

> <s_epik_input>
W09IXWMxW2NIXWMoQyhGKShGKUYpbmMobjEpU1tDSDJdW0NAQEhdMltDSDJdW0NIMl1bQ0gyXU8y

> <s_epik_cmdline>
J2VwaWtfcHl0aG9uJywgJy1waCcsICc3LjAnLCAnLXRuJywgJzgnLCAnLW1hJywgJzIwMCcsICctbWV0YWxfYmluZGluZycsICctaW1hZScsICc8aW5maWxlLm1hZT4nLCAnLW9tYWUnLCAnPG91dGZpbGUubWFlPic=

> <r_lp_tautomer_probability>
0.0660145

> <r_epik_Ionization_Penalty>
3.60098

> <r_epik_Ionization_Penalty_Charging>
0

> <r_epik_Ionization_Penalty_Neutral>
3.60098

> <r_epik_State_Penalty>
2.71709

> <r_epik_Charging_Adjusted_Penalty>
2.71709

> <i_epik_Tot_Q>
0

> <i_epik_Tot_abs_Q>
0

> <r_epik_Metal_State_Penalty>
3.44057

> <b_epik_Metal_Only>
0

> <s_lp_Force_Field>
OPLS_2005

> <r_lp_Energy>
10.3894

> <b_lp_Chiralities_Consistent>
1

> <s_lp_Variant>
AV-unprocessed.smi:2671-8

> <Gold.Version>
5.8.1

> <Gold.Id.Protein>
6NUR|6NUR_protein|mol2

> <Gold.PLP.Fitness>
41.0250

> <Gold.PLP.PLP>
-36.1251

> <Gold.PLP.part.hbond>
-3.0859

> <Gold.PLP.part.metal>
0.0000

> <Gold.PLP.part.buried>
-6.5337

> <Gold.PLP.part.nonpolar>
-26.2224

> <Gold.PLP.part.repulsive>
0.1326

> <Gold.PLP.ligand.clash>
0.0000

> <Gold.PLP.ligand.torsion>
0.5571

> <Gold.PLP.Chemscore.Hbond>
2.0000

> <Gold.PLP.Chemscore.CHOScore>
0.0000

> <Gold.PLP.Chemscore.Metal>
0.0000

> <Gold.Chemscore.Hbonds>
donor molecule, donor type, donor heavy atom, donor atom, acceptor molecule, acceptor atom, score
      L1  H     1    19       P1  7948  1.00
      P1  H  7989  7998       L1    18  1.00

> <Gold.PLP.Chemscore.Internal.Correction>
0.0142

> <Gold.Rescore>
     Score         DG    S(hbond)    S(metal)    S(lipo)     H(rot)  DE(clash)    DE(int)     intcor
     11.46     -12.05       0.98        0.00      77.82       2.27       0.05       0.54       ----

> <Gold.Chemscore.Fitness>
11.4573

> <Gold.Chemscore.DG>
-12.0499

> <Gold.Chemscore.ZeroCoef>
-5.4800

> <Gold.Chemscore.Hbond>
0.9772

> <Gold.Chemscore.Metal>
0.0000

> <Gold.Chemscore.Lipo>
77.8152

> <Gold.Chemscore.Internal_Hbond>
0.0000

> <Gold.Chemscore.DEClash>
0.0514

> <Gold.Chemscore.DEInternal>
0.5412

> <Gold.Chemscore.Rot>
2.2650

> <Gold.Chemscore.Internal.Correction>
   9.000000E+99

> <Gold.Chemscore.Hbonds>
donor molecule, donor type, donor heavy atom, donor atom, acceptor molecule, acceptor atom, score
      L1  H     1    19       P1  7948  0.84
      P1  H  7989  7998       L1    18  0.06

> <Gold.Chemscore.Hbond.Weighted>
-3.2640

> <Gold.Chemscore.Metal.Weighted>
-0.0000

> <Gold.Chemscore.Lipo.Weighted>
-9.1044

> <Gold.Chemscore.Internal_Hbond.Weighted>
0.0000

> <Gold.Chemscore.DEClash.Weighted>
0.0514

> <Gold.Chemscore.DEInternal.Weighted>
0.5412

> <Gold.Chemscore.Rot.Weighted>
5.7984

> <Gold.Chemscore.Internal.Correction.Weighted>
   9.000000E+99

> <Gold.Protein.RotatedTorsions>
[ 6907 6896 6895 6894 ] final  -14.29 input  -60.11 | X-H torsion
[ 7974 7965 7964 7962 ] final   70.12 input  175.53 | X-H torsion
[ 8008 7997 7996 7995 ] final  153.78 input   59.86 | X-H torsion
[ 10167 10162 10161 10158 ] final  152.62 input  -65.29 | X-H torsion
[ 10718 10713 10712 10709 ] final  129.15 input   66.30 | X-H torsion
[ 10763 10752 10751 10750 ] final -170.30 input  -60.55 | X-H torsion
[ 11005 11000 10999 10996 ] final -109.54 input  -57.11 | X-H torsion

> <Gold.Protein.ActiveResidues>
 VAL166  LYS551  ARG553  GLY616  TRP617  ASP618  TYR619  PRO620  LYS621  CYS622 
 ASP623  PHE694  ASN695  SER759  ASP760  ASP761  ALA762  ILE779  LEU786  VAL792 
 PHE793  MET794  SER795  GLU796  ALA797  LYS798  CYS799  TRP800  GLU811  SER814 

> <Gold.Protein.RotatedAtoms>
  151.3418  135.0865  159.9373 H   0  0  0  0  0  0  0  0  0  0  0  0  # atno 6907 bound_to 6896
  152.5209  133.9440  159.7650 H   0  0  0  0  0  0  0  0  0  0  0  0  # atno 6908 bound_to 6896
  150.9798  133.6204  159.2754 H   0  0  0  0  0  0  0  0  0  0  0  0  # atno 6909 bound_to 6896
  145.7820  139.2892  143.1260 H   0  0  0  0  0  0  0  0  0  0  0  0  # atno 7974 bound_to 7965
  156.2564  140.1984  156.6544 H   0  0  0  0  0  0  0  0  0  0  0  0  # atno 8008 bound_to 7997
  154.6512  140.0571  156.9983 H   0  0  0  0  0  0  0  0  0  0  0  0  # atno 8009 bound_to 7997
  155.1415  140.3243  155.4454 H   0  0  0  0  0  0  0  0  0  0  0  0  # atno 8010 bound_to 7997
  139.4832  144.5343  151.7671 H   0  0  0  0  0  0  0  0  0  0  0  0  # atno 10167 bound_to 10162
  157.5181  131.1098  150.9195 H   0  0  0  0  0  0  0  0  0  0  0  0  # atno 10718 bound_to 10713
  154.6430  135.2901  155.0081 H   0  0  0  0  0  0  0  0  0  0  0  0  # atno 10763 bound_to 10752
  154.1201  135.6549  153.4905 H   0  0  0  0  0  0  0  0  0  0  0  0  # atno 10764 bound_to 10752
  153.0336  135.5285  154.7304 H   0  0  0  0  0  0  0  0  0  0  0  0  # atno 10765 bound_to 10752
  141.0842  133.9168  157.2222 H   0  0  0  0  0  0  0  0  0  0  0  0  # atno 11005 bound_to 11000
  146.0064  140.8475  142.9993 LP  0  0  0  0  0  0  0  0  0  0  0  0  # atno 17320 bound_to 7965
  144.6795  140.2426  143.7342 LP  0  0  0  0  0  0  0  0  0  0  0  0  # atno 17321 bound_to 7965
  140.4873  144.1362  150.5943 LP  0  0  0  0  0  0  0  0  0  0  0  0  # atno 17342 bound_to 10162
  140.4211  143.2611  151.9715 LP  0  0  0  0  0  0  0  0  0  0  0  0  # atno 17343 bound_to 10162
  156.9814  130.5528  149.5296 LP  0  0  0  0  0  0  0  0  0  0  0  0  # atno 17370 bound_to 10713
  156.0334  130.5423  150.8592 LP  0  0  0  0  0  0  0  0  0  0  0  0  # atno 17371 bound_to 10713
  139.9658  135.0142  156.9384 LP  0  0  0  0  0  0  0  0  0  0  0  0  # atno 17394 bound_to 11000
  140.5401  134.0729  155.7339 LP  0  0  0  0  0  0  0  0  0  0  0  0  # atno 17395 bound_to 11000

$$$$
