AV-unprocessed.smi:2605|AV-procd|sdf|10194|dock1
  -GOLD-   2272014203D 1   1.00000     0.00000
 Structure written by MMmdl.
 26 27  0  0  0  0  0  0  0  0  2 V2000
  151.8463  139.9521  157.4983 C   0  0  0  0  0  0  0  0  0  0  0  0
  151.0455  139.6530  156.3776 C   0  0  0  0  0  0  0  0  0  0  0  0
  150.3482  140.7043  155.7470 C   0  0  0  0  0  0  0  0  0  0  0  0
  149.4666  140.4250  154.5402 C   0  0  1  0  0  0  0  0  0  0  0  0
  149.4338  138.9160  154.2071 C   0  0  0  0  0  0  0  0  0  0  0  0
  148.6060  138.6679  153.0087 N   0  3  0  0  0  0  0  0  0  0  0  0
  147.2477  139.2214  153.1760 C   0  0  0  0  0  0  0  0  0  0  0  0
  147.3286  140.7204  153.5170 C   0  0  0  0  0  0  0  0  0  0  0  0
  148.0999  140.9064  154.7420 N   0  0  0  0  0  0  0  0  0  0  0  0
  150.4809  142.0078  156.2735 C   0  0  0  0  0  0  0  0  0  0  0  0
  151.3076  142.1993  157.3986 C   0  0  0  0  0  0  0  0  0  0  0  0
  151.9792  141.1968  158.0038 N   0  0  0  0  0  0  0  0  0  0  0  0
  152.3944  139.1696  158.0021 H   0  0  0  0  0  0  0  0  0  0  0  0
  150.9736  138.6383  156.0144 H   0  0  0  0  0  0  0  0  0  0  0  0
  149.8901  140.9676  153.6932 H   0  0  0  0  0  0  0  0  0  0  0  0
  150.4418  138.5464  154.0169 H   0  0  0  0  0  0  0  0  0  0  0  0
  149.0359  138.3410  155.0450 H   0  0  0  0  0  0  0  0  0  0  0  0
  149.0421  139.1148  152.2149 H   0  0  0  0  0  0  0  0  0  0  0  0
  146.6854  139.0712  152.2542 H   0  0  0  0  0  0  0  0  0  0  0  0
  146.7252  138.6759  153.9634 H   0  0  0  0  0  0  0  0  0  0  0  0
  147.7829  141.2831  152.7000 H   0  0  0  0  0  0  0  0  0  0  0  0
  146.3271  141.1250  153.6658 H   0  0  0  0  0  0  0  0  0  0  0  0
  148.1204  141.8857  154.9916 H   0  0  0  0  0  0  0  0  0  0  0  0
  149.9639  142.8453  155.8285 H   0  0  0  0  0  0  0  0  0  0  0  0
  151.4315  143.1842  157.8238 H   0  0  0  0  0  0  0  0  0  0  0  0
  148.5472  137.6740  152.8395 H   0  0  0  0  0  0  0  0  0  0  0  0
  1 12  1  0  0  0  0
  1  2  2  0  0  0  0
  1 13  1  0  0  0  0
  2  3  1  0  0  0  0
  2 14  1  0  0  0  0
  3  4  1  0  0  0  0
  3 10  2  0  0  0  0
  4  9  1  0  0  0  0
  4  5  1  0  0  0  0
  4 15  1  0  0  0  0
  5  6  1  0  0  0  0
  5 16  1  0  0  0  0
  5 17  1  0  0  0  0
  6  7  1  0  0  0  0
  6 18  1  0  0  0  0
  6 26  1  0  0  0  0
  7  8  1  0  0  0  0
  7 19  1  0  0  0  0
  7 20  1  0  0  0  0
  8  9  1  0  0  0  0
  8 21  1  0  0  0  0
  8 22  1  0  0  0  0
  9 23  1  0  0  0  0
 10 11  1  0  0  0  0
 10 24  1  0  0  0  0
 11 12  2  0  0  0  0
 11 25  1  0  0  0  0
M  CHG  1   6   1
M  END
> <s_m_source_file>
AV-unprocessed.smi

> <i_m_source_file_index>
2605

> <i_lp_mmshare_version>
43012

> <i_f3d_flags>
0

> <s_epik_input>
W2NIXTFbY0hdbltjSF1bY0hdYzFbQ0BASF0yW0NIMl1bTkhdW0NIMl1bQ0gyXVtOSF0y

> <s_epik_cmdline>
J2VwaWtfcHl0aG9uJywgJy1waCcsICc3LjAnLCAnLXRuJywgJzgnLCAnLW1hJywgJzIwMCcsICctbWV0YWxfYmluZGluZycsICctaW1hZScsICc8aW5maWxlLm1hZT4nLCAnLW9tYWUnLCAnPG91dGZpbGUubWFlPic=

> <r_epik_Ionization_Penalty>
0.0197506

> <r_epik_Ionization_Penalty_Charging>
0.010317

> <r_epik_Ionization_Penalty_Neutral>
0.00943359

> <r_epik_State_Penalty>
0.319455

> <r_epik_Charging_Adjusted_Penalty>
0.329772

> <i_epik_Tot_Q>
1

> <i_epik_Tot_abs_Q>
1

> <r_epik_Metal_State_Penalty>
0.318246

> <b_epik_Metal_Only>
0

> <s_lp_Force_Field>
OPLS_2005

> <r_lp_Energy>
9.79217

> <b_lp_Chiralities_Consistent>
1

> <s_lp_Variant>
AV-unprocessed.smi:2605-2

> <Gold.Version>
5.8.1

> <Gold.Id.Protein>
6NUR|6NUR_protein|mol2

> <Gold.PLP.Fitness>
31.6065

> <Gold.PLP.PLP>
-22.9379

> <Gold.PLP.part.hbond>
-1.8925

> <Gold.PLP.part.metal>
0.0000

> <Gold.PLP.part.buried>
-2.1271

> <Gold.PLP.part.nonpolar>
-19.3763

> <Gold.PLP.part.repulsive>
0.0794

> <Gold.PLP.ligand.clash>
0.0000

> <Gold.PLP.ligand.torsion>
0.0348

> <Gold.PLP.Chemscore.Hbond>
2.9103

> <Gold.PLP.Chemscore.CHOScore>
0.0000

> <Gold.PLP.Chemscore.Metal>
0.0000

> <Gold.Chemscore.Hbonds>
donor molecule, donor type, donor heavy atom, donor atom, acceptor molecule, acceptor atom, score
      L1  H     6    18       P1  7957  0.93
      L1  H     6    26       P1  7948  1.98

> <Gold.PLP.Chemscore.Internal.Correction>
0.0074

> <Gold.Rescore>
     Score         DG    S(hbond)    S(metal)    S(lipo)     H(rot)  DE(clash)    DE(int)     intcor
     16.17     -16.21       1.86        0.00      60.49       1.00       0.03       0.00       ----

> <Gold.Chemscore.Fitness>
16.1710

> <Gold.Chemscore.DG>
-16.2078

> <Gold.Chemscore.ZeroCoef>
-5.4800

> <Gold.Chemscore.Hbond>
1.8596

> <Gold.Chemscore.Metal>
0.0000

> <Gold.Chemscore.Lipo>
60.4856

> <Gold.Chemscore.Internal_Hbond>
0.0000

> <Gold.Chemscore.DEClash>
0.0331

> <Gold.Chemscore.DEInternal>
0.0037

> <Gold.Chemscore.Rot>
1.0000

> <Gold.Chemscore.Internal.Correction>
   9.000000E+99

> <Gold.Chemscore.Hbonds>
donor molecule, donor type, donor heavy atom, donor atom, acceptor molecule, acceptor atom, score
      L1  H     6    18       P1  7957  0.87
      L1  H     6    26       P1  7948  0.93

> <Gold.Chemscore.Hbond.Weighted>
-6.2110

> <Gold.Chemscore.Metal.Weighted>
-0.0000

> <Gold.Chemscore.Lipo.Weighted>
-7.0768

> <Gold.Chemscore.Internal_Hbond.Weighted>
0.0000

> <Gold.Chemscore.DEClash.Weighted>
0.0331

> <Gold.Chemscore.DEInternal.Weighted>
0.0037

> <Gold.Chemscore.Rot.Weighted>
2.5600

> <Gold.Chemscore.Internal.Correction.Weighted>
   9.000000E+99

> <Gold.Protein.RotatedTorsions>
[ 6907 6896 6895 6894 ] final  102.10 input  -60.11 | X-H torsion
[ 7974 7965 7964 7962 ] final   34.22 input  175.53 | X-H torsion
[ 8008 7997 7996 7995 ] final   11.93 input   59.86 | X-H torsion
[ 10167 10162 10161 10158 ] final -141.01 input  -65.29 | X-H torsion
[ 10718 10713 10712 10709 ] final  155.65 input   66.30 | X-H torsion
[ 10763 10752 10751 10750 ] final  -26.51 input  -60.55 | X-H torsion
[ 11005 11000 10999 10996 ] final   54.61 input  -57.11 | X-H torsion

> <Gold.Protein.ActiveResidues>
 VAL166  LYS551  ARG553  GLY616  TRP617  ASP618  TYR619  PRO620  LYS621  CYS622 
 ASP623  PHE694  ASN695  SER759  ASP760  ASP761  ALA762  ILE779  LEU786  VAL792 
 PHE793  MET794  SER795  GLU796  ALA797  LYS798  CYS799  TRP800  GLU811  SER814 

> <Gold.Protein.RotatedAtoms>
  152.5332  134.0026  159.7901 H   0  0  0  0  0  0  0  0  0  0  0  0  # atno 6907 bound_to 6896
  151.0243  133.5840  159.2675 H   0  0  0  0  0  0  0  0  0  0  0  0  # atno 6908 bound_to 6896
  151.2869  135.0737  159.9243 H   0  0  0  0  0  0  0  0  0  0  0  0  # atno 6909 bound_to 6896
  146.1367  139.6296  142.9190 H   0  0  0  0  0  0  0  0  0  0  0  0  # atno 7974 bound_to 7965
  154.8136  140.2872  155.5836 H   0  0  0  0  0  0  0  0  0  0  0  0  # atno 8008 bound_to 7997
  156.2991  140.2563  156.2959 H   0  0  0  0  0  0  0  0  0  0  0  0  # atno 8009 bound_to 7997
  154.9419  140.0381  157.2090 H   0  0  0  0  0  0  0  0  0  0  0  0  # atno 8010 bound_to 7997
  139.8226  143.7553  152.2666 H   0  0  0  0  0  0  0  0  0  0  0  0  # atno 10167 bound_to 10162
  157.2155  131.0707  151.1944 H   0  0  0  0  0  0  0  0  0  0  0  0  # atno 10718 bound_to 10713
  153.7171  135.6947  153.5022 H   0  0  0  0  0  0  0  0  0  0  0  0  # atno 10763 bound_to 10752
  153.2231  135.4363  155.0510 H   0  0  0  0  0  0  0  0  0  0  0  0  # atno 10764 bound_to 10752
  154.8296  135.3465  154.6705 H   0  0  0  0  0  0  0  0  0  0  0  0  # atno 10765 bound_to 10752
  140.0673  134.5519  155.9085 H   0  0  0  0  0  0  0  0  0  0  0  0  # atno 11005 bound_to 11000
  145.5139  141.0434  143.2473 LP  0  0  0  0  0  0  0  0  0  0  0  0  # atno 17320 bound_to 7965
  144.7748  139.6654  143.7179 LP  0  0  0  0  0  0  0  0  0  0  0  0  # atno 17321 bound_to 7965
  139.7736  144.7468  151.0189 LP  0  0  0  0  0  0  0  0  0  0  0  0  # atno 17342 bound_to 10162
  140.7812  143.4618  151.0267 LP  0  0  0  0  0  0  0  0  0  0  0  0  # atno 17343 bound_to 10162
  157.3629  130.7141  149.6514 LP  0  0  0  0  0  0  0  0  0  0  0  0  # atno 17370 bound_to 10713
  155.9687  130.4220  150.4497 LP  0  0  0  0  0  0  0  0  0  0  0  0  # atno 17371 bound_to 10713
  141.1998  133.6608  156.5861 LP  0  0  0  0  0  0  0  0  0  0  0  0  # atno 17394 bound_to 11000
  140.3680  134.7630  157.4579 LP  0  0  0  0  0  0  0  0  0  0  0  0  # atno 17395 bound_to 11000

$$$$
