AV-unprocessed.smi:2849|AV-procd|sdf|10959|dock6
  -GOLD-   2272015413D 1   1.00000     0.00000
 Structure written by MMmdl.
 55 58  0  0  0  0  0  0  0  0  2 V2000
  153.5524  131.6544  165.2061 C   0  0  0  0  0  0  0  0  0  0  0  0
  153.8686  132.7865  164.3031 N   0  3  2  0  0  0  0  0  0  0  0  0
  154.6882  132.4307  163.1190 C   0  0  2  0  0  0  0  0  0  0  0  0
  156.1402  132.0743  163.5264 C   0  0  0  0  0  0  0  0  0  0  0  0
  156.8226  133.1395  164.4051 C   0  0  0  0  0  0  0  0  0  0  0  0
  155.8778  133.7117  165.4795 C   0  0  0  0  0  0  0  0  0  0  0  0
  154.4362  133.9804  164.9758 C   0  0  1  0  0  0  0  0  0  0  0  0
  154.2937  135.1983  164.0336 C   0  0  0  0  0  0  0  0  0  0  0  0
  154.8703  134.9803  162.6143 C   0  0  2  0  0  0  0  0  0  0  0  0
  154.3206  135.9911  161.7128 N   0  0  0  0  0  0  0  0  0  0  0  0
  154.3800  137.3169  161.9076 C   0  0  0  0  0  0  0  0  0  0  0  0
  154.9259  137.8310  162.8829 O   0  0  0  0  0  0  0  0  0  0  0  0
  153.7681  137.9791  160.9103 N   0  0  0  0  0  0  0  0  0  0  0  0
  153.5654  139.3775  160.7434 C   0  0  0  0  0  0  0  0  0  0  0  0
  154.0057  140.3769  161.6435 C   0  0  0  0  0  0  0  0  0  0  0  0
  153.7338  141.7274  161.3512 C   0  0  0  0  0  0  0  0  0  0  0  0
  153.0355  142.0508  160.1640 C   0  0  0  0  0  0  0  0  0  0  0  0
  152.7320  143.3878  159.8405 N   0  0  0  0  0  0  0  0  0  0  0  0
  152.2643  144.3390  160.8363 C   0  0  0  0  0  0  0  0  0  0  0  0
  151.9933  145.6190  160.0475 C   0  0  0  0  0  0  0  0  0  0  0  0
  151.5509  145.0977  158.6796 C   0  0  0  0  0  0  0  0  0  0  0  0
  152.3422  143.7969  158.4987 C   0  0  0  0  0  0  0  0  0  0  0  0
  152.6196  141.0942  159.3013 N   0  0  0  0  0  0  0  0  0  0  0  0
  152.8821  139.8020  159.5860 C   0  0  0  0  0  0  0  0  0  0  0  0
  154.5690  133.5603  162.0694 C   0  0  0  0  0  0  0  0  0  0  0  0
  154.4420  131.2398  165.6791 H   0  0  0  0  0  0  0  0  0  0  0  0
  153.0600  130.8537  164.6537 H   0  0  0  0  0  0  0  0  0  0  0  0
  152.8714  131.9768  165.9941 H   0  0  0  0  0  0  0  0  0  0  0  0
  154.2508  131.5395  162.6664 H   0  0  0  0  0  0  0  0  0  0  0  0
  156.1308  131.1312  164.0732 H   0  0  0  0  0  0  0  0  0  0  0  0
  156.7443  131.8862  162.6383 H   0  0  0  0  0  0  0  0  0  0  0  0
  157.6989  132.7048  164.8869 H   0  0  0  0  0  0  0  0  0  0  0  0
  157.2235  133.9387  163.7875 H   0  0  0  0  0  0  0  0  0  0  0  0
  155.8335  133.0051  166.3087 H   0  0  0  0  0  0  0  0  0  0  0  0
  156.3056  134.6226  165.8994 H   0  0  0  0  0  0  0  0  0  0  0  0
  153.8213  134.1933  165.8517 H   0  0  0  0  0  0  0  0  0  0  0  0
  153.2285  135.4202  163.9463 H   0  0  0  0  0  0  0  0  0  0  0  0
  154.7427  136.0827  164.4878 H   0  0  0  0  0  0  0  0  0  0  0  0
  155.9461  135.1337  162.6536 H   0  0  0  0  0  0  0  0  0  0  0  0
  153.8504  135.6560  160.8847 H   0  0  0  0  0  0  0  0  0  0  0  0
  153.3523  137.4026  160.1932 H   0  0  0  0  0  0  0  0  0  0  0  0
  154.5469  140.1484  162.5473 H   0  0  0  0  0  0  0  0  0  0  0  0
  154.0584  142.4908  162.0424 H   0  0  0  0  0  0  0  0  0  0  0  0
  151.3469  143.9650  161.2928 H   0  0  0  0  0  0  0  0  0  0  0  0
  153.0032  144.4987  161.6223 H   0  0  0  0  0  0  0  0  0  0  0  0
  151.2507  146.2606  160.5227 H   0  0  0  0  0  0  0  0  0  0  0  0
  152.9166  146.1905  159.9422 H   0  0  0  0  0  0  0  0  0  0  0  0
  150.4833  144.8750  158.7046 H   0  0  0  0  0  0  0  0  0  0  0  0
  151.7240  145.8131  157.8752 H   0  0  0  0  0  0  0  0  0  0  0  0
  153.2422  143.9700  157.9079 H   0  0  0  0  0  0  0  0  0  0  0  0
  151.7395  143.0403  157.9952 H   0  0  0  0  0  0  0  0  0  0  0  0
  152.5283  139.0812  158.8632 H   0  0  0  0  0  0  0  0  0  0  0  0
  155.2060  133.3448  161.2108 H   0  0  0  0  0  0  0  0  0  0  0  0
  153.5466  133.5456  161.6877 H   0  0  0  0  0  0  0  0  0  0  0  0
  152.9734  133.0781  163.9375 H   0  0  0  0  0  0  0  0  0  0  0  0
  1  2  1  0  0  0  0
  1 26  1  0  0  0  0
  1 27  1  0  0  0  0
  1 28  1  0  0  0  0
  2  7  1  0  0  0  0
  2  3  1  0  0  0  0
  2 55  1  0  0  0  0
  3 25  1  0  0  0  0
  3  4  1  0  0  0  0
  3 29  1  0  0  0  0
  4  5  1  0  0  0  0
  4 30  1  0  0  0  0
  4 31  1  0  0  0  0
  5  6  1  0  0  0  0
  5 32  1  0  0  0  0
  5 33  1  0  0  0  0
  6  7  1  0  0  0  0
  6 34  1  0  0  0  0
  6 35  1  0  0  0  0
  7  8  1  0  0  0  0
  7 36  1  0  0  0  0
  8  9  1  0  0  0  0
  8 37  1  0  0  0  0
  8 38  1  0  0  0  0
  9 10  1  0  0  0  0
  9 25  1  0  0  0  0
  9 39  1  0  0  0  0
 10 11  1  0  0  0  0
 10 40  1  0  0  0  0
 11 12  2  0  0  0  0
 11 13  1  0  0  0  0
 13 14  1  0  0  0  0
 13 41  1  0  0  0  0
 14 24  1  0  0  0  0
 14 15  2  0  0  0  0
 15 16  1  0  0  0  0
 15 42  1  0  0  0  0
 16 17  2  0  0  0  0
 16 43  1  0  0  0  0
 17 18  1  0  0  0  0
 17 23  1  0  0  0  0
 18 22  1  0  0  0  0
 18 19  1  0  0  0  0
 19 20  1  0  0  0  0
 19 44  1  0  0  0  0
 19 45  1  0  0  0  0
 20 21  1  0  0  0  0
 20 46  1  0  0  0  0
 20 47  1  0  0  0  0
 21 22  1  0  0  0  0
 21 48  1  0  0  0  0
 21 49  1  0  0  0  0
 22 50  1  0  0  0  0
 22 51  1  0  0  0  0
 23 24  2  0  0  0  0
 24 52  1  0  0  0  0
 25 53  1  0  0  0  0
 25 54  1  0  0  0  0
M  CHG  1   2   1
M  END
> <s_m_source_file>
AV-unprocessed.smi

> <i_m_source_file_index>
2849

> <i_lp_mmshare_version>
43012

> <i_f3d_flags>
0

> <s_epik_input>
W0NIMl0xW0NIMl1bQ0gyXVtDQEhdKE4oW0NIM10pW0NIXTEyKVtDSDJdW0NASF0oW0NIMl0yKVtOSF1DKD1PKVtOSF1jM1tjSF1bY0hdYyhuW2NIXTMpTjRbQ0gyXVtDSDJdW0NIMl1bQ0gyXTQ=

> <s_epik_cmdline>
J2VwaWtfcHl0aG9uJywgJy1waCcsICc3LjAnLCAnLXRuJywgJzgnLCAnLW1hJywgJzIwMCcsICctbWV0YWxfYmluZGluZycsICctaW1hZScsICc8aW5maWxlLm1hZT4nLCAnLW9tYWUnLCAnPG91dGZpbGUubWFlPic=

> <r_lp_tautomer_probability>
1

> <r_epik_Ionization_Penalty>
0.07954

> <r_epik_Ionization_Penalty_Charging>
0.00089841

> <r_epik_Ionization_Penalty_Neutral>
0.0786416

> <r_epik_State_Penalty>
0.0689917

> <r_epik_Charging_Adjusted_Penalty>
0.0698901

> <i_epik_Tot_Q>
1

> <i_epik_Tot_abs_Q>
1

> <r_epik_Metal_State_Penalty>
0.060891

> <b_epik_Metal_Only>
0

> <s_lp_Force_Field>
OPLS_2005

> <r_lp_Energy>
61.678

> <b_lp_Chiralities_Consistent>
1

> <s_lp_Variant>
AV-unprocessed.smi:2849-3

> <Gold.Version>
5.8.1

> <Gold.Id.Protein>
6NUR|6NUR_protein|mol2

> <Gold.PLP.Fitness>
49.6668

> <Gold.PLP.PLP>
-50.3492

> <Gold.PLP.part.hbond>
0.0000

> <Gold.PLP.part.metal>
0.0000

> <Gold.PLP.part.buried>
-6.6541

> <Gold.PLP.part.nonpolar>
-43.9036

> <Gold.PLP.part.repulsive>
0.0924

> <Gold.PLP.ligand.clash>
0.0000

> <Gold.PLP.ligand.torsion>
0.4159

> <Gold.PLP.Chemscore.Hbond>
0.0000

> <Gold.PLP.Chemscore.CHOScore>
0.0000

> <Gold.PLP.Chemscore.Metal>
0.0000

> <Gold.PLP.Chemscore.Internal.Correction>
0.1494

> <Gold.Rescore>
     Score         DG    S(hbond)    S(metal)    S(lipo)     H(rot)  DE(clash)    DE(int)     intcor
     15.85     -18.69       0.00        0.00     134.81       1.00       0.20       2.65       ----

> <Gold.Chemscore.Fitness>
15.8462

> <Gold.Chemscore.DG>
-18.6926

> <Gold.Chemscore.ZeroCoef>
-5.4800

> <Gold.Chemscore.Hbond>
0.0000

> <Gold.Chemscore.Metal>
0.0000

> <Gold.Chemscore.Lipo>
134.8088

> <Gold.Chemscore.Internal_Hbond>
0.0000

> <Gold.Chemscore.DEClash>
0.1973

> <Gold.Chemscore.DEInternal>
2.6491

> <Gold.Chemscore.Rot>
1.0000

> <Gold.Chemscore.Internal.Correction>
   9.000000E+99

> <Gold.Chemscore.Hbond.Weighted>
-0.0000

> <Gold.Chemscore.Metal.Weighted>
-0.0000

> <Gold.Chemscore.Lipo.Weighted>
-15.7726

> <Gold.Chemscore.Internal_Hbond.Weighted>
0.0000

> <Gold.Chemscore.DEClash.Weighted>
0.1973

> <Gold.Chemscore.DEInternal.Weighted>
2.6491

> <Gold.Chemscore.Rot.Weighted>
2.5600

> <Gold.Chemscore.Internal.Correction.Weighted>
   9.000000E+99

> <Gold.Protein.RotatedTorsions>
[ 6907 6896 6895 6894 ] final  107.31 input  -60.11 | X-H torsion
[ 7974 7965 7964 7962 ] final  149.25 input  175.53 | X-H torsion
[ 8008 7997 7996 7995 ] final   27.63 input   59.86 | X-H torsion
[ 10167 10162 10161 10158 ] final -169.22 input  -65.29 | X-H torsion
[ 10718 10713 10712 10709 ] final -121.82 input   66.30 | X-H torsion
[ 10763 10752 10751 10750 ] final  169.74 input  -60.55 | X-H torsion
[ 11005 11000 10999 10996 ] final  101.64 input  -57.11 | X-H torsion

> <Gold.Protein.ActiveResidues>
 VAL166  LYS551  ARG553  GLY616  TRP617  ASP618  TYR619  PRO620  LYS621  CYS622 
 ASP623  PHE694  ASN695  SER759  ASP760  ASP761  ALA762  ILE779  LEU786  VAL792 
 PHE793  MET794  SER795  GLU796  ALA797  LYS798  CYS799  TRP800  GLU811  SER814 

> <Gold.Protein.RotatedAtoms>
  152.5159  133.9253  159.7553 H   0  0  0  0  0  0  0  0  0  0  0  0  # atno 6907 bound_to 6896
  150.9616  133.6431  159.2760 H   0  0  0  0  0  0  0  0  0  0  0  0  # atno 6908 bound_to 6896
  151.3674  135.0921  159.9507 H   0  0  0  0  0  0  0  0  0  0  0  0  # atno 6909 bound_to 6896
  144.8452  139.6257  143.5998 H   0  0  0  0  0  0  0  0  0  0  0  0  # atno 7974 bound_to 7965
  155.0460  140.3174  155.4708 H   0  0  0  0  0  0  0  0  0  0  0  0  # atno 8008 bound_to 7997
  156.2844  140.2154  156.5528 H   0  0  0  0  0  0  0  0  0  0  0  0  # atno 8009 bound_to 7997
  154.7250  140.0486  157.0662 H   0  0  0  0  0  0  0  0  0  0  0  0  # atno 8010 bound_to 7997
  139.5936  144.1160  152.1663 H   0  0  0  0  0  0  0  0  0  0  0  0  # atno 10167 bound_to 10162
  156.1368  130.6436  150.9709 H   0  0  0  0  0  0  0  0  0  0  0  0  # atno 10718 bound_to 10713
  154.3875  135.2754  155.2175 H   0  0  0  0  0  0  0  0  0  0  0  0  # atno 10763 bound_to 10752
  154.4255  135.5990  153.6040 H   0  0  0  0  0  0  0  0  0  0  0  0  # atno 10764 bound_to 10752
  152.9833  135.5983  154.4125 H   0  0  0  0  0  0  0  0  0  0  0  0  # atno 10765 bound_to 10752
  139.8774  134.9191  156.4937 H   0  0  0  0  0  0  0  0  0  0  0  0  # atno 11005 bound_to 11000
  146.2738  139.6701  142.9277 LP  0  0  0  0  0  0  0  0  0  0  0  0  # atno 17320 bound_to 7965
  145.4612  141.0433  143.2750 LP  0  0  0  0  0  0  0  0  0  0  0  0  # atno 17321 bound_to 7965
  140.0740  144.5756  150.7171 LP  0  0  0  0  0  0  0  0  0  0  0  0  # atno 17342 bound_to 10162
  140.7194  143.2574  151.4330 LP  0  0  0  0  0  0  0  0  0  0  0  0  # atno 17343 bound_to 10162
  157.6539  131.0892  150.7989 LP  0  0  0  0  0  0  0  0  0  0  0  0  # atno 17370 bound_to 10713
  156.8068  130.4939  149.5361 LP  0  0  0  0  0  0  0  0  0  0  0  0  # atno 17371 bound_to 10713
  140.8640  133.8038  155.9294 LP  0  0  0  0  0  0  0  0  0  0  0  0  # atno 17394 bound_to 11000
  140.9021  134.2366  157.5036 LP  0  0  0  0  0  0  0  0  0  0  0  0  # atno 17395 bound_to 11000

$$$$
