AV-unprocessed.smi:2177|AV-procd|sdf|8850|dock10
  -GOLD-   2272012 43D 1   1.00000     0.00000
 Structure written by MMmdl.
 42 43  0  0  0  0  0  0  0  0  1 V2000
  152.3959  139.0154  155.3297 C   0  0  0  0  0  0  0  0  0  0  0  0
  151.1082  139.7683  155.5045 C   0  0  0  0  0  0  0  0  0  0  0  0
  150.5180  140.3026  154.4482 N   0  0  0  0  0  0  0  0  0  0  0  0
  149.4168  140.9065  154.9379 N   0  0  0  0  0  0  0  0  0  0  0  0
  148.5305  141.6087  154.0300 C   0  0  0  0  0  0  0  0  0  0  0  0
  149.3057  140.7449  156.3053 C   0  0  0  0  0  0  0  0  0  0  0  0
  148.1706  141.3255  157.0863 C   0  0  0  0  0  0  0  0  0  0  0  0
  150.3894  140.0115  156.7113 C   0  0  0  0  0  0  0  0  0  0  0  0
  150.7655  139.5661  158.1028 C   0  0  0  0  0  0  0  0  0  0  0  0
  152.1284  140.1505  158.4725 C   0  0  0  0  0  0  0  0  0  0  0  0
  153.1563  139.6767  157.9894 O   0  0  0  0  0  0  0  0  0  0  0  0
  152.1149  141.1909  159.3191 N   0  0  0  0  0  0  0  0  0  0  0  0
  153.2731  141.9816  159.7202 C   0  0  2  0  0  0  0  0  0  0  0  0
  153.6988  141.5952  161.1466 C   0  0  0  0  0  0  0  0  0  0  0  0
  152.9118  143.4739  159.5989 C   0  0  1  0  0  0  0  0  0  0  0  0
  152.4063  143.9051  158.2217 C   0  0  0  0  0  0  0  0  0  0  0  0
  151.5507  145.1269  158.5203 C   0  0  0  0  0  0  0  0  0  0  0  0
  151.3236  145.0656  160.0333 C   0  0  0  0  0  0  0  0  0  0  0  0
  151.8033  143.7887  160.4281 O   0  0  0  0  0  0  0  0  0  0  0  0
  153.1564  139.3801  156.0204 H   0  0  0  0  0  0  0  0  0  0  0  0
  152.7920  139.1189  154.3190 H   0  0  0  0  0  0  0  0  0  0  0  0
  152.2540  137.9523  155.5239 H   0  0  0  0  0  0  0  0  0  0  0  0
  147.6437  141.0025  153.8451 H   0  0  0  0  0  0  0  0  0  0  0  0
  149.0311  141.8050  153.0808 H   0  0  0  0  0  0  0  0  0  0  0  0
  148.2286  142.5601  154.4684 H   0  0  0  0  0  0  0  0  0  0  0  0
  148.1342  140.9157  158.0954 H   0  0  0  0  0  0  0  0  0  0  0  0
  147.2156  141.1106  156.6068 H   0  0  0  0  0  0  0  0  0  0  0  0
  148.2741  142.4075  157.1682 H   0  0  0  0  0  0  0  0  0  0  0  0
  150.0271  139.8815  158.8407 H   0  0  0  0  0  0  0  0  0  0  0  0
  150.8136  138.4787  158.1723 H   0  0  0  0  0  0  0  0  0  0  0  0
  151.2176  141.5043  159.6594 H   0  0  0  0  0  0  0  0  0  0  0  0
  154.0999  141.7726  159.0388 H   0  0  0  0  0  0  0  0  0  0  0  0
  154.5843  142.1484  161.4596 H   0  0  0  0  0  0  0  0  0  0  0  0
  153.9413  140.5340  161.2117 H   0  0  0  0  0  0  0  0  0  0  0  0
  152.9061  141.8001  161.8671 H   0  0  0  0  0  0  0  0  0  0  0  0
  153.7584  144.0967  159.8956 H   0  0  0  0  0  0  0  0  0  0  0  0
  153.2165  144.1176  157.5236 H   0  0  0  0  0  0  0  0  0  0  0  0
  151.7834  143.1228  157.7858 H   0  0  0  0  0  0  0  0  0  0  0  0
  152.0618  146.0504  158.2465 H   0  0  0  0  0  0  0  0  0  0  0  0
  150.6106  145.0872  157.9693 H   0  0  0  0  0  0  0  0  0  0  0  0
  151.9037  145.8380  160.5403 H   0  0  0  0  0  0  0  0  0  0  0  0
  150.2758  145.1922  160.3060 H   0  0  0  0  0  0  0  0  0  0  0  0
  1  2  1  0  0  0  0
  1 20  1  0  0  0  0
  1 21  1  0  0  0  0
  1 22  1  0  0  0  0
  2  8  1  0  0  0  0
  2  3  2  0  0  0  0
  3  4  1  0  0  0  0
  4  5  1  0  0  0  0
  4  6  1  0  0  0  0
  5 23  1  0  0  0  0
  5 24  1  0  0  0  0
  5 25  1  0  0  0  0
  6  7  1  0  0  0  0
  6  8  2  0  0  0  0
  7 26  1  0  0  0  0
  7 27  1  0  0  0  0
  7 28  1  0  0  0  0
  8  9  1  0  0  0  0
  9 10  1  0  0  0  0
  9 29  1  0  0  0  0
  9 30  1  0  0  0  0
 10 11  2  0  0  0  0
 10 12  1  0  0  0  0
 12 13  1  0  0  0  0
 12 31  1  0  0  0  0
 13 14  1  0  0  0  0
 13 15  1  0  0  0  0
 13 32  1  0  0  0  0
 14 33  1  0  0  0  0
 14 34  1  0  0  0  0
 14 35  1  0  0  0  0
 15 19  1  0  0  0  0
 15 16  1  0  0  0  0
 15 36  1  0  0  0  0
 16 17  1  0  0  0  0
 16 37  1  0  0  0  0
 16 38  1  0  0  0  0
 17 18  1  0  0  0  0
 17 39  1  0  0  0  0
 17 40  1  0  0  0  0
 18 19  1  0  0  0  0
 18 41  1  0  0  0  0
 18 42  1  0  0  0  0
M  END
> <s_m_source_file>
AV-unprocessed.smi

> <i_m_source_file_index>
2177

> <i_lp_mmshare_version>
43012

> <i_f3d_flags>
0

> <s_epik_input>
W0NIM11jMW5uKFtDSDNdKWMoW0NIM10pYzFbQ0gyXUMoPU8pW05IXVtDQEhdKFtDSDNdKVtDQEBIXTJbQ0gyXVtDSDJdW0NIMl1PMg==

> <s_epik_cmdline>
J2VwaWtfcHl0aG9uJywgJy1waCcsICc3LjAnLCAnLXRuJywgJzgnLCAnLW1hJywgJzIwMCcsICctbWV0YWxfYmluZGluZycsICctaW1hZScsICc8aW5maWxlLm1hZT4nLCAnLW9tYWUnLCAnPG91dGZpbGUubWFlPic=

> <r_lp_tautomer_probability>
1

> <r_epik_Ionization_Penalty>
0.00310467

> <r_epik_Ionization_Penalty_Charging>
0

> <r_epik_Ionization_Penalty_Neutral>
0.00310467

> <r_epik_State_Penalty>
0.00218493

> <r_epik_Charging_Adjusted_Penalty>
0.00218493

> <i_epik_Tot_Q>
0

> <i_epik_Tot_abs_Q>
0

> <r_epik_Metal_State_Penalty>
-0

> <b_epik_Metal_Only>
0

> <s_lp_Force_Field>
OPLS_2005

> <r_lp_Energy>
12.0116

> <b_lp_Chiralities_Consistent>
1

> <s_lp_Variant>
AV-unprocessed.smi:2177-3

> <Gold.Version>
5.8.1

> <Gold.Id.Protein>
6NUR|6NUR_protein|mol2

> <Gold.PLP.Fitness>
50.2179

> <Gold.PLP.PLP>
-44.9446

> <Gold.PLP.part.hbond>
-2.0000

> <Gold.PLP.part.metal>
0.0000

> <Gold.PLP.part.buried>
-5.3894

> <Gold.PLP.part.nonpolar>
-38.1226

> <Gold.PLP.part.repulsive>
0.3306

> <Gold.PLP.ligand.clash>
0.0000

> <Gold.PLP.ligand.torsion>
0.3770

> <Gold.PLP.Chemscore.Hbond>
2.0000

> <Gold.PLP.Chemscore.CHOScore>
0.0000

> <Gold.PLP.Chemscore.Metal>
0.0000

> <Gold.Chemscore.Hbonds>
donor molecule, donor type, donor heavy atom, donor atom, acceptor molecule, acceptor atom, score
      P1  H  7989  7998       L1     3  1.00
      P1  H  7997  8010       L1    11  1.00

> <Gold.PLP.Chemscore.Internal.Correction>
0.0272

> <Gold.Rescore>
     Score         DG    S(hbond)    S(metal)    S(lipo)     H(rot)  DE(clash)    DE(int)     intcor
     19.16     -20.89       1.93        0.00     108.51       1.46       0.03       1.70       ----

> <Gold.Chemscore.Fitness>
19.1607

> <Gold.Chemscore.DG>
-20.8915

> <Gold.Chemscore.ZeroCoef>
-5.4800

> <Gold.Chemscore.Hbond>
1.9343

> <Gold.Chemscore.Metal>
0.0000

> <Gold.Chemscore.Lipo>
108.5067

> <Gold.Chemscore.Internal_Hbond>
0.0000

> <Gold.Chemscore.DEClash>
0.0299

> <Gold.Chemscore.DEInternal>
1.7009

> <Gold.Chemscore.Rot>
1.4627

> <Gold.Chemscore.Internal.Correction>
   9.000000E+99

> <Gold.Chemscore.Hbonds>
donor molecule, donor type, donor heavy atom, donor atom, acceptor molecule, acceptor atom, score
      P1  H  7989  7998       L1     3  0.67
      P1  H  7997  8010       L1    11  0.96

> <Gold.Chemscore.Hbond.Weighted>
-6.4607

> <Gold.Chemscore.Metal.Weighted>
-0.0000

> <Gold.Chemscore.Lipo.Weighted>
-12.6953

> <Gold.Chemscore.Internal_Hbond.Weighted>
0.0000

> <Gold.Chemscore.DEClash.Weighted>
0.0299

> <Gold.Chemscore.DEInternal.Weighted>
1.7009

> <Gold.Chemscore.Rot.Weighted>
3.7445

> <Gold.Chemscore.Internal.Correction.Weighted>
   9.000000E+99

> <Gold.Protein.RotatedTorsions>
[ 6907 6896 6895 6894 ] final   56.19 input  -60.11 | X-H torsion
[ 7974 7965 7964 7962 ] final -176.97 input  175.53 | X-H torsion
[ 8008 7997 7996 7995 ] final   55.36 input   59.86 | X-H torsion
[ 10167 10162 10161 10158 ] final  -62.42 input  -65.29 | X-H torsion
[ 10718 10713 10712 10709 ] final  123.57 input   66.30 | X-H torsion
[ 10763 10752 10751 10750 ] final  -24.49 input  -60.55 | X-H torsion
[ 11005 11000 10999 10996 ] final   95.44 input  -57.11 | X-H torsion

> <Gold.Protein.ActiveResidues>
 VAL166  LYS551  ARG553  GLY616  TRP617  ASP618  TYR619  PRO620  LYS621  CYS622 
 ASP623  PHE694  ASN695  SER759  ASP760  ASP761  ALA762  ILE779  LEU786  VAL792 
 PHE793  MET794  SER795  GLU796  ALA797  LYS798  CYS799  TRP800  GLU811  SER814 

> <Gold.Protein.RotatedAtoms>
  152.3612  134.6869  160.0206 H   0  0  0  0  0  0  0  0  0  0  0  0  # atno 6907 bound_to 6896
  151.7192  133.3308  159.3319 H   0  0  0  0  0  0  0  0  0  0  0  0  # atno 6908 bound_to 6896
  150.7606  134.6397  159.6275 H   0  0  0  0  0  0  0  0  0  0  0  0  # atno 6909 bound_to 6896
  144.7127  140.1091  143.6412 H   0  0  0  0  0  0  0  0  0  0  0  0  # atno 7974 bound_to 7965
  155.4998  140.3474  155.4369 H   0  0  0  0  0  0  0  0  0  0  0  0  # atno 8008 bound_to 7997
  156.0921  140.1413  156.9606 H   0  0  0  0  0  0  0  0  0  0  0  0  # atno 8009 bound_to 7997
  154.4641  140.0924  156.6950 H   0  0  0  0  0  0  0  0  0  0  0  0  # atno 8010 bound_to 7997
  140.5940  143.2347  151.6076 H   0  0  0  0  0  0  0  0  0  0  0  0  # atno 10167 bound_to 10162
  157.5654  131.1087  150.8464 H   0  0  0  0  0  0  0  0  0  0  0  0  # atno 10718 bound_to 10713
  153.6846  135.6965  153.5108 H   0  0  0  0  0  0  0  0  0  0  0  0  # atno 10763 bound_to 10752
  153.2459  135.4290  155.0746 H   0  0  0  0  0  0  0  0  0  0  0  0  # atno 10764 bound_to 10752
  154.8390  135.3519  154.6388 H   0  0  0  0  0  0  0  0  0  0  0  0  # atno 10765 bound_to 10752
  139.8789  134.8899  156.4011 H   0  0  0  0  0  0  0  0  0  0  0  0  # atno 11005 bound_to 11000
  145.9471  139.2708  143.1234 LP  0  0  0  0  0  0  0  0  0  0  0  0  # atno 17320 bound_to 7965
  145.9363  140.9012  143.0331 LP  0  0  0  0  0  0  0  0  0  0  0  0  # atno 17321 bound_to 7965
  139.5246  144.3099  152.1002 LP  0  0  0  0  0  0  0  0  0  0  0  0  # atno 17342 bound_to 10162
  140.2268  144.4410  150.6317 LP  0  0  0  0  0  0  0  0  0  0  0  0  # atno 17343 bound_to 10162
  156.8950  130.5226  149.5285 LP  0  0  0  0  0  0  0  0  0  0  0  0  # atno 17370 bound_to 10713
  156.0702  130.5737  150.9369 LP  0  0  0  0  0  0  0  0  0  0  0  0  # atno 17371 bound_to 10713
  140.9266  133.7608  155.9972 LP  0  0  0  0  0  0  0  0  0  0  0  0  # atno 17394 bound_to 11000
  140.8379  134.3101  157.5324 LP  0  0  0  0  0  0  0  0  0  0  0  0  # atno 17395 bound_to 11000

$$$$
