#       Name:                AV-unprocessed.smi:1629
#       Creating user name   scv26
#       Creation time:       Fri Mar 27 07:20:09 2020


#       File generated by GOLD software.
#

@<TRIPOS>MOLECULE
AV-unprocessed.smi:1629
    47    48     1
SMALL
NO_CHARGES


@<TRIPOS>ATOM
      1 ****        -6.6675   0.1746   0.2919 C.3            1 S1                 0.0000
      2 ****        -5.6134   0.6042  -1.1495 S.o2           1 S1                 0.0000
      3 ****        -5.4188  -0.6522  -1.8910 O.2            1 S1                 0.0000
      4 ****        -6.3134   1.6951  -1.8467 O.2            1 S1                 0.0000
      5 ****        -4.2678   1.1057  -0.3960 N.pl3          1 S1                -1.0000
      6 ****        -3.1294   1.5659  -1.1779 C.3            1 S1                 0.0000
      7 ****        -2.2445   0.3715  -1.6281 C.3            1 S1                 0.0000
      8 ****        -0.8888   0.8106  -2.2476 C.3            1 S1                 0.0000
      9 ****        -0.1320   1.6617  -1.3031 N.am           1 S1                 0.0000
     10 ****         1.0001   1.3304  -0.6338 C.2            1 S1                 0.0000
     11 ****         1.5234   2.0570   0.2124 O.2            1 S1                 0.0000
     12 ****         1.5166   0.1341  -0.9624 N.am           1 S1                 0.0000
     13 ****         2.7057  -0.4623  -0.3659 C.3            1 S1                 0.0000
     14 ****         2.4041  -1.0607   1.0186 C.3            1 S1                 0.0000
     15 ****         3.6232  -1.7142   1.6387 C.ar           1 S1                 0.0000
     16 ****         4.4300  -1.0502   2.5882 C.ar           1 S1                 0.0000
     17 ****         5.5554  -1.7136   3.1204 C.ar           1 S1                 0.0000
     18 ****         5.8505  -3.0244   2.6918 C.ar           1 S1                 0.0000
     19 ****         5.0120  -3.6393   1.7397 C.ar           1 S1                 0.0000
     20 ****         3.9431  -2.9707   1.2532 N.pl3          1 S1                 1.0000
     21 ****        -0.9006   2.8855  -1.0089 C.3            1 S1                 0.0000
     22 ****        -2.2567   2.5332  -0.3352 C.3            1 S1                 0.0000
     23 ****        -7.6356  -0.1782  -0.0622 H              1 S1                 0.0000
     24 ****        -6.8082   1.0573   0.9148 H              1 S1                 0.0000
     25 ****        -6.1853  -0.6101   0.8739 H              1 S1                 0.0000
     26 ****        -3.4466   2.1076  -2.0699 H              1 S1                 0.0000
     27 ****        -2.0418  -0.2767  -0.7739 H              1 S1                 0.0000
     28 ****        -2.7868  -0.2397  -2.3499 H              1 S1                 0.0000
     29 ****        -0.3414  -0.0765  -2.5649 H              1 S1                 0.0000
     30 ****        -1.0543   1.3731  -3.1692 H              1 S1                 0.0000
     31 ****         1.0371  -0.4060  -1.6681 H              1 S1                 0.0000
     32 ****         3.0653  -1.2405  -1.0396 H              1 S1                 0.0000
     33 ****         3.5011   0.2819  -0.2972 H              1 S1                 0.0000
     34 ****         2.0382  -0.2871   1.6950 H              1 S1                 0.0000
     35 ****         1.6065  -1.8012   0.9408 H              1 S1                 0.0000
     36 ****         4.1919  -0.0448   2.9046 H              1 S1                 0.0000
     37 ****         6.1847  -1.2226   3.8482 H              1 S1                 0.0000
     38 ****         6.7075  -3.5498   3.0874 H              1 S1                 0.0000
     39 ****         5.1628  -4.6376   1.3553 H              1 S1                 0.0000
     40 ****        -0.3498   3.5706  -0.3634 H              1 S1                 0.0000
     41 ****        -1.0604   3.4389  -1.9369 H              1 S1                 0.0000
     42 ****        -2.8135   3.4496  -0.1357 H              1 S1                 0.0000
     43 ****        -2.0504   2.0863   0.6388 H              1 S1                 0.0000
     44 ****         3.3496  -3.4348   0.5652 H              1 S1                 0.0000
     45 ****        -4.2203   1.0988   0.6028 LP             1 S1                 0.0000
     46 ****         1.1124   2.9409   0.4354 LP             1 S1                 0.0000
     47 ****         2.3590   1.7628   0.6761 LP             1 S1                 0.0000
@<TRIPOS>BOND
    1    1    2 1     
    2    1   23 1     
    3    1   24 1     
    4    1   25 1     
    5    2    3 2     
    6    2    4 2     
    7    2    5 1     
    8    5    6 1     
    9    6   22 1     
   10    6    7 1     
   11    6   26 1     
   12    7    8 1     
   13    7   27 1     
   14    7   28 1     
   15    8    9 1     
   16    8   29 1     
   17    8   30 1     
   18    9   10 am    
   19    9   21 1     
   20   10   11 2     
   21   10   12 am    
   22   12   13 1     
   23   12   31 1     
   24   13   14 1     
   25   13   32 1     
   26   13   33 1     
   27   14   15 1     
   28   14   34 1     
   29   14   35 1     
   30   15   20 ar    
   31   15   16 ar    
   32   16   17 ar    
   33   16   36 1     
   34   17   18 ar    
   35   17   37 1     
   36   18   19 ar    
   37   18   38 1     
   38   19   20 ar    
   39   19   39 1     
   40   20   44 1     
   41   21   22 1     
   42   21   40 1     
   43   21   41 1     
   44   22   42 1     
   45   22   43 1     
   46    5   45 1     
   47   11   46 1     
   48   11   47 1     
@<TRIPOS>SUBSTRUCTURE
      1 S1             1
@<TRIPOS>SET
LONE_PAIRS      STATIC     ATOMS    <user>   **** ""
5 3 4 45 46 47
DONOR_HYDROGENS      STATIC     ATOMS    <user>   **** ""
2 31 44
ATOM$BLUE        STATIC     ATOMS    COLORGROUP SYSTEM
5 3 4 45 46 47
ATOM$RED        STATIC     ATOMS    COLORGROUP SYSTEM
2 31 44
