AV-unprocessed.smi:721|AV-procd|sdf|3503|dock2
  -GOLD-   22720 0493D 1   1.00000     0.00000
 Structure written by MMmdl.
 29 30  0  0  0  0  0  0  0  0  1 V2000
  146.4545  138.4072  151.9272 Cl  0  0  0  0  0  0  0  0  0  0  0  0
  147.1847  139.4442  153.0968 C   0  0  0  0  0  0  0  0  0  0  0  0
  146.6660  140.7231  153.3809 C   0  0  0  0  0  0  0  0  0  0  0  0
  147.2412  141.5322  154.2977 N   0  0  0  0  0  0  0  0  0  0  0  0
  148.3249  141.0668  154.9254 C   0  0  0  0  0  0  0  0  0  0  0  0
  148.8827  141.9235  155.8571 N   0  0  0  0  0  0  0  0  0  0  0  0
  149.4851  141.5081  157.1168 C   0  0  0  0  0  0  0  0  0  0  0  0
  150.9705  141.8831  157.2047 C   0  0  0  0  0  0  0  0  0  0  0  0
  151.1082  143.0476  158.0015 O   0  0  0  0  0  0  0  0  0  0  0  0
  152.4612  143.3570  158.2853 C   0  0  0  0  0  0  0  0  0  0  0  0
  152.5059  144.4362  159.3453 C   0  0  0  0  0  0  0  0  0  0  0  0
  151.7103  144.2897  160.6220 C   0  0  0  0  0  0  0  0  0  0  0  0
  151.3030  145.3168  159.5961 C   0  0  0  0  0  0  0  0  0  0  0  0
  148.9003  139.8731  154.7319 N   0  0  0  0  0  0  0  0  0  0  0  0
  148.3315  139.0569  153.8178 C   0  0  0  0  0  0  0  0  0  0  0  0
  145.7900  141.0994  152.8736 H   0  0  0  0  0  0  0  0  0  0  0  0
  148.7634  142.9135  155.6972 H   0  0  0  0  0  0  0  0  0  0  0  0
  148.9373  141.9620  157.9431 H   0  0  0  0  0  0  0  0  0  0  0  0
  149.3657  140.4298  157.2252 H   0  0  0  0  0  0  0  0  0  0  0  0
  151.5597  141.0612  157.6141 H   0  0  0  0  0  0  0  0  0  0  0  0
  151.3497  142.0859  156.2021 H   0  0  0  0  0  0  0  0  0  0  0  0
  152.9860  142.4746  158.6545 H   0  0  0  0  0  0  0  0  0  0  0  0
  152.9725  143.7016  157.3847 H   0  0  0  0  0  0  0  0  0  0  0  0
  153.4772  144.9183  159.4405 H   0  0  0  0  0  0  0  0  0  0  0  0
  151.0822  143.4073  160.7279 H   0  0  0  0  0  0  0  0  0  0  0  0
  152.1682  144.6488  161.5413 H   0  0  0  0  0  0  0  0  0  0  0  0
  151.4873  146.3631  159.8313 H   0  0  0  0  0  0  0  0  0  0  0  0
  150.3996  145.1195  159.0220 H   0  0  0  0  0  0  0  0  0  0  0  0
  148.7945  138.0935  153.6629 H   0  0  0  0  0  0  0  0  0  0  0  0
  1  2  1  0  0  0  0
  2 15  1  0  0  0  0
  2  3  2  0  0  0  0
  3  4  1  0  0  0  0
  3 16  1  0  0  0  0
  4  5  2  0  0  0  0
  5  6  1  0  0  0  0
  5 14  1  0  0  0  0
  6  7  1  0  0  0  0
  6 17  1  0  0  0  0
  7  8  1  0  0  0  0
  7 18  1  0  0  0  0
  7 19  1  0  0  0  0
  8  9  1  0  0  0  0
  8 20  1  0  0  0  0
  8 21  1  0  0  0  0
  9 10  1  0  0  0  0
 10 11  1  0  0  0  0
 10 22  1  0  0  0  0
 10 23  1  0  0  0  0
 11 13  1  0  0  0  0
 11 12  1  0  0  0  0
 11 24  1  0  0  0  0
 12 13  1  0  0  0  0
 12 25  1  0  0  0  0
 12 26  1  0  0  0  0
 13 27  1  0  0  0  0
 13 28  1  0  0  0  0
 14 15  2  0  0  0  0
 15 29  1  0  0  0  0
M  END
> <s_m_source_file>
AV-unprocessed.smi

> <i_m_source_file_index>
721

> <i_lp_mmshare_version>
43012

> <i_f3d_flags>
0

> <s_epik_input>
Q2xjMVtjSF1uYyhuW2NIXTEpW05IXVtDSDJdW0NIMl1PW0NIMl1bQ0hdMltDSDJdW0NIMl0y

> <s_epik_cmdline>
J2VwaWtfcHl0aG9uJywgJy1waCcsICc3LjAnLCAnLXRuJywgJzgnLCAnLW1hJywgJzIwMCcsICctbWV0YWxfYmluZGluZycsICctaW1hZScsICc8aW5maWxlLm1hZT4nLCAnLW9tYWUnLCAnPG91dGZpbGUubWFlPic=

> <r_lp_tautomer_probability>
1

> <r_epik_Ionization_Penalty>
7.18353e-06

> <r_epik_Ionization_Penalty_Charging>
0

> <r_epik_Ionization_Penalty_Neutral>
7.18353e-06

> <r_epik_State_Penalty>
-0

> <r_epik_Charging_Adjusted_Penalty>
0

> <i_epik_Tot_Q>
0

> <i_epik_Tot_abs_Q>
0

> <r_epik_Metal_State_Penalty>
-0

> <b_epik_Metal_Only>
0

> <s_lp_Force_Field>
OPLS_2005

> <r_lp_Energy>
6.1156

> <b_lp_Chiralities_Consistent>
1

> <s_lp_Variant>
AV-unprocessed.smi:721-1

> <Gold.Version>
5.8.1

> <Gold.Id.Protein>
6NUR|6NUR_protein|mol2

> <Gold.PLP.Fitness>
38.0463

> <Gold.PLP.PLP>
-30.8258

> <Gold.PLP.part.hbond>
-1.0000

> <Gold.PLP.part.metal>
0.0000

> <Gold.PLP.part.buried>
-2.2088

> <Gold.PLP.part.nonpolar>
-28.7442

> <Gold.PLP.part.repulsive>
0.4375

> <Gold.PLP.ligand.clash>
0.0000

> <Gold.PLP.ligand.torsion>
0.9036

> <Gold.PLP.Chemscore.Hbond>
1.0000

> <Gold.PLP.Chemscore.CHOScore>
1.7952

> <Gold.PLP.Chemscore.Metal>
0.0000

> <Gold.Chemscore.Hbonds>
donor molecule, donor type, donor heavy atom, donor atom, acceptor molecule, acceptor atom, score
      L1  H     6    17       P1  8028  1.00
      L1  C     3    16       P1 10175  0.88
      L1  C    15    29       P1  7948  0.88

> <Gold.PLP.Chemscore.Internal.Correction>
0.6421

> <Gold.Rescore>
     Score         DG    S(hbond)    S(metal)    S(lipo)     H(rot)  DE(clash)    DE(int)     intcor
     14.15     -14.92       1.00        0.00      90.99       1.77       0.02       0.75       ----

> <Gold.Chemscore.Fitness>
14.1497

> <Gold.Chemscore.DG>
-14.9215

> <Gold.Chemscore.ZeroCoef>
-5.4800

> <Gold.Chemscore.Hbond>
0.9978

> <Gold.Chemscore.Metal>
0.0000

> <Gold.Chemscore.Lipo>
90.9876

> <Gold.Chemscore.Internal_Hbond>
0.0000

> <Gold.Chemscore.DEClash>
0.0217

> <Gold.Chemscore.DEInternal>
0.7502

> <Gold.Chemscore.Rot>
1.7722

> <Gold.Chemscore.Internal.Correction>
   9.000000E+99

> <Gold.Chemscore.Hbonds>
donor molecule, donor type, donor heavy atom, donor atom, acceptor molecule, acceptor atom, score
      L1  H     6    17       P1  8028  1.00

> <Gold.Chemscore.Hbond.Weighted>
-3.3327

> <Gold.Chemscore.Metal.Weighted>
-0.0000

> <Gold.Chemscore.Lipo.Weighted>
-10.6455

> <Gold.Chemscore.Internal_Hbond.Weighted>
0.0000

> <Gold.Chemscore.DEClash.Weighted>
0.0217

> <Gold.Chemscore.DEInternal.Weighted>
0.7502

> <Gold.Chemscore.Rot.Weighted>
4.5367

> <Gold.Chemscore.Internal.Correction.Weighted>
   9.000000E+99

> <Gold.Protein.RotatedTorsions>
[ 6907 6896 6895 6894 ] final -178.04 input  -60.11 | X-H torsion
[ 7974 7965 7964 7962 ] final   73.58 input  175.53 | X-H torsion
[ 8008 7997 7996 7995 ] final -160.38 input   59.86 | X-H torsion
[ 10167 10162 10161 10158 ] final   -4.98 input  -65.29 | X-H torsion
[ 10718 10713 10712 10709 ] final -149.80 input   66.30 | X-H torsion
[ 10763 10752 10751 10750 ] final   59.19 input  -60.55 | X-H torsion
[ 11005 11000 10999 10996 ] final   33.93 input  -57.11 | X-H torsion

> <Gold.Protein.ActiveResidues>
 VAL166  LYS551  ARG553  GLY616  TRP617  ASP618  TYR619  PRO620  LYS621  CYS622 
 ASP623  PHE694  ASN695  SER759  ASP760  ASP761  ALA762  ILE779  LEU786  VAL792 
 PHE793  MET794  SER795  GLU796  ALA797  LYS798  CYS799  TRP800  GLU811  SER814 

> <Gold.Protein.RotatedAtoms>
  151.6307  133.3332  159.3108 H   0  0  0  0  0  0  0  0  0  0  0  0  # atno 6907 bound_to 6896
  150.8058  134.7185  159.6654 H   0  0  0  0  0  0  0  0  0  0  0  0  # atno 6908 bound_to 6896
  152.4153  134.6057  160.0063 H   0  0  0  0  0  0  0  0  0  0  0  0  # atno 6909 bound_to 6896
  145.7390  139.2713  143.1497 H   0  0  0  0  0  0  0  0  0  0  0  0  # atno 7974 bound_to 7965
  155.7766  140.0859  157.2080 H   0  0  0  0  0  0  0  0  0  0  0  0  # atno 8008 bound_to 7997
  154.3992  140.1515  156.3061 H   0  0  0  0  0  0  0  0  0  0  0  0  # atno 8009 bound_to 7997
  155.8694  140.3426  155.5814 H   0  0  0  0  0  0  0  0  0  0  0  0  # atno 8010 bound_to 7997
  140.6947  143.6361  150.8478 H   0  0  0  0  0  0  0  0  0  0  0  0  # atno 10167 bound_to 10162
  156.4379  130.8107  151.2336 H   0  0  0  0  0  0  0  0  0  0  0  0  # atno 10718 bound_to 10713
  152.9888  135.5580  154.5673 H   0  0  0  0  0  0  0  0  0  0  0  0  # atno 10763 bound_to 10752
  154.5080  135.2801  155.1368 H   0  0  0  0  0  0  0  0  0  0  0  0  # atno 10764 bound_to 10752
  154.2771  135.6352  153.5385 H   0  0  0  0  0  0  0  0  0  0  0  0  # atno 10765 bound_to 10752
  140.2580  134.3225  155.7867 H   0  0  0  0  0  0  0  0  0  0  0  0  # atno 11005 bound_to 11000
  146.0466  140.8112  142.9802 LP  0  0  0  0  0  0  0  0  0  0  0  0  # atno 17320 bound_to 7965
  144.6875  140.2989  143.7266 LP  0  0  0  0  0  0  0  0  0  0  0  0  # atno 17321 bound_to 7965
  140.0078  143.5675  152.2851 LP  0  0  0  0  0  0  0  0  0  0  0  0  # atno 17342 bound_to 10162
  139.6388  144.7652  151.2382 LP  0  0  0  0  0  0  0  0  0  0  0  0  # atno 17343 bound_to 10162
  157.7507  131.0177  150.3598 LP  0  0  0  0  0  0  0  0  0  0  0  0  # atno 17370 bound_to 10713
  156.3949  130.3905  149.7002 LP  0  0  0  0  0  0  0  0  0  0  0  0  # atno 17371 bound_to 10713
  141.2194  133.7392  156.9142 LP  0  0  0  0  0  0  0  0  0  0  0  0  # atno 17394 bound_to 11000
  140.1492  134.9241  157.2570 LP  0  0  0  0  0  0  0  0  0  0  0  0  # atno 17395 bound_to 11000

$$$$
