#       Name:                AV-unprocessed.smi:2721
#       Creating user name   scv26
#       Creation time:       Fri Mar 27 14:54:42 2020


#       File generated by GOLD software.
#

@<TRIPOS>MOLECULE
AV-unprocessed.smi:2721
    32    33     1
SMALL
NO_CHARGES


@<TRIPOS>ATOM
      1 ****        -3.9689   0.0974  -0.3412 C.3            1 S1                 0.0000
      2 ****        -2.6719  -0.5418  -0.4009 N.pl3          1 S1                 0.0000
      3 ****        -1.4234   0.0385  -0.3580 C.2            1 S1                 0.0000
      4 ****        -0.4939  -0.9635  -0.4443 C.2            1 S1                 0.0000
      5 ****         1.0227  -0.9219  -0.4274 C.3            1 S1                 0.0000
      6 ****         1.5839  -0.3089  -1.5909 O.3            1 S1                 0.0000
      7 ****         1.4748   1.1114  -1.6691 C.3            1 S1                 0.0000
      8 ****         2.1464   1.7731  -0.4563 C.3            1 S1                 0.0000
      9 ****         1.5636   1.2308   0.8523 C.3            1 S1                 0.0000
     10 ****         1.6411  -0.3027   0.8518 C.3            1 S1                 0.0000
     11 ****         1.0605  -0.8765   2.0803 N.4            1 S1                 1.0000
     12 ****        -1.2991  -2.1359  -0.5371 C.2            1 S1                 0.0000
     13 ****        -2.5963  -1.8824  -0.5080 N.2            1 S1                 0.0000
     14 ****         1.3794  -1.9520  -0.4691 H              1 S1                 0.0000
     15 ****         2.6995  -0.5670   0.8612 H              1 S1                 0.0000
     16 ****        -3.8516   1.1812  -0.3184 H              1 S1                 0.0000
     17 ****        -4.4956  -0.2216   0.5586 H              1 S1                 0.0000
     18 ****        -4.5575  -0.1766  -1.2175 H              1 S1                 0.0000
     19 ****        -1.3108   1.1085  -0.2694 H              1 S1                 0.0000
     20 ****         1.9634   1.4423  -2.5856 H              1 S1                 0.0000
     21 ****         0.4334   1.4169  -1.7543 H              1 S1                 0.0000
     22 ****         3.2192   1.5775  -0.4860 H              1 S1                 0.0000
     23 ****         2.0259   2.8559  -0.5026 H              1 S1                 0.0000
     24 ****         2.1175   1.6380   1.6990 H              1 S1                 0.0000
     25 ****         0.5346   1.5680   0.9708 H              1 S1                 0.0000
     26 ****         0.0721  -0.6706   2.1138 H              1 S1                 0.0000
     27 ****         1.5160  -0.4772   2.8885 H              1 S1                 0.0000
     28 ****        -0.9773  -3.1637  -0.6190 H              1 S1                 0.0000
     29 ****         1.1934  -1.8777   2.0800 H              1 S1                 0.0000
     30 ****         1.1243  -0.6947  -2.3909 LP             1 S1                 0.0000
     31 ****         2.5558  -0.5423  -1.6201 LP             1 S1                 0.0000
     32 ****        -3.3505  -2.5374  -0.5549 LP             1 S1                 0.0000
@<TRIPOS>BOND
    1    1    2 1     
    2    1   16 1     
    3    1   17 1     
    4    1   18 1     
    5    2   13 1     
    6    2    3 1     
    7    3    4 2     
    8    3   19 1     
    9    4    5 1     
   10    4   12 1     
   11    5   14 1     
   12    5   10 1     
   13    5    6 1     
   14    6    7 1     
   15    7    8 1     
   16    7   20 1     
   17    7   21 1     
   18    8    9 1     
   19    8   22 1     
   20    8   23 1     
   21    9   10 1     
   22    9   24 1     
   23    9   25 1     
   24   10   15 1     
   25   10   11 1     
   26   11   26 1     
   27   11   27 1     
   28   11   29 1     
   29   12   13 2     
   30   12   28 1     
   31    6   30 1     
   32    6   31 1     
   33   13   32 1     
@<TRIPOS>SUBSTRUCTURE
      1 S1             1
@<TRIPOS>SET
LONE_PAIRS      STATIC     ATOMS    <user>   **** ""
3 30 31 32
DONOR_HYDROGENS      STATIC     ATOMS    <user>   **** ""
3 26 27 29
ATOM$BLUE        STATIC     ATOMS    COLORGROUP SYSTEM
3 30 31 32
ATOM$RED        STATIC     ATOMS    COLORGROUP SYSTEM
3 26 27 29
