AV-unprocessed.smi:561|AV-procd|sdf|2942|dock6
  -GOLD-   2262023443D 1   1.00000     0.00000
 Structure written by MMmdl.
 35 36  0  0  0  0  0  0  0  0  2 V2000
  149.9347  136.6200  156.6872 C   0  0  0  0  0  0  0  0  0  0  0  0
  149.4471  137.1045  158.0596 C   0  0  2  0  0  0  0  0  0  0  0  0
  150.4724  138.0693  158.7094 C   0  0  0  0  0  0  0  0  0  0  0  0
  150.4290  139.4322  158.1898 N   0  0  0  0  0  0  0  0  0  0  0  0
  151.3018  140.4729  158.4909 C   0  0  0  0  0  0  0  0  0  0  0  0
  150.8838  141.5640  157.7639 C   0  0  0  0  0  0  0  0  0  0  0  0
  149.7722  141.2202  156.9988 N   0  0  0  0  0  0  0  0  0  0  0  0
  149.5630  139.9451  157.3011 C   0  0  0  0  0  0  0  0  0  0  0  0
  149.2370  135.9350  158.9215 N   0  5  0  0  0  0  0  0  0  0  0  0
  148.6961  135.9626  160.1780 C   0  0  0  0  0  0  0  0  0  0  0  0
  148.4069  136.9765  160.8250 O   0  0  0  0  0  0  0  0  0  0  0  0
  148.4343  134.6690  160.8759 C   0  0  0  0  0  0  0  0  0  0  0  0
  148.5796  133.5522  160.2330 N   0  0  0  0  0  0  0  0  0  0  0  0
  148.3829  132.3254  160.8318 N   0  0  0  0  0  0  0  0  0  0  0  0
  148.8459  131.1813  160.0492 C   0  0  0  0  0  0  0  0  0  0  0  0
  147.7906  132.1415  162.0373 C   0  0  0  0  0  0  0  0  0  0  0  0
  147.6460  131.0401  162.5683 O   0  0  0  0  0  0  0  0  0  0  0  0
  147.2554  133.3956  162.7324 C   0  0  0  0  0  0  0  0  0  0  0  0
  148.0433  134.6619  162.3434 C   0  0  0  0  0  0  0  0  0  0  0  0
  150.0831  137.4594  156.0073 H   0  0  0  0  0  0  0  0  0  0  0  0
  149.2088  135.9497  156.2255 H   0  0  0  0  0  0  0  0  0  0  0  0
  150.8816  136.0846  156.7651 H   0  0  0  0  0  0  0  0  0  0  0  0
  148.5231  137.6594  157.8900 H   0  0  0  0  0  0  0  0  0  0  0  0
  150.3281  138.1066  159.7902 H   0  0  0  0  0  0  0  0  0  0  0  0
  151.4825  137.6898  158.5506 H   0  0  0  0  0  0  0  0  0  0  0  0
  152.1176  140.3526  159.1884 H   0  0  0  0  0  0  0  0  0  0  0  0
  151.2974  142.5609  157.7299 H   0  0  0  0  0  0  0  0  0  0  0  0
  148.7587  139.3687  156.8679 H   0  0  0  0  0  0  0  0  0  0  0  0
  148.0213  130.4979  159.8422 H   0  0  0  0  0  0  0  0  0  0  0  0
  149.6172  130.6328  160.5915 H   0  0  0  0  0  0  0  0  0  0  0  0
  149.2693  131.4855  159.0904 H   0  0  0  0  0  0  0  0  0  0  0  0
  146.2111  133.5103  162.4396 H   0  0  0  0  0  0  0  0  0  0  0  0
  147.2657  133.2596  163.8143 H   0  0  0  0  0  0  0  0  0  0  0  0
  148.9430  134.7442  162.9541 H   0  0  0  0  0  0  0  0  0  0  0  0
  147.4271  135.5287  162.5837 H   0  0  0  0  0  0  0  0  0  0  0  0
  1  2  1  0  0  0  0
  1 20  1  0  0  0  0
  1 21  1  0  0  0  0
  1 22  1  0  0  0  0
  2  3  1  0  0  0  0
  2  9  1  0  0  0  0
  2 23  1  0  0  0  0
  3  4  1  0  0  0  0
  3 24  1  0  0  0  0
  3 25  1  0  0  0  0
  4  8  1  0  0  0  0
  4  5  1  0  0  0  0
  5  6  2  0  0  0  0
  5 26  1  0  0  0  0
  6  7  1  0  0  0  0
  6 27  1  0  0  0  0
  7  8  2  0  0  0  0
  8 28  1  0  0  0  0
  9 10  1  0  0  0  0
 10 11  2  0  0  0  0
 10 12  1  0  0  0  0
 12 19  1  0  0  0  0
 12 13  2  0  0  0  0
 13 14  1  0  0  0  0
 14 15  1  0  0  0  0
 14 16  1  0  0  0  0
 15 29  1  0  0  0  0
 15 30  1  0  0  0  0
 15 31  1  0  0  0  0
 16 17  2  0  0  0  0
 16 18  1  0  0  0  0
 18 19  1  0  0  0  0
 18 32  1  0  0  0  0
 18 33  1  0  0  0  0
 19 34  1  0  0  0  0
 19 35  1  0  0  0  0
M  CHG  1   9  -1
M  END
> <s_m_source_file>
AV-unprocessed.smi

> <i_m_source_file_index>
561

> <i_lp_mmshare_version>
43012

> <i_f3d_flags>
0

> <s_epik_input>
W2NIXTFuW2NIXVtjSF1uMVtDSDJdW0NAQEhdKFtDSDNdKVtOSF1DKD1PKUMyPU5OKFtDSDNdKUMoPU8pW0NIMl1bQ0gyXTI=

> <s_epik_cmdline>
J2VwaWtfcHl0aG9uJywgJy1waCcsICc3LjAnLCAnLXRuJywgJzgnLCAnLW1hJywgJzIwMCcsICctbWV0YWxfYmluZGluZycsICctaW1hZScsICc8aW5maWxlLm1hZT4nLCAnLW9tYWUnLCAnPG91dGZpbGUubWFlPic=

> <r_lp_tautomer_probability>
1

> <r_epik_Ionization_Penalty>
6.06239

> <r_epik_Ionization_Penalty_Charging>
6.06239

> <r_epik_Ionization_Penalty_Neutral>
3.91387e-09

> <r_epik_State_Penalty>
5.76729

> <r_epik_Charging_Adjusted_Penalty>
11.8297

> <i_epik_Tot_Q>
-1

> <i_epik_Tot_abs_Q>
1

> <r_epik_Metal_State_Penalty>
2.02369

> <b_epik_Metal_Only>
1

> <s_epik_Chemistry_Notes>
This compound has an imine and may undergo hydrolysis.

> <s_lp_Force_Field>
OPLS_2005

> <r_lp_Energy>
24.7282

> <b_lp_Chiralities_Consistent>
1

> <s_lp_Variant>
AV-unprocessed.smi:561-7

> <Gold.Version>
5.8.1

> <Gold.Id.Protein>
6NUR|6NUR_protein|mol2

> <Gold.PLP.Fitness>
36.7789

> <Gold.PLP.PLP>
-27.7129

> <Gold.PLP.part.hbond>
-2.9520

> <Gold.PLP.part.metal>
0.0000

> <Gold.PLP.part.buried>
-3.7178

> <Gold.PLP.part.nonpolar>
-20.9075

> <Gold.PLP.part.repulsive>
0.0725

> <Gold.PLP.ligand.clash>
0.0000

> <Gold.PLP.ligand.torsion>
0.2681

> <Gold.PLP.Chemscore.Hbond>
3.1916

> <Gold.PLP.Chemscore.CHOScore>
0.0000

> <Gold.PLP.Chemscore.Metal>
0.0000

> <Gold.Chemscore.Hbonds>
donor molecule, donor type, donor heavy atom, donor atom, acceptor molecule, acceptor atom, score
      P1  H  6896  6909       L1     9  0.89
      P1  H  6931  6943       L1    11  0.98
      P1  H  6934  6947       L1    11  0.08

> <Gold.PLP.Chemscore.Internal.Correction>
0.0274

> <Gold.Rescore>
     Score         DG    S(hbond)    S(metal)    S(lipo)     H(rot)  DE(clash)    DE(int)     intcor
     13.70     -14.53       2.40        0.00      45.50       1.68       0.05       0.77       ----

> <Gold.Chemscore.Fitness>
13.6999

> <Gold.Chemscore.DG>
-14.5269

> <Gold.Chemscore.ZeroCoef>
-5.4800

> <Gold.Chemscore.Hbond>
2.4022

> <Gold.Chemscore.Metal>
0.0000

> <Gold.Chemscore.Lipo>
45.4987

> <Gold.Chemscore.Internal_Hbond>
0.0000

> <Gold.Chemscore.DEClash>
0.0545

> <Gold.Chemscore.DEInternal>
0.7725

> <Gold.Chemscore.Rot>
1.6796

> <Gold.Chemscore.Internal.Correction>
   9.000000E+99

> <Gold.Chemscore.Hbonds>
donor molecule, donor type, donor heavy atom, donor atom, acceptor molecule, acceptor atom, score
      P1  H  6896  6909       L1     9  0.02
      P1  H  6931  6943       L1    11  0.93
      P1  H  6934  6947       L1    11  0.10

> <Gold.Chemscore.Hbond.Weighted>
-8.0233

> <Gold.Chemscore.Metal.Weighted>
-0.0000

> <Gold.Chemscore.Lipo.Weighted>
-5.3233

> <Gold.Chemscore.Internal_Hbond.Weighted>
0.0000

> <Gold.Chemscore.DEClash.Weighted>
0.0545

> <Gold.Chemscore.DEInternal.Weighted>
0.7725

> <Gold.Chemscore.Rot.Weighted>
4.2997

> <Gold.Chemscore.Internal.Correction.Weighted>
   9.000000E+99

> <Gold.Protein.RotatedTorsions>
[ 6907 6896 6895 6894 ] final   48.80 input  -60.11 | X-H torsion
[ 7974 7965 7964 7962 ] final  154.10 input  175.53 | X-H torsion
[ 8008 7997 7996 7995 ] final   65.10 input   59.86 | X-H torsion
[ 10167 10162 10161 10158 ] final   39.15 input  -65.29 | X-H torsion
[ 10718 10713 10712 10709 ] final   19.41 input   66.30 | X-H torsion
[ 10763 10752 10751 10750 ] final  179.94 input  -60.55 | X-H torsion
[ 11005 11000 10999 10996 ] final  -53.38 input  -57.11 | X-H torsion

> <Gold.Protein.ActiveResidues>
 VAL166  LYS551  ARG553  GLY616  TRP617  ASP618  TYR619  PRO620  LYS621  CYS622 
 ASP623  PHE694  ASN695  SER759  ASP760  ASP761  ALA762  ILE779  LEU786  VAL792 
 PHE793  MET794  SER795  GLU796  ALA797  LYS798  CYS799  TRP800  GLU811  SER814 

> <Gold.Protein.RotatedAtoms>
  152.2836  134.7801  160.0391 H   0  0  0  0  0  0  0  0  0  0  0  0  # atno 6907 bound_to 6896
  151.8372  133.3412  159.3640 H   0  0  0  0  0  0  0  0  0  0  0  0  # atno 6908 bound_to 6896
  150.7200  134.5354  159.5765 H   0  0  0  0  0  0  0  0  0  0  0  0  # atno 6909 bound_to 6896
  144.8111  139.6888  143.6141 H   0  0  0  0  0  0  0  0  0  0  0  0  # atno 7974 bound_to 7965
  155.6564  140.3497  155.4766 H   0  0  0  0  0  0  0  0  0  0  0  0  # atno 8008 bound_to 7997
  155.9805  140.1173  157.0754 H   0  0  0  0  0  0  0  0  0  0  0  0  # atno 8009 bound_to 7997
  154.4190  140.1139  156.5415 H   0  0  0  0  0  0  0  0  0  0  0  0  # atno 8010 bound_to 7997
  140.3867  144.1907  150.6130 H   0  0  0  0  0  0  0  0  0  0  0  0  # atno 10167 bound_to 10162
  157.1101  130.6505  149.5895 H   0  0  0  0  0  0  0  0  0  0  0  0  # atno 10718 bound_to 10713
  154.5272  135.2797  155.1212 H   0  0  0  0  0  0  0  0  0  0  0  0  # atno 10763 bound_to 10752
  154.2746  135.6297  153.5327 H   0  0  0  0  0  0  0  0  0  0  0  0  # atno 10764 bound_to 10752
  152.9949  135.5636  154.5776 H   0  0  0  0  0  0  0  0  0  0  0  0  # atno 10765 bound_to 10752
  141.0973  133.6623  156.4164 H   0  0  0  0  0  0  0  0  0  0  0  0  # atno 11005 bound_to 11000
  146.2409  139.6000  142.9492 LP  0  0  0  0  0  0  0  0  0  0  0  0  # atno 17320 bound_to 7965
  145.5322  141.0426  143.2376 LP  0  0  0  0  0  0  0  0  0  0  0  0  # atno 17321 bound_to 7965
  140.4882  143.2356  151.8857 LP  0  0  0  0  0  0  0  0  0  0  0  0  # atno 17342 bound_to 10162
  139.4791  144.5195  151.8821 LP  0  0  0  0  0  0  0  0  0  0  0  0  # atno 17343 bound_to 10162
  155.9852  130.4881  150.7023 LP  0  0  0  0  0  0  0  0  0  0  0  0  # atno 17370 bound_to 10713
  157.4567  131.0878  151.0789 LP  0  0  0  0  0  0  0  0  0  0  0  0  # atno 17371 bound_to 10713
  140.5109  134.6396  157.5284 LP  0  0  0  0  0  0  0  0  0  0  0  0  # atno 17394 bound_to 11000
  139.9813  134.7132  155.9854 LP  0  0  0  0  0  0  0  0  0  0  0  0  # atno 17395 bound_to 11000

$$$$
