#       Name:                AV-unprocessed.smi:1130
#       Creating user name   scv26
#       Creation time:       Fri Mar 27 03:41:51 2020


#       File generated by GOLD software.
#

@<TRIPOS>MOLECULE
AV-unprocessed.smi:1130
    44    45     1
SMALL
NO_CHARGES


@<TRIPOS>ATOM
      1 ****        -2.9878   6.2333   0.5857 C.3            1 S1                 0.0000
      2 ****        -2.4988   5.1270  -0.2856 C.2            1 S1                 0.0000
      3 ****        -2.5693   5.2052  -1.6089 N.2            1 S1                 0.0000
      4 ****        -2.0076   3.9928  -2.0346 O.3            1 S1                 0.0000
      5 ****        -1.6831   3.3191  -0.9048 C.2            1 S1                 0.0000
      6 ****        -1.0085   1.9941  -1.0234 C.3            1 S1                 0.0000
      7 ****         0.5162   2.1261  -1.1701 C.3            1 S1                 0.0000
      8 ****         1.1620   0.8261  -1.3127 N.am           1 S1                 0.0000
      9 ****         1.4119  -0.0199  -0.3037 C.2            1 S1                 0.0000
     10 ****         1.1146   0.2017   0.8703 O.2            1 S1                 0.0000
     11 ****         2.0217  -1.1352  -0.7285 N.am           1 S1                 0.0000
     12 ****         2.3987  -2.2580   0.1228 C.3            1 S1                 0.0000
     13 ****         1.2987  -3.3312   0.1555 C.3            1 S1                 0.0000
     14 ****         1.6835  -4.5770   0.9499 C.3            1 S1                 0.0000
     15 ****         0.3266  -5.1468   1.2949 C.3            1 S1                 0.0000
     16 ****        -0.4878  -3.8840   1.5643 C.3            1 S1                 0.0000
     17 ****         0.1239  -2.8468   0.8012 O.3            1 S1                 0.0000
     18 ****        -1.9516   3.9858   0.2152 N.2            1 S1                 0.0000
     19 ****        -3.3308   7.0787  -0.0116 H              1 S1                 0.0000
     20 ****        -2.1880   6.5778   1.2414 H              1 S1                 0.0000
     21 ****        -3.8176   5.8872   1.2023 H              1 S1                 0.0000
     22 ****        -1.2576   1.4010  -0.1426 H              1 S1                 0.0000
     23 ****        -1.4254   1.4675  -1.8829 H              1 S1                 0.0000
     24 ****         0.7536   2.7198  -2.0532 H              1 S1                 0.0000
     25 ****         0.9369   2.6585  -0.3152 H              1 S1                 0.0000
     26 ****         1.4434   0.5552  -2.2437 H              1 S1                 0.0000
     27 ****         2.2250  -1.2223  -1.7134 H              1 S1                 0.0000
     28 ****         3.3145  -2.6870  -0.2841 H              1 S1                 0.0000
     29 ****         2.6392  -1.9211   1.1326 H              1 S1                 0.0000
     30 ****         1.0283  -3.6271  -0.8596 H              1 S1                 0.0000
     31 ****         2.3072  -5.2683   0.3828 H              1 S1                 0.0000
     32 ****         2.2162  -4.3040   1.8621 H              1 S1                 0.0000
     33 ****        -0.0816  -5.6819   0.4364 H              1 S1                 0.0000
     34 ****         0.3489  -5.8292   2.1449 H              1 S1                 0.0000
     35 ****        -1.5378  -4.0064   1.2975 H              1 S1                 0.0000
     36 ****        -0.4369  -3.6120   2.6190 H              1 S1                 0.0000
     37 ****        -2.9350   5.9496  -2.1677 LP             1 S1                 0.0000
     38 ****        -1.1906   4.1622  -2.5858 LP             1 S1                 0.0000
     39 ****        -2.6705   3.4719  -2.5724 LP             1 S1                 0.0000
     40 ****         0.6580   1.0563   1.1177 LP             1 S1                 0.0000
     41 ****         1.3297  -0.4728   1.5765 LP             1 S1                 0.0000
     42 ****        -0.5217  -2.5217   0.1101 LP             1 S1                 0.0000
     43 ****         0.3696  -2.0917   1.4090 LP             1 S1                 0.0000
     44 ****        -1.7941   3.7205   1.1664 LP             1 S1                 0.0000
@<TRIPOS>BOND
    1    1    2 1     
    2    1   19 1     
    3    1   20 1     
    4    1   21 1     
    5    2   18 1     
    6    2    3 2     
    7    3    4 1     
    8    4    5 1     
    9    5    6 1     
   10    5   18 2     
   11    6    7 1     
   12    6   22 1     
   13    6   23 1     
   14    7    8 1     
   15    7   24 1     
   16    7   25 1     
   17    8    9 am    
   18    8   26 1     
   19    9   10 2     
   20    9   11 am    
   21   11   12 1     
   22   11   27 1     
   23   12   13 1     
   24   12   28 1     
   25   12   29 1     
   26   13   17 1     
   27   13   14 1     
   28   13   30 1     
   29   14   15 1     
   30   14   31 1     
   31   14   32 1     
   32   15   16 1     
   33   15   33 1     
   34   15   34 1     
   35   16   17 1     
   36   16   35 1     
   37   16   36 1     
   38    3   37 1     
   39    4   38 1     
   40    4   39 1     
   41   10   40 1     
   42   10   41 1     
   43   17   42 1     
   44   17   43 1     
   45   18   44 1     
@<TRIPOS>SUBSTRUCTURE
      1 S1             1
@<TRIPOS>SET
LONE_PAIRS      STATIC     ATOMS    <user>   **** ""
8 37 38 39 40 41 42 43 44
DONOR_HYDROGENS      STATIC     ATOMS    <user>   **** ""
2 26 27
ATOM$BLUE        STATIC     ATOMS    COLORGROUP SYSTEM
8 37 38 39 40 41 42 43 44
ATOM$RED        STATIC     ATOMS    COLORGROUP SYSTEM
2 26 27
