AV-unprocessed.smi:321|AV-procd|sdf|2334|dock2
  -GOLD-   2262022243D 1   1.00000     0.00000
 Structure written by MMmdl.
 49 50  0  0  0  0  0  0  0  0  1 V2000
  152.0696  143.2282  158.9191 C   0  0  0  0  0  0  0  0  0  0  0  0
  151.7646  142.6373  157.5377 C   0  0  0  0  0  0  0  0  0  0  0  0
  151.5825  140.7985  157.5963 S   0  0  0  0  0  0  0  0  0  0  0  0
  152.8344  140.2118  158.0998 O   0  0  0  0  0  0  0  0  0  0  0  0
  150.3087  140.4847  158.2615 O   0  0  0  0  0  0  0  0  0  0  0  0
  151.4228  140.3352  155.9251 N   0  0  0  0  0  0  0  0  0  0  0  0
  152.4653  139.5198  155.2668 C   0  0  0  0  0  0  0  0  0  0  0  0
  152.0294  138.0545  155.0894 C   0  0  0  0  0  0  0  0  0  0  0  0
  150.6633  137.9518  154.3891 C   0  0  0  0  0  0  0  0  0  0  0  0
  150.2205  136.5634  154.3088 N   0  0  0  0  0  0  0  0  0  0  0  0
  150.3106  135.6582  155.3001 C   0  0  0  0  0  0  0  0  0  0  0  0
  150.7847  135.9248  156.4056 O   0  0  0  0  0  0  0  0  0  0  0  0
  149.7942  134.3002  154.9723 C   0  0  0  0  0  0  0  0  0  0  0  0
  150.3014  133.1863  155.7556 C   0  0  0  0  0  0  0  0  0  0  0  0
  149.8457  131.9457  155.4762 C   0  0  0  0  0  0  0  0  0  0  0  0
  148.8651  131.6999  154.4176 C   0  0  0  0  0  0  0  0  0  0  0  0
  148.4334  130.5791  154.1502 O   0  0  0  0  0  0  0  0  0  0  0  0
  148.4711  132.8292  153.7543 N   0  0  0  0  0  0  0  0  0  0  0  0
  147.4838  132.7720  152.6699 C   0  0  0  0  0  0  0  0  0  0  0  0
  146.1967  133.5335  153.0271 C   0  0  0  0  0  0  0  0  0  0  0  0
  145.3479  133.6067  151.8935 O   0  0  0  0  0  0  0  0  0  0  0  0
  145.8697  134.4427  150.8761 C   0  0  0  0  0  0  0  0  0  0  0  0
  148.9285  134.1077  154.0300 N   0  0  0  0  0  0  0  0  0  0  0  0
  149.6307  138.7815  155.1652 C   0  0  0  0  0  0  0  0  0  0  0  0
  150.0843  140.2443  155.3105 C   0  0  0  0  0  0  0  0  0  0  0  0
  152.2024  144.3081  158.8574 H   0  0  0  0  0  0  0  0  0  0  0  0
  152.9804  142.8043  159.3410 H   0  0  0  0  0  0  0  0  0  0  0  0
  151.2561  143.0345  159.6185 H   0  0  0  0  0  0  0  0  0  0  0  0
  150.8220  143.0468  157.1744 H   0  0  0  0  0  0  0  0  0  0  0  0
  152.5280  142.9025  156.8108 H   0  0  0  0  0  0  0  0  0  0  0  0
  152.6698  139.9554  154.2881 H   0  0  0  0  0  0  0  0  0  0  0  0
  153.4002  139.5708  155.8238 H   0  0  0  0  0  0  0  0  0  0  0  0
  152.7864  137.5249  154.5100 H   0  0  0  0  0  0  0  0  0  0  0  0
  151.9931  137.5560  156.0571 H   0  0  0  0  0  0  0  0  0  0  0  0
  150.7447  138.3605  153.3799 H   0  0  0  0  0  0  0  0  0  0  0  0
  149.8182  136.2629  153.4324 H   0  0  0  0  0  0  0  0  0  0  0  0
  151.0250  133.3379  156.5433 H   0  0  0  0  0  0  0  0  0  0  0  0
  150.2144  131.1087  156.0508 H   0  0  0  0  0  0  0  0  0  0  0  0
  147.9199  133.2147  151.7727 H   0  0  0  0  0  0  0  0  0  0  0  0
  147.2480  131.7431  152.3930 H   0  0  0  0  0  0  0  0  0  0  0  0
  145.6838  133.0465  153.8582 H   0  0  0  0  0  0  0  0  0  0  0  0
  146.4524  134.5431  153.3520 H   0  0  0  0  0  0  0  0  0  0  0  0
  145.1783  134.4696  150.0338 H   0  0  0  0  0  0  0  0  0  0  0  0
  146.8284  134.0700  150.5130 H   0  0  0  0  0  0  0  0  0  0  0  0
  146.0035  135.4641  151.2344 H   0  0  0  0  0  0  0  0  0  0  0  0
  148.6677  138.7496  154.6544 H   0  0  0  0  0  0  0  0  0  0  0  0
  149.4690  138.3440  156.1502 H   0  0  0  0  0  0  0  0  0  0  0  0
  149.3595  140.8104  155.8952 H   0  0  0  0  0  0  0  0  0  0  0  0
  150.1231  140.7154  154.3277 H   0  0  0  0  0  0  0  0  0  0  0  0
  1  2  1  0  0  0  0
  1 26  1  0  0  0  0
  1 27  1  0  0  0  0
  1 28  1  0  0  0  0
  2  3  1  0  0  0  0
  2 29  1  0  0  0  0
  2 30  1  0  0  0  0
  3  4  2  0  0  0  0
  3  5  2  0  0  0  0
  3  6  1  0  0  0  0
  6 25  1  0  0  0  0
  6  7  1  0  0  0  0
  7  8  1  0  0  0  0
  7 31  1  0  0  0  0
  7 32  1  0  0  0  0
  8  9  1  0  0  0  0
  8 33  1  0  0  0  0
  8 34  1  0  0  0  0
  9 10  1  0  0  0  0
  9 24  1  0  0  0  0
  9 35  1  0  0  0  0
 10 11  1  0  0  0  0
 10 36  1  0  0  0  0
 11 12  2  0  0  0  0
 11 13  1  0  0  0  0
 13 23  2  0  0  0  0
 13 14  1  0  0  0  0
 14 15  2  0  0  0  0
 14 37  1  0  0  0  0
 15 16  1  0  0  0  0
 15 38  1  0  0  0  0
 16 17  2  0  0  0  0
 16 18  1  0  0  0  0
 18 19  1  0  0  0  0
 18 23  1  0  0  0  0
 19 20  1  0  0  0  0
 19 39  1  0  0  0  0
 19 40  1  0  0  0  0
 20 21  1  0  0  0  0
 20 41  1  0  0  0  0
 20 42  1  0  0  0  0
 21 22  1  0  0  0  0
 22 43  1  0  0  0  0
 22 44  1  0  0  0  0
 22 45  1  0  0  0  0
 24 25  1  0  0  0  0
 24 46  1  0  0  0  0
 24 47  1  0  0  0  0
 25 48  1  0  0  0  0
 25 49  1  0  0  0  0
M  END
> <s_m_source_file>
AV-unprocessed.smi

> <i_m_source_file_index>
321

> <i_lp_mmshare_version>
43012

> <i_f3d_flags>
0

> <s_epik_input>
W0NIM11bQ0gyXVMoPU8pKD1PKU4xW0NIMl1bQ0gyXVtDSF0oW0NIMl1bQ0gyXTEpW05IXUMoPU8pYzJbY0hdW2NIXWMoPU8pbihuMilbQ0gyXVtDSDJdT1tDSDNd

> <s_epik_cmdline>
J2VwaWtfcHl0aG9uJywgJy1waCcsICc3LjAnLCAnLXRuJywgJzgnLCAnLW1hJywgJzIwMCcsICctbWV0YWxfYmluZGluZycsICctaW1hZScsICc8aW5maWxlLm1hZT4nLCAnLW9tYWUnLCAnPG91dGZpbGUubWFlPic=

> <r_lp_tautomer_probability>
1

> <r_epik_Ionization_Penalty>
1.38514e-06

> <r_epik_Ionization_Penalty_Charging>
6.369e-09

> <r_epik_Ionization_Penalty_Neutral>
1.37877e-06

> <r_epik_State_Penalty>
-0

> <r_epik_Charging_Adjusted_Penalty>
6.369e-09

> <i_epik_Tot_Q>
0

> <i_epik_Tot_abs_Q>
0

> <r_epik_Metal_State_Penalty>
-0

> <b_epik_Metal_Only>
0

> <s_lp_Force_Field>
OPLS_2005

> <r_lp_Energy>
23.8323

> <b_lp_Chiralities_Consistent>
1

> <s_lp_Variant>
AV-unprocessed.smi:321-1

> <Gold.Version>
5.8.1

> <Gold.Id.Protein>
6NUR|6NUR_protein|mol2

> <Gold.PLP.Fitness>
46.4442

> <Gold.PLP.PLP>
-42.2533

> <Gold.PLP.part.hbond>
-3.0000

> <Gold.PLP.part.metal>
0.0000

> <Gold.PLP.part.buried>
-3.5693

> <Gold.PLP.part.nonpolar>
-36.9195

> <Gold.PLP.part.repulsive>
1.0190

> <Gold.PLP.ligand.clash>
0.0000

> <Gold.PLP.ligand.torsion>
1.6341

> <Gold.PLP.Chemscore.Hbond>
1.7440

> <Gold.PLP.Chemscore.CHOScore>
0.0000

> <Gold.PLP.Chemscore.Metal>
0.0000

> <Gold.Chemscore.Hbonds>
donor molecule, donor type, donor heavy atom, donor atom, acceptor molecule, acceptor atom, score
      L1  H    10    36       P1  7948  0.85
      P1  H  7997  8008       L1     4  0.92

> <Gold.PLP.Chemscore.Internal.Correction>
2.2272

> <Gold.Rescore>
     Score         DG    S(hbond)    S(metal)    S(lipo)     H(rot)  DE(clash)    DE(int)     intcor
     11.31     -14.36       1.09        0.00      85.39       1.86       0.03       3.02       ----

> <Gold.Chemscore.Fitness>
11.3126

> <Gold.Chemscore.DG>
-14.3633

> <Gold.Chemscore.ZeroCoef>
-5.4800

> <Gold.Chemscore.Hbond>
1.0915

> <Gold.Chemscore.Metal>
0.0000

> <Gold.Chemscore.Lipo>
85.3898

> <Gold.Chemscore.Internal_Hbond>
0.0000

> <Gold.Chemscore.DEClash>
0.0292

> <Gold.Chemscore.DEInternal>
3.0215

> <Gold.Chemscore.Rot>
1.8567

> <Gold.Chemscore.Internal.Correction>
   9.000000E+99

> <Gold.Chemscore.Hbonds>
donor molecule, donor type, donor heavy atom, donor atom, acceptor molecule, acceptor atom, score
      L1  H    10    36       P1  7948  0.15
      P1  H  7997  8008       L1     4  0.82

> <Gold.Chemscore.Hbond.Weighted>
-3.6457

> <Gold.Chemscore.Metal.Weighted>
-0.0000

> <Gold.Chemscore.Lipo.Weighted>
-9.9906

> <Gold.Chemscore.Internal_Hbond.Weighted>
0.0000

> <Gold.Chemscore.DEClash.Weighted>
0.0292

> <Gold.Chemscore.DEInternal.Weighted>
3.0215

> <Gold.Chemscore.Rot.Weighted>
4.7530

> <Gold.Chemscore.Internal.Correction.Weighted>
   9.000000E+99

> <Gold.Protein.RotatedTorsions>
[ 6907 6896 6895 6894 ] final  163.50 input  -60.11 | X-H torsion
[ 7974 7965 7964 7962 ] final   68.55 input  175.53 | X-H torsion
[ 8008 7997 7996 7995 ] final  -74.05 input   59.86 | X-H torsion
[ 10167 10162 10161 10158 ] final  -76.72 input  -65.29 | X-H torsion
[ 10718 10713 10712 10709 ] final   42.17 input   66.30 | X-H torsion
[ 10763 10752 10751 10750 ] final  134.84 input  -60.55 | X-H torsion
[ 11005 11000 10999 10996 ] final  134.80 input  -57.11 | X-H torsion

> <Gold.Protein.ActiveResidues>
 VAL166  LYS551  ARG553  GLY616  TRP617  ASP618  TYR619  PRO620  LYS621  CYS622 
 ASP623  PHE694  ASN695  SER759  ASP760  ASP761  ALA762  ILE779  LEU786  VAL792 
 PHE793  MET794  SER795  GLU796  ALA797  LYS798  CYS799  TRP800  GLU811  SER814 

> <Gold.Protein.RotatedAtoms>
  151.9242  133.3593  159.3907 H   0  0  0  0  0  0  0  0  0  0  0  0  # atno 6907 bound_to 6896
  150.7030  134.4604  159.5387 H   0  0  0  0  0  0  0  0  0  0  0  0  # atno 6908 bound_to 6896
  152.2233  134.8392  160.0534 H   0  0  0  0  0  0  0  0  0  0  0  0  # atno 6909 bound_to 6896
  145.8012  139.2983  143.1154 H   0  0  0  0  0  0  0  0  0  0  0  0  # atno 7974 bound_to 7965
  154.5298  140.0768  156.8324 H   0  0  0  0  0  0  0  0  0  0  0  0  # atno 8008 bound_to 7997
  155.3399  140.3406  155.4221 H   0  0  0  0  0  0  0  0  0  0  0  0  # atno 8009 bound_to 7997
  156.1769  140.1639  156.8333 H   0  0  0  0  0  0  0  0  0  0  0  0  # atno 8010 bound_to 7997
  140.4832  143.2397  151.8025 H   0  0  0  0  0  0  0  0  0  0  0  0  # atno 10167 bound_to 10162
  157.4018  130.7864  149.7355 H   0  0  0  0  0  0  0  0  0  0  0  0  # atno 10718 bound_to 10713
  153.8302  135.3104  155.3418 H   0  0  0  0  0  0  0  0  0  0  0  0  # atno 10763 bound_to 10752
  154.7976  135.4746  154.0202 H   0  0  0  0  0  0  0  0  0  0  0  0  # atno 10764 bound_to 10752
  153.1639  135.6866  153.8794 H   0  0  0  0  0  0  0  0  0  0  0  0  # atno 10765 bound_to 10752
  139.9938  134.9505  156.9917 H   0  0  0  0  0  0  0  0  0  0  0  0  # atno 11005 bound_to 11000
  145.9876  140.8630  143.0083 LP  0  0  0  0  0  0  0  0  0  0  0  0  # atno 17320 bound_to 7965
  144.6768  140.2169  143.7371 LP  0  0  0  0  0  0  0  0  0  0  0  0  # atno 17321 bound_to 7965
  139.4837  144.4745  151.9383 LP  0  0  0  0  0  0  0  0  0  0  0  0  # atno 17342 bound_to 10162
  140.3831  144.2711  150.5906 LP  0  0  0  0  0  0  0  0  0  0  0  0  # atno 17343 bound_to 10162
  155.9825  130.4009  150.3411 LP  0  0  0  0  0  0  0  0  0  0  0  0  # atno 17370 bound_to 10713
  157.1539  131.0328  151.2872 LP  0  0  0  0  0  0  0  0  0  0  0  0  # atno 17371 bound_to 10713
  140.4857  134.1244  155.7224 LP  0  0  0  0  0  0  0  0  0  0  0  0  # atno 17394 bound_to 11000
  141.1588  133.8833  157.1906 LP  0  0  0  0  0  0  0  0  0  0  0  0  # atno 17395 bound_to 11000

$$$$
