AV-unprocessed.smi:334|AV-procd|sdf|2366|dock9
  -GOLD-   2262022283D 1   1.00000     0.00000
 Structure written by MMmdl.
 44 46  0  0  0  0  0  0  0  0  3 V2000
  153.9013  142.0913  161.5759 C   0  0  0  0  0  0  0  0  0  0  0  0
  152.9661  142.0614  160.3555 C   0  0  2  0  0  0  0  0  0  0  0  0
  153.4664  141.1133  159.3667 N   0  0  0  0  0  0  0  0  0  0  0  0
  152.7816  140.0872  158.8349 C   0  0  0  0  0  0  0  0  0  0  0  0
  151.6507  139.7737  159.2042 O   0  0  0  0  0  0  0  0  0  0  0  0
  153.4467  139.2973  157.6947 C   0  0  0  0  0  0  0  0  0  0  0  0
  152.5367  138.3937  156.9658 N   0  0  0  0  0  0  0  0  0  0  0  0
  151.9438  137.3497  157.7031 C   0  0  0  0  0  0  0  0  0  0  0  0
  151.1139  136.4535  157.1344 C   0  0  0  0  0  0  0  0  0  0  0  0
  150.5253  135.3795  157.9037 N   0  3  0  0  0  0  0  0  0  0  0  0
  150.7509  135.3263  159.1083 O   0  0  0  0  0  0  0  0  0  0  0  0
  149.8182  134.5556  157.3312 O   0  5  0  0  0  0  0  0  0  0  0  0
  150.8367  136.5951  155.7182 C   0  0  0  0  0  0  0  0  0  0  0  0
  151.4042  137.5883  155.0063 C   0  0  0  0  0  0  0  0  0  0  0  0
  152.3148  138.5568  155.6250 C   0  0  0  0  0  0  0  0  0  0  0  0
  152.8535  139.4530  154.9757 O   0  0  0  0  0  0  0  0  0  0  0  0
  152.8256  143.4541  159.6972 C   0  0  2  0  0  0  0  0  0  0  0  0
  152.0332  144.4861  160.5299 C   0  0  0  0  0  0  0  0  0  0  0  0
  151.0063  145.0301  159.5188 C   0  0  2  0  0  0  0  0  0  0  0  0
  149.9271  143.9598  159.2705 C   0  0  0  0  0  0  0  0  0  0  0  0
  150.6739  142.9164  158.4201 C   0  0  0  0  0  0  0  0  0  0  0  0
  152.0957  143.5069  158.3298 C   0  0  1  0  0  0  0  0  0  0  0  0
  151.7912  144.9964  158.2125 C   0  0  0  0  0  0  0  0  0  0  0  0
  153.5363  142.7820  162.3361 H   0  0  0  0  0  0  0  0  0  0  0  0
  154.9080  142.4050  161.2976 H   0  0  0  0  0  0  0  0  0  0  0  0
  153.9761  141.1076  162.0404 H   0  0  0  0  0  0  0  0  0  0  0  0
  151.9819  141.7314  160.6920 H   0  0  0  0  0  0  0  0  0  0  0  0
  154.3933  141.2906  159.0083 H   0  0  0  0  0  0  0  0  0  0  0  0
  153.8988  140.0147  157.0089 H   0  0  0  0  0  0  0  0  0  0  0  0
  154.2863  138.7335  158.1052 H   0  0  0  0  0  0  0  0  0  0  0  0
  152.2206  137.3258  158.7474 H   0  0  0  0  0  0  0  0  0  0  0  0
  150.1716  135.9063  155.2183 H   0  0  0  0  0  0  0  0  0  0  0  0
  151.1843  137.6746  153.9522 H   0  0  0  0  0  0  0  0  0  0  0  0
  153.8311  143.8478  159.5367 H   0  0  0  0  0  0  0  0  0  0  0  0
  151.5468  144.0500  161.4035 H   0  0  0  0  0  0  0  0  0  0  0  0
  152.6937  145.2793  160.8823 H   0  0  0  0  0  0  0  0  0  0  0  0
  150.6005  146.0052  159.7893 H   0  0  0  0  0  0  0  0  0  0  0  0
  149.5407  143.5389  160.1995 H   0  0  0  0  0  0  0  0  0  0  0  0
  149.0848  144.3746  158.7157 H   0  0  0  0  0  0  0  0  0  0  0  0
  150.6463  141.9176  158.8542 H   0  0  0  0  0  0  0  0  0  0  0  0
  150.2282  142.8482  157.4269 H   0  0  0  0  0  0  0  0  0  0  0  0
  152.6824  143.1033  157.5039 H   0  0  0  0  0  0  0  0  0  0  0  0
  151.1889  145.2491  157.3381 H   0  0  0  0  0  0  0  0  0  0  0  0
  152.6830  145.6256  158.2263 H   0  0  0  0  0  0  0  0  0  0  0  0
  1  2  1  0  0  0  0
  1 24  1  0  0  0  0
  1 25  1  0  0  0  0
  1 26  1  0  0  0  0
  2  3  1  0  0  0  0
  2 17  1  0  0  0  0
  2 27  1  0  0  0  0
  3  4  1  0  0  0  0
  3 28  1  0  0  0  0
  4  5  2  0  0  0  0
  4  6  1  0  0  0  0
  6  7  1  0  0  0  0
  6 29  1  0  0  0  0
  6 30  1  0  0  0  0
  7 15  1  0  0  0  0
  7  8  1  0  0  0  0
  8  9  2  0  0  0  0
  8 31  1  0  0  0  0
  9 10  1  0  0  0  0
  9 13  1  0  0  0  0
 10 11  2  0  0  0  0
 10 12  1  0  0  0  0
 13 14  2  0  0  0  0
 13 32  1  0  0  0  0
 14 15  1  0  0  0  0
 14 33  1  0  0  0  0
 15 16  2  0  0  0  0
 17 22  1  0  0  0  0
 17 18  1  0  0  0  0
 17 34  1  0  0  0  0
 18 19  1  0  0  0  0
 18 35  1  0  0  0  0
 18 36  1  0  0  0  0
 19 23  1  0  0  0  0
 19 20  1  0  0  0  0
 19 37  1  0  0  0  0
 20 21  1  0  0  0  0
 20 38  1  0  0  0  0
 20 39  1  0  0  0  0
 21 22  1  0  0  0  0
 21 40  1  0  0  0  0
 21 41  1  0  0  0  0
 22 23  1  0  0  0  0
 22 42  1  0  0  0  0
 23 43  1  0  0  0  0
 23 44  1  0  0  0  0
M  CHG  1  10   1
M  CHG  1  12  -1
M  END
> <s_m_source_file>
AV-unprocessed.smi

> <i_m_source_file_index>
334

> <i_lp_mmshare_version>
43012

> <i_f3d_flags>
0

> <s_epik_input>
W0NIMl0xW0NIMl1bQ0BIXShbQ0gyXTIpW0NAQEhdKFtDSDJdW0NAQEhdMTIpW0NASF0oW0NIM10pW05IXUMoPU8pW0NIMl1uM1tjSF1jKFtOK10oPU8pW08tXSlbY0hdW2NIXWMzPU8=

> <s_epik_cmdline>
J2VwaWtfcHl0aG9uJywgJy1waCcsICc3LjAnLCAnLXRuJywgJzgnLCAnLW1hJywgJzIwMCcsICctbWV0YWxfYmluZGluZycsICctaW1hZScsICc8aW5maWxlLm1hZT4nLCAnLW9tYWUnLCAnPG91dGZpbGUubWFlPic=

> <r_lp_tautomer_probability>
1

> <r_epik_Ionization_Penalty>
2.17081e-08

> <r_epik_Ionization_Penalty_Charging>
8.1195e-11

> <r_epik_Ionization_Penalty_Neutral>
2.16269e-08

> <r_epik_State_Penalty>
-0

> <r_epik_Charging_Adjusted_Penalty>
8.1195e-11

> <i_epik_Tot_Q>
0

> <i_epik_Tot_abs_Q>
2

> <r_epik_Metal_State_Penalty>
-0

> <b_epik_Metal_Only>
0

> <s_lp_Force_Field>
OPLS_2005

> <r_lp_Energy>
61.6433

> <b_lp_Chiralities_Consistent>
1

> <s_lp_Variant>
AV-unprocessed.smi:334-5

> <Gold.Version>
5.8.1

> <Gold.Id.Protein>
6NUR|6NUR_protein|mol2

> <Gold.PLP.Fitness>
52.0240

> <Gold.PLP.PLP>
-45.1897

> <Gold.PLP.part.hbond>
-3.0000

> <Gold.PLP.part.metal>
0.0000

> <Gold.PLP.part.buried>
-3.8912

> <Gold.PLP.part.nonpolar>
-37.6814

> <Gold.PLP.part.repulsive>
0.1223

> <Gold.PLP.ligand.clash>
0.0000

> <Gold.PLP.ligand.torsion>
0.3110

> <Gold.PLP.Chemscore.Hbond>
2.4758

> <Gold.PLP.Chemscore.CHOScore>
0.0000

> <Gold.PLP.Chemscore.Metal>
0.0000

> <Gold.Chemscore.Hbonds>
donor molecule, donor type, donor heavy atom, donor atom, acceptor molecule, acceptor atom, score
      P1  H  7989  7998       L1    16  0.10
      P1  H  7997  8008       L1    16  1.00

> <Gold.PLP.Chemscore.Internal.Correction>
0.0288

> <Gold.Rescore>
     Score         DG    S(hbond)    S(metal)    S(lipo)     H(rot)  DE(clash)    DE(int)     intcor
     20.77     -23.42       2.28        0.00     126.46       1.75       0.97       1.69       ----

> <Gold.Chemscore.Fitness>
20.7652

> <Gold.Chemscore.DG>
-23.4247

> <Gold.Chemscore.ZeroCoef>
-5.4800

> <Gold.Chemscore.Hbond>
2.2822

> <Gold.Chemscore.Metal>
0.0000

> <Gold.Chemscore.Lipo>
126.4587

> <Gold.Chemscore.Internal_Hbond>
0.0000

> <Gold.Chemscore.DEClash>
0.9716

> <Gold.Chemscore.DEInternal>
1.6879

> <Gold.Chemscore.Rot>
1.7474

> <Gold.Chemscore.Internal.Correction>
   9.000000E+99

> <Gold.Chemscore.Hbonds>
donor molecule, donor type, donor heavy atom, donor atom, acceptor molecule, acceptor atom, score
      P1  H  7989  7998       L1    16  0.11
      P1  H  7997  8008       L1    16  0.80

> <Gold.Chemscore.Hbond.Weighted>
-7.6224

> <Gold.Chemscore.Metal.Weighted>
-0.0000

> <Gold.Chemscore.Lipo.Weighted>
-14.7957

> <Gold.Chemscore.Internal_Hbond.Weighted>
0.0000

> <Gold.Chemscore.DEClash.Weighted>
0.9716

> <Gold.Chemscore.DEInternal.Weighted>
1.6879

> <Gold.Chemscore.Rot.Weighted>
4.4733

> <Gold.Chemscore.Internal.Correction.Weighted>
   9.000000E+99

> <Gold.Protein.RotatedTorsions>
[ 6907 6896 6895 6894 ] final  172.24 input  -60.11 | X-H torsion
[ 7974 7965 7964 7962 ] final  157.14 input  175.53 | X-H torsion
[ 8008 7997 7996 7995 ] final  -16.18 input   59.86 | X-H torsion
[ 10167 10162 10161 10158 ] final  -45.59 input  -65.29 | X-H torsion
[ 10718 10713 10712 10709 ] final   92.64 input   66.30 | X-H torsion
[ 10763 10752 10751 10750 ] final  -52.01 input  -60.55 | X-H torsion
[ 11005 11000 10999 10996 ] final  125.44 input  -57.11 | X-H torsion

> <Gold.Protein.ActiveResidues>
 VAL166  LYS551  ARG553  GLY616  TRP617  ASP618  TYR619  PRO620  LYS621  CYS622 
 ASP623  PHE694  ASN695  SER759  ASP760  ASP761  ALA762  ILE779  LEU786  VAL792 
 PHE793  MET794  SER795  GLU796  ALA797  LYS798  CYS799  TRP800  GLU811  SER814 

> <Gold.Protein.RotatedAtoms>
  151.7874  133.3356  159.3488 H   0  0  0  0  0  0  0  0  0  0  0  0  # atno 6907 bound_to 6896
  150.7404  134.5874  159.5979 H   0  0  0  0  0  0  0  0  0  0  0  0  # atno 6908 bound_to 6896
  152.3234  134.7353  160.0359 H   0  0  0  0  0  0  0  0  0  0  0  0  # atno 6909 bound_to 6896
  144.7921  139.7300  143.6217 H   0  0  0  0  0  0  0  0  0  0  0  0  # atno 7974 bound_to 7965
  154.5073  140.2176  155.9226 H   0  0  0  0  0  0  0  0  0  0  0  0  # atno 8008 bound_to 7997
  156.1509  140.3161  155.8613 H   0  0  0  0  0  0  0  0  0  0  0  0  # atno 8009 bound_to 7997
  155.3940  140.0480  157.3030 H   0  0  0  0  0  0  0  0  0  0  0  0  # atno 8010 bound_to 7997
  140.6852  143.2872  151.3661 H   0  0  0  0  0  0  0  0  0  0  0  0  # atno 10167 bound_to 10162
  157.6958  131.0450  150.3913 H   0  0  0  0  0  0  0  0  0  0  0  0  # atno 10718 bound_to 10713
  154.1358  135.6513  153.4931 H   0  0  0  0  0  0  0  0  0  0  0  0  # atno 10763 bound_to 10752
  153.0181  135.5304  154.6955 H   0  0  0  0  0  0  0  0  0  0  0  0  # atno 10764 bound_to 10752
  154.6202  135.2964  155.0305 H   0  0  0  0  0  0  0  0  0  0  0  0  # atno 10765 bound_to 10752
  139.9406  134.9636  156.8558 H   0  0  0  0  0  0  0  0  0  0  0  0  # atno 11005 bound_to 11000
  146.2176  139.5578  142.9639 LP  0  0  0  0  0  0  0  0  0  0  0  0  # atno 17320 bound_to 7965
  145.5768  141.0387  143.2144 LP  0  0  0  0  0  0  0  0  0  0  0  0  # atno 17321 bound_to 7965
  139.6204  144.0918  152.2386 LP  0  0  0  0  0  0  0  0  0  0  0  0  # atno 17342 bound_to 10162
  140.0360  144.6044  150.7449 LP  0  0  0  0  0  0  0  0  0  0  0  0  # atno 17343 bound_to 10162
  156.4316  130.3973  149.6757 LP  0  0  0  0  0  0  0  0  0  0  0  0  # atno 17370 bound_to 10713
  156.3972  130.7657  151.2662 LP  0  0  0  0  0  0  0  0  0  0  0  0  # atno 17371 bound_to 10713
  140.5961  134.0216  155.7518 LP  0  0  0  0  0  0  0  0  0  0  0  0  # atno 17394 bound_to 11000
  141.1039  133.9724  157.3031 LP  0  0  0  0  0  0  0  0  0  0  0  0  # atno 17395 bound_to 11000

$$$$
