AV-unprocessed.smi:1592|AV-procd|sdf|6401|dock4
  -GOLD-   22720 7 33D 1   1.00000     0.00000
 Structure written by MMmdl.
 27 28  0  0  0  0  0  0  0  0  1 V2000
  152.5313  140.1678  156.9320 O   0  0  0  0  0  0  0  0  0  0  0  0
  151.3581  140.5017  156.7635 C   0  0  0  0  0  0  0  0  0  0  0  0
  150.7655  141.5376  157.3872 N   0  0  0  0  0  0  0  0  0  0  0  0
  151.3308  142.4660  158.3042 C   0  0  0  0  0  0  0  0  0  0  0  0
  151.6312  142.1486  159.5890 N   0  0  0  0  0  0  0  0  0  0  0  0
  152.1676  143.0880  160.3953 C   0  0  0  0  0  0  0  0  0  0  0  0
  152.4384  144.4014  159.9725 C   0  0  0  0  0  0  0  0  0  0  0  0
  152.1327  144.7450  158.6443 C   0  0  0  0  0  0  0  0  0  0  0  0
  151.5723  143.7683  157.7969 C   0  0  0  0  0  0  0  0  0  0  0  0
  151.2732  144.0964  156.5033 O   0  0  0  0  0  0  0  0  0  0  0  0
  150.4597  139.6939  155.8060 C   0  0  2  0  0  0  0  0  0  0  0  0
  150.3516  138.2033  156.1433 C   0  0  0  0  0  0  0  0  0  0  0  0
  151.6120  137.6095  155.5362 C   0  0  0  0  0  0  0  0  0  0  0  0
  151.9833  138.5955  154.4236 C   0  0  0  0  0  0  0  0  0  0  0  0
  151.0304  139.6548  154.5005 O   0  0  0  0  0  0  0  0  0  0  0  0
  149.7926  141.6916  157.1641 H   0  0  0  0  0  0  0  0  0  0  0  0
  152.3880  142.7824  161.4074 H   0  0  0  0  0  0  0  0  0  0  0  0
  152.8692  145.1247  160.6490 H   0  0  0  0  0  0  0  0  0  0  0  0
  152.3265  145.7440  158.2820 H   0  0  0  0  0  0  0  0  0  0  0  0
  150.3535  144.2652  156.3664 H   0  0  0  0  0  0  0  0  0  0  0  0
  149.4773  140.1658  155.7733 H   0  0  0  0  0  0  0  0  0  0  0  0
  150.2564  137.9911  157.2089 H   0  0  0  0  0  0  0  0  0  0  0  0
  149.4736  137.7852  155.6496 H   0  0  0  0  0  0  0  0  0  0  0  0
  152.4089  137.5674  156.2799 H   0  0  0  0  0  0  0  0  0  0  0  0
  151.4484  136.5987  155.1615 H   0  0  0  0  0  0  0  0  0  0  0  0
  152.9893  138.9892  154.5735 H   0  0  0  0  0  0  0  0  0  0  0  0
  151.9453  138.1328  153.4371 H   0  0  0  0  0  0  0  0  0  0  0  0
  1  2  2  0  0  0  0
  2  3  1  0  0  0  0
  2 11  1  0  0  0  0
  3  4  1  0  0  0  0
  3 16  1  0  0  0  0
  4  9  1  0  0  0  0
  4  5  2  0  0  0  0
  5  6  1  0  0  0  0
  6  7  2  0  0  0  0
  6 17  1  0  0  0  0
  7  8  1  0  0  0  0
  7 18  1  0  0  0  0
  8  9  2  0  0  0  0
  8 19  1  0  0  0  0
  9 10  1  0  0  0  0
 10 20  1  0  0  0  0
 11 15  1  0  0  0  0
 11 12  1  0  0  0  0
 11 21  1  0  0  0  0
 12 13  1  0  0  0  0
 12 22  1  0  0  0  0
 12 23  1  0  0  0  0
 13 14  1  0  0  0  0
 13 24  1  0  0  0  0
 13 25  1  0  0  0  0
 14 15  1  0  0  0  0
 14 26  1  0  0  0  0
 14 27  1  0  0  0  0
M  END
> <s_m_source_file>
AV-unprocessed.smi

> <i_m_source_file_index>
1592

> <i_lp_mmshare_version>
43012

> <i_f3d_flags>
0

> <s_epik_input>
TzFbQ0gyXVtDSDJdW0NIMl1bQ0BIXTFDKD1PKVtOSF1jMm5bY0hdW2NIXVtjSF1jMltPSF0=

> <s_epik_cmdline>
J2VwaWtfcHl0aG9uJywgJy1waCcsICc3LjAnLCAnLXRuJywgJzgnLCAnLW1hJywgJzIwMCcsICctbWV0YWxfYmluZGluZycsICctaW1hZScsICc8aW5maWxlLm1hZT4nLCAnLW9tYWUnLCAnPG91dGZpbGUubWFlPic=

> <r_lp_tautomer_probability>
0.43658

> <r_epik_Ionization_Penalty>
0.0209102

> <r_epik_Ionization_Penalty_Charging>
0

> <r_epik_Ionization_Penalty_Neutral>
0.0209102

> <r_epik_State_Penalty>
0.412899

> <r_epik_Charging_Adjusted_Penalty>
0.412899

> <i_epik_Tot_Q>
0

> <i_epik_Tot_abs_Q>
0

> <r_epik_Metal_State_Penalty>
0.372161

> <b_epik_Metal_Only>
0

> <s_lp_Force_Field>
OPLS_2005

> <r_lp_Energy>
20.4398

> <b_lp_Chiralities_Consistent>
1

> <s_lp_Variant>
AV-unprocessed.smi:1592-1

> <Gold.Version>
5.8.1

> <Gold.Id.Protein>
6NUR|6NUR_protein|mol2

> <Gold.PLP.Fitness>
39.2322

> <Gold.PLP.PLP>
-31.6199

> <Gold.PLP.part.hbond>
-3.0361

> <Gold.PLP.part.metal>
0.0000

> <Gold.PLP.part.buried>
-4.0831

> <Gold.PLP.part.nonpolar>
-22.8985

> <Gold.PLP.part.repulsive>
0.1479

> <Gold.PLP.ligand.clash>
0.0000

> <Gold.PLP.ligand.torsion>
0.7123

> <Gold.PLP.Chemscore.Hbond>
3.0000

> <Gold.PLP.Chemscore.CHOScore>
0.0000

> <Gold.PLP.Chemscore.Metal>
0.0000

> <Gold.Chemscore.Hbonds>
donor molecule, donor type, donor heavy atom, donor atom, acceptor molecule, acceptor atom, score
      L1  H    10    20       P1  8028  1.00
      P1  H  7989  7998       L1    15  1.00
      P1  H  7997  8010       L1     1  1.00

> <Gold.PLP.Chemscore.Internal.Correction>
0.0370

> <Gold.Rescore>
     Score         DG    S(hbond)    S(metal)    S(lipo)     H(rot)  DE(clash)    DE(int)     intcor
     17.62     -20.10       2.95        0.00      72.98       1.47       0.03       2.45       ----

> <Gold.Chemscore.Fitness>
17.6236

> <Gold.Chemscore.DG>
-20.1036

> <Gold.Chemscore.ZeroCoef>
-5.4800

> <Gold.Chemscore.Hbond>
2.9517

> <Gold.Chemscore.Metal>
0.0000

> <Gold.Chemscore.Lipo>
72.9827

> <Gold.Chemscore.Internal_Hbond>
0.0000

> <Gold.Chemscore.DEClash>
0.0280

> <Gold.Chemscore.DEInternal>
2.4520

> <Gold.Chemscore.Rot>
1.4742

> <Gold.Chemscore.Internal.Correction>
   9.000000E+99

> <Gold.Chemscore.Hbonds>
donor molecule, donor type, donor heavy atom, donor atom, acceptor molecule, acceptor atom, score
      L1  H    10    20       P1  8028  1.00
      P1  H  7989  7998       L1    15  0.50
      P1  H  7997  8010       L1     1  0.95

> <Gold.Chemscore.Hbond.Weighted>
-9.8585

> <Gold.Chemscore.Metal.Weighted>
-0.0000

> <Gold.Chemscore.Lipo.Weighted>
-8.5390

> <Gold.Chemscore.Internal_Hbond.Weighted>
0.0000

> <Gold.Chemscore.DEClash.Weighted>
0.0280

> <Gold.Chemscore.DEInternal.Weighted>
2.4520

> <Gold.Chemscore.Rot.Weighted>
3.7739

> <Gold.Chemscore.Internal.Correction.Weighted>
   9.000000E+99

> <Gold.Protein.RotatedTorsions>
[ 6907 6896 6895 6894 ] final -175.09 input  -60.11 | X-H torsion
[ 7974 7965 7964 7962 ] final -124.15 input  175.53 | X-H torsion
[ 8008 7997 7996 7995 ] final   56.60 input   59.86 | X-H torsion
[ 10167 10162 10161 10158 ] final  136.13 input  -65.29 | X-H torsion
[ 10718 10713 10712 10709 ] final   -0.32 input   66.30 | X-H torsion
[ 10763 10752 10751 10750 ] final -160.74 input  -60.55 | X-H torsion
[ 11005 11000 10999 10996 ] final -159.79 input  -57.11 | X-H torsion

> <Gold.Protein.ActiveResidues>
 VAL166  LYS551  ARG553  GLY616  TRP617  ASP618  TYR619  PRO620  LYS621  CYS622 
 ASP623  PHE694  ASN695  SER759  ASP760  ASP761  ALA762  ILE779  LEU786  VAL792 
 PHE793  MET794  SER795  GLU796  ALA797  LYS798  CYS799  TRP800  GLU811  SER814 

> <Gold.Protein.RotatedAtoms>
  151.5830  133.3375  159.3011 H   0  0  0  0  0  0  0  0  0  0  0  0  # atno 6907 bound_to 6896
  150.8303  134.7556  159.6859 H   0  0  0  0  0  0  0  0  0  0  0  0  # atno 6908 bound_to 6896
  152.4387  134.5641  159.9954 H   0  0  0  0  0  0  0  0  0  0  0  0  # atno 6909 bound_to 6896
  145.0111  140.7906  143.4438 H   0  0  0  0  0  0  0  0  0  0  0  0  # atno 7974 bound_to 7965
  155.5201  140.3479  155.4405 H   0  0  0  0  0  0  0  0  0  0  0  0  # atno 8008 bound_to 7997
  156.0790  140.1382  156.9762 H   0  0  0  0  0  0  0  0  0  0  0  0  # atno 8009 bound_to 7997
  154.4569  140.0950  156.6759 H   0  0  0  0  0  0  0  0  0  0  0  0  # atno 8010 bound_to 7997
  139.5191  144.6480  151.5383 H   0  0  0  0  0  0  0  0  0  0  0  0  # atno 10167 bound_to 10162
  156.8222  130.5460  149.5696 H   0  0  0  0  0  0  0  0  0  0  0  0  # atno 10718 bound_to 10713
  154.7364  135.3058  154.8804 H   0  0  0  0  0  0  0  0  0  0  0  0  # atno 10763 bound_to 10752
  153.9632  135.6750  153.4749 H   0  0  0  0  0  0  0  0  0  0  0  0  # atno 10764 bound_to 10752
  153.0966  135.4932  154.8713 H   0  0  0  0  0  0  0  0  0  0  0  0  # atno 10765 bound_to 10752
  140.6386  134.4575  157.5232 H   0  0  0  0  0  0  0  0  0  0  0  0  # atno 11005 bound_to 11000
  145.2022  139.2246  143.5187 LP  0  0  0  0  0  0  0  0  0  0  0  0  # atno 17320 bound_to 7965
  146.3470  140.1842  142.8589 LP  0  0  0  0  0  0  0  0  0  0  0  0  # atno 17321 bound_to 7965
  140.6274  143.9143  150.6576 LP  0  0  0  0  0  0  0  0  0  0  0  0  # atno 17342 bound_to 10162
  140.2436  143.3645  152.1466 LP  0  0  0  0  0  0  0  0  0  0  0  0  # atno 17343 bound_to 10162
  156.0982  130.5948  150.9849 LP  0  0  0  0  0  0  0  0  0  0  0  0  # atno 17370 bound_to 10713
  157.6451  131.0905  150.8171 LP  0  0  0  0  0  0  0  0  0  0  0  0  # atno 17371 bound_to 10713
  139.9088  134.8389  156.1603 LP  0  0  0  0  0  0  0  0  0  0  0  0  # atno 17394 bound_to 11000
  141.0623  133.6836  156.1976 LP  0  0  0  0  0  0  0  0  0  0  0  0  # atno 17395 bound_to 11000

$$$$
