AV-unprocessed.smi:72|AV-procd|sdf|744|dock10
  -GOLD-   2262017 73D 1   1.00000     0.00000
 Structure written by MMmdl.
 29 30  0  0  0  0  0  0  0  0  1 V2000
  151.0504  134.3249  156.4834 N   0  0  0  0  0  0  0  0  0  0  0  0
  151.0663  135.6429  156.0778 C   0  0  0  0  0  0  0  0  0  0  0  0
  149.8732  136.1424  155.5382 N   0  0  0  0  0  0  0  0  0  0  0  0
  149.8830  137.3792  155.1528 C   0  0  0  0  0  0  0  0  0  0  0  0
  151.0770  138.1987  155.2775 N   0  0  0  0  0  0  0  0  0  0  0  0
  151.1189  139.6511  154.8350 C   0  0  1  0  0  0  0  0  0  0  0  0
  149.9289  139.9852  154.1780 O   0  0  0  0  0  0  0  0  0  0  0  0
  149.1471  140.8599  154.9878 C   0  0  2  0  0  0  0  0  0  0  0  0
  148.2050  141.6877  154.1005 C   0  0  0  0  0  0  0  0  0  0  0  0
  147.5493  140.8483  153.1743 O   0  0  0  0  0  0  0  0  0  0  0  0
  150.2284  141.6897  155.6785 C   0  0  1  0  0  0  0  0  0  0  0  0
  149.7527  142.3907  156.8122 O   0  0  0  0  0  0  0  0  0  0  0  0
  151.2903  140.6451  156.0087 C   0  0  1  0  0  0  0  0  0  0  0  0
  151.0846  140.0606  157.2865 O   0  0  0  0  0  0  0  0  0  0  0  0
  152.2508  137.6270  155.8410 C   0  0  0  0  0  0  0  0  0  0  0  0
  153.2678  138.3088  155.9709 O   0  0  0  0  0  0  0  0  0  0  0  0
  152.1867  136.2865  156.2384 N   0  0  0  0  0  0  0  0  0  0  0  0
  151.9224  139.7112  154.0991 H   0  0  0  0  0  0  0  0  0  0  0  0
  148.5905  140.2888  155.7332 H   0  0  0  0  0  0  0  0  0  0  0  0
  150.6445  142.4070  154.9691 H   0  0  0  0  0  0  0  0  0  0  0  0
  152.2932  141.0722  155.9824 H   0  0  0  0  0  0  0  0  0  0  0  0
  151.8505  133.8595  156.8864 H   0  0  0  0  0  0  0  0  0  0  0  0
  150.2386  133.7292  156.4093 H   0  0  0  0  0  0  0  0  0  0  0  0
  149.0110  137.8699  154.7210 H   0  0  0  0  0  0  0  0  0  0  0  0
  147.4364  142.1632  154.7104 H   0  0  0  0  0  0  0  0  0  0  0  0
  148.7432  142.4806  153.5806 H   0  0  0  0  0  0  0  0  0  0  0  0
  148.1745  140.5767  152.5197 H   0  0  0  0  0  0  0  0  0  0  0  0
  149.5795  143.2848  156.5600 H   0  0  0  0  0  0  0  0  0  0  0  0
  151.6891  139.3411  157.3875 H   0  0  0  0  0  0  0  0  0  0  0  0
  1  2  1  0  0  0  0
  1 22  1  0  0  0  0
  1 23  1  0  0  0  0
  2 17  2  0  0  0  0
  2  3  1  0  0  0  0
  3  4  2  0  0  0  0
  4  5  1  0  0  0  0
  4 24  1  0  0  0  0
  5  6  1  0  0  0  0
  5 15  1  0  0  0  0
  6 18  1  0  0  0  0
  6 13  1  0  0  0  0
  6  7  1  0  0  0  0
  7  8  1  0  0  0  0
  8 19  1  0  0  0  0
  8  9  1  0  0  0  0
  8 11  1  0  0  0  0
  9 10  1  0  0  0  0
  9 25  1  0  0  0  0
  9 26  1  0  0  0  0
 10 27  1  0  0  0  0
 11 20  1  0  0  0  0
 11 12  1  0  0  0  0
 11 13  1  0  0  0  0
 12 28  1  0  0  0  0
 13 21  1  0  0  0  0
 13 14  1  0  0  0  0
 14 29  1  0  0  0  0
 15 16  2  0  0  0  0
 15 17  1  0  0  0  0
M  END
> <s_m_source_file>
AV-unprocessed.smi

> <i_m_source_file_index>
72

> <i_lp_mmshare_version>
43012

> <i_f3d_flags>
0

> <s_epik_input>
W05IMl1jMW5bY0hdbihjKD1PKW4xKVtDQEBIXTJPW0NASF0oW0NIMl1bT0hdKVtDQEBIXShbT0hdKVtDQEhdMltPSF0=

> <s_epik_cmdline>
J2VwaWtfcHl0aG9uJywgJy1waCcsICc3LjAnLCAnLXRuJywgJzgnLCAnLW1hJywgJzIwMCcsICctbWV0YWxfYmluZGluZycsICctaW1hZScsICc8aW5maWxlLm1hZT4nLCAnLW9tYWUnLCAnPG91dGZpbGUubWFlPic=

> <r_lp_tautomer_probability>
4.77166e-05

> <r_epik_Ionization_Penalty>
1.3546

> <r_epik_Ionization_Penalty_Charging>
1.46833e-10

> <r_epik_Ionization_Penalty_Neutral>
1.3546

> <r_epik_State_Penalty>
3.51908

> <r_epik_Charging_Adjusted_Penalty>
3.51908

> <i_epik_Tot_Q>
0

> <i_epik_Tot_abs_Q>
0

> <r_epik_Metal_State_Penalty>
3.44088

> <b_epik_Metal_Only>
1

> <s_epik_Chemistry_Notes>
This compound contains an acetal/aminal-like group ( X-CH(R)-Y where X, Y are N, S, or O) that may be acid/base labile, releasing an aldehyde.

> <s_lp_Force_Field>
OPLS_2005

> <r_lp_Energy>
34.5765

> <b_lp_Chiralities_Consistent>
1

> <s_lp_Variant>
AV-unprocessed.smi:72-82

> <Gold.Version>
5.8.1

> <Gold.Id.Protein>
6NUR|6NUR_protein|mol2

> <Gold.PLP.Fitness>
35.7871

> <Gold.PLP.PLP>
-24.5191

> <Gold.PLP.part.hbond>
-5.0000

> <Gold.PLP.part.metal>
0.0000

> <Gold.PLP.part.buried>
-1.4590

> <Gold.PLP.part.nonpolar>
-18.5307

> <Gold.PLP.part.repulsive>
0.9832

> <Gold.PLP.ligand.clash>
0.0000

> <Gold.PLP.ligand.torsion>
0.2172

> <Gold.PLP.Chemscore.Hbond>
3.8800

> <Gold.PLP.Chemscore.CHOScore>
0.0000

> <Gold.PLP.Chemscore.Metal>
0.0000

> <Gold.Chemscore.Hbonds>
donor molecule, donor type, donor heavy atom, donor atom, acceptor molecule, acceptor atom, score
      L1  H    10    27       P1  7957  0.99
      L1  H    12    28       P1  8028  1.00
      P1  H  7997  8009       L1    16  0.69
      P1  H 10752 10765       L1    17  1.00

> <Gold.PLP.Chemscore.Internal.Correction>
0.0623

> <Gold.Rescore>
     Score         DG    S(hbond)    S(metal)    S(lipo)     H(rot)  DE(clash)    DE(int)     intcor
      7.44      -8.37       2.95        0.00      29.40       4.06       0.66       0.27       ----

> <Gold.Chemscore.Fitness>
7.4429

> <Gold.Chemscore.DG>
-8.3729

> <Gold.Chemscore.ZeroCoef>
-5.4800

> <Gold.Chemscore.Hbond>
2.9482

> <Gold.Chemscore.Metal>
0.0000

> <Gold.Chemscore.Lipo>
29.3976

> <Gold.Chemscore.Internal_Hbond>
0.0000

> <Gold.Chemscore.DEClash>
0.6628

> <Gold.Chemscore.DEInternal>
0.2671

> <Gold.Chemscore.Rot>
4.0600

> <Gold.Chemscore.Internal.Correction>
   9.000000E+99

> <Gold.Chemscore.Hbonds>
donor molecule, donor type, donor heavy atom, donor atom, acceptor molecule, acceptor atom, score
      L1  H    10    27       P1  7957  0.92
      L1  H    12    28       P1  8028  1.00
      P1  H  7997  8009       L1    16  0.66
      P1  H 10752 10765       L1    17  0.22

> <Gold.Chemscore.Hbond.Weighted>
-9.8470

> <Gold.Chemscore.Metal.Weighted>
-0.0000

> <Gold.Chemscore.Lipo.Weighted>
-3.4395

> <Gold.Chemscore.Internal_Hbond.Weighted>
0.0000

> <Gold.Chemscore.DEClash.Weighted>
0.6628

> <Gold.Chemscore.DEInternal.Weighted>
0.2671

> <Gold.Chemscore.Rot.Weighted>
10.3936

> <Gold.Chemscore.Internal.Correction.Weighted>
   9.000000E+99

> <Gold.Protein.RotatedTorsions>
[ 6907 6896 6895 6894 ] final  -47.88 input  -60.11 | X-H torsion
[ 7974 7965 7964 7962 ] final   87.48 input  175.53 | X-H torsion
[ 8008 7997 7996 7995 ] final -161.20 input   59.86 | X-H torsion
[ 10167 10162 10161 10158 ] final   13.21 input  -65.29 | X-H torsion
[ 10718 10713 10712 10709 ] final    1.64 input   66.30 | X-H torsion
[ 10763 10752 10751 10750 ] final -137.42 input  -60.55 | X-H torsion
[ 11005 11000 10999 10996 ] final    9.26 input  -57.11 | X-H torsion

> <Gold.Protein.ActiveResidues>
 VAL166  LYS551  ARG553  GLY616  TRP617  ASP618  TYR619  PRO620  LYS621  CYS622 
 ASP623  PHE694  ASN695  SER759  ASP760  ASP761  ALA762  ILE779  LEU786  VAL792 
 PHE793  MET794  SER795  GLU796  ALA797  LYS798  CYS799  TRP800  GLU811  SER814 

> <Gold.Protein.RotatedAtoms>
  150.8962  134.8370  159.7327 H   0  0  0  0  0  0  0  0  0  0  0  0  # atno 6907 bound_to 6896
  152.4866  134.4572  159.9603 H   0  0  0  0  0  0  0  0  0  0  0  0  # atno 6908 bound_to 6896
  151.4629  133.3549  159.2847 H   0  0  0  0  0  0  0  0  0  0  0  0  # atno 6909 bound_to 6896
  145.5584  139.2301  143.2473 H   0  0  0  0  0  0  0  0  0  0  0  0  # atno 7974 bound_to 7965
  155.7886  140.0875  157.2021 H   0  0  0  0  0  0  0  0  0  0  0  0  # atno 8008 bound_to 7997
  154.3986  140.1494  156.3195 H   0  0  0  0  0  0  0  0  0  0  0  0  # atno 8009 bound_to 7997
  155.8581  140.3431  155.5740 H   0  0  0  0  0  0  0  0  0  0  0  0  # atno 8010 bound_to 7997
  140.6017  143.8590  150.6972 H   0  0  0  0  0  0  0  0  0  0  0  0  # atno 10167 bound_to 10162
  156.8512  130.5554  149.5669 H   0  0  0  0  0  0  0  0  0  0  0  0  # atno 10718 bound_to 10713
  154.8662  135.3643  154.5220 H   0  0  0  0  0  0  0  0  0  0  0  0  # atno 10763 bound_to 10752
  153.5849  135.7017  153.5452 H   0  0  0  0  0  0  0  0  0  0  0  0  # atno 10764 bound_to 10752
  153.3424  135.4094  155.1544 H   0  0  0  0  0  0  0  0  0  0  0  0  # atno 10765 bound_to 10752
  140.5278  134.0496  155.7864 H   0  0  0  0  0  0  0  0  0  0  0  0  # atno 11005 bound_to 11000
  146.1868  140.6409  142.9164 LP  0  0  0  0  0  0  0  0  0  0  0  0  # atno 17320 bound_to 7965
  144.7495  140.5154  143.6812 LP  0  0  0  0  0  0  0  0  0  0  0  0  # atno 17321 bound_to 7965
  140.2138  143.3863  152.1697 LP  0  0  0  0  0  0  0  0  0  0  0  0  # atno 17342 bound_to 10162
  139.5296  144.7143  151.5104 LP  0  0  0  0  0  0  0  0  0  0  0  0  # atno 17343 bound_to 10162
  156.0827  130.5833  150.9592 LP  0  0  0  0  0  0  0  0  0  0  0  0  # atno 17370 bound_to 10713
  157.6302  131.0922  150.8456 LP  0  0  0  0  0  0  0  0  0  0  0  0  # atno 17371 bound_to 10713
  141.1298  133.9321  157.2559 LP  0  0  0  0  0  0  0  0  0  0  0  0  # atno 17394 bound_to 11000
  139.9571  135.0163  156.9157 LP  0  0  0  0  0  0  0  0  0  0  0  0  # atno 17395 bound_to 11000

$$$$
