AV-unprocessed.smi:2001|AV-procd|sdf|8111|dock9
  -GOLD-   2272010343D 1   1.00000     0.00000
 Structure written by MMmdl.
 50 51  0  0  0  0  0  0  0  0  3 V2000
  151.9092  138.5117  158.1446 C   0  0  0  0  0  0  0  0  0  0  0  0
  153.2057  138.9099  157.7368 O   0  0  0  0  0  0  0  0  0  0  0  0
  153.6055  138.2984  156.5213 C   0  0  0  0  0  0  0  0  0  0  0  0
  152.7447  138.8280  155.3629 C   0  0  0  0  0  0  0  0  0  0  0  0
  151.3794  138.2937  155.4131 N   0  0  0  0  0  0  0  0  0  0  0  0
  151.3197  136.9113  155.3759 N   0  0  0  0  0  0  0  0  0  0  0  0
  150.1800  136.3011  155.4247 C   0  0  0  0  0  0  0  0  0  0  0  0
  150.1191  134.8048  155.3847 C   0  0  0  0  0  0  0  0  0  0  0  0
  150.2899  134.2423  156.4753 O   0  0  0  0  0  0  0  0  0  0  0  0
  149.8886  134.1788  154.1911 N   0  5  0  0  0  0  0  0  0  0  0  0
  148.8072  133.2302  153.9347 C   0  0  0  0  0  0  0  0  0  0  0  0
  147.4474  133.9184  154.1599 C   0  0  0  0  0  0  0  0  0  0  0  0
  146.8028  134.3034  152.8764 N   0  3  1  0  0  0  0  0  0  0  0  0
  146.7013  133.1801  151.9155 C   0  0  0  0  0  0  0  0  0  0  0  0
  146.1542  133.6781  150.5653 C   0  0  1  0  0  0  0  0  0  0  0  0
  145.9469  132.5309  149.5706 C   0  0  0  0  0  0  0  0  0  0  0  0
  144.8955  134.3169  150.7651 O   0  0  0  0  0  0  0  0  0  0  0  0
  144.9167  135.4131  151.6800 C   0  0  2  0  0  0  0  0  0  0  0  0
  145.6393  136.6434  151.1026 C   0  0  0  0  0  0  0  0  0  0  0  0
  145.4771  134.9557  153.0398 C   0  0  0  0  0  0  0  0  0  0  0  0
  148.9401  137.0618  155.5204 C   0  0  0  0  0  0  0  0  0  0  0  0
  149.0143  138.4101  155.5605 C   0  0  0  0  0  0  0  0  0  0  0  0
  150.2936  139.1184  155.5086 C   0  0  0  0  0  0  0  0  0  0  0  0
  150.3839  140.3453  155.5493 O   0  0  0  0  0  0  0  0  0  0  0  0
  151.6593  138.9944  159.0895 H   0  0  0  0  0  0  0  0  0  0  0  0
  151.8555  137.4323  158.2928 H   0  0  0  0  0  0  0  0  0  0  0  0
  151.1580  138.8027  157.4092 H   0  0  0  0  0  0  0  0  0  0  0  0
  154.6539  138.5309  156.3298 H   0  0  0  0  0  0  0  0  0  0  0  0
  153.5230  137.2123  156.5911 H   0  0  0  0  0  0  0  0  0  0  0  0
  152.7526  139.9192  155.3538 H   0  0  0  0  0  0  0  0  0  0  0  0
  153.2024  138.5319  154.4172 H   0  0  0  0  0  0  0  0  0  0  0  0
  148.8366  132.8393  152.9168 H   0  0  0  0  0  0  0  0  0  0  0  0
  148.8763  132.3601  154.5886 H   0  0  0  0  0  0  0  0  0  0  0  0
  146.8032  133.2231  154.7007 H   0  0  0  0  0  0  0  0  0  0  0  0
  147.5522  134.7939  154.8030 H   0  0  0  0  0  0  0  0  0  0  0  0
  147.6856  132.7344  151.7650 H   0  0  0  0  0  0  0  0  0  0  0  0
  146.0554  132.4040  152.3297 H   0  0  0  0  0  0  0  0  0  0  0  0
  146.8579  134.3838  150.1235 H   0  0  0  0  0  0  0  0  0  0  0  0
  146.8840  132.0116  149.3686 H   0  0  0  0  0  0  0  0  0  0  0  0
  145.5632  132.9040  148.6205 H   0  0  0  0  0  0  0  0  0  0  0  0
  145.2342  131.7999  149.9535 H   0  0  0  0  0  0  0  0  0  0  0  0
  143.8757  135.7009  151.8299 H   0  0  0  0  0  0  0  0  0  0  0  0
  145.5194  137.5043  151.7605 H   0  0  0  0  0  0  0  0  0  0  0  0
  145.2297  136.9135  150.1289 H   0  0  0  0  0  0  0  0  0  0  0  0
  146.7095  136.4770  150.9818 H   0  0  0  0  0  0  0  0  0  0  0  0
  144.7864  134.2472  153.5001 H   0  0  0  0  0  0  0  0  0  0  0  0
  145.5460  135.8078  153.7170 H   0  0  0  0  0  0  0  0  0  0  0  0
  147.9766  136.5761  155.5630 H   0  0  0  0  0  0  0  0  0  0  0  0
  148.1024  138.9845  155.6338 H   0  0  0  0  0  0  0  0  0  0  0  0
  147.4188  134.9821  152.4515 H   0  0  0  0  0  0  0  0  0  0  0  0
  1  2  1  0  0  0  0
  1 25  1  0  0  0  0
  1 26  1  0  0  0  0
  1 27  1  0  0  0  0
  2  3  1  0  0  0  0
  3  4  1  0  0  0  0
  3 28  1  0  0  0  0
  3 29  1  0  0  0  0
  4  5  1  0  0  0  0
  4 30  1  0  0  0  0
  4 31  1  0  0  0  0
  5 23  1  0  0  0  0
  5  6  1  0  0  0  0
  6  7  2  0  0  0  0
  7  8  1  0  0  0  0
  7 21  1  0  0  0  0
  8  9  2  0  0  0  0
  8 10  1  0  0  0  0
 10 11  1  0  0  0  0
 11 12  1  0  0  0  0
 11 32  1  0  0  0  0
 11 33  1  0  0  0  0
 12 13  1  0  0  0  0
 12 34  1  0  0  0  0
 12 35  1  0  0  0  0
 13 20  1  0  0  0  0
 13 14  1  0  0  0  0
 13 50  1  0  0  0  0
 14 15  1  0  0  0  0
 14 36  1  0  0  0  0
 14 37  1  0  0  0  0
 15 16  1  0  0  0  0
 15 17  1  0  0  0  0
 15 38  1  0  0  0  0
 16 39  1  0  0  0  0
 16 40  1  0  0  0  0
 16 41  1  0  0  0  0
 17 18  1  0  0  0  0
 18 19  1  0  0  0  0
 18 20  1  0  0  0  0
 18 42  1  0  0  0  0
 19 43  1  0  0  0  0
 19 44  1  0  0  0  0
 19 45  1  0  0  0  0
 20 46  1  0  0  0  0
 20 47  1  0  0  0  0
 21 22  2  0  0  0  0
 21 48  1  0  0  0  0
 22 23  1  0  0  0  0
 22 49  1  0  0  0  0
 23 24  2  0  0  0  0
M  CHG  1  10  -1
M  CHG  1  13   1
M  END
> <s_m_source_file>
AV-unprocessed.smi

> <i_m_source_file_index>
2001

> <i_lp_mmshare_version>
43012

> <i_f3d_flags>
0

> <s_epik_input>
W0NIM11PW0NIMl1bQ0gyXW4xbmMoW2NIXVtjSF1jMT1PKUMoPU8pW05IXVtDSDJdW0NIMl1OMltDSDJdW0NAQEhdKFtDSDNdKU9bQ0BASF0oW0NIM10pW0NIMl0y

> <s_epik_cmdline>
J2VwaWtfcHl0aG9uJywgJy1waCcsICc3LjAnLCAnLXRuJywgJzgnLCAnLW1hJywgJzIwMCcsICctbWV0YWxfYmluZGluZycsICctaW1hZScsICc8aW5maWxlLm1hZT4nLCAnLW9tYWUnLCAnPG91dGZpbGUubWFlPic=

> <r_lp_tautomer_probability>
1

> <r_epik_Ionization_Penalty>
6.90846

> <r_epik_Ionization_Penalty_Charging>
6.90846

> <r_epik_Ionization_Penalty_Neutral>
1.08445e-11

> <r_epik_State_Penalty>
7.54671

> <r_epik_Charging_Adjusted_Penalty>
14.4552

> <i_epik_Tot_Q>
0

> <i_epik_Tot_abs_Q>
2

> <r_epik_Metal_State_Penalty>
3.46181

> <b_epik_Metal_Only>
1

> <s_lp_Force_Field>
OPLS_2005

> <r_lp_Energy>
43.982

> <b_lp_Chiralities_Consistent>
1

> <s_lp_Variant>
AV-unprocessed.smi:2001-10

> <Gold.Version>
5.8.1

> <Gold.Id.Protein>
6NUR|6NUR_protein|mol2

> <Gold.PLP.Fitness>
46.4547

> <Gold.PLP.PLP>
-36.8289

> <Gold.PLP.part.hbond>
-3.6178

> <Gold.PLP.part.metal>
0.0000

> <Gold.PLP.part.buried>
-0.3665

> <Gold.PLP.part.nonpolar>
-33.0248

> <Gold.PLP.part.repulsive>
0.5602

> <Gold.PLP.ligand.clash>
0.0000

> <Gold.PLP.ligand.torsion>
2.3616

> <Gold.PLP.Chemscore.Hbond>
4.7200

> <Gold.PLP.Chemscore.CHOScore>
0.0000

> <Gold.PLP.Chemscore.Metal>
0.0000

> <Gold.Chemscore.Hbonds>
donor molecule, donor type, donor heavy atom, donor atom, acceptor molecule, acceptor atom, score
      L1  H    13    50       P1  7948  1.98
      P1  H 10752 10764       L1     6  0.29

> <Gold.PLP.Chemscore.Internal.Correction>
0.1889

> <Gold.Rescore>
     Score         DG    S(hbond)    S(metal)    S(lipo)     H(rot)  DE(clash)    DE(int)     intcor
     15.66     -21.27       3.32        0.00      84.23       2.02       1.98       3.64       ----

> <Gold.Chemscore.Fitness>
15.6555

> <Gold.Chemscore.DG>
-21.2714

> <Gold.Chemscore.ZeroCoef>
-5.4800

> <Gold.Chemscore.Hbond>
3.3241

> <Gold.Chemscore.Metal>
0.0000

> <Gold.Chemscore.Lipo>
84.2275

> <Gold.Chemscore.Internal_Hbond>
0.0000

> <Gold.Chemscore.DEClash>
1.9756

> <Gold.Chemscore.DEInternal>
3.6403

> <Gold.Chemscore.Rot>
2.0179

> <Gold.Chemscore.Internal.Correction>
   9.000000E+99

> <Gold.Chemscore.Hbonds>
donor molecule, donor type, donor heavy atom, donor atom, acceptor molecule, acceptor atom, score
      L1  H    13    50       P1  7948  0.91
      P1  H  7989  7998       L1    24  0.02
      P1  H 10752 10764       L1     6  0.23

> <Gold.Chemscore.Hbond.Weighted>
-11.1026

> <Gold.Chemscore.Metal.Weighted>
-0.0000

> <Gold.Chemscore.Lipo.Weighted>
-9.8546

> <Gold.Chemscore.Internal_Hbond.Weighted>
0.0000

> <Gold.Chemscore.DEClash.Weighted>
1.9756

> <Gold.Chemscore.DEInternal.Weighted>
3.6403

> <Gold.Chemscore.Rot.Weighted>
5.1659

> <Gold.Chemscore.Internal.Correction.Weighted>
   9.000000E+99

> <Gold.Protein.RotatedTorsions>
[ 6907 6896 6895 6894 ] final  -17.50 input  -60.11 | X-H torsion
[ 7974 7965 7964 7962 ] final  -22.05 input  175.53 | X-H torsion
[ 8008 7997 7996 7995 ] final  144.08 input   59.86 | X-H torsion
[ 10167 10162 10161 10158 ] final  -59.27 input  -65.29 | X-H torsion
[ 10718 10713 10712 10709 ] final  106.03 input   66.30 | X-H torsion
[ 10763 10752 10751 10750 ] final  -77.58 input  -60.55 | X-H torsion
[ 11005 11000 10999 10996 ] final -101.95 input  -57.11 | X-H torsion

> <Gold.Protein.ActiveResidues>
 VAL166  LYS551  ARG553  GLY616  TRP617  ASP618  TYR619  PRO620  LYS621  CYS622 
 ASP623  PHE694  ASN695  SER759  ASP760  ASP761  ALA762  ILE779  LEU786  VAL792 
 PHE793  MET794  SER795  GLU796  ALA797  LYS798  CYS799  TRP800  GLU811  SER814 

> <Gold.Protein.RotatedAtoms>
  151.2924  135.0745  159.9208 H   0  0  0  0  0  0  0  0  0  0  0  0  # atno 6907 bound_to 6896
  152.5314  133.9918  159.7864 H   0  0  0  0  0  0  0  0  0  0  0  0  # atno 6908 bound_to 6896
  151.0190  133.5843  159.2704 H   0  0  0  0  0  0  0  0  0  0  0  0  # atno 6909 bound_to 6896
  146.1698  140.4426  142.8537 H   0  0  0  0  0  0  0  0  0  0  0  0  # atno 7974 bound_to 7965
  156.2916  140.2245  156.4995 H   0  0  0  0  0  0  0  0  0  0  0  0  # atno 8008 bound_to 7997
  154.7702  140.0467  157.1066 H   0  0  0  0  0  0  0  0  0  0  0  0  # atno 8009 bound_to 7997
  154.9884  140.3087  155.4920 H   0  0  0  0  0  0  0  0  0  0  0  0  # atno 8010 bound_to 7997
  140.6145  143.2398  151.5629 H   0  0  0  0  0  0  0  0  0  0  0  0  # atno 10167 bound_to 10162
  157.6683  131.0841  150.5945 H   0  0  0  0  0  0  0  0  0  0  0  0  # atno 10718 bound_to 10713
  154.5148  135.5759  153.6634 H   0  0  0  0  0  0  0  0  0  0  0  0  # atno 10763 bound_to 10752
  152.9904  135.6167  154.2831 H   0  0  0  0  0  0  0  0  0  0  0  0  # atno 10764 bound_to 10752
  154.2748  135.2852  155.2702 H   0  0  0  0  0  0  0  0  0  0  0  0  # atno 10765 bound_to 10752
  141.1209  133.8519  157.1297 H   0  0  0  0  0  0  0  0  0  0  0  0  # atno 11005 bound_to 11000
  144.8146  140.6445  143.6393 LP  0  0  0  0  0  0  0  0  0  0  0  0  # atno 17320 bound_to 7965
  145.4371  139.1541  143.3991 LP  0  0  0  0  0  0  0  0  0  0  0  0  # atno 17321 bound_to 7965
  139.5388  144.2706  152.1307 LP  0  0  0  0  0  0  0  0  0  0  0  0  # atno 17342 bound_to 10162
  140.1912  144.4749  150.6478 LP  0  0  0  0  0  0  0  0  0  0  0  0  # atno 17343 bound_to 10162
  156.6246  130.4415  149.5809 LP  0  0  0  0  0  0  0  0  0  0  0  0  # atno 17370 bound_to 10713
  156.2329  130.6805  151.1481 LP  0  0  0  0  0  0  0  0  0  0  0  0  # atno 17371 bound_to 10713
  140.0167  134.9964  157.0507 LP  0  0  0  0  0  0  0  0  0  0  0  0  # atno 17394 bound_to 11000
  140.4508  134.1584  155.7181 LP  0  0  0  0  0  0  0  0  0  0  0  0  # atno 17395 bound_to 11000

$$$$
