#       Name:                AV-unprocessed.smi:151
#       Creating user name   scv26
#       Creation time:       Thu Mar 26 18:46:34 2020


#       File generated by GOLD software.
#

@<TRIPOS>MOLECULE
AV-unprocessed.smi:151
    66    69     1
SMALL
NO_CHARGES


@<TRIPOS>ATOM
      1 ****        -2.8207  -3.0081   0.7506 C.3            1 S1                 0.0000
      2 ****        -2.6463  -2.2720   2.0897 C.3            1 S1                 0.0000
      3 ****        -3.0915  -0.7858   2.0896 C.3            1 S1                 0.0000
      4 ****        -4.6229  -0.6635   1.9321 C.3            1 S1                 0.0000
      5 ****        -5.0265   0.7026   1.8950 O.3            1 S1                 0.0000
      6 ****        -4.4207   1.4852   0.8635 C.3            1 S1                 0.0000
      7 ****        -4.8706   1.0261  -0.5404 C.3            1 S1                 0.0000
      8 ****        -4.9014   2.9247   1.1040 C.3            1 S1                 0.0000
      9 ****        -2.8899   1.4115   1.0291 C.3            1 S1                 0.0000
     10 ****        -2.4189   0.0309   1.0720 N.3            1 S1                 0.0000
     11 ****        -1.0660   0.0035   1.0237 C.ar           1 S1                 0.0000
     12 ****        -0.3345  -0.0053   2.1695 N.ar           1 S1                 0.0000
     13 ****         1.0003  -0.0098   2.1081 C.ar           1 S1                 0.0000
     14 ****         1.7864   0.0032   1.0296 N.ar           1 S1                 0.0000
     15 ****         1.0549   0.0281  -0.1220 C.ar           1 S1                 0.0000
     16 ****        -0.3651   0.0320  -0.2107 C.ar           1 S1                 0.0000
     17 ****        -0.7623   0.0618  -1.5408 N.2            1 S1                 0.0000
     18 ****         0.3615   0.0727  -2.2041 C.2            1 S1                 0.0000
     19 ****         1.5035   0.0550  -1.4334 N.pl3          1 S1                 0.0000
     20 ****         2.8564   0.0553  -1.9168 C.3            1 S1                 0.0000
     21 ****         3.8392  -1.0507  -1.5201 C.3            1 S1                 0.0000
     22 ****         4.9873  -0.0155  -1.4585 C.3            1 S1                 0.0000
     23 ****         5.9166  -0.0995  -0.2327 C.3            1 S1                 0.0000
     24 ****         5.2102  -0.1427   0.9911 O.3            1 S1                 0.0000
     25 ****         5.9341   0.0239  -2.6764 C.3            1 S1                 0.0000
     26 ****         5.2560   0.1087  -3.9137 O.3            1 S1                 0.0000
     27 ****         3.8875   1.0721  -1.4146 C.3            1 S1                 0.0000
     28 ****        -2.4560  -4.0324   0.8288 H              1 S1                 0.0000
     29 ****        -2.2618  -2.5232  -0.0500 H              1 S1                 0.0000
     30 ****        -3.8657  -3.0602   0.4475 H              1 S1                 0.0000
     31 ****        -3.2047  -2.8066   2.8586 H              1 S1                 0.0000
     32 ****        -1.6032  -2.3504   2.3944 H              1 S1                 0.0000
     33 ****        -2.8373  -0.3634   3.0630 H              1 S1                 0.0000
     34 ****        -4.9816  -1.1763   1.0412 H              1 S1                 0.0000
     35 ****        -5.1212  -1.1412   2.7759 H              1 S1                 0.0000
     36 ****        -4.4938   1.7015  -1.3090 H              1 S1                 0.0000
     37 ****        -5.9579   1.0097  -0.6195 H              1 S1                 0.0000
     38 ****        -4.5050   0.0307  -0.7918 H              1 S1                 0.0000
     39 ****        -4.4665   3.6148   0.3803 H              1 S1                 0.0000
     40 ****        -4.6250   3.2729   2.0998 H              1 S1                 0.0000
     41 ****        -5.9864   2.9972   1.0210 H              1 S1                 0.0000
     42 ****        -2.4054   1.9537   0.2151 H              1 S1                 0.0000
     43 ****        -2.5941   1.9063   1.9559 H              1 S1                 0.0000
     44 ****         1.5120  -0.0248   3.0590 H              1 S1                 0.0000
     45 ****         0.3861   0.0931  -3.2841 H              1 S1                 0.0000
     46 ****         2.7889   0.1121  -3.0041 H              1 S1                 0.0000
     47 ****         3.5997  -1.4970  -0.5545 H              1 S1                 0.0000
     48 ****         3.9642  -1.8254  -2.2772 H              1 S1                 0.0000
     49 ****         6.5452  -0.9893  -0.2840 H              1 S1                 0.0000
     50 ****         6.5893   0.7582  -0.1966 H              1 S1                 0.0000
     51 ****         5.8350  -0.1970   1.6980 H              1 S1                 0.0000
     52 ****         6.6090   0.8782  -2.6126 H              1 S1                 0.0000
     53 ****         6.5619  -0.8674  -2.7057 H              1 S1                 0.0000
     54 ****         5.8976   0.1347  -4.6071 H              1 S1                 0.0000
     55 ****         4.0497   1.9099  -2.0933 H              1 S1                 0.0000
     56 ****         3.6703   1.4345  -0.4098 H              1 S1                 0.0000
     57 ****        -4.7960   1.1179   2.7750 LP             1 S1                 0.0000
     58 ****        -6.0174   0.7296   1.7630 LP             1 S1                 0.0000
     59 ****        -2.7058  -0.4547   0.2462 LP             1 S1                 0.0000
     60 ****        -0.7948  -0.0084   3.0572 LP             1 S1                 0.0000
     61 ****         2.7859  -0.0043   1.0614 LP             1 S1                 0.0000
     62 ****        -1.6933   0.0725  -1.9058 LP             1 S1                 0.0000
     63 ****         4.6128  -0.9444   1.0071 LP             1 S1                 0.0000
     64 ****         4.6591   0.6857   1.0914 LP             1 S1                 0.0000
     65 ****         4.7003   0.9398  -3.9373 LP             1 S1                 0.0000
     66 ****         4.6660  -0.6902  -4.0302 LP             1 S1                 0.0000
@<TRIPOS>BOND
    1    1    2 1     
    2    1   28 1     
    3    1   29 1     
    4    1   30 1     
    5    2    3 1     
    6    2   31 1     
    7    2   32 1     
    8    3   10 1     
    9    3    4 1     
   10    3   33 1     
   11    4    5 1     
   12    4   34 1     
   13    4   35 1     
   14    5    6 1     
   15    6    7 1     
   16    6    8 1     
   17    6    9 1     
   18    7   36 1     
   19    7   37 1     
   20    7   38 1     
   21    8   39 1     
   22    8   40 1     
   23    8   41 1     
   24    9   10 1     
   25    9   42 1     
   26    9   43 1     
   27   10   11 1     
   28   11   16 ar    
   29   11   12 ar    
   30   12   13 ar    
   31   13   14 ar    
   32   13   44 1     
   33   14   15 ar    
   34   15   19 1     
   35   15   16 ar    
   36   16   17 1     
   37   17   18 2     
   38   18   19 1     
   39   18   45 1     
   40   19   20 1     
   41   20   27 1     
   42   20   21 1     
   43   20   46 1     
   44   21   22 1     
   45   21   47 1     
   46   21   48 1     
   47   22   23 1     
   48   22   25 1     
   49   22   27 1     
   50   23   24 1     
   51   23   49 1     
   52   23   50 1     
   53   24   51 1     
   54   25   26 1     
   55   25   52 1     
   56   25   53 1     
   57   26   54 1     
   58   27   55 1     
   59   27   56 1     
   60    5   57 1     
   61    5   58 1     
   62   10   59 1     
   63   12   60 1     
   64   14   61 1     
   65   17   62 1     
   66   24   63 1     
   67   24   64 1     
   68   26   65 1     
   69   26   66 1     
@<TRIPOS>SUBSTRUCTURE
      1 S1             1
@<TRIPOS>SET
LONE_PAIRS      STATIC     ATOMS    <user>   **** ""
10 57 58 59 60 61 62 63 64 65 66
DONOR_HYDROGENS      STATIC     ATOMS    <user>   **** ""
2 51 54
ATOM$BLUE        STATIC     ATOMS    COLORGROUP SYSTEM
10 57 58 59 60 61 62 63 64 65 66
ATOM$RED        STATIC     ATOMS    COLORGROUP SYSTEM
2 51 54
