#       Name:                AV-unprocessed.smi:767
#       Creating user name   scv26
#       Creation time:       Fri Mar 27 01:07:36 2020


#       File generated by GOLD software.
#

@<TRIPOS>MOLECULE
AV-unprocessed.smi:767
    52    54     1
SMALL
NO_CHARGES


@<TRIPOS>ATOM
      1 ****        -1.2552   2.9314   4.2022 C.3            1 S1                 0.0000
      2 ****        -1.9012   2.1615   3.0696 C.ar           1 S1                 0.0000
      3 ****        -1.5808   2.4010   1.7160 C.ar           1 S1                 0.0000
      4 ****        -2.2171   1.6405   0.7133 C.ar           1 S1                 0.0000
      5 ****        -3.1578   0.6539   1.0831 C.ar           1 S1                 0.0000
      6 ****        -3.8425  -0.1961   0.0263 C.3            1 S1                 0.0000
      7 ****        -3.3299  -1.6505  -0.0263 C.3            1 S1                 0.0000
      8 ****        -1.8728  -1.7514  -0.0468 N.am           1 S1                 0.0000
      9 ****        -1.0890  -1.4032  -1.0765 C.2            1 S1                 0.0000
     10 ****        -1.5092  -0.9485  -2.1402 O.2            1 S1                 0.0000
     11 ****         0.2077  -1.5925  -0.8007 N.am           1 S1                 0.0000
     12 ****         1.2971  -1.2657  -1.7128 C.3            1 S1                 0.0000
     13 ****         2.6715  -1.5819  -1.1220 C.3            1 S1                 0.0000
     14 ****         3.7521  -2.5505  -1.4470 C.3            1 S1                 0.0000
     15 ****         4.9498  -1.5656  -1.3714 C.3            1 S1                 0.0000
     16 ****         4.3705  -0.2394  -1.3016 O.3            1 S1                 0.0000
     17 ****         3.1186  -0.3856  -1.9397 C.3            1 S1                 0.0000
     18 ****         1.7419   0.2444  -1.6491 C.3            1 S1                 0.0000
     19 ****         1.1870   1.1374  -2.7592 C.3            1 S1                 0.0000
     20 ****         1.5816   1.0364  -0.3355 C.3            1 S1                 0.0000
     21 ****        -3.4426   0.4629   2.4520 C.ar           1 S1                 0.0000
     22 ****        -2.8122   1.2126   3.3827 N.pl3          1 S1                 1.0000
     23 ****        -0.6037   3.7184   3.8206 H              1 S1                 0.0000
     24 ****        -0.6556   2.2632   4.8209 H              1 S1                 0.0000
     25 ****        -2.0155   3.3951   4.8313 H              1 S1                 0.0000
     26 ****        -0.8546   3.1539   1.4457 H              1 S1                 0.0000
     27 ****        -1.9764   1.8079  -0.3268 H              1 S1                 0.0000
     28 ****        -4.9168  -0.1932   0.2134 H              1 S1                 0.0000
     29 ****        -3.7101   0.2750  -0.9485 H              1 S1                 0.0000
     30 ****        -3.6742  -2.1855   0.8590 H              1 S1                 0.0000
     31 ****        -3.7551  -2.1731  -0.8846 H              1 S1                 0.0000
     32 ****        -1.4304  -2.1175   0.7836 H              1 S1                 0.0000
     33 ****         0.4605  -1.9749   0.0987 H              1 S1                 0.0000
     34 ****         1.1661  -1.6548  -2.7271 H              1 S1                 0.0000
     35 ****         2.6760  -1.3909  -0.0461 H              1 S1                 0.0000
     36 ****         3.8289  -3.3608  -0.7215 H              1 S1                 0.0000
     37 ****         3.6337  -2.9746  -2.4452 H              1 S1                 0.0000
     38 ****         5.5659  -1.7401  -0.4889 H              1 S1                 0.0000
     39 ****         5.5856  -1.6587  -2.2527 H              1 S1                 0.0000
     40 ****         3.2521  -0.6025  -3.0060 H              1 S1                 0.0000
     41 ****         1.7434   2.0719  -2.8366 H              1 S1                 0.0000
     42 ****         0.1400   1.3884  -2.5871 H              1 S1                 0.0000
     43 ****         1.2419   0.6478  -3.7320 H              1 S1                 0.0000
     44 ****         2.1912   1.9405  -0.3472 H              1 S1                 0.0000
     45 ****         1.8680   0.4777   0.5536 H              1 S1                 0.0000
     46 ****         0.5483   1.3472  -0.1858 H              1 S1                 0.0000
     47 ****        -4.1454  -0.2662   2.8285 H              1 S1                 0.0000
     48 ****        -3.0316   1.0539   4.3666 H              1 S1                 0.0000
     49 ****        -2.4915  -0.8190  -2.2754 LP             1 S1                 0.0000
     50 ****        -0.8683  -0.7086  -2.8694 LP             1 S1                 0.0000
     51 ****         4.9413   0.4247  -1.7845 LP             1 S1                 0.0000
     52 ****         4.2546   0.0494  -0.3513 LP             1 S1                 0.0000
@<TRIPOS>BOND
    1    1    2 1     
    2    1   23 1     
    3    1   24 1     
    4    1   25 1     
    5    2   22 ar    
    6    2    3 ar    
    7    3    4 ar    
    8    3   26 1     
    9    4    5 ar    
   10    4   27 1     
   11    5    6 1     
   12    5   21 ar    
   13    6    7 1     
   14    6   28 1     
   15    6   29 1     
   16    7    8 1     
   17    7   30 1     
   18    7   31 1     
   19    8    9 am    
   20    8   32 1     
   21    9   10 2     
   22    9   11 am    
   23   11   12 1     
   24   11   33 1     
   25   12   18 1     
   26   12   13 1     
   27   12   34 1     
   28   13   17 1     
   29   13   14 1     
   30   13   35 1     
   31   14   15 1     
   32   14   36 1     
   33   14   37 1     
   34   15   16 1     
   35   15   38 1     
   36   15   39 1     
   37   16   17 1     
   38   17   18 1     
   39   17   40 1     
   40   18   19 1     
   41   18   20 1     
   42   19   41 1     
   43   19   42 1     
   44   19   43 1     
   45   20   44 1     
   46   20   45 1     
   47   20   46 1     
   48   21   22 ar    
   49   21   47 1     
   50   22   48 1     
   51   10   49 1     
   52   10   50 1     
   53   16   51 1     
   54   16   52 1     
@<TRIPOS>SUBSTRUCTURE
      1 S1             1
@<TRIPOS>SET
LONE_PAIRS      STATIC     ATOMS    <user>   **** ""
4 49 50 51 52
DONOR_HYDROGENS      STATIC     ATOMS    <user>   **** ""
3 32 33 48
ATOM$BLUE        STATIC     ATOMS    COLORGROUP SYSTEM
4 49 50 51 52
ATOM$RED        STATIC     ATOMS    COLORGROUP SYSTEM
3 32 33 48
