AV-unprocessed.smi:1473|AV-procd|sdf|5966|dock4
  -GOLD-   22720 6 53D 1   1.00000     0.00000
 Structure written by MMmdl.
 34 35  0  0  0  0  0  0  0  0  1 V2000
  147.1427  137.6647  152.5482 N   0  0  0  0  0  0  0  0  0  0  0  0
  146.9849  138.3948  154.0959 S   0  0  0  0  0  0  0  0  0  0  0  0
  146.3483  139.7111  153.9390 O   0  0  0  0  0  0  0  0  0  0  0  0
  146.4655  137.3964  155.0423 O   0  0  0  0  0  0  0  0  0  0  0  0
  148.6528  138.6404  154.4381 N   0  0  0  0  0  0  0  0  0  0  0  0
  149.1272  139.9579  154.8511 C   0  0  0  0  0  0  0  0  0  0  0  0
  150.4039  139.8754  155.6612 C   0  0  0  0  0  0  0  0  0  0  0  0
  151.3875  138.9175  155.3484 C   0  0  0  0  0  0  0  0  0  0  0  0
  152.5485  138.8716  156.1419 C   0  0  0  0  0  0  0  0  0  0  0  0
  152.7646  139.7004  157.1849 N   0  0  0  0  0  0  0  0  0  0  0  0
  151.8257  140.6301  157.4923 C   0  0  0  0  0  0  0  0  0  0  0  0
  152.0682  141.4899  158.5858 N   0  0  0  0  0  0  0  0  0  0  0  0
  153.2618  141.2517  159.3955 C   0  0  0  0  0  0  0  0  0  0  0  0
  153.2046  142.0787  160.6911 C   0  0  0  0  0  0  0  0  0  0  0  0
  153.0227  143.4544  160.3736 O   0  0  0  0  0  0  0  0  0  0  0  0
  151.7995  143.6797  159.6807 C   0  0  0  0  0  0  0  0  0  0  0  0
  151.8024  142.9071  158.3502 C   0  0  0  0  0  0  0  0  0  0  0  0
  150.6247  140.7422  156.7508 C   0  0  0  0  0  0  0  0  0  0  0  0
  147.4969  136.7101  152.6038 H   0  0  0  0  0  0  0  0  0  0  0  0
  147.6555  138.2537  151.8924 H   0  0  0  0  0  0  0  0  0  0  0  0
  149.2952  138.1107  153.8494 H   0  0  0  0  0  0  0  0  0  0  0  0
  149.3169  140.5651  153.9653 H   0  0  0  0  0  0  0  0  0  0  0  0
  148.3418  140.4601  155.4171 H   0  0  0  0  0  0  0  0  0  0  0  0
  151.2553  138.2318  154.5243 H   0  0  0  0  0  0  0  0  0  0  0  0
  153.3240  138.1491  155.9352 H   0  0  0  0  0  0  0  0  0  0  0  0
  153.3441  140.1933  159.6465 H   0  0  0  0  0  0  0  0  0  0  0  0
  154.1481  141.5215  158.8198 H   0  0  0  0  0  0  0  0  0  0  0  0
  152.3966  141.7334  161.3382 H   0  0  0  0  0  0  0  0  0  0  0  0
  154.1323  141.9628  161.2517 H   0  0  0  0  0  0  0  0  0  0  0  0
  150.9557  143.3772  160.3031 H   0  0  0  0  0  0  0  0  0  0  0  0
  151.6888  144.7479  159.4935 H   0  0  0  0  0  0  0  0  0  0  0  0
  152.5744  143.3045  157.6900 H   0  0  0  0  0  0  0  0  0  0  0  0
  150.8476  143.0627  157.8501 H   0  0  0  0  0  0  0  0  0  0  0  0
  149.8703  141.4676  157.0169 H   0  0  0  0  0  0  0  0  0  0  0  0
  1  2  1  0  0  0  0
  1 19  1  0  0  0  0
  1 20  1  0  0  0  0
  2  3  2  0  0  0  0
  2  4  2  0  0  0  0
  2  5  1  0  0  0  0
  5  6  1  0  0  0  0
  5 21  1  0  0  0  0
  6  7  1  0  0  0  0
  6 22  1  0  0  0  0
  6 23  1  0  0  0  0
  7 18  1  0  0  0  0
  7  8  2  0  0  0  0
  8  9  1  0  0  0  0
  8 24  1  0  0  0  0
  9 10  2  0  0  0  0
  9 25  1  0  0  0  0
 10 11  1  0  0  0  0
 11 12  1  0  0  0  0
 11 18  2  0  0  0  0
 12 17  1  0  0  0  0
 12 13  1  0  0  0  0
 13 14  1  0  0  0  0
 13 26  1  0  0  0  0
 13 27  1  0  0  0  0
 14 15  1  0  0  0  0
 14 28  1  0  0  0  0
 14 29  1  0  0  0  0
 15 16  1  0  0  0  0
 16 17  1  0  0  0  0
 16 30  1  0  0  0  0
 16 31  1  0  0  0  0
 17 32  1  0  0  0  0
 17 33  1  0  0  0  0
 18 34  1  0  0  0  0
M  END
> <s_m_source_file>
AV-unprocessed.smi

> <i_m_source_file_index>
1473

> <i_lp_mmshare_version>
43012

> <i_f3d_flags>
0

> <s_epik_input>
W05IMl1TKD1PKSg9TylbTkhdW0NIMl1jMVtjSF1bY0hdbmMoW2NIXTEpTjJbQ0gyXVtDSDJdT1tDSDJdW0NIMl0y

> <s_epik_cmdline>
J2VwaWtfcHl0aG9uJywgJy1waCcsICc3LjAnLCAnLXRuJywgJzgnLCAnLW1hJywgJzIwMCcsICctbWV0YWxfYmluZGluZycsICctaW1hZScsICc8aW5maWxlLm1hZT4nLCAnLW9tYWUnLCAnPG91dGZpbGUubWFlPic=

> <r_lp_tautomer_probability>
1

> <r_epik_Ionization_Penalty>
0.222057

> <r_epik_Ionization_Penalty_Charging>
0

> <r_epik_Ionization_Penalty_Neutral>
0.222057

> <r_epik_State_Penalty>
0.236233

> <r_epik_Charging_Adjusted_Penalty>
0.236233

> <i_epik_Tot_Q>
0

> <i_epik_Tot_abs_Q>
0

> <r_epik_Metal_State_Penalty>
0.788435

> <b_epik_Metal_Only>
0

> <s_lp_Force_Field>
OPLS_2005

> <r_lp_Energy>
17.6675

> <b_lp_Chiralities_Consistent>
1

> <s_lp_Variant>
AV-unprocessed.smi:1473-1

> <Gold.Version>
5.8.1

> <Gold.Id.Protein>
6NUR|6NUR_protein|mol2

> <Gold.PLP.Fitness>
43.7466

> <Gold.PLP.PLP>
-36.0265

> <Gold.PLP.part.hbond>
-5.0000

> <Gold.PLP.part.metal>
0.0000

> <Gold.PLP.part.buried>
-1.2085

> <Gold.PLP.part.nonpolar>
-28.6607

> <Gold.PLP.part.repulsive>
0.4126

> <Gold.PLP.ligand.clash>
0.0000

> <Gold.PLP.ligand.torsion>
1.2339

> <Gold.PLP.Chemscore.Hbond>
2.9520

> <Gold.PLP.Chemscore.CHOScore>
0.0000

> <Gold.PLP.Chemscore.Metal>
0.0000

> <Gold.Chemscore.Hbonds>
donor molecule, donor type, donor heavy atom, donor atom, acceptor molecule, acceptor atom, score
      L1  H     1    19       P1  7948  0.45
      P1  H  7997  8010       L1    10  0.95

> <Gold.PLP.Chemscore.Internal.Correction>
1.3318

> <Gold.Rescore>
     Score         DG    S(hbond)    S(metal)    S(lipo)     H(rot)  DE(clash)    DE(int)     intcor
     14.76     -16.30       1.92        0.00      79.19       1.90       0.07       1.48       ----

> <Gold.Chemscore.Fitness>
14.7583

> <Gold.Chemscore.DG>
-16.3037

> <Gold.Chemscore.ZeroCoef>
-5.4800

> <Gold.Chemscore.Hbond>
1.9222

> <Gold.Chemscore.Metal>
0.0000

> <Gold.Chemscore.Lipo>
79.1931

> <Gold.Chemscore.Internal_Hbond>
0.0000

> <Gold.Chemscore.DEClash>
0.0700

> <Gold.Chemscore.DEInternal>
1.4754

> <Gold.Chemscore.Rot>
1.8993

> <Gold.Chemscore.Internal.Correction>
   9.000000E+99

> <Gold.Chemscore.Hbonds>
donor molecule, donor type, donor heavy atom, donor atom, acceptor molecule, acceptor atom, score
      L1  H     1    19       P1  7948  0.44
      P1  H  7997  8010       L1    10  0.21

> <Gold.Chemscore.Hbond.Weighted>
-6.4203

> <Gold.Chemscore.Metal.Weighted>
-0.0000

> <Gold.Chemscore.Lipo.Weighted>
-9.2656

> <Gold.Chemscore.Internal_Hbond.Weighted>
0.0000

> <Gold.Chemscore.DEClash.Weighted>
0.0700

> <Gold.Chemscore.DEInternal.Weighted>
1.4754

> <Gold.Chemscore.Rot.Weighted>
4.8622

> <Gold.Chemscore.Internal.Correction.Weighted>
   9.000000E+99

> <Gold.Protein.RotatedTorsions>
[ 6907 6896 6895 6894 ] final -160.75 input  -60.11 | X-H torsion
[ 7974 7965 7964 7962 ] final  -31.85 input  175.53 | X-H torsion
[ 8008 7997 7996 7995 ] final   41.47 input   59.86 | X-H torsion
[ 10167 10162 10161 10158 ] final  164.19 input  -65.29 | X-H torsion
[ 10718 10713 10712 10709 ] final   42.68 input   66.30 | X-H torsion
[ 10763 10752 10751 10750 ] final -154.54 input  -60.55 | X-H torsion
[ 11005 11000 10999 10996 ] final  165.38 input  -57.11 | X-H torsion

> <Gold.Protein.ActiveResidues>
 VAL166  LYS551  ARG553  GLY616  TRP617  ASP618  TYR619  PRO620  LYS621  CYS622 
 ASP623  PHE694  ASN695  SER759  ASP760  ASP761  ALA762  ILE779  LEU786  VAL792 
 PHE793  MET794  SER795  GLU796  ALA797  LYS798  CYS799  TRP800  GLU811  SER814 

> <Gold.Protein.RotatedAtoms>
  151.3539  133.3915  159.2682 H   0  0  0  0  0  0  0  0  0  0  0  0  # atno 6907 bound_to 6896
  150.9779  134.9141  159.7837 H   0  0  0  0  0  0  0  0  0  0  0  0  # atno 6908 bound_to 6896
  152.5207  134.3502  159.9301 H   0  0  0  0  0  0  0  0  0  0  0  0  # atno 6909 bound_to 6896
  146.1036  140.5718  142.8810 H   0  0  0  0  0  0  0  0  0  0  0  0  # atno 7974 bound_to 7965
  155.2702  140.3365  155.4266 H   0  0  0  0  0  0  0  0  0  0  0  0  # atno 8008 bound_to 7997
  156.2136  140.1780  156.7681 H   0  0  0  0  0  0  0  0  0  0  0  0  # atno 8009 bound_to 7997
  154.5721  140.0668  156.8965 H   0  0  0  0  0  0  0  0  0  0  0  0  # atno 8010 bound_to 7997
  139.4885  144.4260  151.9128 H   0  0  0  0  0  0  0  0  0  0  0  0  # atno 10167 bound_to 10162
  157.4075  130.7895  149.7402 H   0  0  0  0  0  0  0  0  0  0  0  0  # atno 10718 bound_to 10713
  154.7852  135.3188  154.7903 H   0  0  0  0  0  0  0  0  0  0  0  0  # atno 10763 bound_to 10752
  153.8605  135.6854  153.4787 H   0  0  0  0  0  0  0  0  0  0  0  0  # atno 10764 bound_to 10752
  153.1501  135.4703  154.9562 H   0  0  0  0  0  0  0  0  0  0  0  0  # atno 10765 bound_to 10752
  140.2556  134.7943  157.3542 H   0  0  0  0  0  0  0  0  0  0  0  0  # atno 11005 bound_to 11000
  144.7452  140.5050  143.6840 LP  0  0  0  0  0  0  0  0  0  0  0  0  # atno 17320 bound_to 7965
  145.5806  139.1488  143.3238 LP  0  0  0  0  0  0  0  0  0  0  0  0  # atno 17321 bound_to 7965
  140.3706  144.2860  150.5920 LP  0  0  0  0  0  0  0  0  0  0  0  0  # atno 17342 bound_to 10162
  140.5322  143.2241  151.8220 LP  0  0  0  0  0  0  0  0  0  0  0  0  # atno 17343 bound_to 10162
  155.9841  130.3994  150.3330 LP  0  0  0  0  0  0  0  0  0  0  0  0  # atno 17370 bound_to 10713
  157.1464  131.0310  151.2905 LP  0  0  0  0  0  0  0  0  0  0  0  0  # atno 17371 bound_to 10713
  140.1515  134.4844  155.7958 LP  0  0  0  0  0  0  0  0  0  0  0  0  # atno 17394 bound_to 11000
  141.2196  133.6864  156.7387 LP  0  0  0  0  0  0  0  0  0  0  0  0  # atno 17395 bound_to 11000

$$$$
