#       Name:                AV-unprocessed.smi:2078
#       Creating user name   scv26
#       Creation time:       Fri Mar 27 11:17:47 2020


#       File generated by GOLD software.
#

@<TRIPOS>MOLECULE
AV-unprocessed.smi:2078
    47    48     1
SMALL
NO_CHARGES


@<TRIPOS>ATOM
      1 ****        -4.8714   4.4302   0.0196 C.3            1 S1                 0.0000
      2 ****        -3.7300   3.5579  -0.3763 C.2            1 S1                 0.0000
      3 ****        -3.6487   2.4067  -1.1079 C.2            1 S1                 0.0000
      4 ****        -2.2587   2.1152  -1.0950 C.2            1 S1                 0.0000
      5 ****        -1.7533   0.9651  -1.7567 N.am           1 S1                 0.0000
      6 ****        -0.4774   0.5555  -1.8738 C.2            1 S1                 0.0000
      7 ****         0.4432   1.2351  -1.4037 O.2            1 S1                 0.0000
      8 ****        -0.3723  -0.6358  -2.5260 N.pl3          1 S1                -1.0000
      9 ****         0.8868  -1.3233  -2.8305 C.3            1 S1                 0.0000
     10 ****         1.2827  -2.2724  -1.6789 C.3            1 S1                 0.0000
     11 ****         1.5705  -1.5322  -0.4210 N.4            1 S1                 1.0000
     12 ****         3.0166  -1.2797  -0.1852 C.3            1 S1                 0.0000
     13 ****         3.2143  -0.3380   1.0126 C.3            1 S1                 0.0000
     14 ****         2.5402  -0.9023   2.2706 C.3            1 S1                 0.0000
     15 ****         1.0539  -1.1928   1.9975 C.3            1 S1                 0.0000
     16 ****         0.3591  -1.7817   3.2329 C.3            1 S1                 0.0000
     17 ****         0.9061  -2.1165   0.7719 C.3            1 S1                 0.0000
     18 ****        -1.5559   3.0069  -0.4120 N.2            1 S1                 0.0000
     19 ****        -2.4948   3.9364   0.0505 O.3            1 S1                 0.0000
     20 ****        -5.8179   4.0139  -0.3253 H              1 S1                 0.0000
     21 ****        -4.7631   5.4262  -0.4101 H              1 S1                 0.0000
     22 ****        -4.9218   4.5320   1.1038 H              1 S1                 0.0000
     23 ****        -4.4547   1.8630  -1.5777 H              1 S1                 0.0000
     24 ****        -2.4464   0.3688  -2.1844 H              1 S1                 0.0000
     25 ****         0.7925  -1.9121  -3.7426 H              1 S1                 0.0000
     26 ****         1.7061  -0.6290  -3.0216 H              1 S1                 0.0000
     27 ****         0.4735  -2.9882  -1.5253 H              1 S1                 0.0000
     28 ****         2.1499  -2.8691  -1.9656 H              1 S1                 0.0000
     29 ****         3.5303  -2.2265  -0.0117 H              1 S1                 0.0000
     30 ****         3.4660  -0.8320  -1.0724 H              1 S1                 0.0000
     31 ****         4.2780  -0.1841   1.1959 H              1 S1                 0.0000
     32 ****         2.7945   0.6418   0.7793 H              1 S1                 0.0000
     33 ****         3.0484  -1.8170   2.5794 H              1 S1                 0.0000
     34 ****         2.6426  -0.1951   3.0944 H              1 S1                 0.0000
     35 ****         0.5625  -0.2463   1.7643 H              1 S1                 0.0000
     36 ****         0.8004  -2.7370   3.5190 H              1 S1                 0.0000
     37 ****        -0.7019  -1.9481   3.0438 H              1 S1                 0.0000
     38 ****         0.4391  -1.1082   4.0867 H              1 S1                 0.0000
     39 ****        -0.1544  -2.2585   0.5584 H              1 S1                 0.0000
     40 ****         1.3264  -3.1022   0.9774 H              1 S1                 0.0000
     41 ****         1.1390  -0.6272  -0.5543 H              1 S1                 0.0000
     42 ****         0.2408   2.0942  -0.9335 LP             1 S1                 0.0000
     43 ****         1.3898   0.9254  -1.4939 LP             1 S1                 0.0000
     44 ****        -1.2205  -1.0762  -2.8203 LP             1 S1                 0.0000
     45 ****        -0.5676   3.0143  -0.2597 LP             1 S1                 0.0000
     46 ****        -2.4777   3.9632   1.0500 LP             1 S1                 0.0000
     47 ****        -2.2770   4.8430  -0.3110 LP             1 S1                 0.0000
@<TRIPOS>BOND
    1    1    2 1     
    2    1   20 1     
    3    1   21 1     
    4    1   22 1     
    5    2   19 1     
    6    2    3 2     
    7    3    4 1     
    8    3   23 1     
    9    4    5 1     
   10    4   18 2     
   11    5    6 am    
   12    5   24 1     
   13    6    7 2     
   14    6    8 1     
   15    8    9 1     
   16    9   10 1     
   17    9   25 1     
   18    9   26 1     
   19   10   11 1     
   20   10   27 1     
   21   10   28 1     
   22   11   17 1     
   23   11   12 1     
   24   11   41 1     
   25   12   13 1     
   26   12   29 1     
   27   12   30 1     
   28   13   14 1     
   29   13   31 1     
   30   13   32 1     
   31   14   15 1     
   32   14   33 1     
   33   14   34 1     
   34   15   16 1     
   35   15   17 1     
   36   15   35 1     
   37   16   36 1     
   38   16   37 1     
   39   16   38 1     
   40   17   39 1     
   41   17   40 1     
   42   18   19 1     
   43    7   42 1     
   44    7   43 1     
   45    8   44 1     
   46   18   45 1     
   47   19   46 1     
   48   19   47 1     
@<TRIPOS>SUBSTRUCTURE
      1 S1             1
@<TRIPOS>SET
LONE_PAIRS      STATIC     ATOMS    <user>   **** ""
6 42 43 44 45 46 47
DONOR_HYDROGENS      STATIC     ATOMS    <user>   **** ""
2 24 41
ATOM$BLUE        STATIC     ATOMS    COLORGROUP SYSTEM
6 42 43 44 45 46 47
ATOM$RED        STATIC     ATOMS    COLORGROUP SYSTEM
2 24 41
