#       Name:                AV-unprocessed.smi:1786
#       Creating user name   scv26
#       Creation time:       Fri Mar 27 08:44:22 2020


#       File generated by GOLD software.
#

@<TRIPOS>MOLECULE
AV-unprocessed.smi:1786
    48    49     1
SMALL
NO_CHARGES


@<TRIPOS>ATOM
      1 ****        -2.1987   1.5800   0.0150 C.3            1 S1                 0.0000
      2 ****        -1.8182   1.8959   1.4753 C.3            1 S1                 0.0000
      3 ****        -2.4974   3.2167   1.8994 C.3            1 S1                 0.0000
      4 ****        -2.1539   3.6018   3.3416 C.3            1 S1                 0.0000
      5 ****        -0.6341   3.6705   3.5032 C.3            1 S1                 0.0000
      6 ****         0.0115   2.3413   3.0869 C.3            1 S1                 0.0000
      7 ****        -0.3370   1.9687   1.6884 N.4            1 S1                 1.0000
      8 ****         0.4057   0.7550   1.2510 C.3            1 S1                 0.0000
      9 ****         1.1202   0.9846  -0.0936 C.3            1 S1                 0.0000
     10 ****         1.8370  -0.2070  -0.5311 N.am           1 S1                 0.0000
     11 ****         1.2642  -1.2792  -1.0987 C.2            1 S1                 0.0000
     12 ****         0.0506  -1.3685  -1.2903 O.2            1 S1                 0.0000
     13 ****         2.2116  -2.4244  -1.4844 C.3            1 S1                 0.0000
     14 ****         1.6415  -3.3432  -2.4840 N.am           1 S1                 0.0000
     15 ****         1.0692  -4.5385  -2.0046 C.2            1 S1                 0.0000
     16 ****         0.5212  -5.4443  -2.8301 C.2            1 S1                 0.0000
     17 ****         0.5288  -5.1690  -4.2473 C.2            1 S1                 0.0000
     18 ****         1.0702  -4.0271  -4.7163 C.2            1 S1                 0.0000
     19 ****         1.6667  -3.0322  -3.8171 C.2            1 S1                 0.0000
     20 ****         2.1581  -1.9834  -4.2356 O.2            1 S1                 0.0000
     21 ****        -3.2815   1.5844  -0.1122 H              1 S1                 0.0000
     22 ****        -1.8540   0.5962  -0.3016 H              1 S1                 0.0000
     23 ****        -1.7868   2.3197  -0.6721 H              1 S1                 0.0000
     24 ****        -2.2066   1.0945   2.1065 H              1 S1                 0.0000
     25 ****        -2.1906   4.0210   1.2288 H              1 S1                 0.0000
     26 ****        -3.5798   3.1301   1.7981 H              1 S1                 0.0000
     27 ****        -2.6048   4.5621   3.5942 H              1 S1                 0.0000
     28 ****        -2.5697   2.8674   4.0327 H              1 S1                 0.0000
     29 ****        -0.2330   4.4829   2.8957 H              1 S1                 0.0000
     30 ****        -0.3794   3.9013   4.5381 H              1 S1                 0.0000
     31 ****         1.0945   2.4324   3.1819 H              1 S1                 0.0000
     32 ****        -0.3016   1.5447   3.7640 H              1 S1                 0.0000
     33 ****         1.1633   0.4851   1.9884 H              1 S1                 0.0000
     34 ****        -0.2630  -0.1055   1.2074 H              1 S1                 0.0000
     35 ****         0.4205   1.2935  -0.8704 H              1 S1                 0.0000
     36 ****         1.8425   1.7951   0.0067 H              1 S1                 0.0000
     37 ****         2.8393  -0.2141  -0.4046 H              1 S1                 0.0000
     38 ****         3.1513  -2.0084  -1.8531 H              1 S1                 0.0000
     39 ****         2.4772  -2.9656  -0.5753 H              1 S1                 0.0000
     40 ****         1.0982  -4.6661  -0.9323 H              1 S1                 0.0000
     41 ****         0.0835  -6.3533  -2.4444 H              1 S1                 0.0000
     42 ****         0.0975  -5.8820  -4.9345 H              1 S1                 0.0000
     43 ****         1.0666  -3.8380  -5.7797 H              1 S1                 0.0000
     44 ****        -0.0013   2.7263   1.1110 H              1 S1                 0.0000
     45 ****        -0.5548  -0.6204  -1.0187 LP             1 S1                 0.0000
     46 ****        -0.3291  -2.1891  -1.7175 LP             1 S1                 0.0000
     47 ****         2.5557  -1.3269  -3.5947 LP             1 S1                 0.0000
     48 ****         2.1595  -1.7884  -5.2164 LP             1 S1                 0.0000
@<TRIPOS>BOND
    1    1    2 1     
    2    1   21 1     
    3    1   22 1     
    4    1   23 1     
    5    2    7 1     
    6    2    3 1     
    7    2   24 1     
    8    3    4 1     
    9    3   25 1     
   10    3   26 1     
   11    4    5 1     
   12    4   27 1     
   13    4   28 1     
   14    5    6 1     
   15    5   29 1     
   16    5   30 1     
   17    6    7 1     
   18    6   31 1     
   19    6   32 1     
   20    7    8 1     
   21    7   44 1     
   22    8    9 1     
   23    8   33 1     
   24    8   34 1     
   25    9   10 1     
   26    9   35 1     
   27    9   36 1     
   28   10   11 am    
   29   10   37 1     
   30   11   12 2     
   31   11   13 1     
   32   13   14 1     
   33   13   38 1     
   34   13   39 1     
   35   14   19 am    
   36   14   15 1     
   37   15   16 2     
   38   15   40 1     
   39   16   17 1     
   40   16   41 1     
   41   17   18 2     
   42   17   42 1     
   43   18   19 1     
   44   18   43 1     
   45   19   20 2     
   46   12   45 1     
   47   12   46 1     
   48   20   47 1     
   49   20   48 1     
@<TRIPOS>SUBSTRUCTURE
      1 S1             1
@<TRIPOS>SET
LONE_PAIRS      STATIC     ATOMS    <user>   **** ""
4 45 46 47 48
DONOR_HYDROGENS      STATIC     ATOMS    <user>   **** ""
2 44 37
ATOM$BLUE        STATIC     ATOMS    COLORGROUP SYSTEM
4 45 46 47 48
ATOM$RED        STATIC     ATOMS    COLORGROUP SYSTEM
2 44 37
