AV-unprocessed.smi:2751|AV-procd|sdf|10604|dock10
  -GOLD-   2272015 53D 1   1.00000     0.00000
 Structure written by MMmdl.
 33 34  0  0  0  0  0  0  0  0  2 V2000
  151.2287  139.7286  154.7164 O   0  0  0  0  0  0  0  0  0  0  0  0
  152.0860  139.6292  155.5975 C   0  0  0  0  0  0  0  0  0  0  0  0
  151.8381  140.1020  156.8279 N   0  0  0  0  0  0  0  0  0  0  0  0
  150.6054  140.7514  157.2618 C   0  0  0  0  0  0  0  0  0  0  0  0
  150.6517  142.2708  157.0242 C   0  0  0  0  0  0  0  0  0  0  0  0
  151.5463  143.0067  158.0341 C   0  0  1  0  0  0  0  0  0  0  0  0
  151.2230  144.5123  158.0998 C   0  0  0  0  0  0  0  0  0  0  0  0
  152.0803  145.2025  159.1669 C   0  0  0  0  0  0  0  0  0  0  0  0
  151.9300  144.4693  160.5041 C   0  0  0  0  0  0  0  0  0  0  0  0
  152.2075  142.9683  160.3240 C   0  0  0  0  0  0  0  0  0  0  0  0
  151.3460  142.4320  159.3246 O   0  0  0  0  0  0  0  0  0  0  0  0
  153.3098  139.0691  155.4649 N   0  5  0  0  0  0  0  0  0  0  0  0
  153.7210  138.1449  156.3480 C   0  0  0  0  0  0  0  0  0  0  0  0
  154.6773  138.2978  157.2656 N   0  0  0  0  0  0  0  0  0  0  0  0
  154.7484  137.0911  157.9442 C   0  0  0  0  0  0  0  0  0  0  0  0
  153.8122  136.2512  157.4058 C   0  0  0  0  0  0  0  0  0  0  0  0
  153.1556  136.9055  156.4003 O   0  0  0  0  0  0  0  0  0  0  0  0
  152.5673  140.0008  157.5184 H   0  0  0  0  0  0  0  0  0  0  0  0
  149.7807  140.3110  156.7014 H   0  0  0  0  0  0  0  0  0  0  0  0
  150.4161  140.5322  158.3139 H   0  0  0  0  0  0  0  0  0  0  0  0
  151.0238  142.4631  156.0170 H   0  0  0  0  0  0  0  0  0  0  0  0
  149.6416  142.6810  157.0609 H   0  0  0  0  0  0  0  0  0  0  0  0
  152.5891  142.8747  157.7394 H   0  0  0  0  0  0  0  0  0  0  0  0
  151.3912  144.9787  157.1286 H   0  0  0  0  0  0  0  0  0  0  0  0
  150.1668  144.6518  158.3348 H   0  0  0  0  0  0  0  0  0  0  0  0
  153.1266  145.1945  158.8588 H   0  0  0  0  0  0  0  0  0  0  0  0
  151.7907  146.2484  159.2706 H   0  0  0  0  0  0  0  0  0  0  0  0
  152.6073  144.8932  161.2459 H   0  0  0  0  0  0  0  0  0  0  0  0
  150.9182  144.6087  160.8868 H   0  0  0  0  0  0  0  0  0  0  0  0
  153.2497  142.7945  160.0520 H   0  0  0  0  0  0  0  0  0  0  0  0
  152.0312  142.4395  161.2606 H   0  0  0  0  0  0  0  0  0  0  0  0
  155.4502  136.9282  158.7485 H   0  0  0  0  0  0  0  0  0  0  0  0
  153.5079  135.2351  157.6064 H   0  0  0  0  0  0  0  0  0  0  0  0
  1  2  2  0  0  0  0
  2 12  1  0  0  0  0
  2  3  1  0  0  0  0
  3  4  1  0  0  0  0
  3 18  1  0  0  0  0
  4  5  1  0  0  0  0
  4 19  1  0  0  0  0
  4 20  1  0  0  0  0
  5  6  1  0  0  0  0
  5 21  1  0  0  0  0
  5 22  1  0  0  0  0
  6 11  1  0  0  0  0
  6  7  1  0  0  0  0
  6 23  1  0  0  0  0
  7  8  1  0  0  0  0
  7 24  1  0  0  0  0
  7 25  1  0  0  0  0
  8  9  1  0  0  0  0
  8 26  1  0  0  0  0
  8 27  1  0  0  0  0
  9 10  1  0  0  0  0
  9 28  1  0  0  0  0
  9 29  1  0  0  0  0
 10 11  1  0  0  0  0
 10 30  1  0  0  0  0
 10 31  1  0  0  0  0
 12 13  1  0  0  0  0
 13 17  1  0  0  0  0
 13 14  2  0  0  0  0
 14 15  1  0  0  0  0
 15 32  1  0  0  0  0
 15 16  2  0  0  0  0
 16 33  1  0  0  0  0
 16 17  1  0  0  0  0
M  CHG  1  12  -1
M  END
> <s_m_source_file>
AV-unprocessed.smi

> <i_m_source_file_index>
2751

> <i_lp_mmshare_version>
43012

> <i_f3d_flags>
0

> <s_epik_input>
bzFbY0hdW2NIXW5jMVtOSF1DKD1PKVtOSF1bQ0gyXVtDSDJdW0NAQEhdMltDSDJdW0NIMl1bQ0gyXVtDSDJdTzI=

> <s_epik_cmdline>
J2VwaWtfcHl0aG9uJywgJy1waCcsICc3LjAnLCAnLXRuJywgJzgnLCAnLW1hJywgJzIwMCcsICctbWV0YWxfYmluZGluZycsICctaW1hZScsICc8aW5maWxlLm1hZT4nLCAnLW9tYWUnLCAnPG91dGZpbGUubWFlPic=

> <r_lp_tautomer_probability>
0.107061

> <r_epik_Ionization_Penalty>
11.077

> <r_epik_Ionization_Penalty_Charging>
7.79122

> <r_epik_Ionization_Penalty_Neutral>
3.28583

> <r_epik_State_Penalty>
5.8984

> <r_epik_Charging_Adjusted_Penalty>
13.6896

> <i_epik_Tot_Q>
-1

> <i_epik_Tot_abs_Q>
1

> <r_epik_Metal_State_Penalty>
1.82322

> <b_epik_Metal_Only>
1

> <s_lp_Force_Field>
OPLS_2005

> <r_lp_Energy>
3.95886

> <b_lp_Chiralities_Consistent>
1

> <s_lp_Variant>
AV-unprocessed.smi:2751-10

> <Gold.Version>
5.8.1

> <Gold.Id.Protein>
6NUR|6NUR_protein|mol2

> <Gold.PLP.Fitness>
43.0220

> <Gold.PLP.PLP>
-33.3305

> <Gold.PLP.part.hbond>
-4.0000

> <Gold.PLP.part.metal>
0.0000

> <Gold.PLP.part.buried>
-4.4583

> <Gold.PLP.part.nonpolar>
-25.2180

> <Gold.PLP.part.repulsive>
0.1725

> <Gold.PLP.ligand.clash>
0.0000

> <Gold.PLP.ligand.torsion>
1.5230

> <Gold.PLP.Chemscore.Hbond>
4.2369

> <Gold.PLP.Chemscore.CHOScore>
0.0000

> <Gold.PLP.Chemscore.Metal>
0.0000

> <Gold.Chemscore.Hbonds>
donor molecule, donor type, donor heavy atom, donor atom, acceptor molecule, acceptor atom, score
      P1  H  7989  7998       L1     1  1.00
      P1  H  7997  8008       L1    14  0.27
      P1  H  7997  8009       L1    12  1.40
      P1  H 10752 10765       L1    17  0.58

> <Gold.PLP.Chemscore.Internal.Correction>
0.0269

> <Gold.Rescore>
     Score         DG    S(hbond)    S(metal)    S(lipo)     H(rot)  DE(clash)    DE(int)     intcor
     14.87     -16.61       1.77        0.00      79.80       1.60       0.07       1.68       ----

> <Gold.Chemscore.Fitness>
14.8704

> <Gold.Chemscore.DG>
-16.6113

> <Gold.Chemscore.ZeroCoef>
-5.4800

> <Gold.Chemscore.Hbond>
1.7672

> <Gold.Chemscore.Metal>
0.0000

> <Gold.Chemscore.Lipo>
79.8044

> <Gold.Chemscore.Internal_Hbond>
0.0000

> <Gold.Chemscore.DEClash>
0.0650

> <Gold.Chemscore.DEInternal>
1.6758

> <Gold.Chemscore.Rot>
1.6048

> <Gold.Chemscore.Internal.Correction>
   9.000000E+99

> <Gold.Chemscore.Hbonds>
donor molecule, donor type, donor heavy atom, donor atom, acceptor molecule, acceptor atom, score
      P1  H  7989  7998       L1     1  0.85
      P1  H  7997  8008       L1    14  0.24
      P1  H  7997  8009       L1    12  0.05
      P1  H 10752 10765       L1    17  0.08

> <Gold.Chemscore.Hbond.Weighted>
-5.9023

> <Gold.Chemscore.Metal.Weighted>
-0.0000

> <Gold.Chemscore.Lipo.Weighted>
-9.3371

> <Gold.Chemscore.Internal_Hbond.Weighted>
0.0000

> <Gold.Chemscore.DEClash.Weighted>
0.0650

> <Gold.Chemscore.DEInternal.Weighted>
1.6758

> <Gold.Chemscore.Rot.Weighted>
4.1082

> <Gold.Chemscore.Internal.Correction.Weighted>
   9.000000E+99

> <Gold.Protein.RotatedTorsions>
[ 6907 6896 6895 6894 ] final    8.06 input  -60.11 | X-H torsion
[ 7974 7965 7964 7962 ] final -148.81 input  175.53 | X-H torsion
[ 8008 7997 7996 7995 ] final -135.37 input   59.86 | X-H torsion
[ 10167 10162 10161 10158 ] final -107.47 input  -65.29 | X-H torsion
[ 10718 10713 10712 10709 ] final -159.22 input   66.30 | X-H torsion
[ 10763 10752 10751 10750 ] final -143.61 input  -60.55 | X-H torsion
[ 11005 11000 10999 10996 ] final  -80.19 input  -57.11 | X-H torsion

> <Gold.Protein.ActiveResidues>
 VAL166  LYS551  ARG553  GLY616  TRP617  ASP618  TYR619  PRO620  LYS621  CYS622 
 ASP623  PHE694  ASN695  SER759  ASP760  ASP761  ALA762  ILE779  LEU786  VAL792 
 PHE793  MET794  SER795  GLU796  ALA797  LYS798  CYS799  TRP800  GLU811  SER814 

> <Gold.Protein.RotatedAtoms>
  151.6999  135.0932  160.0248 H   0  0  0  0  0  0  0  0  0  0  0  0  # atno 6907 bound_to 6896
  152.3727  133.6436  159.6108 H   0  0  0  0  0  0  0  0  0  0  0  0  # atno 6908 bound_to 6896
  150.7685  133.9160  159.3425 H   0  0  0  0  0  0  0  0  0  0  0  0  # atno 6909 bound_to 6896
  144.8006  140.5148  143.5709 H   0  0  0  0  0  0  0  0  0  0  0  0  # atno 7974 bound_to 7965
  155.3776  140.0492  157.3044 H   0  0  0  0  0  0  0  0  0  0  0  0  # atno 8008 bound_to 7997
  154.5098  140.2187  155.9140 H   0  0  0  0  0  0  0  0  0  0  0  0  # atno 8009 bound_to 7997
  156.1570  140.3124  155.8747 H   0  0  0  0  0  0  0  0  0  0  0  0  # atno 8010 bound_to 7997
  140.1766  143.4000  152.1314 H   0  0  0  0  0  0  0  0  0  0  0  0  # atno 10167 bound_to 10162
  156.5650  130.8664  151.2821 H   0  0  0  0  0  0  0  0  0  0  0  0  # atno 10718 bound_to 10713
  154.8463  135.3463  154.6215 H   0  0  0  0  0  0  0  0  0  0  0  0  # atno 10763 bound_to 10752
  153.6824  135.6979  153.5118 H   0  0  0  0  0  0  0  0  0  0  0  0  # atno 10764 bound_to 10752
  153.2658  135.4308  155.0895 H   0  0  0  0  0  0  0  0  0  0  0  0  # atno 10765 bound_to 10752
  141.1668  133.7139  156.8236 H   0  0  0  0  0  0  0  0  0  0  0  0  # atno 11005 bound_to 11000
  145.5562  139.1478  143.3367 LP  0  0  0  0  0  0  0  0  0  0  0  0  # atno 17320 bound_to 7965
  146.2287  140.5699  142.8985 LP  0  0  0  0  0  0  0  0  0  0  0  0  # atno 17321 bound_to 7965
  139.5314  144.7163  151.5042 LP  0  0  0  0  0  0  0  0  0  0  0  0  # atno 17342 bound_to 10162
  140.6547  143.8623  150.6823 LP  0  0  0  0  0  0  0  0  0  0  0  0  # atno 17343 bound_to 10162
  157.7360  130.9772  150.2114 LP  0  0  0  0  0  0  0  0  0  0  0  0  # atno 17370 bound_to 10713
  156.2765  130.3728  149.7979 LP  0  0  0  0  0  0  0  0  0  0  0  0  # atno 17371 bound_to 10713
  140.2101  134.8833  157.3265 LP  0  0  0  0  0  0  0  0  0  0  0  0  # atno 17394 bound_to 11000
  140.2095  134.4156  155.7620 LP  0  0  0  0  0  0  0  0  0  0  0  0  # atno 17395 bound_to 11000

$$$$
