AV-unprocessed.smi:3141|AV-procd|sdf|11967|dock1
  -GOLD-   2272017363D 1   1.00000     0.00000
 Structure written by MMmdl.
 35 37  0  0  0  0  0  0  0  0  1 V2000
  150.3611  142.0082  158.9018 O   0  0  0  0  0  0  0  0  0  0  0  0
  150.1013  142.7412  157.9472 C   0  0  0  0  0  0  0  0  0  0  0  0
  150.8806  143.7503  157.5376 N   0  0  0  0  0  0  0  0  0  0  0  0
  152.1310  144.1168  158.1189 C   0  0  0  0  0  0  0  0  0  0  0  0
  152.3571  143.7769  159.5761 C   0  0  0  0  0  0  0  0  0  0  0  0
  152.1214  145.2054  159.1700 C   0  0  0  0  0  0  0  0  0  0  0  0
  149.0130  142.6121  157.1744 N   0  0  0  0  0  0  0  0  0  0  0  0
  147.9884  141.5751  157.3169 C   0  0  1  0  0  0  0  0  0  0  0  0
  146.5869  142.1866  157.1032 C   0  0  0  0  0  0  0  0  0  0  0  0
  145.9656  141.4693  155.8967 C   0  0  0  0  0  0  0  0  0  0  0  0
  147.1456  140.8710  155.1352 C   0  0  0  0  0  0  0  0  0  0  0  0
  148.1045  140.4553  156.2546 C   0  0  1  0  0  0  0  0  0  0  0  0
  149.4601  140.1312  155.8213 N   0  0  0  0  0  0  0  0  0  0  0  0
  150.5625  139.7870  156.5992 C   0  0  0  0  0  0  0  0  0  0  0  0
  151.5972  139.5312  155.7286 C   0  0  0  0  0  0  0  0  0  0  0  0
  151.1583  139.6945  154.4179 N   0  0  0  0  0  0  0  0  0  0  0  0
  149.8851  140.0417  154.5528 C   0  0  0  0  0  0  0  0  0  0  0  0
  150.5771  144.2900  156.7404 H   0  0  0  0  0  0  0  0  0  0  0  0
  153.0103  144.0821  157.4770 H   0  0  0  0  0  0  0  0  0  0  0  0
  151.5574  143.2683  160.1110 H   0  0  0  0  0  0  0  0  0  0  0  0
  153.3662  143.5002  159.8752 H   0  0  0  0  0  0  0  0  0  0  0  0
  152.9726  145.8824  159.1982 H   0  0  0  0  0  0  0  0  0  0  0  0
  151.1639  145.6512  159.4332 H   0  0  0  0  0  0  0  0  0  0  0  0
  148.8934  143.2637  156.4128 H   0  0  0  0  0  0  0  0  0  0  0  0
  148.0449  141.1371  158.3153 H   0  0  0  0  0  0  0  0  0  0  0  0
  145.9609  142.0685  157.9883 H   0  0  0  0  0  0  0  0  0  0  0  0
  146.6496  143.2575  156.9030 H   0  0  0  0  0  0  0  0  0  0  0  0
  145.3147  140.6662  156.2455 H   0  0  0  0  0  0  0  0  0  0  0  0
  145.3637  142.1351  155.2776 H   0  0  0  0  0  0  0  0  0  0  0  0
  146.8543  140.0353  154.4982 H   0  0  0  0  0  0  0  0  0  0  0  0
  147.5860  141.6415  154.5024 H   0  0  0  0  0  0  0  0  0  0  0  0
  147.6923  139.5463  156.6971 H   0  0  0  0  0  0  0  0  0  0  0  0
  150.5286  139.7452  157.6772 H   0  0  0  0  0  0  0  0  0  0  0  0
  152.6133  139.2349  155.9433 H   0  0  0  0  0  0  0  0  0  0  0  0
  149.2419  140.2297  153.7056 H   0  0  0  0  0  0  0  0  0  0  0  0
  1  2  2  0  0  0  0
  2  3  1  0  0  0  0
  2  7  1  0  0  0  0
  3  4  1  0  0  0  0
  3 18  1  0  0  0  0
  4  6  1  0  0  0  0
  4  5  1  0  0  0  0
  4 19  1  0  0  0  0
  5  6  1  0  0  0  0
  5 20  1  0  0  0  0
  5 21  1  0  0  0  0
  6 22  1  0  0  0  0
  6 23  1  0  0  0  0
  7  8  1  0  0  0  0
  7 24  1  0  0  0  0
  8 12  1  0  0  0  0
  8  9  1  0  0  0  0
  8 25  1  0  0  0  0
  9 10  1  0  0  0  0
  9 26  1  0  0  0  0
  9 27  1  0  0  0  0
 10 11  1  0  0  0  0
 10 28  1  0  0  0  0
 10 29  1  0  0  0  0
 11 12  1  0  0  0  0
 11 30  1  0  0  0  0
 11 31  1  0  0  0  0
 12 13  1  0  0  0  0
 12 32  1  0  0  0  0
 13 17  1  0  0  0  0
 13 14  1  0  0  0  0
 14 15  2  0  0  0  0
 14 33  1  0  0  0  0
 15 16  1  0  0  0  0
 15 34  1  0  0  0  0
 16 17  2  0  0  0  0
 17 35  1  0  0  0  0
M  END
> <s_m_source_file>
AV-unprocessed.smi

> <i_m_source_file_index>
3141

> <i_lp_mmshare_version>
43012

> <i_f3d_flags>
0

> <s_epik_input>
W0NIMl0xW0NIMl1bQ0hdMVtOSF1DKD1PKVtOSF1bQ0BASF0yW0NIMl1bQ0gyXVtDSDJdW0NASF0ybjNbY0hdW2NIXW5bY0hdMw==

> <s_epik_cmdline>
J2VwaWtfcHl0aG9uJywgJy1waCcsICc3LjAnLCAnLXRuJywgJzgnLCAnLW1hJywgJzIwMCcsICctbWV0YWxfYmluZGluZycsICctaW1hZScsICc8aW5maWxlLm1hZT4nLCAnLW9tYWUnLCAnPG91dGZpbGUubWFlPic=

> <r_lp_tautomer_probability>
1

> <r_epik_Ionization_Penalty>
0.728419

> <r_epik_Ionization_Penalty_Charging>
0.728357

> <r_epik_Ionization_Penalty_Neutral>
6.27871e-05

> <r_epik_State_Penalty>
0.753408

> <r_epik_Charging_Adjusted_Penalty>
1.48176

> <i_epik_Tot_Q>
0

> <i_epik_Tot_abs_Q>
0

> <r_epik_Metal_State_Penalty>
0.332413

> <b_epik_Metal_Only>
0

> <s_lp_Force_Field>
OPLS_2005

> <r_lp_Energy>
36.0261

> <b_lp_Chiralities_Consistent>
1

> <s_lp_Variant>
AV-unprocessed.smi:3141-6

> <Gold.Version>
5.8.1

> <Gold.Id.Protein>
6NUR|6NUR_protein|mol2

> <Gold.PLP.Fitness>
40.9928

> <Gold.PLP.PLP>
-31.0790

> <Gold.PLP.part.hbond>
-3.6883

> <Gold.PLP.part.metal>
0.0000

> <Gold.PLP.part.buried>
-3.1521

> <Gold.PLP.part.nonpolar>
-24.3974

> <Gold.PLP.part.repulsive>
0.1677

> <Gold.PLP.ligand.clash>
0.0000

> <Gold.PLP.ligand.torsion>
0.6946

> <Gold.PLP.Chemscore.Hbond>
2.8480

> <Gold.PLP.Chemscore.CHOScore>
0.8982

> <Gold.PLP.Chemscore.Metal>
0.0000

> <Gold.Chemscore.Hbonds>
donor molecule, donor type, donor heavy atom, donor atom, acceptor molecule, acceptor atom, score
      L1  H     3    18       P1  8028  0.83
      L1  H     7    24       P1  8028  1.00
      P1  H  7989  7998       L1    16  0.95
      L1  C    17    35       P1  7957  0.88

> <Gold.PLP.Chemscore.Internal.Correction>
0.0645

> <Gold.Rescore>
     Score         DG    S(hbond)    S(metal)    S(lipo)     H(rot)  DE(clash)    DE(int)     intcor
     15.65     -16.90       2.50        0.00      60.46       1.57       0.10       1.15       ----

> <Gold.Chemscore.Fitness>
15.6463

> <Gold.Chemscore.DG>
-16.8972

> <Gold.Chemscore.ZeroCoef>
-5.4800

> <Gold.Chemscore.Hbond>
2.5041

> <Gold.Chemscore.Metal>
0.0000

> <Gold.Chemscore.Lipo>
60.4623

> <Gold.Chemscore.Internal_Hbond>
0.0000

> <Gold.Chemscore.DEClash>
0.1046

> <Gold.Chemscore.DEInternal>
1.1464

> <Gold.Chemscore.Rot>
1.5705

> <Gold.Chemscore.Internal.Correction>
   9.000000E+99

> <Gold.Chemscore.Hbonds>
donor molecule, donor type, donor heavy atom, donor atom, acceptor molecule, acceptor atom, score
      L1  H     3    18       P1  8028  0.77
      L1  H     7    24       P1  8028  0.96
      P1  H  7989  7998       L1    16  0.21

> <Gold.Chemscore.Hbond.Weighted>
-8.3637

> <Gold.Chemscore.Metal.Weighted>
-0.0000

> <Gold.Chemscore.Lipo.Weighted>
-7.0741

> <Gold.Chemscore.Internal_Hbond.Weighted>
0.0000

> <Gold.Chemscore.DEClash.Weighted>
0.1046

> <Gold.Chemscore.DEInternal.Weighted>
1.1464

> <Gold.Chemscore.Rot.Weighted>
4.0206

> <Gold.Chemscore.Internal.Correction.Weighted>
   9.000000E+99

> <Gold.Protein.RotatedTorsions>
[ 6907 6896 6895 6894 ] final  138.35 input  -60.11 | X-H torsion
[ 7974 7965 7964 7962 ] final   45.55 input  175.53 | X-H torsion
[ 8008 7997 7996 7995 ] final  159.96 input   59.86 | X-H torsion
[ 10167 10162 10161 10158 ] final -151.79 input  -65.29 | X-H torsion
[ 10718 10713 10712 10709 ] final -155.86 input   66.30 | X-H torsion
[ 10763 10752 10751 10750 ] final  -60.61 input  -60.55 | X-H torsion
[ 11005 11000 10999 10996 ] final   24.58 input  -57.11 | X-H torsion

> <Gold.Protein.ActiveResidues>
 VAL166  LYS551  ARG553  GLY616  TRP617  ASP618  TYR619  PRO620  LYS621  CYS622 
 ASP623  PHE694  ASN695  SER759  ASP760  ASP761  ALA762  ILE779  LEU786  VAL792 
 PHE793  MET794  SER795  GLU796  ALA797  LYS798  CYS799  TRP800  GLU811  SER814 

> <Gold.Protein.RotatedAtoms>
  152.2675  133.5353  159.5418 H   0  0  0  0  0  0  0  0  0  0  0  0  # atno 6907 bound_to 6896
  150.7147  134.0743  159.3884 H   0  0  0  0  0  0  0  0  0  0  0  0  # atno 6908 bound_to 6896
  151.8659  135.0507  160.0525 H   0  0  0  0  0  0  0  0  0  0  0  0  # atno 6909 bound_to 6896
  146.0470  139.4952  142.9742 H   0  0  0  0  0  0  0  0  0  0  0  0  # atno 7974 bound_to 7965
  156.2204  140.1817  156.7490 H   0  0  0  0  0  0  0  0  0  0  0  0  # atno 8008 bound_to 7997
  154.5857  140.0659  156.9196 H   0  0  0  0  0  0  0  0  0  0  0  0  # atno 8009 bound_to 7997
  155.2425  140.3323  155.4293 H   0  0  0  0  0  0  0  0  0  0  0  0  # atno 8010 bound_to 7997
  139.7237  143.8917  152.2512 H   0  0  0  0  0  0  0  0  0  0  0  0  # atno 10167 bound_to 10162
  156.5186  130.8468  151.2674 H   0  0  0  0  0  0  0  0  0  0  0  0  # atno 10718 bound_to 10713
  154.2719  135.6288  153.5313 H   0  0  0  0  0  0  0  0  0  0  0  0  # atno 10763 bound_to 10752
  152.9879  135.5612  154.5591 H   0  0  0  0  0  0  0  0  0  0  0  0  # atno 10764 bound_to 10752
  154.5163  135.2880  155.1276 H   0  0  0  0  0  0  0  0  0  0  0  0  # atno 10765 bound_to 10752
  140.3571  134.2165  155.7675 H   0  0  0  0  0  0  0  0  0  0  0  0  # atno 11005 bound_to 11000
  145.6789  141.0196  143.1617 LP  0  0  0  0  0  0  0  0  0  0  0  0  # atno 17320 bound_to 7965
  144.7103  139.8398  143.7417 LP  0  0  0  0  0  0  0  0  0  0  0  0  # atno 17321 bound_to 7965
  139.8820  144.7012  150.8867 LP  0  0  0  0  0  0  0  0  0  0  0  0  # atno 17342 bound_to 10162
  140.7758  143.3653  151.1750 LP  0  0  0  0  0  0  0  0  0  0  0  0  # atno 17343 bound_to 10162
  157.7440  130.9925  150.2638 LP  0  0  0  0  0  0  0  0  0  0  0  0  # atno 17370 bound_to 10713
  156.3171  130.3780  149.7609 LP  0  0  0  0  0  0  0  0  0  0  0  0  # atno 17371 bound_to 10713
  141.1995  133.8010  157.0533 LP  0  0  0  0  0  0  0  0  0  0  0  0  # atno 17394 bound_to 11000
  140.0656  134.9731  157.1380 LP  0  0  0  0  0  0  0  0  0  0  0  0  # atno 17395 bound_to 11000

$$$$
