#       Name:                AV-unprocessed.smi:2071
#       Creating user name   scv26
#       Creation time:       Fri Mar 27 11:14:13 2020


#       File generated by GOLD software.
#

@<TRIPOS>MOLECULE
AV-unprocessed.smi:2071
    52    54     1
SMALL
NO_CHARGES


@<TRIPOS>ATOM
      1 ****        -3.4437  -0.8357   0.9539 O.2            1 S1                 0.0000
      2 ****        -3.2225  -0.2118  -0.0836 C.2            1 S1                 0.0000
      3 ****        -2.5436  -0.7180  -1.1233 N.am           1 S1                 0.0000
      4 ****        -1.9626  -2.0563  -1.1850 C.3            1 S1                 0.0000
      5 ****        -0.4283  -2.0216  -1.0957 C.3            1 S1                 0.0000
      6 ****         0.1096  -1.4658   0.2368 C.3            1 S1                 0.0000
      7 ****         1.5735  -1.5345   0.2878 N.am           1 S1                 0.0000
      8 ****         2.2849  -2.5656   0.7842 C.2            1 S1                 0.0000
      9 ****         1.7478  -3.5603   1.2703 O.2            1 S1                 0.0000
     10 ****         3.6155  -2.3463   0.6620 N.pl3          1 S1                -1.0000
     11 ****         3.8145  -1.0670   0.0130 C.3            1 S1                 0.0000
     12 ****         4.6615  -0.1012   0.8561 C.3            1 S1                 0.0000
     13 ****         5.2725   0.8853  -0.1500 C.3            1 S1                 0.0000
     14 ****         5.2285   0.1948  -1.5241 C.3            1 S1                 0.0000
     15 ****         4.6098  -1.1911  -1.2958 C.3            1 S1                 0.0000
     16 ****         2.3849  -0.5892  -0.1975 C.2            1 S1                 0.0000
     17 ****         2.0648   0.4738  -0.7320 O.2            1 S1                 0.0000
     18 ****        -3.6336   1.0426  -0.3380 N.am           1 S1                 0.0000
     19 ****        -4.3931   1.9118   0.4919 C.ar           1 S1                 0.0000
     20 ****        -4.4887   1.7907   1.8997 C.ar           1 S1                 0.0000
     21 ****        -5.2638   2.7262   2.6116 C.ar           1 S1                 0.0000
     22 ****        -5.9083   3.7519   1.8934 C.ar           1 S1                 0.0000
     23 ****        -5.8146   3.8884   0.5540 N.ar           1 S1                 0.0000
     24 ****        -5.0692   2.9878  -0.1218 C.ar           1 S1                 0.0000
     25 ****        -2.4103  -0.1307  -1.9334 H              1 S1                 0.0000
     26 ****        -2.3676  -2.7067  -0.4082 H              1 S1                 0.0000
     27 ****        -2.2579  -2.5017  -2.1350 H              1 S1                 0.0000
     28 ****        -0.0514  -3.0355  -1.2370 H              1 S1                 0.0000
     29 ****        -0.0309  -1.4343  -1.9246 H              1 S1                 0.0000
     30 ****        -0.2095  -0.4313   0.3725 H              1 S1                 0.0000
     31 ****        -0.3237  -2.0171   1.0728 H              1 S1                 0.0000
     32 ****         4.0868   0.4100   1.6302 H              1 S1                 0.0000
     33 ****         5.4630  -0.6456   1.3584 H              1 S1                 0.0000
     34 ****         4.6841   1.8030  -0.1809 H              1 S1                 0.0000
     35 ****         6.2888   1.1603   0.1336 H              1 S1                 0.0000
     36 ****         4.6052   0.7742  -2.2060 H              1 S1                 0.0000
     37 ****         6.2183   0.1181  -1.9747 H              1 S1                 0.0000
     38 ****         5.4076  -1.9270  -1.1821 H              1 S1                 0.0000
     39 ****         3.9979  -1.5086  -2.1416 H              1 S1                 0.0000
     40 ****        -3.4334   1.3943  -1.2630 H              1 S1                 0.0000
     41 ****        -3.9772   1.0146   2.4470 H              1 S1                 0.0000
     42 ****        -5.3584   2.6605   3.6854 H              1 S1                 0.0000
     43 ****        -6.5100   4.4856   2.4093 H              1 S1                 0.0000
     44 ****        -5.0157   3.1295  -1.1915 H              1 S1                 0.0000
     45 ****        -3.1106  -1.7732   1.0543 LP             1 S1                 0.0000
     46 ****        -3.9566  -0.4051   1.6966 LP             1 S1                 0.0000
     47 ****         0.7504  -3.6226   1.3065 LP             1 S1                 0.0000
     48 ****         2.3087  -4.3063   1.6292 LP             1 S1                 0.0000
     49 ****         4.3395  -2.9642   0.9686 LP             1 S1                 0.0000
     50 ****         1.0986   0.7074  -0.8413 LP             1 S1                 0.0000
     51 ****         2.7711   1.1029  -1.0565 LP             1 S1                 0.0000
     52 ****        -6.2823   4.6327   0.0773 LP             1 S1                 0.0000
@<TRIPOS>BOND
    1    1    2 2     
    2    2    3 am    
    3    2   18 am    
    4    3    4 1     
    5    3   25 1     
    6    4    5 1     
    7    4   26 1     
    8    4   27 1     
    9    5    6 1     
   10    5   28 1     
   11    5   29 1     
   12    6    7 1     
   13    6   30 1     
   14    6   31 1     
   15    7   16 am    
   16    7    8 am    
   17    8    9 2     
   18    8   10 1     
   19   10   11 1     
   20   11   15 1     
   21   11   12 1     
   22   11   16 1     
   23   12   13 1     
   24   12   32 1     
   25   12   33 1     
   26   13   14 1     
   27   13   34 1     
   28   13   35 1     
   29   14   15 1     
   30   14   36 1     
   31   14   37 1     
   32   15   38 1     
   33   15   39 1     
   34   16   17 2     
   35   18   19 1     
   36   18   40 1     
   37   19   24 ar    
   38   19   20 ar    
   39   20   21 ar    
   40   20   41 1     
   41   21   22 ar    
   42   21   42 1     
   43   22   23 ar    
   44   22   43 1     
   45   23   24 ar    
   46   24   44 1     
   47    1   45 1     
   48    1   46 1     
   49    9   47 1     
   50    9   48 1     
   51   10   49 1     
   52   17   50 1     
   53   17   51 1     
   54   23   52 1     
@<TRIPOS>SUBSTRUCTURE
      1 S1             1
@<TRIPOS>SET
LONE_PAIRS      STATIC     ATOMS    <user>   **** ""
8 45 46 47 48 49 50 51 52
DONOR_HYDROGENS      STATIC     ATOMS    <user>   **** ""
2 25 40
ATOM$BLUE        STATIC     ATOMS    COLORGROUP SYSTEM
8 45 46 47 48 49 50 51 52
ATOM$RED        STATIC     ATOMS    COLORGROUP SYSTEM
2 25 40
