AV-unprocessed.smi:1742|AV-procd|sdf|7021|dock10
  -GOLD-   22720 8243D 1   1.00000     0.00000
 Structure written by MMmdl.
 34 35  0  0  0  0  0  0  0  0  1 V2000
  150.3506  145.0422  159.8461 C   0  0  0  0  0  0  0  0  0  0  0  0
  151.8582  144.9959  159.5721 C   0  0  0  0  0  0  0  0  0  0  0  0
  152.4865  143.8649  160.2261 N   0  0  0  0  0  0  0  0  0  0  0  0
  153.2371  142.8585  159.6520 C   0  0  0  0  0  0  0  0  0  0  0  0
  153.6080  142.0405  160.6816 C   0  0  0  0  0  0  0  0  0  0  0  0
  154.3873  140.8567  160.6540 N   0  0  0  0  0  0  0  0  0  0  0  0
  154.3998  139.9063  159.6998 C   0  0  0  0  0  0  0  0  0  0  0  0
  153.7145  139.9357  158.6796 O   0  0  0  0  0  0  0  0  0  0  0  0
  155.2460  138.8887  159.9396 N   0  0  0  0  0  0  0  0  0  0  0  0
  155.5020  137.7060  159.1165 C   0  0  1  0  0  0  0  0  0  0  0  0
  156.6495  136.8658  159.7080 C   0  0  0  0  0  0  0  0  0  0  0  0
  156.6419  135.4808  159.0488 C   0  0  0  0  0  0  0  0  0  0  0  0
  154.8955  135.1313  158.6150 S   0  0  0  0  0  0  0  0  0  0  0  0
  154.8017  134.9103  157.1640 O   0  0  0  0  0  0  0  0  0  0  0  0
  154.3334  134.1616  159.5672 O   0  0  0  0  0  0  0  0  0  0  0  0
  154.2622  136.8023  159.0171 C   0  0  0  0  0  0  0  0  0  0  0  0
  153.0465  142.6135  161.8524 C   0  0  0  0  0  0  0  0  0  0  0  0
  152.3717  143.7175  161.5692 N   0  0  0  0  0  0  0  0  0  0  0  0
  149.8954  145.9068  159.3630 H   0  0  0  0  0  0  0  0  0  0  0  0
  150.1469  145.1124  160.9150 H   0  0  0  0  0  0  0  0  0  0  0  0
  149.8531  144.1489  159.4675 H   0  0  0  0  0  0  0  0  0  0  0  0
  152.0480  144.9361  158.4994 H   0  0  0  0  0  0  0  0  0  0  0  0
  152.3337  145.9108  159.9275 H   0  0  0  0  0  0  0  0  0  0  0  0
  153.4309  142.8237  158.5902 H   0  0  0  0  0  0  0  0  0  0  0  0
  155.0025  140.7172  161.4422 H   0  0  0  0  0  0  0  0  0  0  0  0
  155.7859  138.9517  160.7907 H   0  0  0  0  0  0  0  0  0  0  0  0
  155.8028  138.0061  158.1109 H   0  0  0  0  0  0  0  0  0  0  0  0
  157.6153  137.3581  159.5908 H   0  0  0  0  0  0  0  0  0  0  0  0
  156.4863  136.7396  160.7794 H   0  0  0  0  0  0  0  0  0  0  0  0
  157.2224  135.4873  158.1261 H   0  0  0  0  0  0  0  0  0  0  0  0
  157.0330  134.6989  159.7001 H   0  0  0  0  0  0  0  0  0  0  0  0
  153.7434  136.7389  159.9744 H   0  0  0  0  0  0  0  0  0  0  0  0
  153.5507  137.1263  158.2575 H   0  0  0  0  0  0  0  0  0  0  0  0
  153.1049  142.2738  162.8759 H   0  0  0  0  0  0  0  0  0  0  0  0
  1  2  1  0  0  0  0
  1 19  1  0  0  0  0
  1 20  1  0  0  0  0
  1 21  1  0  0  0  0
  2  3  1  0  0  0  0
  2 22  1  0  0  0  0
  2 23  1  0  0  0  0
  3 18  1  0  0  0  0
  3  4  1  0  0  0  0
  4  5  2  0  0  0  0
  4 24  1  0  0  0  0
  5  6  1  0  0  0  0
  5 17  1  0  0  0  0
  6  7  1  0  0  0  0
  6 25  1  0  0  0  0
  7  8  2  0  0  0  0
  7  9  1  0  0  0  0
  9 10  1  0  0  0  0
  9 26  1  0  0  0  0
 10 16  1  0  0  0  0
 10 11  1  0  0  0  0
 10 27  1  0  0  0  0
 11 12  1  0  0  0  0
 11 28  1  0  0  0  0
 11 29  1  0  0  0  0
 12 13  1  0  0  0  0
 12 30  1  0  0  0  0
 12 31  1  0  0  0  0
 13 14  2  0  0  0  0
 13 15  2  0  0  0  0
 13 16  1  0  0  0  0
 16 32  1  0  0  0  0
 16 33  1  0  0  0  0
 17 18  2  0  0  0  0
 17 34  1  0  0  0  0
M  END
> <s_m_source_file>
AV-unprocessed.smi

> <i_m_source_file_index>
1742

> <i_lp_mmshare_version>
43012

> <i_f3d_flags>
0

> <s_epik_input>
W0NIM11bQ0gyXW4xW2NIXWMoW2NIXW4xKVtOSF1DKD1PKVtOSF1bQ0BASF0oW0NIMl0yKVtDSDJdW0NIMl1TMig9Tyk9Tw==

> <s_epik_cmdline>
J2VwaWtfcHl0aG9uJywgJy1waCcsICc3LjAnLCAnLXRuJywgJzgnLCAnLW1hJywgJzIwMCcsICctbWV0YWxfYmluZGluZycsICctaW1hZScsICc8aW5maWxlLm1hZT4nLCAnLW9tYWUnLCAnPG91dGZpbGUubWFlPic=

> <r_lp_tautomer_probability>
1

> <r_epik_Ionization_Penalty>
0.000152028

> <r_epik_Ionization_Penalty_Charging>
0

> <r_epik_Ionization_Penalty_Neutral>
0.000152028

> <r_epik_State_Penalty>
-0

> <r_epik_Charging_Adjusted_Penalty>
0

> <i_epik_Tot_Q>
0

> <i_epik_Tot_abs_Q>
0

> <r_epik_Metal_State_Penalty>
-0

> <b_epik_Metal_Only>
0

> <s_lp_Force_Field>
OPLS_2005

> <r_lp_Energy>
18.8672

> <b_lp_Chiralities_Consistent>
1

> <s_lp_Variant>
AV-unprocessed.smi:1742-2

> <Gold.Version>
5.8.1

> <Gold.Id.Protein>
6NUR|6NUR_protein|mol2

> <Gold.PLP.Fitness>
40.5774

> <Gold.PLP.PLP>
-32.1802

> <Gold.PLP.part.hbond>
-3.0000

> <Gold.PLP.part.metal>
0.0000

> <Gold.PLP.part.buried>
-5.2579

> <Gold.PLP.part.nonpolar>
-23.4356

> <Gold.PLP.part.repulsive>
0.2341

> <Gold.PLP.ligand.clash>
0.0000

> <Gold.PLP.ligand.torsion>
0.3025

> <Gold.PLP.Chemscore.Hbond>
3.0000

> <Gold.PLP.Chemscore.CHOScore>
0.0000

> <Gold.PLP.Chemscore.Metal>
0.0000

> <Gold.Chemscore.Hbonds>
donor molecule, donor type, donor heavy atom, donor atom, acceptor molecule, acceptor atom, score
      P1  H  6896  6909       L1    15  1.00
      P1  H  7997  8010       L1     8  1.00
      P1  H 10752 10764       L1    14  1.00

> <Gold.PLP.Chemscore.Internal.Correction>
0.0022

> <Gold.Rescore>
     Score         DG    S(hbond)    S(metal)    S(lipo)     H(rot)  DE(clash)    DE(int)     intcor
     19.46     -19.78       2.97        0.00      64.95       1.26       0.00       0.31       ----

> <Gold.Chemscore.Fitness>
19.4615

> <Gold.Chemscore.DG>
-19.7769

> <Gold.Chemscore.ZeroCoef>
-5.4800

> <Gold.Chemscore.Hbond>
2.9676

> <Gold.Chemscore.Metal>
0.0000

> <Gold.Chemscore.Lipo>
64.9475

> <Gold.Chemscore.Internal_Hbond>
0.0000

> <Gold.Chemscore.DEClash>
0.0048

> <Gold.Chemscore.DEInternal>
0.3105

> <Gold.Chemscore.Rot>
1.2554

> <Gold.Chemscore.Internal.Correction>
   9.000000E+99

> <Gold.Chemscore.Hbonds>
donor molecule, donor type, donor heavy atom, donor atom, acceptor molecule, acceptor atom, score
      P1  H  6896  6909       L1    15  0.97
      P1  H  7997  8010       L1     8  0.58
      P1  H 10752 10764       L1    14  0.99

> <Gold.Chemscore.Hbond.Weighted>
-9.9119

> <Gold.Chemscore.Metal.Weighted>
-0.0000

> <Gold.Chemscore.Lipo.Weighted>
-7.5989

> <Gold.Chemscore.Internal_Hbond.Weighted>
0.0000

> <Gold.Chemscore.DEClash.Weighted>
0.0048

> <Gold.Chemscore.DEInternal.Weighted>
0.3105

> <Gold.Chemscore.Rot.Weighted>
3.2139

> <Gold.Chemscore.Internal.Correction.Weighted>
   9.000000E+99

> <Gold.Protein.RotatedTorsions>
[ 6907 6896 6895 6894 ] final -148.76 input  -60.11 | X-H torsion
[ 7974 7965 7964 7962 ] final  175.44 input  175.53 | X-H torsion
[ 8008 7997 7996 7995 ] final   14.05 input   59.86 | X-H torsion
[ 10167 10162 10161 10158 ] final   -0.70 input  -65.29 | X-H torsion
[ 10718 10713 10712 10709 ] final    8.89 input   66.30 | X-H torsion
[ 10763 10752 10751 10750 ] final   46.49 input  -60.55 | X-H torsion
[ 11005 11000 10999 10996 ] final  169.18 input  -57.11 | X-H torsion

> <Gold.Protein.ActiveResidues>
 VAL166  LYS551  ARG553  GLY616  TRP617  ASP618  TYR619  PRO620  LYS621  CYS622 
 ASP623  PHE694  ASN695  SER759  ASP760  ASP761  ALA762  ILE779  LEU786  VAL792 
 PHE793  MET794  SER795  GLU796  ALA797  LYS798  CYS799  TRP800  GLU811  SER814 

> <Gold.Protein.RotatedAtoms>
  151.1745  133.4764  159.2593 H   0  0  0  0  0  0  0  0  0  0  0  0  # atno 6907 bound_to 6896
  151.1322  135.0136  159.8598 H   0  0  0  0  0  0  0  0  0  0  0  0  # atno 6908 bound_to 6896
  152.5460  134.1646  159.8625 H   0  0  0  0  0  0  0  0  0  0  0  0  # atno 6909 bound_to 6896
  144.7202  139.9947  143.6440 H   0  0  0  0  0  0  0  0  0  0  0  0  # atno 7974 bound_to 7965
  154.8430  140.2917  155.5647 H   0  0  0  0  0  0  0  0  0  0  0  0  # atno 8008 bound_to 7997
  156.3013  140.2510  156.3307 H   0  0  0  0  0  0  0  0  0  0  0  0  # atno 8009 bound_to 7997
  154.9104  140.0388  157.1932 H   0  0  0  0  0  0  0  0  0  0  0  0  # atno 8010 bound_to 7997
  140.6778  143.6863  150.8064 H   0  0  0  0  0  0  0  0  0  0  0  0  # atno 10167 bound_to 10162
  156.9582  130.5923  149.5660 H   0  0  0  0  0  0  0  0  0  0  0  0  # atno 10718 bound_to 10713
  152.9810  135.6006  154.3608 H   0  0  0  0  0  0  0  0  0  0  0  0  # atno 10763 bound_to 10752
  154.3290  135.2769  155.2483 H   0  0  0  0  0  0  0  0  0  0  0  0  # atno 10764 bound_to 10752
  154.4616  135.5964  153.6315 H   0  0  0  0  0  0  0  0  0  0  0  0  # atno 10765 bound_to 10752
  140.2950  134.7642  157.3869 H   0  0  0  0  0  0  0  0  0  0  0  0  # atno 11005 bound_to 11000
  146.0384  139.3398  143.0712 LP  0  0  0  0  0  0  0  0  0  0  0  0  # atno 17320 bound_to 7965
  145.8366  140.9603  143.0821 LP  0  0  0  0  0  0  0  0  0  0  0  0  # atno 17321 bound_to 7965
  140.0559  143.5203  152.2651 LP  0  0  0  0  0  0  0  0  0  0  0  0  # atno 17342 bound_to 10162
  139.6082  144.7602  151.3013 LP  0  0  0  0  0  0  0  0  0  0  0  0  # atno 17343 bound_to 10162
  156.0333  130.5423  150.8590 LP  0  0  0  0  0  0  0  0  0  0  0  0  # atno 17370 bound_to 10713
  157.5675  131.0946  150.9467 LP  0  0  0  0  0  0  0  0  0  0  0  0  # atno 17371 bound_to 10713
  140.1161  134.5281  155.8224 LP  0  0  0  0  0  0  0  0  0  0  0  0  # atno 17394 bound_to 11000
  141.2139  133.6740  156.6779 LP  0  0  0  0  0  0  0  0  0  0  0  0  # atno 17395 bound_to 11000

$$$$
