#       Name:                AV-unprocessed.smi:837
#       Creating user name   scv26
#       Creation time:       Fri Mar 27 01:36:44 2020


#       File generated by GOLD software.
#

@<TRIPOS>MOLECULE
AV-unprocessed.smi:837
    56    58     1
SMALL
NO_CHARGES


@<TRIPOS>ATOM
      1 ****        -3.8517   1.3501   0.7784 C.3            1 S1                 0.0000
      2 ****        -2.9102   1.8091  -0.3568 C.3            1 S1                 0.0000
      3 ****        -2.8262   3.3516  -0.3790 C.3            1 S1                 0.0000
      4 ****        -1.9635   3.8629  -1.5415 C.3            1 S1                 0.0000
      5 ****        -0.5540   3.2608  -1.4933 C.3            1 S1                 0.0000
      6 ****        -0.6109   1.7237  -1.4805 C.3            1 S1                 0.0000
      7 ****        -1.4926   1.1445  -0.3411 C.3            1 S1                 0.0000
      8 ****        -1.6065  -0.2914  -0.5325 N.pl3          1 S1                -1.0000
      9 ****        -1.0524  -0.9248   0.5263 C.2            1 S1                 0.0000
     10 ****        -0.9568  -2.1418   0.6851 O.2            1 S1                 0.0000
     11 ****        -0.5773  -0.0420   1.4250 N.am           1 S1                 0.0000
     12 ****         0.1310  -0.4044   2.6584 C.3            1 S1                 0.0000
     13 ****         1.6181  -0.6386   2.3806 C.2            1 S1                 0.0000
     14 ****         2.3771   0.3157   2.2136 O.2            1 S1                 0.0000
     15 ****         2.0115  -1.9190   2.3186 N.am           1 S1                 0.0000
     16 ****         3.3516  -2.3811   1.9704 C.3            1 S1                 0.0000
     17 ****         3.7583  -2.0515   0.5161 C.3            1 S1                 0.0000
     18 ****         2.6629  -2.2870  -0.5142 C.ar           1 S1                 0.0000
     19 ****         2.2128  -1.2293  -1.3364 C.ar           1 S1                 0.0000
     20 ****         1.1877  -1.4681  -2.2744 C.ar           1 S1                 0.0000
     21 ****         0.6240  -2.7564  -2.3618 C.ar           1 S1                 0.0000
     22 ****         1.0785  -3.7441  -1.5603 N.pl3          1 S1                 1.0000
     23 ****         2.0667  -3.5591  -0.6574 C.ar           1 S1                 0.0000
     24 ****        -0.7816   1.2127   1.0096 C.2            1 S1                 0.0000
     25 ****        -0.4562   2.2495   1.5890 O.2            1 S1                 0.0000
     26 ****        -3.4810   1.6469   1.7598 H              1 S1                 0.0000
     27 ****        -3.9794   0.2675   0.7831 H              1 S1                 0.0000
     28 ****        -4.8429   1.7880   0.6602 H              1 S1                 0.0000
     29 ****        -3.3905   1.5108  -1.2905 H              1 S1                 0.0000
     30 ****        -3.8278   3.7736  -0.4675 H              1 S1                 0.0000
     31 ****        -2.4263   3.7229   0.5647 H              1 S1                 0.0000
     32 ****        -2.4383   3.6066  -2.4893 H              1 S1                 0.0000
     33 ****        -1.9035   4.9511  -1.5092 H              1 S1                 0.0000
     34 ****         0.0206   3.5995  -2.3556 H              1 S1                 0.0000
     35 ****        -0.0247   3.6286  -0.6144 H              1 S1                 0.0000
     36 ****        -0.9935   1.3838  -2.4445 H              1 S1                 0.0000
     37 ****         0.4060   1.3346  -1.4108 H              1 S1                 0.0000
     38 ****         0.0310   0.3852   3.4050 H              1 S1                 0.0000
     39 ****        -0.3168  -1.2932   3.1067 H              1 S1                 0.0000
     40 ****         1.3115  -2.6302   2.4744 H              1 S1                 0.0000
     41 ****         4.0845  -1.9842   2.6740 H              1 S1                 0.0000
     42 ****         3.3528  -3.4630   2.1044 H              1 S1                 0.0000
     43 ****         4.0716  -1.0083   0.4621 H              1 S1                 0.0000
     44 ****         4.6336  -2.6390   0.2377 H              1 S1                 0.0000
     45 ****         2.6388  -0.2406  -1.2462 H              1 S1                 0.0000
     46 ****         0.8230  -0.6690  -2.9030 H              1 S1                 0.0000
     47 ****        -0.1764  -3.0216  -3.0368 H              1 S1                 0.0000
     48 ****         2.3375  -4.4249  -0.0713 H              1 S1                 0.0000
     49 ****         0.6516  -4.6674  -1.6360 H              1 S1                 0.0000
     50 ****        -2.0274  -0.7397  -1.3211 LP             1 S1                 0.0000
     51 ****        -1.3099  -2.7662  -0.0116 LP             1 S1                 0.0000
     52 ****        -0.5261  -2.5060   1.5109 LP             1 S1                 0.0000
     53 ****         2.0232   1.2499   2.2591 LP             1 S1                 0.0000
     54 ****         3.3476   0.1569   2.0325 LP             1 S1                 0.0000
     55 ****        -0.6559   3.1375   1.1748 LP             1 S1                 0.0000
     56 ****         0.0076   2.2034   2.4737 LP             1 S1                 0.0000
@<TRIPOS>BOND
    1    1    2 1     
    2    1   26 1     
    3    1   27 1     
    4    1   28 1     
    5    2    7 1     
    6    2    3 1     
    7    2   29 1     
    8    3    4 1     
    9    3   30 1     
   10    3   31 1     
   11    4    5 1     
   12    4   32 1     
   13    4   33 1     
   14    5    6 1     
   15    5   34 1     
   16    5   35 1     
   17    6    7 1     
   18    6   36 1     
   19    6   37 1     
   20    7   24 1     
   21    7    8 1     
   22    8    9 1     
   23    9   10 2     
   24    9   11 am    
   25   11   12 1     
   26   11   24 am    
   27   12   13 1     
   28   12   38 1     
   29   12   39 1     
   30   13   14 2     
   31   13   15 am    
   32   15   16 1     
   33   15   40 1     
   34   16   17 1     
   35   16   41 1     
   36   16   42 1     
   37   17   18 1     
   38   17   43 1     
   39   17   44 1     
   40   18   23 ar    
   41   18   19 ar    
   42   19   20 ar    
   43   19   45 1     
   44   20   21 ar    
   45   20   46 1     
   46   21   22 ar    
   47   21   47 1     
   48   22   23 ar    
   49   22   49 1     
   50   23   48 1     
   51   24   25 2     
   52    8   50 1     
   53   10   51 1     
   54   10   52 1     
   55   14   53 1     
   56   14   54 1     
   57   25   55 1     
   58   25   56 1     
@<TRIPOS>SUBSTRUCTURE
      1 S1             1
@<TRIPOS>SET
LONE_PAIRS      STATIC     ATOMS    <user>   **** ""
7 50 51 52 53 54 55 56
DONOR_HYDROGENS      STATIC     ATOMS    <user>   **** ""
2 40 49
ATOM$BLUE        STATIC     ATOMS    COLORGROUP SYSTEM
7 50 51 52 53 54 55 56
ATOM$RED        STATIC     ATOMS    COLORGROUP SYSTEM
2 40 49
