AV-unprocessed.smi:334|AV-procd|sdf|2362|dock7
  -GOLD-   2262022273D 1   1.00000     0.00000
 Structure written by MMmdl.
 44 46  0  0  0  0  0  0  0  0  3 V2000
  151.4497  140.2023  158.4147 C   0  0  0  0  0  0  0  0  0  0  0  0
  152.4999  141.2424  158.8390 C   0  0  2  0  0  0  0  0  0  0  0  0
  153.3903  140.6170  159.8162 N   0  0  0  0  0  0  0  0  0  0  0  0
  154.2437  139.6090  159.5769 C   0  0  0  0  0  0  0  0  0  0  0  0
  154.3901  139.0926  158.4683 O   0  0  0  0  0  0  0  0  0  0  0  0
  155.0720  139.1382  160.7809 C   0  0  0  0  0  0  0  0  0  0  0  0
  154.8826  137.7132  161.1003 N   0  0  0  0  0  0  0  0  0  0  0  0
  154.3688  137.4064  162.3759 C   0  0  0  0  0  0  0  0  0  0  0  0
  154.1609  136.1372  162.7777 C   0  0  0  0  0  0  0  0  0  0  0  0
  153.6384  135.8403  164.0935 N   0  3  0  0  0  0  0  0  0  0  0  0
  153.2835  136.7712  164.8094 O   0  0  0  0  0  0  0  0  0  0  0  0
  153.5657  134.6699  164.4555 O   0  5  0  0  0  0  0  0  0  0  0  0
  154.4837  135.0737  161.8461 C   0  0  0  0  0  0  0  0  0  0  0  0
  154.9792  135.3605  160.6262 C   0  0  0  0  0  0  0  0  0  0  0  0
  155.2095  136.7426  160.1931 C   0  0  0  0  0  0  0  0  0  0  0  0
  155.6692  137.0108  159.0828 O   0  0  0  0  0  0  0  0  0  0  0  0
  151.8551  142.5204  159.4337 C   0  0  2  0  0  0  0  0  0  0  0  0
  150.9277  143.2620  158.4393 C   0  0  0  0  0  0  0  0  0  0  0  0
  151.4795  144.6985  158.4396 C   0  0  1  0  0  0  0  0  0  0  0  0
  151.1775  145.3670  159.7929 C   0  0  0  0  0  0  0  0  0  0  0  0
  152.1503  144.6496  160.7468 C   0  0  0  0  0  0  0  0  0  0  0  0
  152.8559  143.6418  159.8191 C   0  0  2  0  0  0  0  0  0  0  0  0
  152.9791  144.4498  158.5318 C   0  0  0  0  0  0  0  0  0  0  0  0
  150.7832  140.5920  157.6455 H   0  0  0  0  0  0  0  0  0  0  0  0
  150.8339  139.8917  159.2596 H   0  0  0  0  0  0  0  0  0  0  0  0
  151.9266  139.3106  158.0062 H   0  0  0  0  0  0  0  0  0  0  0  0
  153.0642  141.5187  157.9471 H   0  0  0  0  0  0  0  0  0  0  0  0
  153.3493  140.9808  160.7574 H   0  0  0  0  0  0  0  0  0  0  0  0
  156.1227  139.3458  160.5727 H   0  0  0  0  0  0  0  0  0  0  0  0
  154.8279  139.7552  161.6480 H   0  0  0  0  0  0  0  0  0  0  0  0
  154.1678  138.2677  162.9970 H   0  0  0  0  0  0  0  0  0  0  0  0
  154.3313  134.0402  162.1196 H   0  0  0  0  0  0  0  0  0  0  0  0
  155.2136  134.5530  159.9483 H   0  0  0  0  0  0  0  0  0  0  0  0
  151.2864  142.2283  160.3181 H   0  0  0  0  0  0  0  0  0  0  0  0
  151.0005  142.8439  157.4347 H   0  0  0  0  0  0  0  0  0  0  0  0
  149.8797  143.2187  158.7382 H   0  0  0  0  0  0  0  0  0  0  0  0
  151.1620  145.2884  157.5794 H   0  0  0  0  0  0  0  0  0  0  0  0
  151.3935  146.4356  159.7569 H   0  0  0  0  0  0  0  0  0  0  0  0
  150.1354  145.2449  160.0907 H   0  0  0  0  0  0  0  0  0  0  0  0
  152.8673  145.3580  161.1638 H   0  0  0  0  0  0  0  0  0  0  0  0
  151.6390  144.1660  161.5799 H   0  0  0  0  0  0  0  0  0  0  0  0
  153.8031  143.2916  160.2281 H   0  0  0  0  0  0  0  0  0  0  0  0
  153.3783  143.8772  157.6931 H   0  0  0  0  0  0  0  0  0  0  0  0
  153.5632  145.3645  158.6492 H   0  0  0  0  0  0  0  0  0  0  0  0
  1  2  1  0  0  0  0
  1 24  1  0  0  0  0
  1 25  1  0  0  0  0
  1 26  1  0  0  0  0
  2  3  1  0  0  0  0
  2 17  1  0  0  0  0
  2 27  1  0  0  0  0
  3  4  1  0  0  0  0
  3 28  1  0  0  0  0
  4  5  2  0  0  0  0
  4  6  1  0  0  0  0
  6  7  1  0  0  0  0
  6 29  1  0  0  0  0
  6 30  1  0  0  0  0
  7 15  1  0  0  0  0
  7  8  1  0  0  0  0
  8  9  2  0  0  0  0
  8 31  1  0  0  0  0
  9 10  1  0  0  0  0
  9 13  1  0  0  0  0
 10 11  2  0  0  0  0
 10 12  1  0  0  0  0
 13 14  2  0  0  0  0
 13 32  1  0  0  0  0
 14 15  1  0  0  0  0
 14 33  1  0  0  0  0
 15 16  2  0  0  0  0
 17 22  1  0  0  0  0
 17 18  1  0  0  0  0
 17 34  1  0  0  0  0
 18 19  1  0  0  0  0
 18 35  1  0  0  0  0
 18 36  1  0  0  0  0
 19 23  1  0  0  0  0
 19 20  1  0  0  0  0
 19 37  1  0  0  0  0
 20 21  1  0  0  0  0
 20 38  1  0  0  0  0
 20 39  1  0  0  0  0
 21 22  1  0  0  0  0
 21 40  1  0  0  0  0
 21 41  1  0  0  0  0
 22 23  1  0  0  0  0
 22 42  1  0  0  0  0
 23 43  1  0  0  0  0
 23 44  1  0  0  0  0
M  CHG  1  10   1
M  CHG  1  12  -1
M  END
> <s_m_source_file>
AV-unprocessed.smi

> <i_m_source_file_index>
334

> <i_lp_mmshare_version>
43012

> <i_f3d_flags>
0

> <s_epik_input>
W0NIMl0xW0NIMl1bQ0BIXShbQ0gyXTIpW0NAQEhdKFtDSDJdW0NAQEhdMTIpW0NASF0oW0NIM10pW05IXUMoPU8pW0NIMl1uM1tjSF1jKFtOK10oPU8pW08tXSlbY0hdW2NIXWMzPU8=

> <s_epik_cmdline>
J2VwaWtfcHl0aG9uJywgJy1waCcsICc3LjAnLCAnLXRuJywgJzgnLCAnLW1hJywgJzIwMCcsICctbWV0YWxfYmluZGluZycsICctaW1hZScsICc8aW5maWxlLm1hZT4nLCAnLW9tYWUnLCAnPG91dGZpbGUubWFlPic=

> <r_lp_tautomer_probability>
1

> <r_epik_Ionization_Penalty>
2.17081e-08

> <r_epik_Ionization_Penalty_Charging>
8.1195e-11

> <r_epik_Ionization_Penalty_Neutral>
2.16269e-08

> <r_epik_State_Penalty>
-0

> <r_epik_Charging_Adjusted_Penalty>
8.1195e-11

> <i_epik_Tot_Q>
0

> <i_epik_Tot_abs_Q>
2

> <r_epik_Metal_State_Penalty>
-0

> <b_epik_Metal_Only>
0

> <s_lp_Force_Field>
OPLS_2005

> <r_lp_Energy>
62.1866

> <b_lp_Chiralities_Consistent>
1

> <s_lp_Variant>
AV-unprocessed.smi:334-1

> <Gold.Version>
5.8.1

> <Gold.Id.Protein>
6NUR|6NUR_protein|mol2

> <Gold.PLP.Fitness>
48.2709

> <Gold.PLP.PLP>
-45.4206

> <Gold.PLP.part.hbond>
-1.6152

> <Gold.PLP.part.metal>
0.0000

> <Gold.PLP.part.buried>
-6.4467

> <Gold.PLP.part.nonpolar>
-38.5597

> <Gold.PLP.part.repulsive>
0.3325

> <Gold.PLP.ligand.clash>
0.0000

> <Gold.PLP.ligand.torsion>
0.0878

> <Gold.PLP.Chemscore.Hbond>
1.0000

> <Gold.PLP.Chemscore.CHOScore>
0.0000

> <Gold.PLP.Chemscore.Metal>
0.0000

> <Gold.Chemscore.Hbonds>
donor molecule, donor type, donor heavy atom, donor atom, acceptor molecule, acceptor atom, score
      P1  H  7997  8008       L1     5  1.00

> <Gold.PLP.Chemscore.Internal.Correction>
0.0259

> <Gold.Rescore>
     Score         DG    S(hbond)    S(metal)    S(lipo)     H(rot)  DE(clash)    DE(int)     intcor
     16.53     -18.47       0.99        0.00     121.05       1.75       0.09       1.84       ----

> <Gold.Chemscore.Fitness>
16.5313

> <Gold.Chemscore.DG>
-18.4687

> <Gold.Chemscore.ZeroCoef>
-5.4800

> <Gold.Chemscore.Hbond>
0.9877

> <Gold.Chemscore.Metal>
0.0000

> <Gold.Chemscore.Lipo>
121.0531

> <Gold.Chemscore.Internal_Hbond>
0.0000

> <Gold.Chemscore.DEClash>
0.0943

> <Gold.Chemscore.DEInternal>
1.8431

> <Gold.Chemscore.Rot>
1.7474

> <Gold.Chemscore.Internal.Correction>
   9.000000E+99

> <Gold.Chemscore.Hbonds>
donor molecule, donor type, donor heavy atom, donor atom, acceptor molecule, acceptor atom, score
      P1  H  6924  6935       L1    11  0.01
      P1  H  7997  8008       L1     5  0.96

> <Gold.Chemscore.Hbond.Weighted>
-3.2989

> <Gold.Chemscore.Metal.Weighted>
-0.0000

> <Gold.Chemscore.Lipo.Weighted>
-14.1632

> <Gold.Chemscore.Internal_Hbond.Weighted>
0.0000

> <Gold.Chemscore.DEClash.Weighted>
0.0943

> <Gold.Chemscore.DEInternal.Weighted>
1.8431

> <Gold.Chemscore.Rot.Weighted>
4.4733

> <Gold.Chemscore.Internal.Correction.Weighted>
   9.000000E+99

> <Gold.Protein.RotatedTorsions>
[ 6907 6896 6895 6894 ] final    6.15 input  -60.11 | X-H torsion
[ 7974 7965 7964 7962 ] final -151.91 input  175.53 | X-H torsion
[ 8008 7997 7996 7995 ] final -107.59 input   59.86 | X-H torsion
[ 10167 10162 10161 10158 ] final  -86.75 input  -65.29 | X-H torsion
[ 10718 10713 10712 10709 ] final -141.79 input   66.30 | X-H torsion
[ 10763 10752 10751 10750 ] final  174.02 input  -60.55 | X-H torsion
[ 11005 11000 10999 10996 ] final -165.14 input  -57.11 | X-H torsion

> <Gold.Protein.ActiveResidues>
 VAL166  LYS551  ARG553  GLY616  TRP617  ASP618  TYR619  PRO620  LYS621  CYS622 
 ASP623  PHE694  ASN695  SER759  ASP760  ASP761  ALA762  ILE779  LEU786  VAL792 
 PHE793  MET794  SER795  GLU796  ALA797  LYS798  CYS799  TRP800  GLU811  SER814 

> <Gold.Protein.RotatedAtoms>
  151.6691  135.0978  160.0194 H   0  0  0  0  0  0  0  0  0  0  0  0  # atno 6907 bound_to 6896
  152.3902  133.6664  159.6240 H   0  0  0  0  0  0  0  0  0  0  0  0  # atno 6908 bound_to 6896
  150.7819  133.8884  159.3347 H   0  0  0  0  0  0  0  0  0  0  0  0  # atno 6909 bound_to 6896
  144.7823  140.4733  143.5830 H   0  0  0  0  0  0  0  0  0  0  0  0  # atno 7974 bound_to 7965
  154.9316  140.0405  157.2051 H   0  0  0  0  0  0  0  0  0  0  0  0  # atno 8008 bound_to 7997
  154.8155  140.2875  155.5801 H   0  0  0  0  0  0  0  0  0  0  0  0  # atno 8009 bound_to 7997
  156.2975  140.2529  156.3052 H   0  0  0  0  0  0  0  0  0  0  0  0  # atno 8010 bound_to 7997
  140.3911  143.2704  151.9263 H   0  0  0  0  0  0  0  0  0  0  0  0  # atno 10167 bound_to 10162
  156.3382  130.7623  151.1754 H   0  0  0  0  0  0  0  0  0  0  0  0  # atno 10718 bound_to 10713
  154.4481  135.2764  155.1800 H   0  0  0  0  0  0  0  0  0  0  0  0  # atno 10763 bound_to 10752
  154.3639  135.6123  153.5708 H   0  0  0  0  0  0  0  0  0  0  0  0  # atno 10764 bound_to 10752
  152.9845  135.5841  154.4821 H   0  0  0  0  0  0  0  0  0  0  0  0  # atno 10765 bound_to 10752
  140.5791  134.5160  157.5175 H   0  0  0  0  0  0  0  0  0  0  0  0  # atno 11005 bound_to 11000
  145.6016  139.1504  143.3126 LP  0  0  0  0  0  0  0  0  0  0  0  0  # atno 17320 bound_to 7965
  146.2038  140.6137  142.9090 LP  0  0  0  0  0  0  0  0  0  0  0  0  # atno 17321 bound_to 7965
  139.4789  144.5726  151.8063 LP  0  0  0  0  0  0  0  0  0  0  0  0  # atno 17342 bound_to 10162
  140.4839  144.1410  150.5937 LP  0  0  0  0  0  0  0  0  0  0  0  0  # atno 17343 bound_to 10162
  157.7442  131.0462  150.4881 LP  0  0  0  0  0  0  0  0  0  0  0  0  # atno 17370 bound_to 10713
  156.5057  130.4127  149.6328 LP  0  0  0  0  0  0  0  0  0  0  0  0  # atno 17371 bound_to 10713
  139.9326  134.7936  156.0890 LP  0  0  0  0  0  0  0  0  0  0  0  0  # atno 17394 bound_to 11000
  141.1008  133.6678  156.2749 LP  0  0  0  0  0  0  0  0  0  0  0  0  # atno 17395 bound_to 11000

$$$$
