AV-unprocessed.smi:1750|AV-procd|sdf|7055|dock7
  -GOLD-   22720 8273D 1   1.00000     0.00000
 Structure written by MMmdl.
 35 36  0  0  0  0  0  0  0  0  2 V2000
  152.7632  142.8434  159.6105 C   0  0  0  0  0  0  0  0  0  0  0  0
  152.5917  141.8054  158.4962 C   0  0  0  0  0  0  0  0  0  0  0  0
  151.1871  141.8316  157.8773 C   0  0  0  0  0  0  0  0  0  0  0  0
  151.0561  140.9040  156.7157 C   0  0  0  0  0  0  0  0  0  0  0  0
  150.6701  141.3092  155.5031 N   0  0  0  0  0  0  0  0  0  0  0  0
  150.5971  140.2589  154.5997 N   0  0  0  0  0  0  0  0  0  0  0  0
  150.9029  139.0733  155.1460 C   0  0  0  0  0  0  0  0  0  0  0  0
  150.8930  137.9299  154.4411 N   0  5  0  0  0  0  0  0  0  0  0  0
  151.0104  136.7424  155.0777 C   0  0  0  0  0  0  0  0  0  0  0  0
  151.8752  136.4377  155.9025 O   0  0  0  0  0  0  0  0  0  0  0  0
  150.0710  135.8506  154.7364 N   0  0  0  0  0  0  0  0  0  0  0  0
  149.9660  134.4960  155.2625 C   0  0  0  0  0  0  0  0  0  0  0  0
  149.4848  133.5292  154.1720 C   0  0  1  0  0  0  0  0  0  0  0  0
  149.5360  132.0581  154.5827 C   0  0  0  0  0  0  0  0  0  0  0  0
  148.4506  131.4068  153.7379 C   0  0  0  0  0  0  0  0  0  0  0  0
  147.6729  132.5874  153.1503 C   0  0  0  0  0  0  0  0  0  0  0  0
  148.1060  133.7167  153.8940 O   0  0  0  0  0  0  0  0  0  0  0  0
  151.3340  139.1761  156.8525 S   0  0  0  0  0  0  0  0  0  0  0  0
  153.7657  142.7943  160.0358 H   0  0  0  0  0  0  0  0  0  0  0  0
  152.0501  142.6758  160.4181 H   0  0  0  0  0  0  0  0  0  0  0  0
  152.6111  143.8547  159.2322 H   0  0  0  0  0  0  0  0  0  0  0  0
  153.3363  141.9868  157.7201 H   0  0  0  0  0  0  0  0  0  0  0  0
  152.7966  140.8111  158.8949 H   0  0  0  0  0  0  0  0  0  0  0  0
  150.4414  141.5630  158.6267 H   0  0  0  0  0  0  0  0  0  0  0  0
  150.9436  142.8404  157.5427 H   0  0  0  0  0  0  0  0  0  0  0  0
  149.3753  136.1363  154.0630 H   0  0  0  0  0  0  0  0  0  0  0  0
  150.9418  134.1726  155.6284 H   0  0  0  0  0  0  0  0  0  0  0  0
  149.2824  134.4877  156.1126 H   0  0  0  0  0  0  0  0  0  0  0  0
  150.0574  133.6747  153.2535 H   0  0  0  0  0  0  0  0  0  0  0  0
  150.5200  131.6153  154.4252 H   0  0  0  0  0  0  0  0  0  0  0  0
  149.2863  131.9519  155.6393 H   0  0  0  0  0  0  0  0  0  0  0  0
  148.8701  130.7856  152.9461 H   0  0  0  0  0  0  0  0  0  0  0  0
  147.8108  130.7762  154.3562 H   0  0  0  0  0  0  0  0  0  0  0  0
  147.9298  132.7311  152.0999 H   0  0  0  0  0  0  0  0  0  0  0  0
  146.5930  132.4566  153.2218 H   0  0  0  0  0  0  0  0  0  0  0  0
  1  2  1  0  0  0  0
  1 19  1  0  0  0  0
  1 20  1  0  0  0  0
  1 21  1  0  0  0  0
  2  3  1  0  0  0  0
  2 22  1  0  0  0  0
  2 23  1  0  0  0  0
  3  4  1  0  0  0  0
  3 24  1  0  0  0  0
  3 25  1  0  0  0  0
  4 18  1  0  0  0  0
  4  5  2  0  0  0  0
  5  6  1  0  0  0  0
  6  7  2  0  0  0  0
  7  8  1  0  0  0  0
  7 18  1  0  0  0  0
  8  9  1  0  0  0  0
  9 10  2  0  0  0  0
  9 11  1  0  0  0  0
 11 12  1  0  0  0  0
 11 26  1  0  0  0  0
 12 13  1  0  0  0  0
 12 27  1  0  0  0  0
 12 28  1  0  0  0  0
 13 17  1  0  0  0  0
 13 14  1  0  0  0  0
 13 29  1  0  0  0  0
 14 15  1  0  0  0  0
 14 30  1  0  0  0  0
 14 31  1  0  0  0  0
 15 16  1  0  0  0  0
 15 32  1  0  0  0  0
 15 33  1  0  0  0  0
 16 17  1  0  0  0  0
 16 34  1  0  0  0  0
 16 35  1  0  0  0  0
M  CHG  1   8  -1
M  END
> <s_m_source_file>
AV-unprocessed.smi

> <i_m_source_file_index>
1750

> <i_lp_mmshare_version>
43012

> <i_f3d_flags>
0

> <s_epik_input>
W0NIM11bQ0gyXVtDSDJdYzFubmMoczEpW05IXUMoPU8pW05IXVtDSDJdW0NAQEhdMltDSDJdW0NIMl1bQ0gyXU8y

> <s_epik_cmdline>
J2VwaWtfcHl0aG9uJywgJy1waCcsICc3LjAnLCAnLXRuJywgJzgnLCAnLW1hJywgJzIwMCcsICctbWV0YWxfYmluZGluZycsICctaW1hZScsICc8aW5maWxlLm1hZT4nLCAnLW9tYWUnLCAnPG91dGZpbGUubWFlPic=

> <r_lp_tautomer_probability>
1

> <r_epik_Ionization_Penalty>
4.22484

> <r_epik_Ionization_Penalty_Charging>
4.21437

> <r_epik_Ionization_Penalty_Neutral>
0.0104685

> <r_epik_State_Penalty>
4.21389

> <r_epik_Charging_Adjusted_Penalty>
8.42826

> <i_epik_Tot_Q>
-1

> <i_epik_Tot_abs_Q>
1

> <r_epik_Metal_State_Penalty>
0.69377

> <b_epik_Metal_Only>
1

> <s_lp_Force_Field>
OPLS_2005

> <r_lp_Energy>
10.9062

> <b_lp_Chiralities_Consistent>
1

> <s_lp_Variant>
AV-unprocessed.smi:1750-4

> <Gold.Version>
5.8.1

> <Gold.Id.Protein>
6NUR|6NUR_protein|mol2

> <Gold.PLP.Fitness>
39.3319

> <Gold.PLP.PLP>
-32.0425

> <Gold.PLP.part.hbond>
-4.2136

> <Gold.PLP.part.metal>
0.0000

> <Gold.PLP.part.buried>
-3.5899

> <Gold.PLP.part.nonpolar>
-25.4647

> <Gold.PLP.part.repulsive>
1.2411

> <Gold.PLP.ligand.clash>
0.0000

> <Gold.PLP.ligand.torsion>
0.7149

> <Gold.PLP.Chemscore.Hbond>
2.8882

> <Gold.PLP.Chemscore.CHOScore>
0.0000

> <Gold.PLP.Chemscore.Metal>
0.0000

> <Gold.Chemscore.Hbonds>
donor molecule, donor type, donor heavy atom, donor atom, acceptor molecule, acceptor atom, score
      L1  H    11    26       P1  7948  0.45
      P1  H  7989  7998       L1     6  0.85
      P1  H 10752 10765       L1    10  1.00

> <Gold.PLP.Chemscore.Internal.Correction>
0.0546

> <Gold.Rescore>
     Score         DG    S(hbond)    S(metal)    S(lipo)     H(rot)  DE(clash)    DE(int)     intcor
     13.68     -15.24       2.07        0.00      59.12       1.59       0.07       1.49       ----

> <Gold.Chemscore.Fitness>
13.6778

> <Gold.Chemscore.DG>
-15.2413

> <Gold.Chemscore.ZeroCoef>
-5.4800

> <Gold.Chemscore.Hbond>
2.0720

> <Gold.Chemscore.Metal>
0.0000

> <Gold.Chemscore.Lipo>
59.1182

> <Gold.Chemscore.Internal_Hbond>
0.0000

> <Gold.Chemscore.DEClash>
0.0727

> <Gold.Chemscore.DEInternal>
1.4909

> <Gold.Chemscore.Rot>
1.5922

> <Gold.Chemscore.Internal.Correction>
   9.000000E+99

> <Gold.Chemscore.Hbonds>
donor molecule, donor type, donor heavy atom, donor atom, acceptor molecule, acceptor atom, score
      L1  H    11    26       P1  7948  0.36
      P1  H  7989  7998       L1     6  0.14
      P1  H 10752 10765       L1    10  0.40

> <Gold.Chemscore.Hbond.Weighted>
-6.9206

> <Gold.Chemscore.Metal.Weighted>
-0.0000

> <Gold.Chemscore.Lipo.Weighted>
-6.9168

> <Gold.Chemscore.Internal_Hbond.Weighted>
0.0000

> <Gold.Chemscore.DEClash.Weighted>
0.0727

> <Gold.Chemscore.DEInternal.Weighted>
1.4909

> <Gold.Chemscore.Rot.Weighted>
4.0761

> <Gold.Chemscore.Internal.Correction.Weighted>
   9.000000E+99

> <Gold.Protein.RotatedTorsions>
[ 6907 6896 6895 6894 ] final  -81.83 input  -60.11 | X-H torsion
[ 7974 7965 7964 7962 ] final   61.37 input  175.53 | X-H torsion
[ 8008 7997 7996 7995 ] final  167.43 input   59.86 | X-H torsion
[ 10167 10162 10161 10158 ] final  -30.99 input  -65.29 | X-H torsion
[ 10718 10713 10712 10709 ] final  -47.88 input   66.30 | X-H torsion
[ 10763 10752 10751 10750 ] final -160.27 input  -60.55 | X-H torsion
[ 11005 11000 10999 10996 ] final  -16.77 input  -57.11 | X-H torsion

> <Gold.Protein.ActiveResidues>
 VAL166  LYS551  ARG553  GLY616  TRP617  ASP618  TYR619  PRO620  LYS621  CYS622 
 ASP623  PHE694  ASN695  SER759  ASP760  ASP761  ALA762  ILE779  LEU786  VAL792 
 PHE793  MET794  SER795  GLU796  ALA797  LYS798  CYS799  TRP800  GLU811  SER814 

> <Gold.Protein.RotatedAtoms>
  150.6906  134.3757  159.5011 H   0  0  0  0  0  0  0  0  0  0  0  0  # atno 6907 bound_to 6896
  152.1567  134.8943  160.0553 H   0  0  0  0  0  0  0  0  0  0  0  0  # atno 6908 bound_to 6896
  152.0020  133.3794  159.4222 H   0  0  0  0  0  0  0  0  0  0  0  0  # atno 6909 bound_to 6896
  145.8855  139.3473  143.0681 H   0  0  0  0  0  0  0  0  0  0  0  0  # atno 7974 bound_to 7965
  156.1635  140.1617  156.8572 H   0  0  0  0  0  0  0  0  0  0  0  0  # atno 8008 bound_to 7997
  154.5184  140.0784  156.8160 H   0  0  0  0  0  0  0  0  0  0  0  0  # atno 8009 bound_to 7997
  155.3660  140.3398  155.4244 H   0  0  0  0  0  0  0  0  0  0  0  0  # atno 8010 bound_to 7997
  140.7242  143.3806  151.1608 H   0  0  0  0  0  0  0  0  0  0  0  0  # atno 10167 bound_to 10162
  156.2041  130.4157  149.9201 H   0  0  0  0  0  0  0  0  0  0  0  0  # atno 10718 bound_to 10713
  154.7405  135.3067  154.8737 H   0  0  0  0  0  0  0  0  0  0  0  0  # atno 10763 bound_to 10752
  153.9553  135.6759  153.4748 H   0  0  0  0  0  0  0  0  0  0  0  0  # atno 10764 bound_to 10752
  153.1004  135.4915  154.8781 H   0  0  0  0  0  0  0  0  0  0  0  0  # atno 10765 bound_to 10752
  140.8101  133.8147  155.9555 H   0  0  0  0  0  0  0  0  0  0  0  0  # atno 11005 bound_to 11000
  145.8972  140.9266  143.0521 LP  0  0  0  0  0  0  0  0  0  0  0  0  # atno 17320 bound_to 7965
  144.6728  140.0985  143.7461 LP  0  0  0  0  0  0  0  0  0  0  0  0  # atno 17321 bound_to 7965
  139.7394  143.8948  152.3045 LP  0  0  0  0  0  0  0  0  0  0  0  0  # atno 17342 bound_to 10162
  139.8764  144.7041  150.8928 LP  0  0  0  0  0  0  0  0  0  0  0  0  # atno 17343 bound_to 10162
  156.6901  130.8892  151.3587 LP  0  0  0  0  0  0  0  0  0  0  0  0  # atno 17370 bound_to 10713
  157.7002  130.9325  150.0764 LP  0  0  0  0  0  0  0  0  0  0  0  0  # atno 17371 bound_to 10713
  140.9207  134.2146  157.4928 LP  0  0  0  0  0  0  0  0  0  0  0  0  # atno 17394 bound_to 11000
  139.8715  134.9791  156.5022 LP  0  0  0  0  0  0  0  0  0  0  0  0  # atno 17395 bound_to 11000

$$$$
