AV-unprocessed.smi:1008|AV-procd|sdf|4411|dock9
  -GOLD-   22720 2353D 1   1.00000     0.00000
 Structure written by MMmdl.
 23 23  0  0  0  0  0  0  0  0  1 V2000
  149.5109  142.6431  158.2719 C   0  0  0  0  0  0  0  0  0  0  0  0
  150.0657  141.7885  157.1457 C   0  0  0  0  0  0  0  0  0  0  0  0
  149.3068  141.7992  155.9888 N   0  0  0  0  0  0  0  0  0  0  0  0
  149.7299  141.0454  154.9047 C   0  0  0  0  0  0  0  0  0  0  0  0
  148.9065  141.1244  153.8011 N   0  0  0  0  0  0  0  0  0  0  0  0
  150.8061  140.3182  154.9046 N   0  0  0  0  0  0  0  0  0  0  0  0
  151.6157  140.2652  156.0501 C   0  0  0  0  0  0  0  0  0  0  0  0
  152.6352  139.5769  156.0621 O   0  0  0  0  0  0  0  0  0  0  0  0
  151.2008  141.0530  157.2307 C   0  0  0  0  0  0  0  0  0  0  0  0
  152.0787  141.0121  158.4782 C   0  0  0  0  0  0  0  0  0  0  0  0
  152.5617  142.4096  158.8924 C   0  0  0  0  0  0  0  0  0  0  0  0
  153.3105  142.3225  160.0851 O   0  0  0  0  0  0  0  0  0  0  0  0
  149.0774  140.6353  152.9347 H   0  0  0  0  0  0  0  0  0  0  0  0
  149.3641  142.0412  159.1692 H   0  0  0  0  0  0  0  0  0  0  0  0
  148.5508  143.0869  158.0056 H   0  0  0  0  0  0  0  0  0  0  0  0
  150.1998  143.4543  158.5084 H   0  0  0  0  0  0  0  0  0  0  0  0
  148.0652  141.6829  153.7797 H   0  0  0  0  0  0  0  0  0  0  0  0
  148.4680  142.3608  155.9774 H   0  0  0  0  0  0  0  0  0  0  0  0
  152.9394  140.3654  158.3093 H   0  0  0  0  0  0  0  0  0  0  0  0
  151.5266  140.5468  159.2962 H   0  0  0  0  0  0  0  0  0  0  0  0
  153.1854  142.8487  158.1132 H   0  0  0  0  0  0  0  0  0  0  0  0
  151.7176  143.0809  159.0532 H   0  0  0  0  0  0  0  0  0  0  0  0
  154.1451  141.9253  159.8876 H   0  0  0  0  0  0  0  0  0  0  0  0
  1 14  1  0  0  0  0
  1 15  1  0  0  0  0
  1 16  1  0  0  0  0
  1  2  1  0  0  0  0
  2  9  2  0  0  0  0
  2  3  1  0  0  0  0
  3 18  1  0  0  0  0
  3  4  1  0  0  0  0
  4  5  1  0  0  0  0
  4  6  2  0  0  0  0
  5 17  1  0  0  0  0
  5 13  1  0  0  0  0
  6  7  1  0  0  0  0
  7  8  2  0  0  0  0
  7  9  1  0  0  0  0
  9 10  1  0  0  0  0
 10 11  1  0  0  0  0
 10 19  1  0  0  0  0
 10 20  1  0  0  0  0
 11 12  1  0  0  0  0
 11 21  1  0  0  0  0
 11 22  1  0  0  0  0
 12 23  1  0  0  0  0
M  END
> <s_m_source_file>
AV-unprocessed.smi

> <i_m_source_file_index>
1008

> <i_lp_mmshare_version>
43012

> <i_f3d_flags>
0

> <s_epik_input>
W0NIM11jMW5jKFtOSDJdKVtuSF1jKD1PKWMxW0NIMl1bQ0gyXVtPSF0=

> <s_epik_cmdline>
J2VwaWtfcHl0aG9uJywgJy1waCcsICc3LjAnLCAnLXRuJywgJzgnLCAnLW1hJywgJzIwMCcsICctbWV0YWxfYmluZGluZycsICctaW1hZScsICc8aW5maWxlLm1hZT4nLCAnLW9tYWUnLCAnPG91dGZpbGUubWFlPic=

> <r_lp_tautomer_probability>
0.108277

> <r_epik_Ionization_Penalty>
0.666207

> <r_epik_Ionization_Penalty_Charging>
0.00797854

> <r_epik_Ionization_Penalty_Neutral>
0.658229

> <r_epik_State_Penalty>
1.38976

> <r_epik_Charging_Adjusted_Penalty>
1.39774

> <i_epik_Tot_Q>
0

> <i_epik_Tot_abs_Q>
0

> <r_epik_Metal_State_Penalty>
0.86313

> <b_epik_Metal_Only>
0

> <s_lp_Force_Field>
OPLS_2005

> <r_lp_Energy>
8.84659

> <b_lp_Chiralities_Consistent>
1

> <s_lp_Variant>
AV-unprocessed.smi:1008-2

> <Gold.Version>
5.8.1

> <Gold.Id.Protein>
6NUR|6NUR_protein|mol2

> <Gold.PLP.Fitness>
31.0459

> <Gold.PLP.PLP>
-22.0617

> <Gold.PLP.part.hbond>
-4.0000

> <Gold.PLP.part.metal>
0.0000

> <Gold.PLP.part.buried>
-4.6522

> <Gold.PLP.part.nonpolar>
-14.2112

> <Gold.PLP.part.repulsive>
0.7852

> <Gold.PLP.ligand.clash>
0.0000

> <Gold.PLP.ligand.torsion>
0.0081

> <Gold.PLP.Chemscore.Hbond>
3.0000

> <Gold.PLP.Chemscore.CHOScore>
0.0000

> <Gold.PLP.Chemscore.Metal>
0.0000

> <Gold.Chemscore.Hbonds>
donor molecule, donor type, donor heavy atom, donor atom, acceptor molecule, acceptor atom, score
      L1  H     3    18       P1  8028  0.01
      L1  H     5    13       P1  7957  1.00
      P1  H  7989  7998       L1     6  1.00
      P1  H  7997  8010       L1     8  1.00

> <Gold.PLP.Chemscore.Internal.Correction>
0.0003

> <Gold.Rescore>
     Score         DG    S(hbond)    S(metal)    S(lipo)     H(rot)  DE(clash)    DE(int)     intcor
     12.24     -12.31       2.48        0.00      32.66       2.06       0.06       0.00       ----

> <Gold.Chemscore.Fitness>
12.2393

> <Gold.Chemscore.DG>
-12.3061

> <Gold.Chemscore.ZeroCoef>
-5.4800

> <Gold.Chemscore.Hbond>
2.4783

> <Gold.Chemscore.Metal>
0.0000

> <Gold.Chemscore.Lipo>
32.6570

> <Gold.Chemscore.Internal_Hbond>
0.0000

> <Gold.Chemscore.DEClash>
0.0640

> <Gold.Chemscore.DEInternal>
0.0028

> <Gold.Chemscore.Rot>
2.0595

> <Gold.Chemscore.Internal.Correction>
   9.000000E+99

> <Gold.Chemscore.Hbonds>
donor molecule, donor type, donor heavy atom, donor atom, acceptor molecule, acceptor atom, score
      L1  H     3    18       P1  8028  0.03
      L1  H     5    13       P1  7957  0.99
      P1  H  7989  7998       L1     6  0.30
      P1  H  7997  8010       L1     8  1.00

> <Gold.Chemscore.Hbond.Weighted>
-8.2776

> <Gold.Chemscore.Metal.Weighted>
-0.0000

> <Gold.Chemscore.Lipo.Weighted>
-3.8209

> <Gold.Chemscore.Internal_Hbond.Weighted>
0.0000

> <Gold.Chemscore.DEClash.Weighted>
0.0640

> <Gold.Chemscore.DEInternal.Weighted>
0.0028

> <Gold.Chemscore.Rot.Weighted>
5.2724

> <Gold.Chemscore.Internal.Correction.Weighted>
   9.000000E+99

> <Gold.Protein.RotatedTorsions>
[ 6907 6896 6895 6894 ] final  100.64 input  -60.11 | X-H torsion
[ 7974 7965 7964 7962 ] final   83.77 input  175.53 | X-H torsion
[ 8008 7997 7996 7995 ] final   81.27 input   59.86 | X-H torsion
[ 10167 10162 10161 10158 ] final -170.16 input  -65.29 | X-H torsion
[ 10718 10713 10712 10709 ] final -120.42 input   66.30 | X-H torsion
[ 10763 10752 10751 10750 ] final -109.53 input  -60.55 | X-H torsion
[ 11005 11000 10999 10996 ] final  -31.89 input  -57.11 | X-H torsion

> <Gold.Protein.ActiveResidues>
 VAL166  LYS551  ARG553  GLY616  TRP617  ASP618  TYR619  PRO620  LYS621  CYS622 
 ASP623  PHE694  ASN695  SER759  ASP760  ASP761  ALA762  ILE779  LEU786  VAL792 
 PHE793  MET794  SER795  GLU796  ALA797  LYS798  CYS799  TRP800  GLU811  SER814 

> <Gold.Protein.RotatedAtoms>
  152.5367  134.0246  159.7997 H   0  0  0  0  0  0  0  0  0  0  0  0  # atno 6907 bound_to 6896
  151.0427  133.5684  159.2657 H   0  0  0  0  0  0  0  0  0  0  0  0  # atno 6908 bound_to 6896
  151.2648  135.0673  159.9165 H   0  0  0  0  0  0  0  0  0  0  0  0  # atno 6909 bound_to 6896
  145.6076  139.2363  143.2210 H   0  0  0  0  0  0  0  0  0  0  0  0  # atno 7974 bound_to 7965
  155.8948  140.3437  155.5983 H   0  0  0  0  0  0  0  0  0  0  0  0  # atno 8008 bound_to 7997
  155.7569  140.0827  157.2193 H   0  0  0  0  0  0  0  0  0  0  0  0  # atno 8009 bound_to 7997
  154.4037  140.1543  156.2775 H   0  0  0  0  0  0  0  0  0  0  0  0  # atno 8010 bound_to 7997
  139.5878  144.1279  152.1597 H   0  0  0  0  0  0  0  0  0  0  0  0  # atno 10167 bound_to 10162
  156.1257  130.6357  150.9538 H   0  0  0  0  0  0  0  0  0  0  0  0  # atno 10718 bound_to 10713
  154.8198  135.4597  154.0746 H   0  0  0  0  0  0  0  0  0  0  0  0  # atno 10763 bound_to 10752
  153.2109  135.6881  153.8121 H   0  0  0  0  0  0  0  0  0  0  0  0  # atno 10764 bound_to 10752
  153.7573  135.3289  155.3308 H   0  0  0  0  0  0  0  0  0  0  0  0  # atno 10765 bound_to 10752
  140.9506  133.7223  156.1214 H   0  0  0  0  0  0  0  0  0  0  0  0  # atno 11005 bound_to 11000
  146.1529  140.6899  142.9313 LP  0  0  0  0  0  0  0  0  0  0  0  0  # atno 17320 bound_to 7965
  144.7283  140.4594  143.6956 LP  0  0  0  0  0  0  0  0  0  0  0  0  # atno 17321 bound_to 7965
  140.0846  144.5672  150.7097 LP  0  0  0  0  0  0  0  0  0  0  0  0  # atno 17342 bound_to 10162
  140.7147  143.2534  151.4471 LP  0  0  0  0  0  0  0  0  0  0  0  0  # atno 17343 bound_to 10162
  157.6439  131.0906  150.8195 LP  0  0  0  0  0  0  0  0  0  0  0  0  # atno 17370 bound_to 10713
  156.8286  130.5008  149.5334 LP  0  0  0  0  0  0  0  0  0  0  0  0  # atno 17371 bound_to 10713
  140.7608  134.3941  157.5526 LP  0  0  0  0  0  0  0  0  0  0  0  0  # atno 17394 bound_to 11000
  139.8846  134.8960  156.2692 LP  0  0  0  0  0  0  0  0  0  0  0  0  # atno 17395 bound_to 11000

$$$$
