AV-unprocessed.smi:3176|AV-procd|sdf|12126|dock3
  -GOLD-   2272017563D 1   1.00000     0.00000
 Structure written by MMmdl.
 33 34  0  0  0  0  0  0  0  0  2 V2000
  148.6330  139.8935  154.5400 O   0  0  0  0  0  0  0  0  0  0  0  0
  148.4152  141.0969  154.6831 C   0  0  0  0  0  0  0  0  0  0  0  0
  149.2691  141.9245  155.3061 N   0  0  0  0  0  0  0  0  0  0  0  0
  150.5477  141.5312  155.8849 C   0  0  0  0  0  0  0  0  0  0  0  0
  150.4662  141.4363  157.4171 C   0  0  0  0  0  0  0  0  0  0  0  0
  151.0867  142.6392  158.1002 C   0  0  0  0  0  0  0  0  0  0  0  0
  152.0643  142.5070  159.1101 C   0  0  0  0  0  0  0  0  0  0  0  0
  152.5956  143.6675  159.7107 C   0  0  0  0  0  0  0  0  0  0  0  0
  152.1384  144.9335  159.2899 C   0  0  0  0  0  0  0  0  0  0  0  0
  151.1583  145.0072  158.2791 C   0  0  0  0  0  0  0  0  0  0  0  0
  150.6727  143.8725  157.7289 N   0  3  0  0  0  0  0  0  0  0  0  0
  147.1099  141.7079  154.1562 C   0  0  2  0  0  0  0  0  0  0  0  0
  147.3148  142.8673  153.1814 C   0  0  0  0  0  0  0  0  0  0  0  0
  145.9882  143.5873  153.2884 C   0  0  0  0  0  0  0  0  0  0  0  0
  145.6263  143.4105  154.7626 C   0  0  0  0  0  0  0  0  0  0  0  0
  146.3546  142.2752  155.2248 O   0  0  0  0  0  0  0  0  0  0  0  0
  149.0117  142.8989  155.3761 H   0  0  0  0  0  0  0  0  0  0  0  0
  150.8766  140.5829  155.4560 H   0  0  0  0  0  0  0  0  0  0  0  0
  151.2910  142.2758  155.5985 H   0  0  0  0  0  0  0  0  0  0  0  0
  149.4254  141.3461  157.7306 H   0  0  0  0  0  0  0  0  0  0  0  0
  150.9712  140.5351  157.7679 H   0  0  0  0  0  0  0  0  0  0  0  0
  152.4027  141.5298  159.4233 H   0  0  0  0  0  0  0  0  0  0  0  0
  153.3442  143.5868  160.4855 H   0  0  0  0  0  0  0  0  0  0  0  0
  152.5332  145.8344  159.7369 H   0  0  0  0  0  0  0  0  0  0  0  0
  150.7510  145.9320  157.8971 H   0  0  0  0  0  0  0  0  0  0  0  0
  146.5099  140.9277  153.6852 H   0  0  0  0  0  0  0  0  0  0  0  0
  148.1258  143.5197  153.5101 H   0  0  0  0  0  0  0  0  0  0  0  0
  147.5299  142.5354  152.1652 H   0  0  0  0  0  0  0  0  0  0  0  0
  146.0421  144.6333  152.9854 H   0  0  0  0  0  0  0  0  0  0  0  0
  145.2467  143.0899  152.6613 H   0  0  0  0  0  0  0  0  0  0  0  0
  145.9364  144.2796  155.3437 H   0  0  0  0  0  0  0  0  0  0  0  0
  144.5539  143.2746  154.9044 H   0  0  0  0  0  0  0  0  0  0  0  0
  149.9632  143.9496  156.9995 H   0  0  0  0  0  0  0  0  0  0  0  0
  1  2  2  0  0  0  0
  2  3  1  0  0  0  0
  2 12  1  0  0  0  0
  3  4  1  0  0  0  0
  3 17  1  0  0  0  0
  4  5  1  0  0  0  0
  4 18  1  0  0  0  0
  4 19  1  0  0  0  0
  5  6  1  0  0  0  0
  5 20  1  0  0  0  0
  5 21  1  0  0  0  0
  6 11  1  0  0  0  0
  6  7  2  0  0  0  0
  7  8  1  0  0  0  0
  7 22  1  0  0  0  0
  8  9  2  0  0  0  0
  8 23  1  0  0  0  0
  9 10  1  0  0  0  0
  9 24  1  0  0  0  0
 10 11  2  0  0  0  0
 10 25  1  0  0  0  0
 11 33  1  0  0  0  0
 12 16  1  0  0  0  0
 12 13  1  0  0  0  0
 12 26  1  0  0  0  0
 13 14  1  0  0  0  0
 13 27  1  0  0  0  0
 13 28  1  0  0  0  0
 14 15  1  0  0  0  0
 14 29  1  0  0  0  0
 14 30  1  0  0  0  0
 15 16  1  0  0  0  0
 15 31  1  0  0  0  0
 15 32  1  0  0  0  0
M  CHG  1  11   1
M  END
> <s_m_source_file>
AV-unprocessed.smi

> <i_m_source_file_index>
3176

> <i_lp_mmshare_version>
43012

> <i_f3d_flags>
0

> <s_epik_input>
TzFbQ0gyXVtDSDJdW0NIMl1bQ0BIXTFDKD1PKVtOSF1bQ0gyXVtDSDJdYzJbY0hdW2NIXVtjSF1bY0hdbjI=

> <s_epik_cmdline>
J2VwaWtfcHl0aG9uJywgJy1waCcsICc3LjAnLCAnLXRuJywgJzgnLCAnLW1hJywgJzIwMCcsICctbWV0YWxfYmluZGluZycsICctaW1hZScsICc8aW5maWxlLm1hZT4nLCAnLW9tYWUnLCAnPG91dGZpbGUubWFlPic=

> <r_epik_Ionization_Penalty>
1.81664

> <r_epik_Ionization_Penalty_Charging>
1.81664

> <r_epik_Ionization_Penalty_Neutral>
5.71603e-08

> <r_epik_State_Penalty>
1.93152

> <r_epik_Charging_Adjusted_Penalty>
3.74817

> <i_epik_Tot_Q>
1

> <i_epik_Tot_abs_Q>
1

> <r_epik_Metal_State_Penalty>
1.95876

> <b_epik_Metal_Only>
0

> <s_lp_Force_Field>
OPLS_2005

> <r_lp_Energy>
22.4632

> <b_lp_Chiralities_Consistent>
1

> <s_lp_Variant>
AV-unprocessed.smi:3176-3

> <Gold.Version>
5.8.1

> <Gold.Id.Protein>
6NUR|6NUR_protein|mol2

> <Gold.PLP.Fitness>
44.9657

> <Gold.PLP.PLP>
-36.9406

> <Gold.PLP.part.hbond>
-2.0000

> <Gold.PLP.part.metal>
0.0000

> <Gold.PLP.part.buried>
-6.3753

> <Gold.PLP.part.nonpolar>
-28.9741

> <Gold.PLP.part.repulsive>
0.3525

> <Gold.PLP.ligand.clash>
0.0000

> <Gold.PLP.ligand.torsion>
0.4774

> <Gold.PLP.Chemscore.Hbond>
2.9840

> <Gold.PLP.Chemscore.CHOScore>
0.0000

> <Gold.PLP.Chemscore.Metal>
0.0000

> <Gold.Chemscore.Hbonds>
donor molecule, donor type, donor heavy atom, donor atom, acceptor molecule, acceptor atom, score
      L1  H     3    17       P1  8028  1.00
      L1  H    11    33       P1  8028  2.00

> <Gold.PLP.Chemscore.Internal.Correction>
0.0280

> <Gold.Rescore>
     Score         DG    S(hbond)    S(metal)    S(lipo)     H(rot)  DE(clash)    DE(int)     intcor
     18.05     -18.77       1.95        0.00      93.07       1.61       0.02       0.70       ----

> <Gold.Chemscore.Fitness>
18.0480

> <Gold.Chemscore.DG>
-18.7698

> <Gold.Chemscore.ZeroCoef>
-5.4800

> <Gold.Chemscore.Hbond>
1.9491

> <Gold.Chemscore.Metal>
0.0000

> <Gold.Chemscore.Lipo>
93.0730

> <Gold.Chemscore.Internal_Hbond>
0.0000

> <Gold.Chemscore.DEClash>
0.0231

> <Gold.Chemscore.DEInternal>
0.6986

> <Gold.Chemscore.Rot>
1.6054

> <Gold.Chemscore.Internal.Correction>
   9.000000E+99

> <Gold.Chemscore.Hbonds>
donor molecule, donor type, donor heavy atom, donor atom, acceptor molecule, acceptor atom, score
      L1  H     3    17       P1  8028  1.00
      L1  H    11    33       P1  8028  0.94

> <Gold.Chemscore.Hbond.Weighted>
-6.5100

> <Gold.Chemscore.Metal.Weighted>
-0.0000

> <Gold.Chemscore.Lipo.Weighted>
-10.8895

> <Gold.Chemscore.Internal_Hbond.Weighted>
0.0000

> <Gold.Chemscore.DEClash.Weighted>
0.0231

> <Gold.Chemscore.DEInternal.Weighted>
0.6986

> <Gold.Chemscore.Rot.Weighted>
4.1097

> <Gold.Chemscore.Internal.Correction.Weighted>
   9.000000E+99

> <Gold.Protein.RotatedTorsions>
[ 6907 6896 6895 6894 ] final    5.66 input  -60.11 | X-H torsion
[ 7974 7965 7964 7962 ] final  -76.64 input  175.53 | X-H torsion
[ 8008 7997 7996 7995 ] final   21.26 input   59.86 | X-H torsion
[ 10167 10162 10161 10158 ] final  137.77 input  -65.29 | X-H torsion
[ 10718 10713 10712 10709 ] final  134.31 input   66.30 | X-H torsion
[ 10763 10752 10751 10750 ] final   14.26 input  -60.55 | X-H torsion
[ 11005 11000 10999 10996 ] final    5.45 input  -57.11 | X-H torsion

> <Gold.Protein.ActiveResidues>
 VAL166  LYS551  ARG553  GLY616  TRP617  ASP618  TYR619  PRO620  LYS621  CYS622 
 ASP623  PHE694  ASN695  SER759  ASP760  ASP761  ALA762  ILE779  LEU786  VAL792 
 PHE793  MET794  SER795  GLU796  ALA797  LYS798  CYS799  TRP800  GLU811  SER814 

> <Gold.Protein.RotatedAtoms>
  151.6612  135.0989  160.0179 H   0  0  0  0  0  0  0  0  0  0  0  0  # atno 6907 bound_to 6896
  152.3946  133.6723  159.6274 H   0  0  0  0  0  0  0  0  0  0  0  0  # atno 6908 bound_to 6896
  150.7855  133.8813  159.3328 H   0  0  0  0  0  0  0  0  0  0  0  0  # atno 6909 bound_to 6896
  145.6102  140.9388  143.1193 H   0  0  0  0  0  0  0  0  0  0  0  0  # atno 7974 bound_to 7965
  154.9480  140.3062  155.5089 H   0  0  0  0  0  0  0  0  0  0  0  0  # atno 8008 bound_to 7997
  156.2990  140.2324  156.4492 H   0  0  0  0  0  0  0  0  0  0  0  0  # atno 8009 bound_to 7997
  154.8082  140.0430  157.1312 H   0  0  0  0  0  0  0  0  0  0  0  0  # atno 8010 bound_to 7997
  139.5133  144.6391  151.5616 H   0  0  0  0  0  0  0  0  0  0  0  0  # atno 10167 bound_to 10162
  157.4686  131.1078  150.9831 H   0  0  0  0  0  0  0  0  0  0  0  0  # atno 10718 bound_to 10713
  153.1639  135.6800  153.8703 H   0  0  0  0  0  0  0  0  0  0  0  0  # atno 10763 bound_to 10752
  153.8089  135.3145  155.3400 H   0  0  0  0  0  0  0  0  0  0  0  0  # atno 10764 bound_to 10752
  154.7952  135.4811  154.0233 H   0  0  0  0  0  0  0  0  0  0  0  0  # atno 10765 bound_to 10752
  140.5706  134.0106  155.8007 H   0  0  0  0  0  0  0  0  0  0  0  0  # atno 11005 bound_to 11000
  144.7273  139.7836  143.7360 LP  0  0  0  0  0  0  0  0  0  0  0  0  # atno 17320 bound_to 7965
  146.1510  139.4593  143.0049 LP  0  0  0  0  0  0  0  0  0  0  0  0  # atno 17321 bound_to 7965
  140.6151  143.9363  150.6483 LP  0  0  0  0  0  0  0  0  0  0  0  0  # atno 17342 bound_to 10162
  140.2618  143.3518  152.1316 LP  0  0  0  0  0  0  0  0  0  0  0  0  # atno 17343 bound_to 10162
  157.0604  130.5823  149.5385 LP  0  0  0  0  0  0  0  0  0  0  0  0  # atno 17370 bound_to 10713
  156.0062  130.5149  150.7837 LP  0  0  0  0  0  0  0  0  0  0  0  0  # atno 17371 bound_to 10713
  141.1058  133.9695  157.2998 LP  0  0  0  0  0  0  0  0  0  0  0  0  # atno 17394 bound_to 11000
  139.9364  135.0196  156.8568 LP  0  0  0  0  0  0  0  0  0  0  0  0  # atno 17395 bound_to 11000

$$$$
