AV-unprocessed.smi:3285|AV-procd|sdf|12584|dock3
  -GOLD-   2272018503D 1   1.00000     0.00000
 Structure written by MMmdl.
 45 46  0  0  0  0  0  0  0  0  2 V2000
  145.8727  143.4031  153.5983 C   0  0  0  0  0  0  0  0  0  0  0  0
  146.1546  142.5438  154.7973 C   0  0  0  0  0  0  0  0  0  0  0  0
  145.2587  142.4758  155.7668 N   0  0  0  0  0  0  0  0  0  0  0  0
  145.7975  141.6162  156.7283 O   0  0  0  0  0  0  0  0  0  0  0  0
  147.0120  141.1944  156.2955 C   0  0  0  0  0  0  0  0  0  0  0  0
  147.7442  140.2562  157.1951 C   0  0  0  0  0  0  0  0  0  0  0  0
  147.2998  141.7418  155.0742 C   0  0  0  0  0  0  0  0  0  0  0  0
  148.5252  141.5486  154.2165 C   0  0  0  0  0  0  0  0  0  0  0  0
  149.8078  141.4444  155.0557 C   0  0  0  0  0  0  0  0  0  0  0  0
  149.7806  142.3851  156.1963 N   0  3  0  0  0  0  0  0  0  0  0  0
  150.9990  142.4080  157.0341 C   0  0  2  0  0  0  0  0  0  0  0  0
  151.1420  141.0673  157.7705 C   0  0  0  0  0  0  0  0  0  0  0  0
  152.3891  141.0549  158.6643 C   0  0  0  0  0  0  0  0  0  0  0  0
  152.3796  142.2104  159.6849 C   0  0  1  0  0  0  0  0  0  0  0  0
  153.6441  142.1440  160.5596 C   0  0  0  0  0  0  0  0  0  0  0  0
  152.2137  143.5746  158.9639 C   0  0  2  0  0  0  0  0  0  0  0  0
  152.1361  144.7621  159.9400 C   0  0  0  0  0  0  0  0  0  0  0  0
  150.9687  143.5653  158.0515 C   0  0  0  0  0  0  0  0  0  0  0  0
  146.5409  143.1669  152.7706 H   0  0  0  0  0  0  0  0  0  0  0  0
  146.0010  144.4591  153.8366 H   0  0  0  0  0  0  0  0  0  0  0  0
  144.8508  143.2643  153.2442 H   0  0  0  0  0  0  0  0  0  0  0  0
  148.7113  139.9790  156.7759 H   0  0  0  0  0  0  0  0  0  0  0  0
  147.1703  139.3423  157.3481 H   0  0  0  0  0  0  0  0  0  0  0  0
  147.9185  140.7127  158.1695 H   0  0  0  0  0  0  0  0  0  0  0  0
  148.4266  140.6460  153.6127 H   0  0  0  0  0  0  0  0  0  0  0  0
  148.6295  142.3625  153.4983 H   0  0  0  0  0  0  0  0  0  0  0  0
  149.9248  140.4248  155.4256 H   0  0  0  0  0  0  0  0  0  0  0  0
  150.6715  141.6577  154.4260 H   0  0  0  0  0  0  0  0  0  0  0  0
  149.5943  143.3180  155.8573 H   0  0  0  0  0  0  0  0  0  0  0  0
  151.8628  142.5281  156.3782 H   0  0  0  0  0  0  0  0  0  0  0  0
  150.2566  140.8792  158.3798 H   0  0  0  0  0  0  0  0  0  0  0  0
  151.2016  140.2497  157.0509 H   0  0  0  0  0  0  0  0  0  0  0  0
  152.4475  140.0987  159.1857 H   0  0  0  0  0  0  0  0  0  0  0  0
  153.2829  141.1192  158.0417 H   0  0  0  0  0  0  0  0  0  0  0  0
  151.5196  142.0655  160.3409 H   0  0  0  0  0  0  0  0  0  0  0  0
  154.5408  142.3596  159.9779 H   0  0  0  0  0  0  0  0  0  0  0  0
  153.7647  141.1527  160.9977 H   0  0  0  0  0  0  0  0  0  0  0  0
  153.6018  142.8511  161.3874 H   0  0  0  0  0  0  0  0  0  0  0  0
  153.0871  143.7300  158.3286 H   0  0  0  0  0  0  0  0  0  0  0  0
  151.3258  144.6338  160.6585 H   0  0  0  0  0  0  0  0  0  0  0  0
  151.9601  145.6966  159.4065 H   0  0  0  0  0  0  0  0  0  0  0  0
  153.0632  144.8886  160.4984 H   0  0  0  0  0  0  0  0  0  0  0  0
  150.9058  144.5197  157.5286 H   0  0  0  0  0  0  0  0  0  0  0  0
  150.0685  143.4916  158.6640 H   0  0  0  0  0  0  0  0  0  0  0  0
  149.0129  142.1030  156.7893 H   0  0  0  0  0  0  0  0  0  0  0  0
  1  2  1  0  0  0  0
  1 19  1  0  0  0  0
  1 20  1  0  0  0  0
  1 21  1  0  0  0  0
  2  7  1  0  0  0  0
  2  3  2  0  0  0  0
  3  4  1  0  0  0  0
  4  5  1  0  0  0  0
  5  6  1  0  0  0  0
  5  7  2  0  0  0  0
  6 22  1  0  0  0  0
  6 23  1  0  0  0  0
  6 24  1  0  0  0  0
  7  8  1  0  0  0  0
  8  9  1  0  0  0  0
  8 25  1  0  0  0  0
  8 26  1  0  0  0  0
  9 10  1  0  0  0  0
  9 27  1  0  0  0  0
  9 28  1  0  0  0  0
 10 11  1  0  0  0  0
 10 29  1  0  0  0  0
 10 45  1  0  0  0  0
 11 18  1  0  0  0  0
 11 12  1  0  0  0  0
 11 30  1  0  0  0  0
 12 13  1  0  0  0  0
 12 31  1  0  0  0  0
 12 32  1  0  0  0  0
 13 14  1  0  0  0  0
 13 33  1  0  0  0  0
 13 34  1  0  0  0  0
 14 15  1  0  0  0  0
 14 16  1  0  0  0  0
 14 35  1  0  0  0  0
 15 36  1  0  0  0  0
 15 37  1  0  0  0  0
 15 38  1  0  0  0  0
 16 17  1  0  0  0  0
 16 18  1  0  0  0  0
 16 39  1  0  0  0  0
 17 40  1  0  0  0  0
 17 41  1  0  0  0  0
 17 42  1  0  0  0  0
 18 43  1  0  0  0  0
 18 44  1  0  0  0  0
M  CHG  1  10   1
M  END
> <s_m_source_file>
AV-unprocessed.smi

> <i_m_source_file_index>
3285

> <i_lp_mmshare_version>
43012

> <i_f3d_flags>
0

> <s_epik_input>
W0NIM11jMW5vYyhbQ0gzXSljMVtDSDJdW0NIMl1bTkhdW0NAQEhdMltDSDJdW0NIMl1bQ0BASF0oW0NIM10pW0NAQEhdKFtDSDNdKVtDSDJdMg==

> <s_epik_cmdline>
J2VwaWtfcHl0aG9uJywgJy1waCcsICc3LjAnLCAnLXRuJywgJzgnLCAnLW1hJywgJzIwMCcsICctbWV0YWxfYmluZGluZycsICctaW1hZScsICc8aW5maWxlLm1hZT4nLCAnLW9tYWUnLCAnPG91dGZpbGUubWFlPic=

> <r_lp_tautomer_probability>
1

> <r_epik_Ionization_Penalty>
0.000204615

> <r_epik_Ionization_Penalty_Charging>
0.000204615

> <r_epik_Ionization_Penalty_Neutral>
9.28663e-11

> <r_epik_State_Penalty>
-0

> <r_epik_Charging_Adjusted_Penalty>
0.000204615

> <i_epik_Tot_Q>
1

> <i_epik_Tot_abs_Q>
1

> <r_epik_Metal_State_Penalty>
-0

> <b_epik_Metal_Only>
0

> <s_lp_Force_Field>
OPLS_2005

> <r_lp_Energy>
12.3139

> <b_lp_Chiralities_Consistent>
1

> <s_lp_Variant>
AV-unprocessed.smi:3285-5

> <Gold.Version>
5.8.1

> <Gold.Id.Protein>
6NUR|6NUR_protein|mol2

> <Gold.PLP.Fitness>
46.4658

> <Gold.PLP.PLP>
-41.3937

> <Gold.PLP.part.hbond>
-1.0000

> <Gold.PLP.part.metal>
0.0000

> <Gold.PLP.part.buried>
-4.9048

> <Gold.PLP.part.nonpolar>
-35.1995

> <Gold.PLP.part.repulsive>
0.2816

> <Gold.PLP.ligand.clash>
0.0000

> <Gold.PLP.ligand.torsion>
0.4651

> <Gold.PLP.Chemscore.Hbond>
2.0000

> <Gold.PLP.Chemscore.CHOScore>
0.0000

> <Gold.PLP.Chemscore.Metal>
0.0000

> <Gold.Chemscore.Hbonds>
donor molecule, donor type, donor heavy atom, donor atom, acceptor molecule, acceptor atom, score
      L1  H    10    29       P1  8028  2.00

> <Gold.PLP.Chemscore.Internal.Correction>
0.0023

> <Gold.Rescore>
     Score         DG    S(hbond)    S(metal)    S(lipo)     H(rot)  DE(clash)    DE(int)     intcor
     17.73     -18.16       0.95        0.00     110.73       1.35       0.18       0.25       ----

> <Gold.Chemscore.Fitness>
17.7332

> <Gold.Chemscore.DG>
-18.1626

> <Gold.Chemscore.ZeroCoef>
-5.4800

> <Gold.Chemscore.Hbond>
0.9505

> <Gold.Chemscore.Metal>
0.0000

> <Gold.Chemscore.Lipo>
110.7272

> <Gold.Chemscore.Internal_Hbond>
0.0000

> <Gold.Chemscore.DEClash>
0.1828

> <Gold.Chemscore.DEInternal>
0.2466

> <Gold.Chemscore.Rot>
1.3465

> <Gold.Chemscore.Internal.Correction>
   9.000000E+99

> <Gold.Chemscore.Hbonds>
donor molecule, donor type, donor heavy atom, donor atom, acceptor molecule, acceptor atom, score
      L1  H    10    29       P1  8028  0.98

> <Gold.Chemscore.Hbond.Weighted>
-3.1745

> <Gold.Chemscore.Metal.Weighted>
-0.0000

> <Gold.Chemscore.Lipo.Weighted>
-12.9551

> <Gold.Chemscore.Internal_Hbond.Weighted>
0.0000

> <Gold.Chemscore.DEClash.Weighted>
0.1828

> <Gold.Chemscore.DEInternal.Weighted>
0.2466

> <Gold.Chemscore.Rot.Weighted>
3.4470

> <Gold.Chemscore.Internal.Correction.Weighted>
   9.000000E+99

> <Gold.Protein.RotatedTorsions>
[ 6907 6896 6895 6894 ] final   76.58 input  -60.11 | X-H torsion
[ 7974 7965 7964 7962 ] final    1.06 input  175.53 | X-H torsion
[ 8008 7997 7996 7995 ] final   75.47 input   59.86 | X-H torsion
[ 10167 10162 10161 10158 ] final  150.81 input  -65.29 | X-H torsion
[ 10718 10713 10712 10709 ] final  -21.26 input   66.30 | X-H torsion
[ 10763 10752 10751 10750 ] final  161.33 input  -60.55 | X-H torsion
[ 11005 11000 10999 10996 ] final   -4.60 input  -57.11 | X-H torsion

> <Gold.Protein.ActiveResidues>
 VAL166  LYS551  ARG553  GLY616  TRP617  ASP618  TYR619  PRO620  LYS621  CYS622 
 ASP623  PHE694  ASN695  SER759  ASP760  ASP761  ALA762  ILE779  LEU786  VAL792 
 PHE793  MET794  SER795  GLU796  ALA797  LYS798  CYS799  TRP800  GLU811  SER814 

> <Gold.Protein.RotatedAtoms>
  152.5079  134.3947  159.9395 H   0  0  0  0  0  0  0  0  0  0  0  0  # atno 6907 bound_to 6896
  151.3908  133.3783  159.2728 H   0  0  0  0  0  0  0  0  0  0  0  0  # atno 6908 bound_to 6896
  150.9434  134.8862  159.7685 H   0  0  0  0  0  0  0  0  0  0  0  0  # atno 6909 bound_to 6896
  146.2438  140.1045  142.8346 H   0  0  0  0  0  0  0  0  0  0  0  0  # atno 7974 bound_to 7965
  155.8134  140.3472  155.5471 H   0  0  0  0  0  0  0  0  0  0  0  0  # atno 8008 bound_to 7997
  155.8417  140.0942  157.1750 H   0  0  0  0  0  0  0  0  0  0  0  0  # atno 8009 bound_to 7997
  154.4005  140.1393  156.3724 H   0  0  0  0  0  0  0  0  0  0  0  0  # atno 8010 bound_to 7997
  139.4846  144.5492  151.7430 H   0  0  0  0  0  0  0  0  0  0  0  0  # atno 10167 bound_to 10162
  156.5206  130.4631  149.6599 H   0  0  0  0  0  0  0  0  0  0  0  0  # atno 10718 bound_to 10713
  154.2613  135.2768  155.2777 H   0  0  0  0  0  0  0  0  0  0  0  0  # atno 10763 bound_to 10752
  154.5381  135.5710  153.6819 H   0  0  0  0  0  0  0  0  0  0  0  0  # atno 10764 bound_to 10752
  152.9962  135.6244  154.2763 H   0  0  0  0  0  0  0  0  0  0  0  0  # atno 10765 bound_to 10752
  140.6821  133.9145  155.8562 H   0  0  0  0  0  0  0  0  0  0  0  0  # atno 11005 bound_to 11000
  145.0540  140.9039  143.4978 LP  0  0  0  0  0  0  0  0  0  0  0  0  # atno 17320 bound_to 7965
  145.1148  139.2733  143.5619 LP  0  0  0  0  0  0  0  0  0  0  0  0  # atno 17321 bound_to 7965
  140.5043  144.1121  150.5979 LP  0  0  0  0  0  0  0  0  0  0  0  0  # atno 17342 bound_to 10162
  140.4025  143.2697  151.9930 LP  0  0  0  0  0  0  0  0  0  0  0  0  # atno 17343 bound_to 10162
  156.3153  130.7251  151.2152 LP  0  0  0  0  0  0  0  0  0  0  0  0  # atno 17370 bound_to 10713
  157.7437  131.0470  150.4923 LP  0  0  0  0  0  0  0  0  0  0  0  0  # atno 17371 bound_to 10713
  141.0309  134.0757  157.4015 LP  0  0  0  0  0  0  0  0  0  0  0  0  # atno 17394 bound_to 11000
  139.8949  135.0138  156.6973 LP  0  0  0  0  0  0  0  0  0  0  0  0  # atno 17395 bound_to 11000

$$$$
