AV-unprocessed.smi:3226|AV-procd|sdf|12313|dock1
  -GOLD-   2272018163D 1   1.00000     0.00000
 Structure written by MMmdl.
 41 43  0  0  0  0  0  0  0  0  2 V2000
  147.3764  142.0005  153.5326 C   0  0  0  0  0  0  0  0  0  0  0  0
  148.4567  141.7436  154.5892 C   0  0  0  0  0  0  0  0  0  0  0  0
  149.1579  140.4356  154.3884 C   0  0  0  0  0  0  0  0  0  0  0  0
  150.4808  140.2835  154.5223 N   0  0  0  0  0  0  0  0  0  0  0  0
  150.7284  138.9458  154.2892 N   0  0  0  0  0  0  0  0  0  0  0  0
  149.5289  138.4206  154.0474 C   0  0  0  0  0  0  0  0  0  0  0  0
  148.5078  139.2909  154.0887 N   0  0  0  0  0  0  0  0  0  0  0  0
  147.0943  139.0332  153.8698 C   0  0  0  0  0  0  0  0  0  0  0  0
  146.7780  138.7342  152.3954 C   0  0  0  0  0  0  0  0  0  0  0  0
  145.3510  138.4086  152.2003 N   0  3  0  0  0  0  0  0  0  0  0  0
  144.9421  137.1152  152.7816 C   0  0  0  0  0  0  0  0  0  0  0  0
  145.5887  135.9383  152.0280 C   0  0  2  0  0  0  0  0  0  0  0  0
  144.9528  135.6830  150.6258 C   0  0  0  0  0  0  0  0  0  0  0  0
  144.5550  134.1899  150.6840 C   0  0  1  0  0  0  0  0  0  0  0  0
  145.8211  133.3677  150.7996 C   0  0  0  0  0  0  0  0  0  0  0  0
  146.3234  133.5823  152.0170 C   0  0  0  0  0  0  0  0  0  0  0  0
  145.4028  134.5597  152.7182 C   0  0  2  0  0  0  0  0  0  0  0  0
  144.0570  134.1152  152.1297 C   0  0  0  0  0  0  0  0  0  0  0  0
  146.8799  142.9550  153.7080 H   0  0  0  0  0  0  0  0  0  0  0  0
  146.6146  141.2205  153.5514 H   0  0  0  0  0  0  0  0  0  0  0  0
  147.8037  142.0264  152.5298 H   0  0  0  0  0  0  0  0  0  0  0  0
  149.1826  142.5563  154.5883 H   0  0  0  0  0  0  0  0  0  0  0  0
  148.0030  141.7446  155.5809 H   0  0  0  0  0  0  0  0  0  0  0  0
  149.3921  137.3713  153.8302 H   0  0  0  0  0  0  0  0  0  0  0  0
  146.7874  138.1997  154.5033 H   0  0  0  0  0  0  0  0  0  0  0  0
  146.5266  139.9006  154.2073 H   0  0  0  0  0  0  0  0  0  0  0  0
  147.0251  139.6054  151.7874 H   0  0  0  0  0  0  0  0  0  0  0  0
  147.3936  137.9097  152.0338 H   0  0  0  0  0  0  0  0  0  0  0  0
  144.7939  139.1378  152.6223 H   0  0  0  0  0  0  0  0  0  0  0  0
  145.2024  137.0920  153.8401 H   0  0  0  0  0  0  0  0  0  0  0  0
  143.8561  137.0355  152.7197 H   0  0  0  0  0  0  0  0  0  0  0  0
  146.6532  136.1512  151.9105 H   0  0  0  0  0  0  0  0  0  0  0  0
  144.0711  136.3057  150.4676 H   0  0  0  0  0  0  0  0  0  0  0  0
  145.6512  135.8884  149.8134 H   0  0  0  0  0  0  0  0  0  0  0  0
  143.8505  133.8456  149.9263 H   0  0  0  0  0  0  0  0  0  0  0  0
  146.2322  132.7534  150.0121 H   0  0  0  0  0  0  0  0  0  0  0  0
  147.2349  133.1822  152.4363 H   0  0  0  0  0  0  0  0  0  0  0  0
  145.4697  134.5403  153.8063 H   0  0  0  0  0  0  0  0  0  0  0  0
  143.2248  134.7871  152.3455 H   0  0  0  0  0  0  0  0  0  0  0  0
  143.7744  133.1040  152.4302 H   0  0  0  0  0  0  0  0  0  0  0  0
  145.1590  138.3879  151.2089 H   0  0  0  0  0  0  0  0  0  0  0  0
  1  2  1  0  0  0  0
  1 19  1  0  0  0  0
  1 20  1  0  0  0  0
  1 21  1  0  0  0  0
  2  3  1  0  0  0  0
  2 22  1  0  0  0  0
  2 23  1  0  0  0  0
  3  7  1  0  0  0  0
  3  4  2  0  0  0  0
  4  5  1  0  0  0  0
  5  6  2  0  0  0  0
  6  7  1  0  0  0  0
  6 24  1  0  0  0  0
  7  8  1  0  0  0  0
  8  9  1  0  0  0  0
  8 25  1  0  0  0  0
  8 26  1  0  0  0  0
  9 10  1  0  0  0  0
  9 27  1  0  0  0  0
  9 28  1  0  0  0  0
 10 11  1  0  0  0  0
 10 29  1  0  0  0  0
 10 41  1  0  0  0  0
 11 12  1  0  0  0  0
 11 30  1  0  0  0  0
 11 31  1  0  0  0  0
 12 17  1  0  0  0  0
 12 13  1  0  0  0  0
 12 32  1  0  0  0  0
 13 14  1  0  0  0  0
 13 33  1  0  0  0  0
 13 34  1  0  0  0  0
 14 18  1  0  0  0  0
 14 15  1  0  0  0  0
 14 35  1  0  0  0  0
 15 16  2  0  0  0  0
 15 36  1  0  0  0  0
 16 17  1  0  0  0  0
 16 37  1  0  0  0  0
 17 18  1  0  0  0  0
 17 38  1  0  0  0  0
 18 39  1  0  0  0  0
 18 40  1  0  0  0  0
M  CHG  1  10   1
M  END
> <s_m_source_file>
AV-unprocessed.smi

> <i_m_source_file_index>
3226

> <i_lp_mmshare_version>
43012

> <i_f3d_flags>
0

> <s_epik_input>
W0NIM11bQ0gyXWMxbm5bY0hdbjFbQ0gyXVtDSDJdW05IXVtDSDJdW0NASF0oW0NIMl1bQ0BASF0yMylbQ0BASF0oW0NIMl0zKVtDSF09W0NIXTI=

> <s_epik_cmdline>
J2VwaWtfcHl0aG9uJywgJy1waCcsICc3LjAnLCAnLXRuJywgJzgnLCAnLW1hJywgJzIwMCcsICctbWV0YWxfYmluZGluZycsICctaW1hZScsICc8aW5maWxlLm1hZT4nLCAnLW9tYWUnLCAnPG91dGZpbGUubWFlPic=

> <r_lp_tautomer_probability>
1

> <r_epik_Ionization_Penalty>
0.00175008

> <r_epik_Ionization_Penalty_Charging>
0.00173932

> <r_epik_Ionization_Penalty_Neutral>
1.07546e-05

> <r_epik_State_Penalty>
-0

> <r_epik_Charging_Adjusted_Penalty>
0.00173932

> <i_epik_Tot_Q>
1

> <i_epik_Tot_abs_Q>
1

> <r_epik_Metal_State_Penalty>
-0

> <b_epik_Metal_Only>
0

> <s_lp_Force_Field>
OPLS_2005

> <r_lp_Energy>
64.8147

> <b_lp_Chiralities_Consistent>
1

> <s_lp_Variant>
AV-unprocessed.smi:3226-1

> <Gold.Version>
5.8.1

> <Gold.Id.Protein>
6NUR|6NUR_protein|mol2

> <Gold.PLP.Fitness>
48.5823

> <Gold.PLP.PLP>
-34.7752

> <Gold.PLP.part.hbond>
-3.0000

> <Gold.PLP.part.metal>
0.0000

> <Gold.PLP.part.buried>
-3.0132

> <Gold.PLP.part.nonpolar>
-28.5668

> <Gold.PLP.part.repulsive>
0.2825

> <Gold.PLP.ligand.clash>
0.0091

> <Gold.PLP.ligand.torsion>
0.4519

> <Gold.PLP.Chemscore.Hbond>
3.8960

> <Gold.PLP.Chemscore.CHOScore>
1.0000

> <Gold.PLP.Chemscore.Metal>
0.0000

> <Gold.Chemscore.Hbonds>
donor molecule, donor type, donor heavy atom, donor atom, acceptor molecule, acceptor atom, score
      L1  H    10    29       P1 10175  1.98
      L1  H    10    41       P1 10171  0.96
      P1  H  7989  7998       L1     4  0.85
      L1  C     6    24       P1  7948  1.00

> <Gold.PLP.Chemscore.Internal.Correction>
0.0321

> <Gold.Rescore>
     Score         DG    S(hbond)    S(metal)    S(lipo)     H(rot)  DE(clash)    DE(int)     intcor
     14.06     -16.12       2.30        0.00      70.46       2.06       0.73       1.33       ----

> <Gold.Chemscore.Fitness>
14.0630

> <Gold.Chemscore.DG>
-16.1186

> <Gold.Chemscore.ZeroCoef>
-5.4800

> <Gold.Chemscore.Hbond>
2.2978

> <Gold.Chemscore.Metal>
0.0000

> <Gold.Chemscore.Lipo>
70.4578

> <Gold.Chemscore.Internal_Hbond>
0.0000

> <Gold.Chemscore.DEClash>
0.7255

> <Gold.Chemscore.DEInternal>
1.3301

> <Gold.Chemscore.Rot>
2.0623

> <Gold.Chemscore.Internal.Correction>
   9.000000E+99

> <Gold.Chemscore.Hbonds>
donor molecule, donor type, donor heavy atom, donor atom, acceptor molecule, acceptor atom, score
      L1  H    10    29       P1 10175  0.93
      L1  H    10    41       P1 10171  0.92
      P1  H  7989  7998       L1     4  0.14

> <Gold.Chemscore.Hbond.Weighted>
-7.6747

> <Gold.Chemscore.Metal.Weighted>
-0.0000

> <Gold.Chemscore.Lipo.Weighted>
-8.2436

> <Gold.Chemscore.Internal_Hbond.Weighted>
0.0000

> <Gold.Chemscore.DEClash.Weighted>
0.7255

> <Gold.Chemscore.DEInternal.Weighted>
1.3301

> <Gold.Chemscore.Rot.Weighted>
5.2796

> <Gold.Chemscore.Internal.Correction.Weighted>
   9.000000E+99

> <Gold.Protein.RotatedTorsions>
[ 6907 6896 6895 6894 ] final   86.37 input  -60.11 | X-H torsion
[ 7974 7965 7964 7962 ] final  128.67 input  175.53 | X-H torsion
[ 8008 7997 7996 7995 ] final   34.43 input   59.86 | X-H torsion
[ 10167 10162 10161 10158 ] final -116.34 input  -65.29 | X-H torsion
[ 10718 10713 10712 10709 ] final   61.06 input   66.30 | X-H torsion
[ 10763 10752 10751 10750 ] final  -21.09 input  -60.55 | X-H torsion
[ 11005 11000 10999 10996 ] final   55.49 input  -57.11 | X-H torsion

> <Gold.Protein.ActiveResidues>
 VAL166  LYS551  ARG553  GLY616  TRP617  ASP618  TYR619  PRO620  LYS621  CYS622 
 ASP623  PHE694  ASN695  SER759  ASP760  ASP761  ALA762  ILE779  LEU786  VAL792 
 PHE793  MET794  SER795  GLU796  ALA797  LYS798  CYS799  TRP800  GLU811  SER814 

> <Gold.Protein.RotatedAtoms>
  152.5393  134.2441  159.8873 H   0  0  0  0  0  0  0  0  0  0  0  0  # atno 6907 bound_to 6896
  151.2407  133.4394  159.2615 H   0  0  0  0  0  0  0  0  0  0  0  0  # atno 6908 bound_to 6896
  151.0629  134.9762  159.8326 H   0  0  0  0  0  0  0  0  0  0  0  0  # atno 6909 bound_to 6896
  145.0371  139.3996  143.5121 H   0  0  0  0  0  0  0  0  0  0  0  0  # atno 7974 bound_to 7965
  155.1546  140.3278  155.4424 H   0  0  0  0  0  0  0  0  0  0  0  0  # atno 8008 bound_to 7997
  156.2563  140.1971  156.6607 H   0  0  0  0  0  0  0  0  0  0  0  0  # atno 8009 bound_to 7997
  154.6448  140.0565  156.9874 H   0  0  0  0  0  0  0  0  0  0  0  0  # atno 8010 bound_to 7997
  140.0803  143.4794  152.1930 H   0  0  0  0  0  0  0  0  0  0  0  0  # atno 10167 bound_to 10162
  157.5800  130.8974  149.9414 H   0  0  0  0  0  0  0  0  0  0  0  0  # atno 10718 bound_to 10713
  153.6306  135.6989  153.5277 H   0  0  0  0  0  0  0  0  0  0  0  0  # atno 10763 bound_to 10752
  153.2863  135.4170  155.1125 H   0  0  0  0  0  0  0  0  0  0  0  0  # atno 10764 bound_to 10752
  154.8523  135.3614  154.5849 H   0  0  0  0  0  0  0  0  0  0  0  0  # atno 10765 bound_to 10752
  140.0603  134.5612  155.9160 H   0  0  0  0  0  0  0  0  0  0  0  0  # atno 11005 bound_to 11000
  146.3505  139.9951  142.8681 LP  0  0  0  0  0  0  0  0  0  0  0  0  # atno 17320 bound_to 7965
  145.1696  140.9714  143.4329 LP  0  0  0  0  0  0  0  0  0  0  0  0  # atno 17321 bound_to 7965
  139.5784  144.7498  151.3705 LP  0  0  0  0  0  0  0  0  0  0  0  0  # atno 17342 bound_to 10162
  140.7081  143.7461  150.7518 LP  0  0  0  0  0  0  0  0  0  0  0  0  # atno 17343 bound_to 10162
  156.0846  130.3669  150.0514 LP  0  0  0  0  0  0  0  0  0  0  0  0  # atno 17370 bound_to 10713
  156.8654  130.9506  151.3614 LP  0  0  0  0  0  0  0  0  0  0  0  0  # atno 17371 bound_to 10713
  141.1970  133.6594  156.5719 LP  0  0  0  0  0  0  0  0  0  0  0  0  # atno 17394 bound_to 11000
  140.3781  134.7547  157.4643 LP  0  0  0  0  0  0  0  0  0  0  0  0  # atno 17395 bound_to 11000

$$$$
