#       Name:                AV-unprocessed.smi:3188
#       Creating user name   scv26
#       Creation time:       Fri Mar 27 18:02:38 2020


#       File generated by GOLD software.
#

@<TRIPOS>MOLECULE
AV-unprocessed.smi:3188
    42    43     1
SMALL
NO_CHARGES


@<TRIPOS>ATOM
      1 ****        -0.4895   1.2382  -2.1972 C.3            1 S1                 0.0000
      2 ****        -1.4754   1.5549  -1.0846 C.2            1 S1                 0.0000
      3 ****        -2.6904   2.0491  -1.3902 C.2            1 S1                 0.0000
      4 ****        -3.7227   2.4678  -0.3689 C.3            1 S1                 0.0000
      5 ****        -3.0742   2.7336   0.9914 C.3            1 S1                 0.0000
      6 ****        -2.1532   1.5761   1.4111 C.3            1 S1                 0.0000
      7 ****        -1.6042   1.8483   2.8253 C.3            1 S1                 0.0000
      8 ****        -1.0214   1.3128   0.3699 C.3            1 S1                 0.0000
      9 ****        -0.4178  -0.1011   0.5823 C.3            1 S1                 0.0000
     10 ****         0.9411  -0.2373   0.0180 N.4            1 S1                 1.0000
     11 ****         1.5080  -1.5946   0.1316 C.3            1 S1                 0.0000
     12 ****         2.9142  -1.6568  -0.4824 C.3            1 S1                 0.0000
     13 ****         3.4786  -2.9900  -0.4009 N.pl3          1 S1                 0.0000
     14 ****         3.6561  -3.9131  -1.4109 C.2            1 S1                 0.0000
     15 ****         4.2234  -4.9779  -0.7706 C.2            1 S1                 0.0000
     16 ****         4.3667  -4.6627   0.5796 N.2            1 S1                 0.0000
     17 ****         3.9195  -3.4648   0.7887 N.2            1 S1                 0.0000
     18 ****         0.4724   1.7131  -2.0029 H              1 S1                 0.0000
     19 ****        -0.8485   1.6040  -3.1599 H              1 S1                 0.0000
     20 ****        -0.3429   0.1626  -2.2946 H              1 S1                 0.0000
     21 ****        -2.9746   2.1812  -2.4242 H              1 S1                 0.0000
     22 ****        -4.2277   3.3687  -0.7189 H              1 S1                 0.0000
     23 ****        -4.4780   1.6851  -0.2940 H              1 S1                 0.0000
     24 ****        -2.4990   3.6597   0.9453 H              1 S1                 0.0000
     25 ****        -3.8538   2.8926   1.7376 H              1 S1                 0.0000
     26 ****        -2.7769   0.6820   1.4649 H              1 S1                 0.0000
     27 ****        -0.9575   2.7262   2.8355 H              1 S1                 0.0000
     28 ****        -1.0312   1.0109   3.2202 H              1 S1                 0.0000
     29 ****        -2.4164   2.0326   3.5292 H              1 S1                 0.0000
     30 ****        -0.2379   2.0496   0.5550 H              1 S1                 0.0000
     31 ****        -0.3453  -0.3435   1.6413 H              1 S1                 0.0000
     32 ****        -1.0761  -0.8516   0.1419 H              1 S1                 0.0000
     33 ****         0.9046   0.0126  -0.9600 H              1 S1                 0.0000
     34 ****         1.5413  -1.8808   1.1839 H              1 S1                 0.0000
     35 ****         0.8491  -2.3009  -0.3753 H              1 S1                 0.0000
     36 ****         2.8834  -1.3583  -1.5311 H              1 S1                 0.0000
     37 ****         3.5865  -0.9636   0.0253 H              1 S1                 0.0000
     38 ****         3.3792  -3.7427  -2.4410 H              1 S1                 0.0000
     39 ****         4.5373  -5.9338  -1.1641 H              1 S1                 0.0000
     40 ****         1.5528   0.4104   0.4941 H              1 S1                 0.0000
     41 ****         4.7537  -5.2660   1.2769 LP             1 S1                 0.0000
     42 ****         3.9029  -2.9814   1.6640 LP             1 S1                 0.0000
@<TRIPOS>BOND
    1    1    2 1     
    2    1   18 1     
    3    1   19 1     
    4    1   20 1     
    5    2    8 1     
    6    2    3 2     
    7    3    4 1     
    8    3   21 1     
    9    4    5 1     
   10    4   22 1     
   11    4   23 1     
   12    5    6 1     
   13    5   24 1     
   14    5   25 1     
   15    6    7 1     
   16    6    8 1     
   17    6   26 1     
   18    7   27 1     
   19    7   28 1     
   20    7   29 1     
   21    8    9 1     
   22    8   30 1     
   23    9   10 1     
   24    9   31 1     
   25    9   32 1     
   26   10   11 1     
   27   10   33 1     
   28   10   40 1     
   29   11   12 1     
   30   11   34 1     
   31   11   35 1     
   32   12   13 1     
   33   12   36 1     
   34   12   37 1     
   35   13   17 1     
   36   13   14 1     
   37   14   15 2     
   38   14   38 1     
   39   15   16 1     
   40   15   39 1     
   41   16   17 2     
   42   16   41 1     
   43   17   42 1     
@<TRIPOS>SUBSTRUCTURE
      1 S1             1
@<TRIPOS>SET
LONE_PAIRS      STATIC     ATOMS    <user>   **** ""
2 41 42
DONOR_HYDROGENS      STATIC     ATOMS    <user>   **** ""
2 33 40
ATOM$BLUE        STATIC     ATOMS    COLORGROUP SYSTEM
2 41 42
ATOM$RED        STATIC     ATOMS    COLORGROUP SYSTEM
2 33 40
