#       Name:                AV-unprocessed.smi:2378
#       Creating user name   scv26
#       Creation time:       Fri Mar 27 13:08:10 2020


#       File generated by GOLD software.
#

@<TRIPOS>MOLECULE
AV-unprocessed.smi:2378
    45    46     1
SMALL
NO_CHARGES


@<TRIPOS>ATOM
      1 ****        -7.1106   1.0617   1.3315 C.3            1 S1                 0.0000
      2 ****        -5.7276   1.5680   0.9790 C.ar           1 S1                 0.0000
      3 ****        -5.5443   2.8562   0.4412 C.ar           1 S1                 0.0000
      4 ****        -4.2341   3.2669   0.1335 C.ar           1 S1                 0.0000
      5 ****        -3.1501   2.4870   0.3283 N.ar           1 S1                 0.0000
      6 ****        -3.3138   1.2439   0.8455 C.ar           1 S1                 0.0000
      7 ****        -2.2426   0.3444   1.0924 N.am           1 S1                 0.0000
      8 ****        -0.9321   0.5243   0.8495 C.2            1 S1                 0.0000
      9 ****        -0.4315   1.5314   0.3480 O.2            1 S1                 0.0000
     10 ****        -0.2188  -0.5487   1.2209 N.am           1 S1                 0.0000
     11 ****         1.2264  -0.6846   1.0795 C.3            1 S1                 0.0000
     12 ****         1.6144  -1.1183  -0.3443 C.3            1 S1                 0.0000
     13 ****         3.1271  -1.3295  -0.5137 C.3            1 S1                 0.0000
     14 ****         3.4771  -1.8912  -1.9056 C.3            1 S1                 0.0000
     15 ****         4.9957  -2.0187  -2.0685 C.3            1 S1                 0.0000
     16 ****         5.6627  -0.6769  -1.7493 C.3            1 S1                 0.0000
     17 ****         5.2036  -0.1660  -0.3743 C.3            1 S1                 0.0000
     18 ****         3.7826  -0.0745  -0.3398 O.3            1 S1                 0.0000
     19 ****        -4.5956   0.7531   1.1826 C.ar           1 S1                 0.0000
     20 ****        -7.8522   1.8586   1.2669 H              1 S1                 0.0000
     21 ****        -7.1227   0.6677   2.3480 H              1 S1                 0.0000
     22 ****        -7.4054   0.2642   0.6491 H              1 S1                 0.0000
     23 ****        -6.3819   3.5156   0.2670 H              1 S1                 0.0000
     24 ****        -4.0512   4.2475  -0.2806 H              1 S1                 0.0000
     25 ****        -2.5051  -0.5406   1.5003 H              1 S1                 0.0000
     26 ****        -0.7112  -1.3319   1.6246 H              1 S1                 0.0000
     27 ****         1.7189   0.2522   1.3458 H              1 S1                 0.0000
     28 ****         1.5665  -1.4283   1.8002 H              1 S1                 0.0000
     29 ****         1.0951  -2.0470  -0.5845 H              1 S1                 0.0000
     30 ****         1.2683  -0.3777  -1.0666 H              1 S1                 0.0000
     31 ****         3.4727  -2.0251   0.2533 H              1 S1                 0.0000
     32 ****         3.0046  -2.8627  -2.0527 H              1 S1                 0.0000
     33 ****         3.0822  -1.2314  -2.6793 H              1 S1                 0.0000
     34 ****         5.3741  -2.7877  -1.3940 H              1 S1                 0.0000
     35 ****         5.2450  -2.3373  -3.0810 H              1 S1                 0.0000
     36 ****         6.7480  -0.7791  -1.7728 H              1 S1                 0.0000
     37 ****         5.3997   0.0539  -2.5151 H              1 S1                 0.0000
     38 ****         5.5559  -0.8224   0.4229 H              1 S1                 0.0000
     39 ****         5.6240   0.8212  -0.1818 H              1 S1                 0.0000
     40 ****        -4.7125  -0.2394   1.5937 H              1 S1                 0.0000
     41 ****        -2.2373   2.8216   0.0942 LP             1 S1                 0.0000
     42 ****        -1.0133   2.3013   0.0857 LP             1 S1                 0.0000
     43 ****         0.5567   1.5794   0.2030 LP             1 S1                 0.0000
     44 ****         3.5112   0.3044   0.5450 LP             1 S1                 0.0000
     45 ****         3.4872   0.5408  -1.0706 LP             1 S1                 0.0000
@<TRIPOS>BOND
    1    1    2 1     
    2    1   20 1     
    3    1   21 1     
    4    1   22 1     
    5    2   19 ar    
    6    2    3 ar    
    7    3    4 ar    
    8    3   23 1     
    9    4    5 ar    
   10    4   24 1     
   11    5    6 ar    
   12    6    7 1     
   13    6   19 ar    
   14    7    8 am    
   15    7   25 1     
   16    8    9 2     
   17    8   10 am    
   18   10   11 1     
   19   10   26 1     
   20   11   12 1     
   21   11   27 1     
   22   11   28 1     
   23   12   13 1     
   24   12   29 1     
   25   12   30 1     
   26   13   18 1     
   27   13   14 1     
   28   13   31 1     
   29   14   15 1     
   30   14   32 1     
   31   14   33 1     
   32   15   16 1     
   33   15   34 1     
   34   15   35 1     
   35   16   17 1     
   36   16   36 1     
   37   16   37 1     
   38   17   18 1     
   39   17   38 1     
   40   17   39 1     
   41   19   40 1     
   42    5   41 1     
   43    9   42 1     
   44    9   43 1     
   45   18   44 1     
   46   18   45 1     
@<TRIPOS>SUBSTRUCTURE
      1 S1             1
@<TRIPOS>SET
LONE_PAIRS      STATIC     ATOMS    <user>   **** ""
5 41 42 43 44 45
DONOR_HYDROGENS      STATIC     ATOMS    <user>   **** ""
2 25 26
ATOM$BLUE        STATIC     ATOMS    COLORGROUP SYSTEM
5 41 42 43 44 45
ATOM$RED        STATIC     ATOMS    COLORGROUP SYSTEM
2 25 26
