AV-unprocessed.smi:3055|AV-procd|sdf|11643|dock10
  -GOLD-   2272017 33D 1   1.00000     0.00000
 Structure written by MMmdl.
 47 49  0  0  0  0  0  0  0  0  2 V2000
  148.1200  137.3147  155.3726 O   0  0  0  0  0  0  0  0  0  0  0  0
  147.9745  138.0016  154.3612 C   0  0  0  0  0  0  0  0  0  0  0  0
  148.9252  138.8487  153.9361 N   0  0  0  0  0  0  0  0  0  0  0  0
  150.2034  139.0576  154.6011 C   0  0  0  0  0  0  0  0  0  0  0  0
  150.1005  140.1986  155.6217 C   0  0  0  0  0  0  0  0  0  0  0  0
  151.1311  140.0971  156.6348 N   0  0  0  0  0  0  0  0  0  0  0  0
  151.3306  140.9467  157.7148 C   0  0  0  0  0  0  0  0  0  0  0  0
  152.4226  140.4624  158.3991 C   0  0  0  0  0  0  0  0  0  0  0  0
  152.9077  139.3228  157.7617 N   0  0  0  0  0  0  0  0  0  0  0  0
  152.0931  139.1685  156.7257 C   0  0  0  0  0  0  0  0  0  0  0  0
  146.8617  137.9538  153.5850 N   0  0  0  0  0  0  0  0  0  0  0  0
  146.6488  138.6735  152.3167 C   0  0  0  0  0  0  0  0  0  0  0  0
  146.5558  137.6530  151.1698 C   0  0  0  0  0  0  0  0  0  0  0  0
  145.4537  136.6130  151.4478 C   0  0  0  0  0  0  0  0  0  0  0  0
  145.6054  135.9526  152.8432 C   0  0  1  0  0  0  0  0  0  0  0  0
  146.7619  135.0101  152.9009 N   0  3  0  0  0  0  0  0  0  0  0  0
  147.0245  134.4152  154.2282 C   0  0  0  0  0  0  0  0  0  0  0  0
  147.9487  133.2362  153.9483 C   0  0  0  0  0  0  0  0  0  0  0  0
  147.4553  132.7001  152.6068 C   0  0  0  0  0  0  0  0  0  0  0  0
  146.7117  133.8725  151.9505 C   0  0  0  0  0  0  0  0  0  0  0  0
  145.7197  137.0805  153.9009 C   0  0  0  0  0  0  0  0  0  0  0  0
  148.7481  139.3853  153.0993 H   0  0  0  0  0  0  0  0  0  0  0  0
  150.5045  138.1342  155.0981 H   0  0  0  0  0  0  0  0  0  0  0  0
  150.9675  139.2892  153.8571 H   0  0  0  0  0  0  0  0  0  0  0  0
  150.1972  141.1659  155.1269 H   0  0  0  0  0  0  0  0  0  0  0  0
  149.1261  140.1872  156.1123 H   0  0  0  0  0  0  0  0  0  0  0  0
  150.6982  141.8021  157.9012 H   0  0  0  0  0  0  0  0  0  0  0  0
  152.8931  140.8442  159.2933 H   0  0  0  0  0  0  0  0  0  0  0  0
  152.1997  138.3616  156.0156 H   0  0  0  0  0  0  0  0  0  0  0  0
  145.7190  139.2405  152.3837 H   0  0  0  0  0  0  0  0  0  0  0  0
  147.4167  139.4115  152.0856 H   0  0  0  0  0  0  0  0  0  0  0  0
  146.3527  138.1665  150.2296 H   0  0  0  0  0  0  0  0  0  0  0  0
  147.5164  137.1511  151.0462 H   0  0  0  0  0  0  0  0  0  0  0  0
  144.4898  137.1225  151.4131 H   0  0  0  0  0  0  0  0  0  0  0  0
  145.4144  135.8779  150.6447 H   0  0  0  0  0  0  0  0  0  0  0  0
  144.7019  135.3748  153.0447 H   0  0  0  0  0  0  0  0  0  0  0  0
  147.4747  135.1209  154.9243 H   0  0  0  0  0  0  0  0  0  0  0  0
  146.0897  134.0586  154.6640 H   0  0  0  0  0  0  0  0  0  0  0  0
  148.9754  133.5912  153.8483 H   0  0  0  0  0  0  0  0  0  0  0  0
  147.9292  132.4856  154.7390 H   0  0  0  0  0  0  0  0  0  0  0  0
  148.2791  132.3377  151.9908 H   0  0  0  0  0  0  0  0  0  0  0  0
  146.7697  131.8664  152.7630 H   0  0  0  0  0  0  0  0  0  0  0  0
  145.6789  133.5787  151.7562 H   0  0  0  0  0  0  0  0  0  0  0  0
  147.1643  134.1561  150.9998 H   0  0  0  0  0  0  0  0  0  0  0  0
  145.7663  136.6682  154.9093 H   0  0  0  0  0  0  0  0  0  0  0  0
  144.8092  137.6813  153.8927 H   0  0  0  0  0  0  0  0  0  0  0  0
  147.5895  135.5371  152.6616 H   0  0  0  0  0  0  0  0  0  0  0  0
  1  2  2  0  0  0  0
  2  3  1  0  0  0  0
  2 11  1  0  0  0  0
  3  4  1  0  0  0  0
  3 22  1  0  0  0  0
  4  5  1  0  0  0  0
  4 23  1  0  0  0  0
  4 24  1  0  0  0  0
  5  6  1  0  0  0  0
  5 25  1  0  0  0  0
  5 26  1  0  0  0  0
  6 10  1  0  0  0  0
  6  7  1  0  0  0  0
  7  8  2  0  0  0  0
  7 27  1  0  0  0  0
  8  9  1  0  0  0  0
  8 28  1  0  0  0  0
  9 10  2  0  0  0  0
 10 29  1  0  0  0  0
 11 21  1  0  0  0  0
 11 12  1  0  0  0  0
 12 13  1  0  0  0  0
 12 30  1  0  0  0  0
 12 31  1  0  0  0  0
 13 14  1  0  0  0  0
 13 32  1  0  0  0  0
 13 33  1  0  0  0  0
 14 15  1  0  0  0  0
 14 34  1  0  0  0  0
 14 35  1  0  0  0  0
 15 16  1  0  0  0  0
 15 21  1  0  0  0  0
 15 36  1  0  0  0  0
 16 20  1  0  0  0  0
 16 17  1  0  0  0  0
 16 47  1  0  0  0  0
 17 18  1  0  0  0  0
 17 37  1  0  0  0  0
 17 38  1  0  0  0  0
 18 19  1  0  0  0  0
 18 39  1  0  0  0  0
 18 40  1  0  0  0  0
 19 20  1  0  0  0  0
 19 41  1  0  0  0  0
 19 42  1  0  0  0  0
 20 43  1  0  0  0  0
 20 44  1  0  0  0  0
 21 45  1  0  0  0  0
 21 46  1  0  0  0  0
M  CHG  1  16   1
M  END
> <s_m_source_file>
AV-unprocessed.smi

> <i_m_source_file_index>
3055

> <i_lp_mmshare_version>
43012

> <i_f3d_flags>
0

> <s_epik_input>
W2NIXTFuW2NIXVtjSF1uMVtDSDJdW0NIMl1bTkhdQyg9TylOMltDSDJdW0NIMl1bQ0gyXVtDQEhdKFtDSDJdMilOM1tDSDJdW0NIMl1bQ0gyXVtDSDJdMw==

> <s_epik_cmdline>
J2VwaWtfcHl0aG9uJywgJy1waCcsICc3LjAnLCAnLXRuJywgJzgnLCAnLW1hJywgJzIwMCcsICctbWV0YWxfYmluZGluZycsICctaW1hZScsICc8aW5maWxlLm1hZT4nLCAnLW9tYWUnLCAnPG91dGZpbGUubWFlPic=

> <r_lp_tautomer_probability>
1

> <r_epik_Ionization_Penalty>
0.618392

> <r_epik_Ionization_Penalty_Charging>
0.618355

> <r_epik_Ionization_Penalty_Neutral>
3.68592e-05

> <r_epik_State_Penalty>
0.635579

> <r_epik_Charging_Adjusted_Penalty>
1.25393

> <i_epik_Tot_Q>
1

> <i_epik_Tot_abs_Q>
1

> <r_epik_Metal_State_Penalty>
0.306847

> <b_epik_Metal_Only>
0

> <s_lp_Force_Field>
OPLS_2005

> <r_lp_Energy>
66.9505

> <b_lp_Chiralities_Consistent>
1

> <s_lp_Variant>
AV-unprocessed.smi:3055-3

> <Gold.Version>
5.8.1

> <Gold.Id.Protein>
6NUR|6NUR_protein|mol2

> <Gold.PLP.Fitness>
41.4753

> <Gold.PLP.PLP>
-30.8271

> <Gold.PLP.part.hbond>
-3.0000

> <Gold.PLP.part.metal>
0.0000

> <Gold.PLP.part.buried>
4.5710

> <Gold.PLP.part.nonpolar>
-31.9454

> <Gold.PLP.part.repulsive>
0.1270

> <Gold.PLP.ligand.clash>
0.0000

> <Gold.PLP.ligand.torsion>
0.3212

> <Gold.PLP.Chemscore.Hbond>
3.7520

> <Gold.PLP.Chemscore.CHOScore>
0.0000

> <Gold.PLP.Chemscore.Metal>
0.0000

> <Gold.Chemscore.Hbonds>
donor molecule, donor type, donor heavy atom, donor atom, acceptor molecule, acceptor atom, score
      L1  H     3    22       P1  7957  0.48
      L1  H    16    47       P1  7948  2.00
      P1  H  7997  8010       L1     9  1.00

> <Gold.PLP.Chemscore.Internal.Correction>
0.0347

> <Gold.Rescore>
     Score         DG    S(hbond)    S(metal)    S(lipo)     H(rot)  DE(clash)    DE(int)     intcor
     15.85     -18.03       2.64        0.00      71.52       1.81       1.45       0.73       ----

> <Gold.Chemscore.Fitness>
15.8503

> <Gold.Chemscore.DG>
-18.0288

> <Gold.Chemscore.ZeroCoef>
-5.4800

> <Gold.Chemscore.Hbond>
2.6364

> <Gold.Chemscore.Metal>
0.0000

> <Gold.Chemscore.Lipo>
71.5232

> <Gold.Chemscore.Internal_Hbond>
0.0000

> <Gold.Chemscore.DEClash>
1.4532

> <Gold.Chemscore.DEInternal>
0.7253

> <Gold.Chemscore.Rot>
1.8066

> <Gold.Chemscore.Internal.Correction>
   9.000000E+99

> <Gold.Chemscore.Hbonds>
donor molecule, donor type, donor heavy atom, donor atom, acceptor molecule, acceptor atom, score
      L1  H     3    22       P1  7957  0.47
      L1  H    16    47       P1  7948  1.00
      P1  H  7997  8010       L1     9  0.08

> <Gold.Chemscore.Hbond.Weighted>
-8.8056

> <Gold.Chemscore.Metal.Weighted>
-0.0000

> <Gold.Chemscore.Lipo.Weighted>
-8.3682

> <Gold.Chemscore.Internal_Hbond.Weighted>
0.0000

> <Gold.Chemscore.DEClash.Weighted>
1.4532

> <Gold.Chemscore.DEInternal.Weighted>
0.7253

> <Gold.Chemscore.Rot.Weighted>
4.6249

> <Gold.Chemscore.Internal.Correction.Weighted>
   9.000000E+99

> <Gold.Protein.RotatedTorsions>
[ 6907 6896 6895 6894 ] final -126.44 input  -60.11 | X-H torsion
[ 7974 7965 7964 7962 ] final -148.79 input  175.53 | X-H torsion
[ 8008 7997 7996 7995 ] final   47.20 input   59.86 | X-H torsion
[ 10167 10162 10161 10158 ] final -116.37 input  -65.29 | X-H torsion
[ 10718 10713 10712 10709 ] final   26.88 input   66.30 | X-H torsion
[ 10763 10752 10751 10750 ] final   34.26 input  -60.55 | X-H torsion
[ 11005 11000 10999 10996 ] final   62.80 input  -57.11 | X-H torsion

> <Gold.Protein.ActiveResidues>
 VAL166  LYS551  ARG553  GLY616  TRP617  ASP618  TYR619  PRO620  LYS621  CYS622 
 ASP623  PHE694  ASN695  SER759  ASP760  ASP761  ALA762  ILE779  LEU786  VAL792 
 PHE793  MET794  SER795  GLU796  ALA797  LYS798  CYS799  TRP800  GLU811  SER814 

> <Gold.Protein.RotatedAtoms>
  150.8970  133.7168  159.2889 H   0  0  0  0  0  0  0  0  0  0  0  0  # atno 6907 bound_to 6896
  151.4700  135.1043  159.9758 H   0  0  0  0  0  0  0  0  0  0  0  0  # atno 6908 bound_to 6896
  152.4854  133.8312  159.7159 H   0  0  0  0  0  0  0  0  0  0  0  0  # atno 6909 bound_to 6896
  144.8007  140.5150  143.5709 H   0  0  0  0  0  0  0  0  0  0  0  0  # atno 7974 bound_to 7965
  155.3651  140.3421  155.4241 H   0  0  0  0  0  0  0  0  0  0  0  0  # atno 8008 bound_to 7997
  156.1693  140.1626  156.8510 H   0  0  0  0  0  0  0  0  0  0  0  0  # atno 8009 bound_to 7997
  154.5217  140.0765  156.8165 H   0  0  0  0  0  0  0  0  0  0  0  0  # atno 8010 bound_to 7997
  140.0800  143.4797  152.1931 H   0  0  0  0  0  0  0  0  0  0  0  0  # atno 10167 bound_to 10162
  157.2128  130.6942  149.6236 H   0  0  0  0  0  0  0  0  0  0  0  0  # atno 10718 bound_to 10713
  153.0172  135.6365  154.1641 H   0  0  0  0  0  0  0  0  0  0  0  0  # atno 10763 bound_to 10752
  154.1379  135.2836  155.3170 H   0  0  0  0  0  0  0  0  0  0  0  0  # atno 10764 bound_to 10752
  154.6146  135.5545  153.7571 H   0  0  0  0  0  0  0  0  0  0  0  0  # atno 10765 bound_to 10752
  140.0068  134.6358  155.9843 H   0  0  0  0  0  0  0  0  0  0  0  0  # atno 11005 bound_to 11000
  145.5559  139.1478  143.3368 LP  0  0  0  0  0  0  0  0  0  0  0  0  # atno 17320 bound_to 7965
  146.2288  140.5697  142.8984 LP  0  0  0  0  0  0  0  0  0  0  0  0  # atno 17321 bound_to 7965
  139.5785  144.7499  151.3701 LP  0  0  0  0  0  0  0  0  0  0  0  0  # atno 17342 bound_to 10162
  140.7083  143.7458  150.7520 LP  0  0  0  0  0  0  0  0  0  0  0  0  # atno 17343 bound_to 10162
  155.9689  130.4545  150.5854 LP  0  0  0  0  0  0  0  0  0  0  0  0  # atno 17370 bound_to 10713
  157.3655  131.0757  151.1601 LP  0  0  0  0  0  0  0  0  0  0  0  0  # atno 17371 bound_to 10713
  141.1682  133.6537  156.4556 LP  0  0  0  0  0  0  0  0  0  0  0  0  # atno 17394 bound_to 11000
  140.4627  134.6826  157.5093 LP  0  0  0  0  0  0  0  0  0  0  0  0  # atno 17395 bound_to 11000

$$$$
