#       Name:                AV-unprocessed.smi:1978
#       Creating user name   scv26
#       Creation time:       Fri Mar 27 10:19:38 2020


#       File generated by GOLD software.
#

@<TRIPOS>MOLECULE
AV-unprocessed.smi:1978
    50    51     1
SMALL
NO_CHARGES


@<TRIPOS>ATOM
      1 ****        -6.0584   5.4466   0.9899 C.3            1 S1                 0.0000
      2 ****        -5.1240   4.3234   0.6972 C.2            1 S1                 0.0000
      3 ****        -4.0898   4.1798  -0.1841 C.2            1 S1                 0.0000
      4 ****        -3.6341   2.8583   0.0676 C.2            1 S1                 0.0000
      5 ****        -2.5421   2.3186  -0.6621 N.am           1 S1                 0.0000
      6 ****        -1.9691   1.1065  -0.5488 C.2            1 S1                 0.0000
      7 ****        -2.3961   0.2866   0.2728 O.2            1 S1                 0.0000
      8 ****        -0.9252   0.9477  -1.4087 N.pl3          1 S1                -1.0000
      9 ****        -0.1049  -0.2599  -1.5155 C.3            1 S1                 0.0000
     10 ****         0.9947  -0.2890  -0.4195 C.3            1 S1                 0.0000
     11 ****         2.0409   0.8499  -0.5551 C.3            1 S1                 0.0000
     12 ****         1.6047  -1.6553  -0.3602 N.4            1 S1                 1.0000
     13 ****         2.8526  -1.8663  -1.1529 C.3            1 S1                 0.0000
     14 ****         3.1850  -3.3621  -1.2694 C.3            1 S1                 0.0000
     15 ****         3.2920  -4.0133   0.1145 C.3            1 S1                 0.0000
     16 ****         2.0061  -3.7603   0.9150 C.3            1 S1                 0.0000
     17 ****         1.6625  -2.2585   1.0070 C.3            1 S1                 0.0000
     18 ****         2.5957  -1.5014   1.9749 C.3            1 S1                 0.0000
     19 ****        -4.3290   2.2504   1.0179 N.2            1 S1                 0.0000
     20 ****        -5.2873   3.1860   1.4257 O.3            1 S1                 0.0000
     21 ****        -5.8815   6.2858   0.3168 H              1 S1                 0.0000
     22 ****        -5.9286   5.8005   2.0127 H              1 S1                 0.0000
     23 ****        -7.0942   5.1293   0.8693 H              1 S1                 0.0000
     24 ****        -3.7195   4.9047  -0.8934 H              1 S1                 0.0000
     25 ****        -2.1370   2.9303  -1.3549 H              1 S1                 0.0000
     26 ****        -0.7115  -1.1630  -1.4301 H              1 S1                 0.0000
     27 ****         0.3700  -0.3310  -2.4943 H              1 S1                 0.0000
     28 ****         0.4817  -0.1287   0.5300 H              1 S1                 0.0000
     29 ****         1.5825   1.8333  -0.4376 H              1 S1                 0.0000
     30 ****         2.5507   0.8468  -1.5201 H              1 S1                 0.0000
     31 ****         2.8076   0.7780   0.2156 H              1 S1                 0.0000
     32 ****         2.7286  -1.4592  -2.1569 H              1 S1                 0.0000
     33 ****         3.6896  -1.3349  -0.6997 H              1 S1                 0.0000
     34 ****         2.4107  -3.8637  -1.8513 H              1 S1                 0.0000
     35 ****         4.1183  -3.4948  -1.8173 H              1 S1                 0.0000
     36 ****         3.4646  -5.0849   0.0114 H              1 S1                 0.0000
     37 ****         4.1534  -3.6116   0.6491 H              1 S1                 0.0000
     38 ****         1.1806  -4.2855   0.4326 H              1 S1                 0.0000
     39 ****         2.0945  -4.1913   1.9129 H              1 S1                 0.0000
     40 ****         0.6567  -2.2013   1.4260 H              1 S1                 0.0000
     41 ****         2.6116  -1.9853   2.9515 H              1 S1                 0.0000
     42 ****         2.2601  -0.4776   2.1375 H              1 S1                 0.0000
     43 ****         3.6237  -1.4621   1.6159 H              1 S1                 0.0000
     44 ****         0.9153  -2.2230  -0.8324 H              1 S1                 0.0000
     45 ****        -3.1719   0.5228   0.8580 LP             1 S1                 0.0000
     46 ****        -1.9657  -0.6125   0.3519 LP             1 S1                 0.0000
     47 ****        -0.7024   1.7133  -2.0123 LP             1 S1                 0.0000
     48 ****        -4.1974   1.3231   1.3683 LP             1 S1                 0.0000
     49 ****        -6.2042   2.8172   1.2728 LP             1 S1                 0.0000
     50 ****        -5.1675   3.3888   2.3976 LP             1 S1                 0.0000
@<TRIPOS>BOND
    1    1    2 1     
    2    1   21 1     
    3    1   22 1     
    4    1   23 1     
    5    2   20 1     
    6    2    3 2     
    7    3    4 1     
    8    3   24 1     
    9    4    5 1     
   10    4   19 2     
   11    5    6 am    
   12    5   25 1     
   13    6    7 2     
   14    6    8 1     
   15    8    9 1     
   16    9   10 1     
   17    9   26 1     
   18    9   27 1     
   19   10   11 1     
   20   10   12 1     
   21   10   28 1     
   22   11   29 1     
   23   11   30 1     
   24   11   31 1     
   25   12   17 1     
   26   12   13 1     
   27   12   44 1     
   28   13   14 1     
   29   13   32 1     
   30   13   33 1     
   31   14   15 1     
   32   14   34 1     
   33   14   35 1     
   34   15   16 1     
   35   15   36 1     
   36   15   37 1     
   37   16   17 1     
   38   16   38 1     
   39   16   39 1     
   40   17   18 1     
   41   17   40 1     
   42   18   41 1     
   43   18   42 1     
   44   18   43 1     
   45   19   20 1     
   46    7   45 1     
   47    7   46 1     
   48    8   47 1     
   49   19   48 1     
   50   20   49 1     
   51   20   50 1     
@<TRIPOS>SUBSTRUCTURE
      1 S1             1
@<TRIPOS>SET
LONE_PAIRS      STATIC     ATOMS    <user>   **** ""
6 45 46 47 48 49 50
DONOR_HYDROGENS      STATIC     ATOMS    <user>   **** ""
2 25 44
ATOM$BLUE        STATIC     ATOMS    COLORGROUP SYSTEM
6 45 46 47 48 49 50
ATOM$RED        STATIC     ATOMS    COLORGROUP SYSTEM
2 25 44
