AV-unprocessed.smi:1017|AV-procd|sdf|4438|dock6
  -GOLD-   22720 2393D 1   1.00000     0.00000
 Structure written by MMmdl.
 44 45  0  0  0  0  0  0  0  0  1 V2000
  147.6579  136.9339  163.2953 C   0  0  0  0  0  0  0  0  0  0  0  0
  147.6050  137.1496  161.8962 O   0  0  0  0  0  0  0  0  0  0  0  0
  146.9340  136.1061  161.2108 C   0  0  0  0  0  0  0  0  0  0  0  0
  147.5891  134.7670  161.5823 C   0  0  0  0  0  0  0  0  0  0  0  0
  147.3000  133.7290  160.5872 N   0  0  0  0  0  0  0  0  0  0  0  0
  148.3420  133.4827  159.7087 N   0  0  0  0  0  0  0  0  0  0  0  0
  148.2159  132.5926  158.7798 C   0  0  0  0  0  0  0  0  0  0  0  0
  149.3481  132.3333  157.8450 C   0  0  0  0  0  0  0  0  0  0  0  0
  150.4834  132.7305  158.1082 O   0  0  0  0  0  0  0  0  0  0  0  0
  149.0431  131.6450  156.7279 N   0  0  0  0  0  0  0  0  0  0  0  0
  149.9091  131.2099  155.6193 C   0  0  0  0  0  0  0  0  0  0  0  0
  150.9445  130.1645  156.1267 C   0  0  0  0  0  0  0  0  0  0  0  0
  151.6937  129.7219  155.1159 F   0  0  0  0  0  0  0  0  0  0  0  0
  151.7535  130.7164  157.0328 F   0  0  0  0  0  0  0  0  0  0  0  0
  150.3542  129.1067  156.6822 F   0  0  0  0  0  0  0  0  0  0  0  0
  149.0878  130.6444  154.4250 C   0  0  0  0  0  0  0  0  0  0  0  0
  148.1337  131.6815  153.8048 C   0  0  0  0  0  0  0  0  0  0  0  0
  148.8996  132.9302  153.3460 C   0  0  0  0  0  0  0  0  0  0  0  0
  149.7217  133.5294  154.4961 C   0  0  0  0  0  0  0  0  0  0  0  0
  150.6573  132.4777  155.1249 C   0  0  0  0  0  0  0  0  0  0  0  0
  146.9774  131.8359  158.6395 C   0  0  0  0  0  0  0  0  0  0  0  0
  145.9706  132.0897  159.5035 C   0  0  0  0  0  0  0  0  0  0  0  0
  146.0906  133.0925  160.5620 C   0  0  0  0  0  0  0  0  0  0  0  0
  145.1848  133.3435  161.3564 O   0  0  0  0  0  0  0  0  0  0  0  0
  148.1869  137.7590  163.7726 H   0  0  0  0  0  0  0  0  0  0  0  0
  148.1893  136.0114  163.5328 H   0  0  0  0  0  0  0  0  0  0  0  0
  146.6565  136.8823  163.7251 H   0  0  0  0  0  0  0  0  0  0  0  0
  145.8775  136.1029  161.4844 H   0  0  0  0  0  0  0  0  0  0  0  0
  146.9957  136.2673  160.1332 H   0  0  0  0  0  0  0  0  0  0  0  0
  148.6680  134.9066  161.6724 H   0  0  0  0  0  0  0  0  0  0  0  0
  147.2544  134.4483  162.5709 H   0  0  0  0  0  0  0  0  0  0  0  0
  148.0737  131.3802  156.6301 H   0  0  0  0  0  0  0  0  0  0  0  0
  149.7743  130.3040  153.6490 H   0  0  0  0  0  0  0  0  0  0  0  0
  148.5255  129.7576  154.7149 H   0  0  0  0  0  0  0  0  0  0  0  0
  147.6092  131.2393  152.9575 H   0  0  0  0  0  0  0  0  0  0  0  0
  147.3652  131.9629  154.5257 H   0  0  0  0  0  0  0  0  0  0  0  0
  149.5636  132.6673  152.5215 H   0  0  0  0  0  0  0  0  0  0  0  0
  148.2029  133.6738  152.9577 H   0  0  0  0  0  0  0  0  0  0  0  0
  150.3088  134.3710  154.1276 H   0  0  0  0  0  0  0  0  0  0  0  0
  149.0505  133.9360  155.2534 H   0  0  0  0  0  0  0  0  0  0  0  0
  151.2103  132.9332  155.9473 H   0  0  0  0  0  0  0  0  0  0  0  0
  151.4053  132.1992  154.3819 H   0  0  0  0  0  0  0  0  0  0  0  0
  146.8451  131.0861  157.8736 H   0  0  0  0  0  0  0  0  0  0  0  0
  145.0476  131.5362  159.4117 H   0  0  0  0  0  0  0  0  0  0  0  0
  1  2  1  0  0  0  0
  1 25  1  0  0  0  0
  1 26  1  0  0  0  0
  1 27  1  0  0  0  0
  2  3  1  0  0  0  0
  3  4  1  0  0  0  0
  3 28  1  0  0  0  0
  3 29  1  0  0  0  0
  4  5  1  0  0  0  0
  4 30  1  0  0  0  0
  4 31  1  0  0  0  0
  5 23  1  0  0  0  0
  5  6  1  0  0  0  0
  6  7  2  0  0  0  0
  7  8  1  0  0  0  0
  7 21  1  0  0  0  0
  8  9  2  0  0  0  0
  8 10  1  0  0  0  0
 10 11  1  0  0  0  0
 10 32  1  0  0  0  0
 11 20  1  0  0  0  0
 11 12  1  0  0  0  0
 11 16  1  0  0  0  0
 12 13  1  0  0  0  0
 12 14  1  0  0  0  0
 12 15  1  0  0  0  0
 16 17  1  0  0  0  0
 16 33  1  0  0  0  0
 16 34  1  0  0  0  0
 17 18  1  0  0  0  0
 17 35  1  0  0  0  0
 17 36  1  0  0  0  0
 18 19  1  0  0  0  0
 18 37  1  0  0  0  0
 18 38  1  0  0  0  0
 19 20  1  0  0  0  0
 19 39  1  0  0  0  0
 19 40  1  0  0  0  0
 20 41  1  0  0  0  0
 20 42  1  0  0  0  0
 21 22  2  0  0  0  0
 21 43  1  0  0  0  0
 22 23  1  0  0  0  0
 22 44  1  0  0  0  0
 23 24  2  0  0  0  0
M  END
> <s_m_source_file>
AV-unprocessed.smi

> <i_m_source_file_index>
1017

> <i_lp_mmshare_version>
43012

> <i_f3d_flags>
0

> <s_epik_input>
W0NIM11PW0NIMl1bQ0gyXW4xbmMoW2NIXVtjSF1jMT1PKUMoPU8pW05IXUMyKEMoRikoRilGKVtDSDJdW0NIMl1bQ0gyXVtDSDJdW0NIMl0y

> <s_epik_cmdline>
J2VwaWtfcHl0aG9uJywgJy1waCcsICc3LjAnLCAnLXRuJywgJzgnLCAnLW1hJywgJzIwMCcsICctbWV0YWxfYmluZGluZycsICctaW1hZScsICc8aW5maWxlLm1hZT4nLCAnLW9tYWUnLCAnPG91dGZpbGUubWFlPic=

> <r_lp_tautomer_probability>
1

> <r_epik_Ionization_Penalty>
9.29602e-06

> <r_epik_Ionization_Penalty_Charging>
4.97824e-09

> <r_epik_Ionization_Penalty_Neutral>
9.29104e-06

> <r_epik_State_Penalty>
-0

> <r_epik_Charging_Adjusted_Penalty>
4.97824e-09

> <i_epik_Tot_Q>
0

> <i_epik_Tot_abs_Q>
0

> <r_epik_Metal_State_Penalty>
0.00907788

> <b_epik_Metal_Only>
0

> <s_lp_Force_Field>
OPLS_2005

> <r_lp_Energy>
35.4859

> <b_lp_Chiralities_Consistent>
1

> <s_lp_Variant>
AV-unprocessed.smi:1017-1

> <Gold.Version>
5.8.1

> <Gold.Id.Protein>
6NUR|6NUR_protein|mol2

> <Gold.PLP.Fitness>
38.0142

> <Gold.PLP.PLP>
-32.1496

> <Gold.PLP.part.hbond>
-3.0000

> <Gold.PLP.part.metal>
0.0000

> <Gold.PLP.part.buried>
-1.5989

> <Gold.PLP.part.nonpolar>
-26.1168

> <Gold.PLP.part.repulsive>
0.0381

> <Gold.PLP.ligand.clash>
0.0000

> <Gold.PLP.ligand.torsion>
0.6259

> <Gold.PLP.Chemscore.Hbond>
2.3296

> <Gold.PLP.Chemscore.CHOScore>
0.0000

> <Gold.PLP.Chemscore.Metal>
0.0000

> <Gold.Chemscore.Hbonds>
donor molecule, donor type, donor heavy atom, donor atom, acceptor molecule, acceptor atom, score
      P1  H  6896  6909       L1     9  0.89
      P1  H  6931  6943       L1     2  0.64
      P1  H  6934  6947       L1     2  0.50

> <Gold.PLP.Chemscore.Internal.Correction>
0.1275

> <Gold.Rescore>
     Score         DG    S(hbond)    S(metal)    S(lipo)     H(rot)  DE(clash)    DE(int)     intcor
     10.41     -14.66       1.90        0.00      61.28       1.70       0.00       4.25       ----

> <Gold.Chemscore.Fitness>
10.4095

> <Gold.Chemscore.DG>
-14.6630

> <Gold.Chemscore.ZeroCoef>
-5.4800

> <Gold.Chemscore.Hbond>
1.9045

> <Gold.Chemscore.Metal>
0.0000

> <Gold.Chemscore.Lipo>
61.2775

> <Gold.Chemscore.Internal_Hbond>
0.0000

> <Gold.Chemscore.DEClash>
0.0021

> <Gold.Chemscore.DEInternal>
4.2514

> <Gold.Chemscore.Rot>
1.6982

> <Gold.Chemscore.Internal.Correction>
   9.000000E+99

> <Gold.Chemscore.Hbonds>
donor molecule, donor type, donor heavy atom, donor atom, acceptor molecule, acceptor atom, score
      P1  H  6896  6909       L1     9  0.87
      P1  H  6931  6943       L1     2  0.05
      P1  H  6934  6947       L1     2  0.38

> <Gold.Chemscore.Hbond.Weighted>
-6.3609

> <Gold.Chemscore.Metal.Weighted>
-0.0000

> <Gold.Chemscore.Lipo.Weighted>
-7.1695

> <Gold.Chemscore.Internal_Hbond.Weighted>
0.0000

> <Gold.Chemscore.DEClash.Weighted>
0.0021

> <Gold.Chemscore.DEInternal.Weighted>
4.2514

> <Gold.Chemscore.Rot.Weighted>
4.3474

> <Gold.Chemscore.Internal.Correction.Weighted>
   9.000000E+99

> <Gold.Protein.RotatedTorsions>
[ 6907 6896 6895 6894 ] final  -34.87 input  -60.11 | X-H torsion
[ 7974 7965 7964 7962 ] final -173.37 input  175.53 | X-H torsion
[ 8008 7997 7996 7995 ] final   42.03 input   59.86 | X-H torsion
[ 10167 10162 10161 10158 ] final   70.12 input  -65.29 | X-H torsion
[ 10718 10713 10712 10709 ] final -170.54 input   66.30 | X-H torsion
[ 10763 10752 10751 10750 ] final -132.21 input  -60.55 | X-H torsion
[ 11005 11000 10999 10996 ] final  123.11 input  -57.11 | X-H torsion

> <Gold.Protein.ActiveResidues>
 VAL166  LYS551  ARG553  GLY616  TRP617  ASP618  TYR619  PRO620  LYS621  CYS622 
 ASP623  PHE694  ASN695  SER759  ASP760  ASP761  ALA762  ILE779  LEU786  VAL792 
 PHE793  MET794  SER795  GLU796  ALA797  LYS798  CYS799  TRP800  GLU811  SER814 

> <Gold.Protein.RotatedAtoms>
  151.0471  134.9647  159.8191 H   0  0  0  0  0  0  0  0  0  0  0  0  # atno 6907 bound_to 6896
  152.5374  134.2584  159.8936 H   0  0  0  0  0  0  0  0  0  0  0  0  # atno 6908 bound_to 6896
  151.2599  133.4265  159.2649 H   0  0  0  0  0  0  0  0  0  0  0  0  # atno 6909 bound_to 6896
  144.7138  140.1632  143.6374 H   0  0  0  0  0  0  0  0  0  0  0  0  # atno 7974 bound_to 7965
  155.2795  140.3371  155.4259 H   0  0  0  0  0  0  0  0  0  0  0  0  # atno 8008 bound_to 7997
  156.2096  140.1764  156.7765 H   0  0  0  0  0  0  0  0  0  0  0  0  # atno 8009 bound_to 7997
  154.5668  140.0677  156.8888 H   0  0  0  0  0  0  0  0  0  0  0  0  # atno 8010 bound_to 7997
  140.0604  144.5238  150.7298 H   0  0  0  0  0  0  0  0  0  0  0  0  # atno 10167 bound_to 10162
  156.7277  130.9294  151.3102 H   0  0  0  0  0  0  0  0  0  0  0  0  # atno 10718 bound_to 10713
  154.8745  135.3805  154.4372 H   0  0  0  0  0  0  0  0  0  0  0  0  # atno 10763 bound_to 10752
  153.5060  135.7030  153.5811 H   0  0  0  0  0  0  0  0  0  0  0  0  # atno 10764 bound_to 10752
  153.4122  135.3922  155.2024 H   0  0  0  0  0  0  0  0  0  0  0  0  # atno 10765 bound_to 10752
  139.9298  134.9641  156.8211 H   0  0  0  0  0  0  0  0  0  0  0  0  # atno 11005 bound_to 11000
  145.9011  139.2431  143.1493 LP  0  0  0  0  0  0  0  0  0  0  0  0  # atno 17320 bound_to 7965
  145.9809  140.8683  143.0115 LP  0  0  0  0  0  0  0  0  0  0  0  0  # atno 17321 bound_to 7965
  140.7174  143.2557  151.4388 LP  0  0  0  0  0  0  0  0  0  0  0  0  # atno 17342 bound_to 10162
  139.5897  144.1525  152.2073 LP  0  0  0  0  0  0  0  0  0  0  0  0  # atno 17343 bound_to 10162
  157.6872  130.9197  150.0417 LP  0  0  0  0  0  0  0  0  0  0  0  0  # atno 17370 bound_to 10713
  156.1550  130.3643  149.9382 LP  0  0  0  0  0  0  0  0  0  0  0  0  # atno 17371 bound_to 10713
  140.6234  133.9973  155.7628 LP  0  0  0  0  0  0  0  0  0  0  0  0  # atno 17394 bound_to 11000
  141.0879  133.9961  157.3283 LP  0  0  0  0  0  0  0  0  0  0  0  0  # atno 17395 bound_to 11000

$$$$
