AV-unprocessed.smi:150|AV-procd|sdf|1243|dock7
  -GOLD-   2262018463D 1   1.00000     0.00000
 Structure written by MMmdl.
 55 57  0  0  0  0  0  0  0  0  1 V2000
  154.4036  141.1178  160.7912 C   0  0  0  0  0  0  0  0  0  0  0  0
  153.3811  141.9907  160.0474 C   0  0  0  0  0  0  0  0  0  0  0  0
  152.4427  142.6821  161.0513 C   0  0  0  0  0  0  0  0  0  0  0  0
  152.6187  141.1507  158.9984 C   0  0  0  0  0  0  0  0  0  0  0  0
  151.4891  141.8742  158.2125 C   0  0  1  0  0  0  0  0  0  0  0  0
  151.7098  143.3966  158.0325 C   0  0  0  0  0  0  0  0  0  0  0  0
  150.4821  144.0920  157.9907 O   0  0  0  0  0  0  0  0  0  0  0  0
  151.2026  141.2074  156.9325 N   0  0  0  0  0  0  0  0  0  0  0  0
  152.1072  140.1478  156.4960 C   0  0  0  0  0  0  0  0  0  0  0  0
  149.9399  141.0969  156.4385 C   0  0  0  0  0  0  0  0  0  0  0  0
  148.8982  141.6906  157.0783 N   0  0  0  0  0  0  0  0  0  0  0  0
  147.6544  141.5724  156.6053 C   0  0  0  0  0  0  0  0  0  0  0  0
  147.2320  140.9117  155.5264 N   0  0  0  0  0  0  0  0  0  0  0  0
  148.2692  140.3059  154.8815 C   0  0  0  0  0  0  0  0  0  0  0  0
  149.6401  140.3474  155.2647 C   0  0  0  0  0  0  0  0  0  0  0  0
  150.4053  139.6245  154.3567 N   0  0  0  0  0  0  0  0  0  0  0  0
  149.5373  139.1784  153.4909 C   0  0  0  0  0  0  0  0  0  0  0  0
  148.2295  139.5317  153.7347 N   0  0  0  0  0  0  0  0  0  0  0  0
  147.0668  139.1726  152.9367 C   0  0  0  0  0  0  0  0  0  0  0  0
  146.2449  137.9921  153.5121 C   0  0  0  0  0  0  0  0  0  0  0  0
  147.1425  136.9299  153.7833 O   0  0  0  0  0  0  0  0  0  0  0  0
  145.5685  138.4060  154.8346 C   0  0  0  0  0  0  0  0  0  0  0  0
  144.6035  137.3269  155.3566 C   0  0  0  0  0  0  0  0  0  0  0  0
  143.6394  137.0138  154.3590 O   0  0  0  0  0  0  0  0  0  0  0  0
  144.2228  136.4588  153.1866 C   0  0  0  0  0  0  0  0  0  0  0  0
  145.1683  137.4803  152.5300 C   0  0  0  0  0  0  0  0  0  0  0  0
  153.9135  140.3153  161.3436 H   0  0  0  0  0  0  0  0  0  0  0  0
  154.9806  141.7077  161.5042 H   0  0  0  0  0  0  0  0  0  0  0  0
  155.1107  140.6614  160.0980 H   0  0  0  0  0  0  0  0  0  0  0  0
  153.9520  142.7614  159.5310 H   0  0  0  0  0  0  0  0  0  0  0  0
  151.8118  141.9581  161.5677 H   0  0  0  0  0  0  0  0  0  0  0  0
  151.7912  143.4065  160.5635 H   0  0  0  0  0  0  0  0  0  0  0  0
  153.0110  143.2248  161.8069 H   0  0  0  0  0  0  0  0  0  0  0  0
  153.3483  140.7444  158.2986 H   0  0  0  0  0  0  0  0  0  0  0  0
  152.1883  140.2868  159.5068 H   0  0  0  0  0  0  0  0  0  0  0  0
  150.5682  141.7467  158.7810 H   0  0  0  0  0  0  0  0  0  0  0  0
  152.3276  143.8079  158.8307 H   0  0  0  0  0  0  0  0  0  0  0  0
  152.2244  143.6050  157.0940 H   0  0  0  0  0  0  0  0  0  0  0  0
  150.1966  144.1424  157.0912 H   0  0  0  0  0  0  0  0  0  0  0  0
  152.6141  140.4407  155.5766 H   0  0  0  0  0  0  0  0  0  0  0  0
  151.5722  139.2147  156.3125 H   0  0  0  0  0  0  0  0  0  0  0  0
  152.8719  139.9467  157.2468 H   0  0  0  0  0  0  0  0  0  0  0  0
  146.8881  142.0785  157.1737 H   0  0  0  0  0  0  0  0  0  0  0  0
  149.8287  138.5700  152.6470 H   0  0  0  0  0  0  0  0  0  0  0  0
  146.4371  140.0572  152.8304 H   0  0  0  0  0  0  0  0  0  0  0  0
  147.4150  138.9282  151.9321 H   0  0  0  0  0  0  0  0  0  0  0  0
  147.6141  136.7243  152.9907 H   0  0  0  0  0  0  0  0  0  0  0  0
  146.3184  138.6355  155.5929 H   0  0  0  0  0  0  0  0  0  0  0  0
  145.0028  139.3253  154.6776 H   0  0  0  0  0  0  0  0  0  0  0  0
  145.1424  136.4263  155.6548 H   0  0  0  0  0  0  0  0  0  0  0  0
  144.0839  137.6901  156.2435 H   0  0  0  0  0  0  0  0  0  0  0  0
  144.7499  135.5354  153.4311 H   0  0  0  0  0  0  0  0  0  0  0  0
  143.4261  136.1910  152.4924 H   0  0  0  0  0  0  0  0  0  0  0  0
  144.5749  138.3244  152.1763 H   0  0  0  0  0  0  0  0  0  0  0  0
  145.6267  137.0351  151.6463 H   0  0  0  0  0  0  0  0  0  0  0  0
  1  2  1  0  0  0  0
  1 27  1  0  0  0  0
  1 28  1  0  0  0  0
  1 29  1  0  0  0  0
  2  3  1  0  0  0  0
  2  4  1  0  0  0  0
  2 30  1  0  0  0  0
  3 31  1  0  0  0  0
  3 32  1  0  0  0  0
  3 33  1  0  0  0  0
  4  5  1  0  0  0  0
  4 34  1  0  0  0  0
  4 35  1  0  0  0  0
  5  6  1  0  0  0  0
  5  8  1  0  0  0  0
  5 36  1  0  0  0  0
  6  7  1  0  0  0  0
  6 37  1  0  0  0  0
  6 38  1  0  0  0  0
  7 39  1  0  0  0  0
  8  9  1  0  0  0  0
  8 10  1  0  0  0  0
  9 40  1  0  0  0  0
  9 41  1  0  0  0  0
  9 42  1  0  0  0  0
 10 15  1  0  0  0  0
 10 11  2  0  0  0  0
 11 12  1  0  0  0  0
 12 13  2  0  0  0  0
 12 43  1  0  0  0  0
 13 14  1  0  0  0  0
 14 18  1  0  0  0  0
 14 15  2  0  0  0  0
 15 16  1  0  0  0  0
 16 17  2  0  0  0  0
 17 18  1  0  0  0  0
 17 44  1  0  0  0  0
 18 19  1  0  0  0  0
 19 20  1  0  0  0  0
 19 45  1  0  0  0  0
 19 46  1  0  0  0  0
 20 26  1  0  0  0  0
 20 21  1  0  0  0  0
 20 22  1  0  0  0  0
 21 47  1  0  0  0  0
 22 23  1  0  0  0  0
 22 48  1  0  0  0  0
 22 49  1  0  0  0  0
 23 24  1  0  0  0  0
 23 50  1  0  0  0  0
 23 51  1  0  0  0  0
 24 25  1  0  0  0  0
 25 26  1  0  0  0  0
 25 52  1  0  0  0  0
 25 53  1  0  0  0  0
 26 54  1  0  0  0  0
 26 55  1  0  0  0  0
M  END
> <s_m_source_file>
AV-unprocessed.smi

> <i_m_source_file_index>
150

> <i_lp_mmshare_version>
43012

> <i_f3d_flags>
0

> <s_epik_input>
W0NIM11bQ0hdKFtDSDNdKVtDSDJdW0NASF0oW0NIMl1bT0hdKU4oW0NIM10pYyhuW2NIXW4xKWMoYzEyKW5bY0hdbjJbQ0gyXUMzKFtPSF0pW0NIMl1bQ0gyXU9bQ0gyXVtDSDJdMw==

> <s_epik_cmdline>
J2VwaWtfcHl0aG9uJywgJy1waCcsICc3LjAnLCAnLXRuJywgJzgnLCAnLW1hJywgJzIwMCcsICctbWV0YWxfYmluZGluZycsICctaW1hZScsICc8aW5maWxlLm1hZT4nLCAnLW9tYWUnLCAnPG91dGZpbGUubWFlPic=

> <r_lp_tautomer_probability>
1

> <r_epik_Ionization_Penalty>
0.00548416

> <r_epik_Ionization_Penalty_Charging>
0

> <r_epik_Ionization_Penalty_Neutral>
0.00548416

> <r_epik_State_Penalty>
0.0038135

> <r_epik_Charging_Adjusted_Penalty>
0.0038135

> <i_epik_Tot_Q>
0

> <i_epik_Tot_abs_Q>
0

> <r_epik_Metal_State_Penalty>
-0

> <b_epik_Metal_Only>
0

> <s_lp_Force_Field>
OPLS_2005

> <r_lp_Energy>
26.5114

> <b_lp_Chiralities_Consistent>
1

> <s_lp_Variant>
AV-unprocessed.smi:150-2

> <Gold.Version>
5.8.1

> <Gold.Id.Protein>
6NUR|6NUR_protein|mol2

> <Gold.PLP.Fitness>
47.7935

> <Gold.PLP.PLP>
-36.8501

> <Gold.PLP.part.hbond>
-3.2435

> <Gold.PLP.part.metal>
0.0000

> <Gold.PLP.part.buried>
1.0383

> <Gold.PLP.part.nonpolar>
-34.9673

> <Gold.PLP.part.repulsive>
0.3729

> <Gold.PLP.ligand.clash>
0.2182

> <Gold.PLP.ligand.torsion>
1.4847

> <Gold.PLP.Chemscore.Hbond>
3.0000

> <Gold.PLP.Chemscore.CHOScore>
1.3528

> <Gold.PLP.Chemscore.Metal>
0.0000

> <Gold.Chemscore.Hbonds>
donor molecule, donor type, donor heavy atom, donor atom, acceptor molecule, acceptor atom, score
      L1  H     7    39       P1  8028  1.00
      L1  H    21    47       P1  7948  1.00
      P1  H  7989  7998       L1    16  1.00
      L1  C    17    44       P1  7948  0.92
      L1  C    17    44       P1  7957  0.38

> <Gold.PLP.Chemscore.Internal.Correction>
1.0728

> <Gold.Rescore>
     Score         DG    S(hbond)    S(metal)    S(lipo)     H(rot)  DE(clash)    DE(int)     intcor
     11.19     -16.35       2.55        0.00      94.51       3.40       2.12       3.04       ----

> <Gold.Chemscore.Fitness>
11.1862

> <Gold.Chemscore.DG>
-16.3453

> <Gold.Chemscore.ZeroCoef>
-5.4800

> <Gold.Chemscore.Hbond>
2.5481

> <Gold.Chemscore.Metal>
0.0000

> <Gold.Chemscore.Lipo>
94.5089

> <Gold.Chemscore.Internal_Hbond>
0.0000

> <Gold.Chemscore.DEClash>
2.1210

> <Gold.Chemscore.DEInternal>
3.0381

> <Gold.Chemscore.Rot>
3.3995

> <Gold.Chemscore.Internal.Correction>
   9.000000E+99

> <Gold.Chemscore.Hbonds>
donor molecule, donor type, donor heavy atom, donor atom, acceptor molecule, acceptor atom, score
      L1  H     7    39       P1  8028  0.81
      L1  H    21    47       P1  7948  1.00
      P1  H  7989  7998       L1    16  0.45

> <Gold.Chemscore.Hbond.Weighted>
-8.5106

> <Gold.Chemscore.Metal.Weighted>
-0.0000

> <Gold.Chemscore.Lipo.Weighted>
-11.0575

> <Gold.Chemscore.Internal_Hbond.Weighted>
0.0000

> <Gold.Chemscore.DEClash.Weighted>
2.1210

> <Gold.Chemscore.DEInternal.Weighted>
3.0381

> <Gold.Chemscore.Rot.Weighted>
8.7028

> <Gold.Chemscore.Internal.Correction.Weighted>
   9.000000E+99

> <Gold.Protein.RotatedTorsions>
[ 6907 6896 6895 6894 ] final -156.49 input  -60.11 | X-H torsion
[ 7974 7965 7964 7962 ] final  -46.07 input  175.53 | X-H torsion
[ 8008 7997 7996 7995 ] final  -55.18 input   59.86 | X-H torsion
[ 10167 10162 10161 10158 ] final    7.94 input  -65.29 | X-H torsion
[ 10718 10713 10712 10709 ] final   65.88 input   66.30 | X-H torsion
[ 10763 10752 10751 10750 ] final  159.60 input  -60.55 | X-H torsion
[ 11005 11000 10999 10996 ] final   35.44 input  -57.11 | X-H torsion

> <Gold.Protein.ActiveResidues>
 VAL166  LYS551  ARG553  GLY616  TRP617  ASP618  TYR619  PRO620  LYS621  CYS622 
 ASP623  PHE694  ASN695  SER759  ASP760  ASP761  ALA762  ILE779  LEU786  VAL792 
 PHE793  MET794  SER795  GLU796  ALA797  LYS798  CYS799  TRP800  GLU811  SER814 

> <Gold.Protein.RotatedAtoms>
  151.2885  133.4176  159.2631 H   0  0  0  0  0  0  0  0  0  0  0  0  # atno 6907 bound_to 6896
  151.0298  134.9531  159.8115 H   0  0  0  0  0  0  0  0  0  0  0  0  # atno 6908 bound_to 6896
  152.5343  134.2846  159.9073 H   0  0  0  0  0  0  0  0  0  0  0  0  # atno 6909 bound_to 6896
  145.9757  140.7337  142.9388 H   0  0  0  0  0  0  0  0  0  0  0  0  # atno 7974 bound_to 7965
  154.4186  140.1159  156.5435 H   0  0  0  0  0  0  0  0  0  0  0  0  # atno 8008 bound_to 7997
  155.6484  140.3496  155.4720 H   0  0  0  0  0  0  0  0  0  0  0  0  # atno 8009 bound_to 7997
  155.9813  140.1161  157.0713 H   0  0  0  0  0  0  0  0  0  0  0  0  # atno 8010 bound_to 7997
  140.6343  143.7922  150.7338 H   0  0  0  0  0  0  0  0  0  0  0  0  # atno 10167 bound_to 10162
  157.6133  130.9238  150.0034 H   0  0  0  0  0  0  0  0  0  0  0  0  # atno 10718 bound_to 10713
  154.2344  135.2777  155.2878 H   0  0  0  0  0  0  0  0  0  0  0  0  # atno 10763 bound_to 10752
  154.5597  135.5650  153.7000 H   0  0  0  0  0  0  0  0  0  0  0  0  # atno 10764 bound_to 10752
  153.0013  135.6295  154.2486 H   0  0  0  0  0  0  0  0  0  0  0  0  # atno 10765 bound_to 10752
  140.2426  134.3397  155.7920 H   0  0  0  0  0  0  0  0  0  0  0  0  # atno 11005 bound_to 11000
  144.6848  140.2823  143.7290 LP  0  0  0  0  0  0  0  0  0  0  0  0  # atno 17320 bound_to 7965
  145.7843  139.1903  143.2140 LP  0  0  0  0  0  0  0  0  0  0  0  0  # atno 17321 bound_to 7965
  140.1540  143.4333  152.2112 LP  0  0  0  0  0  0  0  0  0  0  0  0  # atno 17342 bound_to 10162
  139.5554  144.7369  151.4308 LP  0  0  0  0  0  0  0  0  0  0  0  0  # atno 17343 bound_to 10162
  156.1245  130.3645  149.9832 LP  0  0  0  0  0  0  0  0  0  0  0  0  # atno 17370 bound_to 10713
  156.7905  130.9254  151.3646 LP  0  0  0  0  0  0  0  0  0  0  0  0  # atno 17371 bound_to 10713
  141.2209  133.7307  156.8910 LP  0  0  0  0  0  0  0  0  0  0  0  0  # atno 17394 bound_to 11000
  140.1638  134.9147  157.2748 LP  0  0  0  0  0  0  0  0  0  0  0  0  # atno 17395 bound_to 11000

$$$$
