AV-unprocessed.smi:769|AV-procd|sdf|3676|dock6
  -GOLD-   22720 1 93D 1   1.00000     0.00000
 Structure written by MMmdl.
 50 52  0  0  0  0  0  0  0  0  2 V2000
  146.1018  139.1966  155.8400 O   0  0  0  0  0  0  0  0  0  0  0  0
  145.3987  139.5243  154.8844 C   0  0  0  0  0  0  0  0  0  0  0  0
  145.3806  140.7634  154.3726 N   0  0  0  0  0  0  0  0  0  0  0  0
  146.1854  141.8783  154.8573 C   0  0  0  0  0  0  0  0  0  0  0  0
  147.6778  141.6765  154.5279 C   0  0  0  0  0  0  0  0  0  0  0  0
  148.3232  140.7245  155.4304 N   0  0  0  0  0  0  0  0  0  0  0  0
  148.5046  141.2976  156.7708 C   0  0  0  0  0  0  0  0  0  0  0  0
  149.2167  140.2862  157.6894 C   0  0  0  0  0  0  0  0  0  0  0  0
  150.5202  139.9577  157.1056 N   0  0  0  0  0  0  0  0  0  0  0  0
  151.7327  140.2631  157.6275 C   0  0  0  0  0  0  0  0  0  0  0  0
  152.7829  139.9587  157.0602 O   0  0  0  0  0  0  0  0  0  0  0  0
  151.7959  141.0603  158.9458 C   0  0  0  0  0  0  0  0  0  0  0  0
  152.4405  142.4597  158.8658 C   0  0  0  0  0  0  0  0  0  0  0  0
  153.1788  142.1421  160.1690 C   0  0  0  0  0  0  0  0  0  0  0  0
  152.9588  140.6568  159.8687 C   0  0  0  0  0  0  0  0  0  0  0  0
  150.3414  139.3397  155.7891 C   0  0  0  0  0  0  0  0  0  0  0  0
  149.6242  140.3457  154.8674 C   0  0  0  0  0  0  0  0  0  0  0  0
  144.5457  138.7153  154.2319 N   0  0  0  0  0  0  0  0  0  0  0  0
  144.2735  137.3384  154.4599 C   0  0  0  0  0  0  0  0  0  0  0  0
  143.3361  136.7108  153.6095 C   0  0  0  0  0  0  0  0  0  0  0  0
  143.0417  135.3434  153.7856 C   0  0  0  0  0  0  0  0  0  0  0  0
  143.6622  134.6419  154.7581 N   0  3  0  0  0  0  0  0  0  0  0  0
  144.5747  135.1933  155.5865 C   0  0  0  0  0  0  0  0  0  0  0  0
  144.9104  136.5567  155.4581 C   0  0  0  0  0  0  0  0  0  0  0  0
  144.7708  140.9506  153.5899 H   0  0  0  0  0  0  0  0  0  0  0  0
  145.7982  142.8044  154.4319 H   0  0  0  0  0  0  0  0  0  0  0  0
  146.0490  141.9491  155.9367 H   0  0  0  0  0  0  0  0  0  0  0  0
  147.7484  141.2949  153.5081 H   0  0  0  0  0  0  0  0  0  0  0  0
  148.2136  142.6271  154.5425 H   0  0  0  0  0  0  0  0  0  0  0  0
  149.0800  142.2229  156.7108 H   0  0  0  0  0  0  0  0  0  0  0  0
  147.5401  141.5470  157.2103 H   0  0  0  0  0  0  0  0  0  0  0  0
  149.2775  140.6860  158.6996 H   0  0  0  0  0  0  0  0  0  0  0  0
  148.6228  139.3750  157.7759 H   0  0  0  0  0  0  0  0  0  0  0  0
  150.8374  141.1110  159.4654 H   0  0  0  0  0  0  0  0  0  0  0  0
  153.1288  142.6073  158.0321 H   0  0  0  0  0  0  0  0  0  0  0  0
  151.7343  143.2861  158.9479 H   0  0  0  0  0  0  0  0  0  0  0  0
  154.2233  142.4540  160.1899 H   0  0  0  0  0  0  0  0  0  0  0  0
  152.6365  142.4786  161.0540 H   0  0  0  0  0  0  0  0  0  0  0  0
  152.6654  140.0676  160.7381 H   0  0  0  0  0  0  0  0  0  0  0  0
  153.8000  140.2010  159.3426 H   0  0  0  0  0  0  0  0  0  0  0  0
  151.2847  139.0377  155.3325 H   0  0  0  0  0  0  0  0  0  0  0  0
  149.7519  138.4271  155.8899 H   0  0  0  0  0  0  0  0  0  0  0  0
  149.4808  139.8969  153.8838 H   0  0  0  0  0  0  0  0  0  0  0  0
  150.2440  141.2331  154.7282 H   0  0  0  0  0  0  0  0  0  0  0  0
  143.9844  139.1540  153.5167 H   0  0  0  0  0  0  0  0  0  0  0  0
  142.8395  137.2710  152.8302 H   0  0  0  0  0  0  0  0  0  0  0  0
  142.3346  134.7935  153.1815 H   0  0  0  0  0  0  0  0  0  0  0  0
  145.0118  134.5303  156.3191 H   0  0  0  0  0  0  0  0  0  0  0  0
  145.6567  136.9688  156.1195 H   0  0  0  0  0  0  0  0  0  0  0  0
  143.4360  133.6530  154.8688 H   0  0  0  0  0  0  0  0  0  0  0  0
  1  2  2  0  0  0  0
  2  3  1  0  0  0  0
  2 18  1  0  0  0  0
  3  4  1  0  0  0  0
  3 25  1  0  0  0  0
  4  5  1  0  0  0  0
  4 26  1  0  0  0  0
  4 27  1  0  0  0  0
  5  6  1  0  0  0  0
  5 28  1  0  0  0  0
  5 29  1  0  0  0  0
  6 17  1  0  0  0  0
  6  7  1  0  0  0  0
  7  8  1  0  0  0  0
  7 30  1  0  0  0  0
  7 31  1  0  0  0  0
  8  9  1  0  0  0  0
  8 32  1  0  0  0  0
  8 33  1  0  0  0  0
  9 10  1  0  0  0  0
  9 16  1  0  0  0  0
 10 11  2  0  0  0  0
 10 12  1  0  0  0  0
 12 15  1  0  0  0  0
 12 13  1  0  0  0  0
 12 34  1  0  0  0  0
 13 14  1  0  0  0  0
 13 35  1  0  0  0  0
 13 36  1  0  0  0  0
 14 15  1  0  0  0  0
 14 37  1  0  0  0  0
 14 38  1  0  0  0  0
 15 39  1  0  0  0  0
 15 40  1  0  0  0  0
 16 17  1  0  0  0  0
 16 41  1  0  0  0  0
 16 42  1  0  0  0  0
 17 43  1  0  0  0  0
 17 44  1  0  0  0  0
 18 19  1  0  0  0  0
 18 45  1  0  0  0  0
 19 24  1  0  0  0  0
 19 20  2  0  0  0  0
 20 21  1  0  0  0  0
 20 46  1  0  0  0  0
 21 22  2  0  0  0  0
 21 47  1  0  0  0  0
 22 23  1  0  0  0  0
 22 50  1  0  0  0  0
 23 24  2  0  0  0  0
 23 48  1  0  0  0  0
 24 49  1  0  0  0  0
M  CHG  1  22   1
M  END
> <s_m_source_file>
AV-unprocessed.smi

> <i_m_source_file_index>
769

> <i_lp_mmshare_version>
43012

> <i_f3d_flags>
0

> <s_epik_input>
W2NIXTFbY0hdbltjSF1bY0hdYzFbTkhdQyg9TylbTkhdW0NIMl1bQ0gyXU4yW0NIMl1bQ0gyXU4oW0NIMl1bQ0gyXTIpQyg9TylbQ0hdM1tDSDJdW0NIMl1bQ0gyXTM=

> <s_epik_cmdline>
J2VwaWtfcHl0aG9uJywgJy1waCcsICc3LjAnLCAnLXRuJywgJzgnLCAnLW1hJywgJzIwMCcsICctbWV0YWxfYmluZGluZycsICctaW1hZScsICc8aW5maWxlLm1hZT4nLCAnLW9tYWUnLCAnPG91dGZpbGUubWFlPic=

> <r_epik_Ionization_Penalty>
1.23972

> <r_epik_Ionization_Penalty_Charging>
0.991409

> <r_epik_Ionization_Penalty_Neutral>
0.248308

> <r_epik_State_Penalty>
1.32283

> <r_epik_Charging_Adjusted_Penalty>
2.31424

> <i_epik_Tot_Q>
1

> <i_epik_Tot_abs_Q>
1

> <r_epik_Metal_State_Penalty>
1.42026

> <b_epik_Metal_Only>
0

> <s_lp_Force_Field>
OPLS_2005

> <r_lp_Energy>
53.8523

> <b_lp_Chiralities_Consistent>
1

> <s_lp_Variant>
AV-unprocessed.smi:769-3

> <Gold.Version>
5.8.1

> <Gold.Id.Protein>
6NUR|6NUR_protein|mol2

> <Gold.PLP.Fitness>
46.0797

> <Gold.PLP.PLP>
-31.7170

> <Gold.PLP.part.hbond>
-3.9858

> <Gold.PLP.part.metal>
0.0000

> <Gold.PLP.part.buried>
-3.7657

> <Gold.PLP.part.nonpolar>
-24.4931

> <Gold.PLP.part.repulsive>
0.1020

> <Gold.PLP.ligand.clash>
0.0000

> <Gold.PLP.ligand.torsion>
0.5496

> <Gold.PLP.Chemscore.Hbond>
5.0000

> <Gold.PLP.Chemscore.CHOScore>
0.0000

> <Gold.PLP.Chemscore.Metal>
0.0000

> <Gold.Chemscore.Hbonds>
donor molecule, donor type, donor heavy atom, donor atom, acceptor molecule, acceptor atom, score
      L1  H     3    25       P1 10175  1.00
      L1  H    18    45       P1 10175  1.00
      L1  H    22    50       P1 10957  1.95
      P1  H  7997  8010       L1    11  1.00

> <Gold.PLP.Chemscore.Internal.Correction>
0.4620

> <Gold.Rescore>
     Score         DG    S(hbond)    S(metal)    S(lipo)     H(rot)  DE(clash)    DE(int)     intcor
     18.94     -22.34       3.79        0.00      73.63       1.72       0.00       3.40       ----

> <Gold.Chemscore.Fitness>
18.9389

> <Gold.Chemscore.DG>
-22.3406

> <Gold.Chemscore.ZeroCoef>
-5.4800

> <Gold.Chemscore.Hbond>
3.7896

> <Gold.Chemscore.Metal>
0.0000

> <Gold.Chemscore.Lipo>
73.6310

> <Gold.Chemscore.Internal_Hbond>
0.0000

> <Gold.Chemscore.DEClash>
0.0000

> <Gold.Chemscore.DEInternal>
3.4016

> <Gold.Chemscore.Rot>
1.7233

> <Gold.Chemscore.Internal.Correction>
   9.000000E+99

> <Gold.Chemscore.Hbonds>
donor molecule, donor type, donor heavy atom, donor atom, acceptor molecule, acceptor atom, score
      L1  H     3    25       P1 10175  0.75
      L1  H    18    45       P1 10175  0.95
      L1  H    22    50       P1 10957  0.92
      P1  H  7997  8010       L1    11  0.98

> <Gold.Chemscore.Hbond.Weighted>
-12.6574

> <Gold.Chemscore.Metal.Weighted>
-0.0000

> <Gold.Chemscore.Lipo.Weighted>
-8.6148

> <Gold.Chemscore.Internal_Hbond.Weighted>
0.0000

> <Gold.Chemscore.DEClash.Weighted>
0.0000

> <Gold.Chemscore.DEInternal.Weighted>
3.4016

> <Gold.Chemscore.Rot.Weighted>
4.4116

> <Gold.Chemscore.Internal.Correction.Weighted>
   9.000000E+99

> <Gold.Protein.RotatedTorsions>
[ 6907 6896 6895 6894 ] final   93.76 input  -60.11 | X-H torsion
[ 7974 7965 7964 7962 ] final  107.58 input  175.53 | X-H torsion
[ 8008 7997 7996 7995 ] final   50.75 input   59.86 | X-H torsion
[ 10167 10162 10161 10158 ] final -107.04 input  -65.29 | X-H torsion
[ 10718 10713 10712 10709 ] final  -45.62 input   66.30 | X-H torsion
[ 10763 10752 10751 10750 ] final   20.61 input  -60.55 | X-H torsion
[ 11005 11000 10999 10996 ] final  161.60 input  -57.11 | X-H torsion

> <Gold.Protein.ActiveResidues>
 VAL166  LYS551  ARG553  GLY616  TRP617  ASP618  TYR619  PRO620  LYS621  CYS622 
 ASP623  PHE694  ASN695  SER759  ASP760  ASP761  ALA762  ILE779  LEU786  VAL792 
 PHE793  MET794  SER795  GLU796  ALA797  LYS798  CYS799  TRP800  GLU811  SER814 

> <Gold.Protein.RotatedAtoms>
  152.5452  134.1298  159.8433 H   0  0  0  0  0  0  0  0  0  0  0  0  # atno 6907 bound_to 6896
  151.1345  133.5007  159.2606 H   0  0  0  0  0  0  0  0  0  0  0  0  # atno 6908 bound_to 6896
  151.1640  135.0297  159.8777 H   0  0  0  0  0  0  0  0  0  0  0  0  # atno 6909 bound_to 6896
  145.2917  139.2598  143.3861 H   0  0  0  0  0  0  0  0  0  0  0  0  # atno 7974 bound_to 7965
  155.4239  140.3447  155.4274 H   0  0  0  0  0  0  0  0  0  0  0  0  # atno 8008 bound_to 7997
  156.1376  140.1532  156.9001 H   0  0  0  0  0  0  0  0  0  0  0  0  # atno 8009 bound_to 7997
  154.4945  140.0832  156.7646 H   0  0  0  0  0  0  0  0  0  0  0  0  # atno 8010 bound_to 7997
  140.1813  143.3964  152.1279 H   0  0  0  0  0  0  0  0  0  0  0  0  # atno 10167 bound_to 10162
  156.2265  130.4169  149.8928 H   0  0  0  0  0  0  0  0  0  0  0  0  # atno 10718 bound_to 10713
  153.1063  135.6685  153.9580 H   0  0  0  0  0  0  0  0  0  0  0  0  # atno 10763 bound_to 10752
  153.9136  135.3022  155.3450 H   0  0  0  0  0  0  0  0  0  0  0  0  # atno 10764 bound_to 10752
  154.7484  135.5046  153.9322 H   0  0  0  0  0  0  0  0  0  0  0  0  # atno 10765 bound_to 10752
  140.2174  134.8222  157.3185 H   0  0  0  0  0  0  0  0  0  0  0  0  # atno 11005 bound_to 11000
  146.3182  140.3410  142.8648 LP  0  0  0  0  0  0  0  0  0  0  0  0  # atno 17320 bound_to 7965
  144.9167  140.7820  143.5774 LP  0  0  0  0  0  0  0  0  0  0  0  0  # atno 17321 bound_to 7965
  139.5295  144.7142  151.5108 LP  0  0  0  0  0  0  0  0  0  0  0  0  # atno 17342 bound_to 10162
  140.6518  143.8682  150.6793 LP  0  0  0  0  0  0  0  0  0  0  0  0  # atno 17343 bound_to 10162
  156.6557  130.8761  151.3539 LP  0  0  0  0  0  0  0  0  0  0  0  0  # atno 17370 bound_to 10713
  157.7113  130.9443  150.1098 LP  0  0  0  0  0  0  0  0  0  0  0  0  # atno 17371 bound_to 10713
  140.1886  134.4400  155.7729 LP  0  0  0  0  0  0  0  0  0  0  0  0  # atno 17394 bound_to 11000
  141.2224  133.7016  156.7989 LP  0  0  0  0  0  0  0  0  0  0  0  0  # atno 17395 bound_to 11000

$$$$
