AV-unprocessed.smi:456|AV-procd|sdf|2617|dock9
  -GOLD-   2262023 13D 1   1.00000     0.00000
 Structure written by MMmdl.
 33 35  0  0  0  0  0  0  0  0  2 V2000
  150.7581  139.3013  154.0079 O   0  0  0  0  0  0  0  0  0  0  0  0
  150.8074  138.9705  155.3799 C   0  0  2  0  0  0  0  0  0  0  0  0
  151.9185  139.8137  156.0364 C   0  0  0  0  0  0  0  0  0  0  0  0
  151.4223  141.0937  156.5576 N   0  0  0  0  0  0  0  0  0  0  0  0
  150.5392  141.9752  156.0145 C   0  0  0  0  0  0  0  0  0  0  0  0
  150.4138  143.0176  156.8823 N   0  3  0  0  0  0  0  0  0  0  0  0
  151.2270  142.7973  157.9966 C   0  0  0  0  0  0  0  0  0  0  0  0
  151.4390  143.5637  159.1381 C   0  0  0  0  0  0  0  0  0  0  0  0
  152.3422  143.0481  160.0910 C   0  0  0  0  0  0  0  0  0  0  0  0
  152.5845  143.7539  161.2209 F   0  0  0  0  0  0  0  0  0  0  0  0
  152.9970  141.8142  159.8895 C   0  0  0  0  0  0  0  0  0  0  0  0
  153.8579  141.3565  160.8290 F   0  0  0  0  0  0  0  0  0  0  0  0
  152.7736  141.0457  158.7280 C   0  0  0  0  0  0  0  0  0  0  0  0
  151.8783  141.5629  157.7934 C   0  0  0  0  0  0  0  0  0  0  0  0
  151.0066  137.4783  155.6064 C   0  0  0  0  0  0  0  0  0  0  0  0
  150.1729  136.5356  154.9652 C   0  0  0  0  0  0  0  0  0  0  0  0
  150.3734  135.1565  155.1687 C   0  0  0  0  0  0  0  0  0  0  0  0
  151.4099  134.7118  156.0116 C   0  0  0  0  0  0  0  0  0  0  0  0
  152.2464  135.6469  156.6506 C   0  0  0  0  0  0  0  0  0  0  0  0
  152.0455  137.0261  156.4483 C   0  0  0  0  0  0  0  0  0  0  0  0
  150.2784  138.6254  153.5534 H   0  0  0  0  0  0  0  0  0  0  0  0
  149.8431  139.2600  155.7994 H   0  0  0  0  0  0  0  0  0  0  0  0
  152.3741  139.2714  156.8664 H   0  0  0  0  0  0  0  0  0  0  0  0
  152.7210  140.0241  155.3279 H   0  0  0  0  0  0  0  0  0  0  0  0
  150.0355  141.8697  155.0640 H   0  0  0  0  0  0  0  0  0  0  0  0
  150.9411  144.5090  159.2960 H   0  0  0  0  0  0  0  0  0  0  0  0
  153.2797  140.1028  158.5829 H   0  0  0  0  0  0  0  0  0  0  0  0
  149.3782  136.8670  154.3127 H   0  0  0  0  0  0  0  0  0  0  0  0
  149.7321  134.4398  154.6770 H   0  0  0  0  0  0  0  0  0  0  0  0
  151.5633  133.6541  156.1676 H   0  0  0  0  0  0  0  0  0  0  0  0
  153.0425  135.3062  157.2961 H   0  0  0  0  0  0  0  0  0  0  0  0
  152.6956  137.7358  156.9388 H   0  0  0  0  0  0  0  0  0  0  0  0
  149.8162  143.8186  156.7223 H   0  0  0  0  0  0  0  0  0  0  0  0
  1  2  1  0  0  0  0
  1 21  1  0  0  0  0
  2  3  1  0  0  0  0
  2 15  1  0  0  0  0
  2 22  1  0  0  0  0
  3  4  1  0  0  0  0
  3 23  1  0  0  0  0
  3 24  1  0  0  0  0
  4 14  1  0  0  0  0
  4  5  1  0  0  0  0
  5  6  2  0  0  0  0
  5 25  1  0  0  0  0
  6  7  1  0  0  0  0
  6 33  1  0  0  0  0
  7 14  2  0  0  0  0
  7  8  1  0  0  0  0
  8  9  2  0  0  0  0
  8 26  1  0  0  0  0
  9 10  1  0  0  0  0
  9 11  1  0  0  0  0
 11 12  1  0  0  0  0
 11 13  2  0  0  0  0
 13 14  1  0  0  0  0
 13 27  1  0  0  0  0
 15 20  1  0  0  0  0
 15 16  2  0  0  0  0
 16 17  1  0  0  0  0
 16 28  1  0  0  0  0
 17 18  2  0  0  0  0
 17 29  1  0  0  0  0
 18 19  1  0  0  0  0
 18 30  1  0  0  0  0
 19 20  2  0  0  0  0
 19 31  1  0  0  0  0
 20 32  1  0  0  0  0
M  CHG  1   6   1
M  END
> <s_m_source_file>
AV-unprocessed.smi

> <i_m_source_file_index>
456

> <i_lp_mmshare_version>
43012

> <i_f3d_flags>
0

> <s_epik_input>
W2NIXTFbY0hdW2NIXVtjSF1bY0hdYzFbQ0BIXShbT0hdKVtDSDJdbihbY0hdbjIpYyhjMjMpW2NIXWMoRiljKEYpW2NIXTM=

> <s_epik_cmdline>
J2VwaWtfcHl0aG9uJywgJy1waCcsICc3LjAnLCAnLXRuJywgJzgnLCAnLW1hJywgJzIwMCcsICctbWV0YWxfYmluZGluZycsICctaW1hZScsICc8aW5maWxlLm1hZT4nLCAnLW9tYWUnLCAnPG91dGZpbGUubWFlPic=

> <r_epik_Ionization_Penalty>
2.16139

> <r_epik_Ionization_Penalty_Charging>
2.16138

> <r_epik_Ionization_Penalty_Neutral>
1.34362e-06

> <r_epik_State_Penalty>
2.30198

> <r_epik_Charging_Adjusted_Penalty>
4.46337

> <i_epik_Tot_Q>
1

> <i_epik_Tot_abs_Q>
1

> <r_epik_Metal_State_Penalty>
6.38245

> <b_epik_Metal_Only>
0

> <s_lp_Force_Field>
OPLS_2005

> <r_lp_Energy>
16.094

> <b_lp_Chiralities_Consistent>
1

> <s_lp_Variant>
AV-unprocessed.smi:456-3

> <Gold.Version>
5.8.1

> <Gold.Id.Protein>
6NUR|6NUR_protein|mol2

> <Gold.PLP.Fitness>
48.0391

> <Gold.PLP.PLP>
-40.6080

> <Gold.PLP.part.hbond>
-2.5756

> <Gold.PLP.part.metal>
0.0000

> <Gold.PLP.part.buried>
-3.2615

> <Gold.PLP.part.nonpolar>
-33.7245

> <Gold.PLP.part.repulsive>
0.0318

> <Gold.PLP.ligand.clash>
0.0000

> <Gold.PLP.ligand.torsion>
0.7911

> <Gold.PLP.Chemscore.Hbond>
3.0000

> <Gold.PLP.Chemscore.CHOScore>
0.0000

> <Gold.PLP.Chemscore.Metal>
0.0000

> <Gold.Chemscore.Hbonds>
donor molecule, donor type, donor heavy atom, donor atom, acceptor molecule, acceptor atom, score
      L1  H     6    33       P1  8028  1.98
      P1  H  7989  7998       L1     1  1.00

> <Gold.PLP.Chemscore.Internal.Correction>
0.0133

> <Gold.Rescore>
     Score         DG    S(hbond)    S(metal)    S(lipo)     H(rot)  DE(clash)    DE(int)     intcor
     17.19     -18.00       1.94        0.00      95.85       2.03       0.08       0.73       ----

> <Gold.Chemscore.Fitness>
17.1874

> <Gold.Chemscore.DG>
-17.9981

> <Gold.Chemscore.ZeroCoef>
-5.4800

> <Gold.Chemscore.Hbond>
1.9430

> <Gold.Chemscore.Metal>
0.0000

> <Gold.Chemscore.Lipo>
95.8456

> <Gold.Chemscore.Internal_Hbond>
0.0000

> <Gold.Chemscore.DEClash>
0.0765

> <Gold.Chemscore.DEInternal>
0.7341

> <Gold.Chemscore.Rot>
2.0256

> <Gold.Chemscore.Internal.Correction>
   9.000000E+99

> <Gold.Chemscore.Hbonds>
donor molecule, donor type, donor heavy atom, donor atom, acceptor molecule, acceptor atom, score
      L1  H     6    33       P1  8028  0.94
      P1  H  7989  7998       L1     1  0.95

> <Gold.Chemscore.Hbond.Weighted>
-6.4896

> <Gold.Chemscore.Metal.Weighted>
-0.0000

> <Gold.Chemscore.Lipo.Weighted>
-11.2139

> <Gold.Chemscore.Internal_Hbond.Weighted>
0.0000

> <Gold.Chemscore.DEClash.Weighted>
0.0765

> <Gold.Chemscore.DEInternal.Weighted>
0.7341

> <Gold.Chemscore.Rot.Weighted>
5.1855

> <Gold.Chemscore.Internal.Correction.Weighted>
   9.000000E+99

> <Gold.Protein.RotatedTorsions>
[ 6907 6896 6895 6894 ] final   50.67 input  -60.11 | X-H torsion
[ 7974 7965 7964 7962 ] final  136.83 input  175.53 | X-H torsion
[ 8008 7997 7996 7995 ] final  140.28 input   59.86 | X-H torsion
[ 10167 10162 10161 10158 ] final  -15.17 input  -65.29 | X-H torsion
[ 10718 10713 10712 10709 ] final   95.67 input   66.30 | X-H torsion
[ 10763 10752 10751 10750 ] final   65.85 input  -60.55 | X-H torsion
[ 11005 11000 10999 10996 ] final   57.34 input  -57.11 | X-H torsion

> <Gold.Protein.ActiveResidues>
 VAL166  LYS551  ARG553  GLY616  TRP617  ASP618  TYR619  PRO620  LYS621  CYS622 
 ASP623  PHE694  ASN695  SER759  ASP760  ASP761  ALA762  ILE779  LEU786  VAL792 
 PHE793  MET794  SER795  GLU796  ALA797  LYS798  CYS799  TRP800  GLU811  SER814 

> <Gold.Protein.RotatedAtoms>
  152.3043  134.7573  160.0350 H   0  0  0  0  0  0  0  0  0  0  0  0  # atno 6907 bound_to 6896
  151.8076  133.3372  159.3553 H   0  0  0  0  0  0  0  0  0  0  0  0  # atno 6908 bound_to 6896
  150.7289  134.5625  159.5893 H   0  0  0  0  0  0  0  0  0  0  0  0  # atno 6909 bound_to 6896
  144.9527  139.4800  143.5518 H   0  0  0  0  0  0  0  0  0  0  0  0  # atno 7974 bound_to 7965
  156.2981  140.2345  156.4376 H   0  0  0  0  0  0  0  0  0  0  0  0  # atno 8008 bound_to 7997
  154.8214  140.0437  157.1434 H   0  0  0  0  0  0  0  0  0  0  0  0  # atno 8009 bound_to 7997
  154.9310  140.3016  155.5171 H   0  0  0  0  0  0  0  0  0  0  0  0  # atno 8010 bound_to 7997
  140.7214  143.5246  150.9593 H   0  0  0  0  0  0  0  0  0  0  0  0  # atno 10167 bound_to 10162
  157.6936  131.0553  150.4374 H   0  0  0  0  0  0  0  0  0  0  0  0  # atno 10718 bound_to 10713
  153.0114  135.5342  154.6732 H   0  0  0  0  0  0  0  0  0  0  0  0  # atno 10763 bound_to 10752
  154.5911  135.2859  155.0636 H   0  0  0  0  0  0  0  0  0  0  0  0  # atno 10764 bound_to 10752
  154.1729  135.6529  153.5066 H   0  0  0  0  0  0  0  0  0  0  0  0  # atno 10765 bound_to 10752
  140.0460  134.5805  155.9322 H   0  0  0  0  0  0  0  0  0  0  0  0  # atno 11005 bound_to 11000
  146.3326  139.8623  142.8854 LP  0  0  0  0  0  0  0  0  0  0  0  0  # atno 17320 bound_to 7965
  145.2820  141.0141  143.3712 LP  0  0  0  0  0  0  0  0  0  0  0  0  # atno 17321 bound_to 7965
  139.8964  143.6889  152.3138 LP  0  0  0  0  0  0  0  0  0  0  0  0  # atno 17342 bound_to 10162
  139.7223  144.7600  151.0934 LP  0  0  0  0  0  0  0  0  0  0  0  0  # atno 17343 bound_to 10162
  156.4735  130.4058  149.6504 LP  0  0  0  0  0  0  0  0  0  0  0  0  # atno 17370 bound_to 10713
  156.3575  130.7464  151.2432 LP  0  0  0  0  0  0  0  0  0  0  0  0  # atno 17371 bound_to 10713
  141.1907  133.6569  156.5423 LP  0  0  0  0  0  0  0  0  0  0  0  0  # atno 17394 bound_to 11000
  140.3993  134.7370  157.4770 LP  0  0  0  0  0  0  0  0  0  0  0  0  # atno 17395 bound_to 11000

$$$$
