AV-unprocessed.smi:1140|AV-procd|sdf|4871|dock3
  -GOLD-   22720 3443D 1   1.00000     0.00000
 Structure written by MMmdl.
 48 50  0  0  0  0  0  0  0  0  1 V2000
  150.1003  141.4138  156.1565 C   0  0  0  0  0  0  0  0  0  0  0  0
  149.5180  140.7155  157.3877 C   0  0  0  0  0  0  0  0  0  0  0  0
  150.5546  140.5453  158.3499 O   0  0  0  0  0  0  0  0  0  0  0  0
  151.3000  141.6472  158.7247 C   0  0  0  0  0  0  0  0  0  0  0  0
  150.8621  142.8780  158.3577 N   0  0  0  0  0  0  0  0  0  0  0  0
  151.5861  143.9546  158.7262 C   0  0  0  0  0  0  0  0  0  0  0  0
  152.7711  143.8649  159.4789 C   0  0  0  0  0  0  0  0  0  0  0  0
  153.2272  142.5901  159.8611 C   0  0  0  0  0  0  0  0  0  0  0  0
  152.4860  141.4488  159.4694 C   0  0  0  0  0  0  0  0  0  0  0  0
  152.8460  140.1193  159.8233 N   0  0  0  0  0  0  0  0  0  0  0  0
  153.9255  139.6991  160.5043 C   0  0  0  0  0  0  0  0  0  0  0  0
  154.8479  140.4181  160.8885 O   0  0  0  0  0  0  0  0  0  0  0  0
  153.8880  138.3739  160.7031 N   0  0  0  0  0  0  0  0  0  0  0  0
  154.9080  137.5974  161.4019 C   0  0  0  0  0  0  0  0  0  0  0  0
  155.1010  136.2402  160.6926 C   0  0  0  0  0  0  0  0  0  0  0  0
  156.0303  135.3147  161.4987 C   0  0  0  0  0  0  0  0  0  0  0  0
  155.4817  135.1484  162.8503 N   0  0  0  0  0  0  0  0  0  0  0  0
  154.8969  133.9951  163.2609 C   0  0  0  0  0  0  0  0  0  0  0  0
  154.8066  133.0072  162.5303 O   0  0  0  0  0  0  0  0  0  0  0  0
  154.3777  133.9563  164.6649 C   0  0  0  0  0  0  0  0  0  0  0  0
  155.1321  133.1249  165.6869 C   0  0  0  0  0  0  0  0  0  0  0  0
  153.8115  132.6384  165.1506 C   0  0  0  0  0  0  0  0  0  0  0  0
  155.4882  136.4203  163.5873 C   0  0  0  0  0  0  0  0  0  0  0  0
  154.5311  137.4033  162.8895 C   0  0  0  0  0  0  0  0  0  0  0  0
  149.3335  141.5683  155.3972 H   0  0  0  0  0  0  0  0  0  0  0  0
  150.8985  140.8206  155.7098 H   0  0  0  0  0  0  0  0  0  0  0  0
  150.5125  142.3885  156.4182 H   0  0  0  0  0  0  0  0  0  0  0  0
  148.7093  141.3204  157.8012 H   0  0  0  0  0  0  0  0  0  0  0  0
  149.1035  139.7482  157.0992 H   0  0  0  0  0  0  0  0  0  0  0  0
  151.2064  144.9175  158.4181 H   0  0  0  0  0  0  0  0  0  0  0  0
  153.3149  144.7540  159.7620 H   0  0  0  0  0  0  0  0  0  0  0  0
  154.1226  142.5152  160.4585 H   0  0  0  0  0  0  0  0  0  0  0  0
  152.2273  139.3994  159.4794 H   0  0  0  0  0  0  0  0  0  0  0  0
  153.0954  137.8622  160.3441 H   0  0  0  0  0  0  0  0  0  0  0  0
  155.8569  138.1352  161.3526 H   0  0  0  0  0  0  0  0  0  0  0  0
  154.1354  135.7486  160.5617 H   0  0  0  0  0  0  0  0  0  0  0  0
  155.5073  136.3946  159.6926 H   0  0  0  0  0  0  0  0  0  0  0  0
  156.1577  134.3668  160.9743 H   0  0  0  0  0  0  0  0  0  0  0  0
  157.0286  135.7501  161.5646 H   0  0  0  0  0  0  0  0  0  0  0  0
  153.9339  134.8757  165.0428 H   0  0  0  0  0  0  0  0  0  0  0  0
  156.0219  132.5801  165.3768 H   0  0  0  0  0  0  0  0  0  0  0  0
  155.1596  133.5034  166.7067 H   0  0  0  0  0  0  0  0  0  0  0  0
  152.9423  132.6863  165.8032 H   0  0  0  0  0  0  0  0  0  0  0  0
  153.8296  131.7905  164.4679 H   0  0  0  0  0  0  0  0  0  0  0  0
  155.2098  136.3288  164.6357 H   0  0  0  0  0  0  0  0  0  0  0  0
  156.5005  136.8273  163.5919 H   0  0  0  0  0  0  0  0  0  0  0  0
  154.5432  138.3608  163.4113 H   0  0  0  0  0  0  0  0  0  0  0  0
  153.5109  137.0234  162.9662 H   0  0  0  0  0  0  0  0  0  0  0  0
  1  2  1  0  0  0  0
  1 25  1  0  0  0  0
  1 26  1  0  0  0  0
  1 27  1  0  0  0  0
  2  3  1  0  0  0  0
  2 28  1  0  0  0  0
  2 29  1  0  0  0  0
  3  4  1  0  0  0  0
  4  9  1  0  0  0  0
  4  5  2  0  0  0  0
  5  6  1  0  0  0  0
  6  7  2  0  0  0  0
  6 30  1  0  0  0  0
  7  8  1  0  0  0  0
  7 31  1  0  0  0  0
  8  9  2  0  0  0  0
  8 32  1  0  0  0  0
  9 10  1  0  0  0  0
 10 11  1  0  0  0  0
 10 33  1  0  0  0  0
 11 12  2  0  0  0  0
 11 13  1  0  0  0  0
 13 14  1  0  0  0  0
 13 34  1  0  0  0  0
 14 24  1  0  0  0  0
 14 15  1  0  0  0  0
 14 35  1  0  0  0  0
 15 16  1  0  0  0  0
 15 36  1  0  0  0  0
 15 37  1  0  0  0  0
 16 17  1  0  0  0  0
 16 38  1  0  0  0  0
 16 39  1  0  0  0  0
 17 18  1  0  0  0  0
 17 23  1  0  0  0  0
 18 19  2  0  0  0  0
 18 20  1  0  0  0  0
 20 22  1  0  0  0  0
 20 21  1  0  0  0  0
 20 40  1  0  0  0  0
 21 22  1  0  0  0  0
 21 41  1  0  0  0  0
 21 42  1  0  0  0  0
 22 43  1  0  0  0  0
 22 44  1  0  0  0  0
 23 24  1  0  0  0  0
 23 45  1  0  0  0  0
 23 46  1  0  0  0  0
 24 47  1  0  0  0  0
 24 48  1  0  0  0  0
M  END
> <s_m_source_file>
AV-unprocessed.smi

> <i_m_source_file_index>
1140

> <i_lp_mmshare_version>
43012

> <i_f3d_flags>
0

> <s_epik_input>
W0NIM11bQ0gyXU9jMW5bY0hdW2NIXVtjSF1jMVtOSF1DKD1PKVtOSF1bQ0hdMltDSDJdW0NIMl1OKFtDSDJdW0NIMl0yKUMoPU8pW0NIXTNbQ0gyXVtDSDJdMw==

> <s_epik_cmdline>
J2VwaWtfcHl0aG9uJywgJy1waCcsICc3LjAnLCAnLXRuJywgJzgnLCAnLW1hJywgJzIwMCcsICctbWV0YWxfYmluZGluZycsICctaW1hZScsICc8aW5maWxlLm1hZT4nLCAnLW9tYWUnLCAnPG91dGZpbGUubWFlPic=

> <r_lp_tautomer_probability>
1

> <r_epik_Ionization_Penalty>
0.00011541

> <r_epik_Ionization_Penalty_Charging>
0

> <r_epik_Ionization_Penalty_Neutral>
0.00011541

> <r_epik_State_Penalty>
-0

> <r_epik_Charging_Adjusted_Penalty>
0

> <i_epik_Tot_Q>
0

> <i_epik_Tot_abs_Q>
0

> <r_epik_Metal_State_Penalty>
-0

> <b_epik_Metal_Only>
0

> <s_lp_Force_Field>
OPLS_2005

> <r_lp_Energy>
31.5236

> <b_lp_Chiralities_Consistent>
1

> <s_lp_Variant>
AV-unprocessed.smi:1140-1

> <Gold.Version>
5.8.1

> <Gold.Id.Protein>
6NUR|6NUR_protein|mol2

> <Gold.PLP.Fitness>
41.2651

> <Gold.PLP.PLP>
-42.4165

> <Gold.PLP.part.hbond>
0.0000

> <Gold.PLP.part.metal>
0.0000

> <Gold.PLP.part.buried>
-6.5843

> <Gold.PLP.part.nonpolar>
-36.7772

> <Gold.PLP.part.repulsive>
0.2387

> <Gold.PLP.ligand.clash>
0.0000

> <Gold.PLP.ligand.torsion>
0.6311

> <Gold.PLP.Chemscore.Hbond>
0.0000

> <Gold.PLP.Chemscore.CHOScore>
0.0000

> <Gold.PLP.Chemscore.Metal>
0.0000

> <Gold.PLP.Chemscore.Internal.Correction>
0.1109

> <Gold.Rescore>
     Score         DG    S(hbond)    S(metal)    S(lipo)     H(rot)  DE(clash)    DE(int)     intcor
     11.46     -14.75       0.00        0.00     113.43       1.56       0.00       3.28       ----

> <Gold.Chemscore.Fitness>
11.4612

> <Gold.Chemscore.DG>
-14.7479

> <Gold.Chemscore.ZeroCoef>
-5.4800

> <Gold.Chemscore.Hbond>
0.0000

> <Gold.Chemscore.Metal>
0.0000

> <Gold.Chemscore.Lipo>
113.4332

> <Gold.Chemscore.Internal_Hbond>
0.0000

> <Gold.Chemscore.DEClash>
0.0038

> <Gold.Chemscore.DEInternal>
3.2829

> <Gold.Chemscore.Rot>
1.5640

> <Gold.Chemscore.Internal.Correction>
   9.000000E+99

> <Gold.Chemscore.Hbond.Weighted>
-0.0000

> <Gold.Chemscore.Metal.Weighted>
-0.0000

> <Gold.Chemscore.Lipo.Weighted>
-13.2717

> <Gold.Chemscore.Internal_Hbond.Weighted>
0.0000

> <Gold.Chemscore.DEClash.Weighted>
0.0038

> <Gold.Chemscore.DEInternal.Weighted>
3.2829

> <Gold.Chemscore.Rot.Weighted>
4.0038

> <Gold.Chemscore.Internal.Correction.Weighted>
   9.000000E+99

> <Gold.Protein.RotatedTorsions>
[ 6907 6896 6895 6894 ] final   18.35 input  -60.11 | X-H torsion
[ 7974 7965 7964 7962 ] final   12.72 input  175.53 | X-H torsion
[ 8008 7997 7996 7995 ] final   19.86 input   59.86 | X-H torsion
[ 10167 10162 10161 10158 ] final  -27.07 input  -65.29 | X-H torsion
[ 10718 10713 10712 10709 ] final  164.31 input   66.30 | X-H torsion
[ 10763 10752 10751 10750 ] final -116.76 input  -60.55 | X-H torsion
[ 11005 11000 10999 10996 ] final -109.04 input  -57.11 | X-H torsion

> <Gold.Protein.ActiveResidues>
 VAL166  LYS551  ARG553  GLY616  TRP617  ASP618  TYR619  PRO620  LYS621  CYS622 
 ASP623  PHE694  ASN695  SER759  ASP760  ASP761  ALA762  ILE779  LEU786  VAL792 
 PHE793  MET794  SER795  GLU796  ALA797  LYS798  CYS799  TRP800  GLU811  SER814 

> <Gold.Protein.RotatedAtoms>
  151.8639  135.0514  160.0471 H   0  0  0  0  0  0  0  0  0  0  0  0  # atno 6907 bound_to 6896
  152.2641  133.5319  159.5408 H   0  0  0  0  0  0  0  0  0  0  0  0  # atno 6908 bound_to 6896
  150.7127  134.0705  159.3905 H   0  0  0  0  0  0  0  0  0  0  0  0  # atno 6909 bound_to 6896
  146.2345  139.9294  142.8498 H   0  0  0  0  0  0  0  0  0  0  0  0  # atno 7974 bound_to 7965
  154.9271  140.3035  155.5187 H   0  0  0  0  0  0  0  0  0  0  0  0  # atno 8008 bound_to 7997
  156.3006  140.2361  156.4263 H   0  0  0  0  0  0  0  0  0  0  0  0  # atno 8009 bound_to 7997
  154.8274  140.0420  157.1442 H   0  0  0  0  0  0  0  0  0  0  0  0  # atno 8010 bound_to 7997
  140.7279  143.4124  151.1083 H   0  0  0  0  0  0  0  0  0  0  0  0  # atno 10167 bound_to 10162
  157.0962  131.0431  151.2517 H   0  0  0  0  0  0  0  0  0  0  0  0  # atno 10718 bound_to 10713
  154.8531  135.4334  154.1873 H   0  0  0  0  0  0  0  0  0  0  0  0  # atno 10763 bound_to 10752
  153.2949  135.6964  153.7263 H   0  0  0  0  0  0  0  0  0  0  0  0  # atno 10764 bound_to 10752
  153.6416  135.3467  155.3047 H   0  0  0  0  0  0  0  0  0  0  0  0  # atno 10765 bound_to 10752
  141.0869  133.9123  157.2165 H   0  0  0  0  0  0  0  0  0  0  0  0  # atno 11005 bound_to 11000
  145.2059  140.9874  143.4129 LP  0  0  0  0  0  0  0  0  0  0  0  0  # atno 17320 bound_to 7965
  144.9733  139.3857  143.6298 LP  0  0  0  0  0  0  0  0  0  0  0  0  # atno 17321 bound_to 7965
  139.7759  143.8426  152.3129 LP  0  0  0  0  0  0  0  0  0  0  0  0  # atno 17342 bound_to 10162
  139.8360  144.7232  150.9390 LP  0  0  0  0  0  0  0  0  0  0  0  0  # atno 17343 bound_to 10162
  157.4679  130.7691  149.7296 LP  0  0  0  0  0  0  0  0  0  0  0  0  # atno 17370 bound_to 10713
  155.9885  130.3958  150.3115 LP  0  0  0  0  0  0  0  0  0  0  0  0  # atno 17371 bound_to 10713
  139.9689  135.0134  156.9459 LP  0  0  0  0  0  0  0  0  0  0  0  0  # atno 17394 bound_to 11000
  140.5342  134.0783  155.7324 LP  0  0  0  0  0  0  0  0  0  0  0  0  # atno 17395 bound_to 11000

$$$$
