AV-unprocessed.smi:249|AV-procd|sdf|1911|dock6
  -GOLD-   2262021 03D 1   1.00000     0.00000
 Structure written by MMmdl.
 64 67  0  0  0  0  0  0  0  0  2 V2000
  144.3273  132.4302  151.3009 C   0  0  0  0  0  0  0  0  0  0  0  0
  143.7325  133.7600  151.7895 C   0  0  0  0  0  0  0  0  0  0  0  0
  143.8611  133.9548  153.2640 N   0  3  1  0  0  0  0  0  0  0  0  0
  145.2687  134.0029  153.7526 C   0  0  0  0  0  0  0  0  0  0  0  0
  145.9661  135.3242  153.3744 C   0  0  0  0  0  0  0  0  0  0  0  0
  145.1643  136.5350  153.8894 C   0  0  1  0  0  0  0  0  0  0  0  0
  145.7889  137.8093  153.5231 N   0  0  0  0  0  0  0  0  0  0  0  0
  146.2808  138.0410  152.1666 C   0  0  0  0  0  0  0  0  0  0  0  0
  146.2443  138.6199  154.5134 C   0  0  0  0  0  0  0  0  0  0  0  0
  145.5679  138.6626  155.6920 N   0  0  0  0  0  0  0  0  0  0  0  0
  145.9844  139.4550  156.6838 C   0  0  0  0  0  0  0  0  0  0  0  0
  147.0394  140.2708  156.7122 N   0  0  0  0  0  0  0  0  0  0  0  0
  147.7325  140.2222  155.5394 C   0  0  0  0  0  0  0  0  0  0  0  0
  147.4093  139.4330  154.3989 C   0  0  0  0  0  0  0  0  0  0  0  0
  148.3563  139.6404  153.4012 N   0  0  0  0  0  0  0  0  0  0  0  0
  149.1790  140.5135  153.9146 C   0  0  0  0  0  0  0  0  0  0  0  0
  148.8746  140.9222  155.1926 N   0  0  0  0  0  0  0  0  0  0  0  0
  149.6152  141.8811  155.9930 C   0  0  0  0  0  0  0  0  0  0  0  0
  150.4915  141.2325  157.0975 C   0  0  1  0  0  0  0  0  0  0  0  0
  151.2716  139.9953  156.5822 C   0  0  0  0  0  0  0  0  0  0  0  0
  151.8543  140.2288  155.3166 O   0  0  0  0  0  0  0  0  0  0  0  0
  151.4563  142.2819  157.7094 C   0  0  1  0  0  0  0  0  0  0  0  0
  150.7764  143.4627  158.3836 C   0  0  0  0  0  0  0  0  0  0  0  0
  151.8920  144.0184  159.2582 C   0  0  0  0  0  0  0  0  0  0  0  0
  152.6134  142.8783  159.7037 O   0  0  0  0  0  0  0  0  0  0  0  0
  152.3270  141.7635  158.8639 C   0  0  0  0  0  0  0  0  0  0  0  0
  143.6968  136.4528  153.4282 C   0  0  0  0  0  0  0  0  0  0  0  0
  143.0754  135.0974  153.8242 C   0  0  1  0  0  0  0  0  0  0  0  0
  141.5699  135.0244  153.5116 C   0  0  0  0  0  0  0  0  0  0  0  0
  144.0761  132.2645  150.2529 H   0  0  0  0  0  0  0  0  0  0  0  0
  143.9342  131.5872  151.8700 H   0  0  0  0  0  0  0  0  0  0  0  0
  145.4142  132.4133  151.3716 H   0  0  0  0  0  0  0  0  0  0  0  0
  144.1777  134.5921  151.2447 H   0  0  0  0  0  0  0  0  0  0  0  0
  142.6806  133.7439  151.5114 H   0  0  0  0  0  0  0  0  0  0  0  0
  145.2567  133.9035  154.8388 H   0  0  0  0  0  0  0  0  0  0  0  0
  145.8443  133.1513  153.3938 H   0  0  0  0  0  0  0  0  0  0  0  0
  146.9705  135.3407  153.7993 H   0  0  0  0  0  0  0  0  0  0  0  0
  146.0943  135.3765  152.2934 H   0  0  0  0  0  0  0  0  0  0  0  0
  145.1619  136.4405  154.9745 H   0  0  0  0  0  0  0  0  0  0  0  0
  146.2483  139.1031  151.9215 H   0  0  0  0  0  0  0  0  0  0  0  0
  145.6783  137.5132  151.4285 H   0  0  0  0  0  0  0  0  0  0  0  0
  147.3106  137.6962  152.0683 H   0  0  0  0  0  0  0  0  0  0  0  0
  145.3857  139.4330  157.5825 H   0  0  0  0  0  0  0  0  0  0  0  0
  150.0340  140.8897  153.3716 H   0  0  0  0  0  0  0  0  0  0  0  0
  150.2349  142.4847  155.3288 H   0  0  0  0  0  0  0  0  0  0  0  0
  148.8847  142.5613  156.4306 H   0  0  0  0  0  0  0  0  0  0  0  0
  149.8301  140.9005  157.8997 H   0  0  0  0  0  0  0  0  0  0  0  0
  152.0443  139.6997  157.2924 H   0  0  0  0  0  0  0  0  0  0  0  0
  150.6159  139.1351  156.4594 H   0  0  0  0  0  0  0  0  0  0  0  0
  152.7330  139.8810  155.3251 H   0  0  0  0  0  0  0  0  0  0  0  0
  152.1129  142.6680  156.9275 H   0  0  0  0  0  0  0  0  0  0  0  0
  150.3977  144.2043  157.6798 H   0  0  0  0  0  0  0  0  0  0  0  0
  149.9467  143.1237  159.0059 H   0  0  0  0  0  0  0  0  0  0  0  0
  152.5596  144.6478  158.6684 H   0  0  0  0  0  0  0  0  0  0  0  0
  151.5173  144.6090  160.0942 H   0  0  0  0  0  0  0  0  0  0  0  0
  151.7889  141.0229  159.4570 H   0  0  0  0  0  0  0  0  0  0  0  0
  153.2504  141.3039  158.5112 H   0  0  0  0  0  0  0  0  0  0  0  0
  143.1301  137.2642  153.8863 H   0  0  0  0  0  0  0  0  0  0  0  0
  143.6172  136.5968  152.3508 H   0  0  0  0  0  0  0  0  0  0  0  0
  143.1536  135.0099  154.9093 H   0  0  0  0  0  0  0  0  0  0  0  0
  141.0196  135.7490  154.1124 H   0  0  0  0  0  0  0  0  0  0  0  0
  141.1651  134.0377  153.7388 H   0  0  0  0  0  0  0  0  0  0  0  0
  141.3522  135.2519  152.4680 H   0  0  0  0  0  0  0  0  0  0  0  0
  143.4566  133.1246  153.6733 H   0  0  0  0  0  0  0  0  0  0  0  0
  1  2  1  0  0  0  0
  1 30  1  0  0  0  0
  1 31  1  0  0  0  0
  1 32  1  0  0  0  0
  2  3  1  0  0  0  0
  2 33  1  0  0  0  0
  2 34  1  0  0  0  0
  3 28  1  0  0  0  0
  3  4  1  0  0  0  0
  3 64  1  0  0  0  0
  4  5  1  0  0  0  0
  4 35  1  0  0  0  0
  4 36  1  0  0  0  0
  5  6  1  0  0  0  0
  5 37  1  0  0  0  0
  5 38  1  0  0  0  0
  6  7  1  0  0  0  0
  6 27  1  0  0  0  0
  6 39  1  0  0  0  0
  7  8  1  0  0  0  0
  7  9  1  0  0  0  0
  8 40  1  0  0  0  0
  8 41  1  0  0  0  0
  8 42  1  0  0  0  0
  9 14  1  0  0  0  0
  9 10  2  0  0  0  0
 10 11  1  0  0  0  0
 11 12  2  0  0  0  0
 11 43  1  0  0  0  0
 12 13  1  0  0  0  0
 13 17  1  0  0  0  0
 13 14  2  0  0  0  0
 14 15  1  0  0  0  0
 15 16  2  0  0  0  0
 16 17  1  0  0  0  0
 16 44  1  0  0  0  0
 17 18  1  0  0  0  0
 18 19  1  0  0  0  0
 18 45  1  0  0  0  0
 18 46  1  0  0  0  0
 19 20  1  0  0  0  0
 19 22  1  0  0  0  0
 19 47  1  0  0  0  0
 20 21  1  0  0  0  0
 20 48  1  0  0  0  0
 20 49  1  0  0  0  0
 21 50  1  0  0  0  0
 22 26  1  0  0  0  0
 22 23  1  0  0  0  0
 22 51  1  0  0  0  0
 23 24  1  0  0  0  0
 23 52  1  0  0  0  0
 23 53  1  0  0  0  0
 24 25  1  0  0  0  0
 24 54  1  0  0  0  0
 24 55  1  0  0  0  0
 25 26  1  0  0  0  0
 26 56  1  0  0  0  0
 26 57  1  0  0  0  0
 27 28  1  0  0  0  0
 27 58  1  0  0  0  0
 27 59  1  0  0  0  0
 28 29  1  0  0  0  0
 28 60  1  0  0  0  0
 29 61  1  0  0  0  0
 29 62  1  0  0  0  0
 29 63  1  0  0  0  0
M  CHG  1   3   1
M  END
> <s_m_source_file>
AV-unprocessed.smi

> <i_m_source_file_index>
249

> <i_lp_mmshare_version>
43012

> <i_f3d_flags>
0

> <s_epik_input>
W0NIM11bQ0gyXU4xW0NIMl1bQ0gyXVtDQEhdKFtDSDJdW0NASF0xW0NIM10pTihbQ0gzXSljKG5bY0hdbjIpYyhjMjMpbltjSF1uM1tDSDJdW0NASF0oW0NIMl1bT0hdKVtDQEBIXTRbQ0gyXVtDSDJdT1tDSDJdNA==

> <s_epik_cmdline>
J2VwaWtfcHl0aG9uJywgJy1waCcsICc3LjAnLCAnLXRuJywgJzgnLCAnLW1hJywgJzIwMCcsICctbWV0YWxfYmluZGluZycsICctaW1hZScsICc8aW5maWxlLm1hZT4nLCAnLW9tYWUnLCAnPG91dGZpbGUubWFlPic=

> <r_lp_tautomer_probability>
1

> <r_epik_Ionization_Penalty>
0.00294688

> <r_epik_Ionization_Penalty_Charging>
0.00169971

> <r_epik_Ionization_Penalty_Neutral>
0.00124717

> <r_epik_State_Penalty>
-0

> <r_epik_Charging_Adjusted_Penalty>
0.00169971

> <i_epik_Tot_Q>
1

> <i_epik_Tot_abs_Q>
1

> <r_epik_Metal_State_Penalty>
-0

> <b_epik_Metal_Only>
0

> <s_lp_Force_Field>
OPLS_2005

> <r_lp_Energy>
53.8972

> <b_lp_Chiralities_Consistent>
1

> <s_lp_Variant>
AV-unprocessed.smi:249-14

> <Gold.Version>
5.8.1

> <Gold.Id.Protein>
6NUR|6NUR_protein|mol2

> <Gold.PLP.Fitness>
45.4637

> <Gold.PLP.PLP>
-36.9786

> <Gold.PLP.part.hbond>
-2.0000

> <Gold.PLP.part.metal>
0.0000

> <Gold.PLP.part.buried>
-3.7811

> <Gold.PLP.part.nonpolar>
-35.1307

> <Gold.PLP.part.repulsive>
3.7235

> <Gold.PLP.ligand.clash>
0.0000

> <Gold.PLP.ligand.torsion>
1.0494

> <Gold.PLP.Chemscore.Hbond>
2.8640

> <Gold.PLP.Chemscore.CHOScore>
0.4548

> <Gold.PLP.Chemscore.Metal>
0.0000

> <Gold.Chemscore.Hbonds>
donor molecule, donor type, donor heavy atom, donor atom, acceptor molecule, acceptor atom, score
      L1  H     3    64       P1 10957  2.00
      P1  H  7989  7998       L1    21  0.82
      L1  C    16    44       P1  7957  0.45

> <Gold.PLP.Chemscore.Internal.Correction>
0.6276

> <Gold.Rescore>
     Score         DG    S(hbond)    S(metal)    S(lipo)     H(rot)  DE(clash)    DE(int)     intcor
     10.29     -16.00       1.65        0.00     100.85       2.65       3.55       2.16       ----

> <Gold.Chemscore.Fitness>
10.2875

> <Gold.Chemscore.DG>
-16.0007

> <Gold.Chemscore.ZeroCoef>
-5.4800

> <Gold.Chemscore.Hbond>
1.6495

> <Gold.Chemscore.Metal>
0.0000

> <Gold.Chemscore.Lipo>
100.8498

> <Gold.Chemscore.Internal_Hbond>
0.0000

> <Gold.Chemscore.DEClash>
3.5490

> <Gold.Chemscore.DEInternal>
2.1642

> <Gold.Chemscore.Rot>
2.6515

> <Gold.Chemscore.Internal.Correction>
   9.000000E+99

> <Gold.Chemscore.Hbonds>
donor molecule, donor type, donor heavy atom, donor atom, acceptor molecule, acceptor atom, score
      L1  H     3    64       P1 10957  0.97
      P1  H  7989  7998       L1    21  0.32

> <Gold.Chemscore.Hbond.Weighted>
-5.5093

> <Gold.Chemscore.Metal.Weighted>
-0.0000

> <Gold.Chemscore.Lipo.Weighted>
-11.7994

> <Gold.Chemscore.Internal_Hbond.Weighted>
0.0000

> <Gold.Chemscore.DEClash.Weighted>
3.5490

> <Gold.Chemscore.DEInternal.Weighted>
2.1642

> <Gold.Chemscore.Rot.Weighted>
6.7880

> <Gold.Chemscore.Internal.Correction.Weighted>
   9.000000E+99

> <Gold.Protein.RotatedTorsions>
[ 6907 6896 6895 6894 ] final   45.91 input  -60.11 | X-H torsion
[ 7974 7965 7964 7962 ] final   80.96 input  175.53 | X-H torsion
[ 8008 7997 7996 7995 ] final  -12.70 input   59.86 | X-H torsion
[ 10167 10162 10161 10158 ] final  114.16 input  -65.29 | X-H torsion
[ 10718 10713 10712 10709 ] final  107.02 input   66.30 | X-H torsion
[ 10763 10752 10751 10750 ] final -133.63 input  -60.55 | X-H torsion
[ 11005 11000 10999 10996 ] final  114.87 input  -57.11 | X-H torsion

> <Gold.Protein.ActiveResidues>
 VAL166  LYS551  ARG553  GLY616  TRP617  ASP618  TYR619  PRO620  LYS621  CYS622 
 ASP623  PHE694  ASN695  SER759  ASP760  ASP761  ALA762  ILE779  LEU786  VAL792 
 PHE793  MET794  SER795  GLU796  ALA797  LYS798  CYS799  TRP800  GLU811  SER814 

> <Gold.Protein.RotatedAtoms>
  152.2502  134.8140  160.0446 H   0  0  0  0  0  0  0  0  0  0  0  0  # atno 6907 bound_to 6896
  151.8824  133.3493  159.3779 H   0  0  0  0  0  0  0  0  0  0  0  0  # atno 6908 bound_to 6896
  150.7081  134.4932  159.5570 H   0  0  0  0  0  0  0  0  0  0  0  0  # atno 6909 bound_to 6896
  145.6443  139.2432  143.2013 H   0  0  0  0  0  0  0  0  0  0  0  0  # atno 7974 bound_to 7965
  154.5355  140.2269  155.8731 H   0  0  0  0  0  0  0  0  0  0  0  0  # atno 8008 bound_to 7997
  156.1807  140.3101  155.9105 H   0  0  0  0  0  0  0  0  0  0  0  0  # atno 8009 bound_to 7997
  155.3364  140.0448  157.3034 H   0  0  0  0  0  0  0  0  0  0  0  0  # atno 8010 bound_to 7997
  139.6409  144.7123  151.2239 H   0  0  0  0  0  0  0  0  0  0  0  0  # atno 10167 bound_to 10162
  157.6645  131.0863  150.6094 H   0  0  0  0  0  0  0  0  0  0  0  0  # atno 10718 bound_to 10713
  154.8730  135.3760  154.4604 H   0  0  0  0  0  0  0  0  0  0  0  0  # atno 10763 bound_to 10752
  153.5273  135.7028  153.5706 H   0  0  0  0  0  0  0  0  0  0  0  0  # atno 10764 bound_to 10752
  153.3927  135.3968  155.1899 H   0  0  0  0  0  0  0  0  0  0  0  0  # atno 10765 bound_to 10752
  139.8993  134.9575  156.6958 H   0  0  0  0  0  0  0  0  0  0  0  0  # atno 11005 bound_to 11000
  146.1255  140.7254  142.9437 LP  0  0  0  0  0  0  0  0  0  0  0  0  # atno 17320 bound_to 7965
  144.7146  140.4162  143.7054 LP  0  0  0  0  0  0  0  0  0  0  0  0  # atno 17321 bound_to 7965
  140.7490  143.6314  150.8420 LP  0  0  0  0  0  0  0  0  0  0  0  0  # atno 17342 bound_to 10162
  139.9951  143.5805  152.2896 LP  0  0  0  0  0  0  0  0  0  0  0  0  # atno 17343 bound_to 10162
  156.6395  130.4454  149.5757 LP  0  0  0  0  0  0  0  0  0  0  0  0  # atno 17370 bound_to 10713
  156.2220  130.6743  151.1378 LP  0  0  0  0  0  0  0  0  0  0  0  0  # atno 17371 bound_to 10713
  140.7189  133.9158  155.8134 LP  0  0  0  0  0  0  0  0  0  0  0  0  # atno 17394 bound_to 11000
  141.0242  134.0846  157.4086 LP  0  0  0  0  0  0  0  0  0  0  0  0  # atno 17395 bound_to 11000

$$$$
