AV-unprocessed.smi:2638|AV-procd|sdf|10262|dock5
  -GOLD-   2272014273D 1   1.00000     0.00000
 Structure written by MMmdl.
 43 44  0  0  0  0  0  0  0  0  1 V2000
  149.4010  140.5297  157.2383 O   0  0  0  0  0  0  0  0  0  0  0  0
  149.3236  141.6713  156.7829 C   0  0  0  0  0  0  0  0  0  0  0  0
  150.1060  142.7047  157.1400 N   0  0  0  0  0  0  0  0  0  0  0  0
  151.1746  142.7153  158.0753 C   0  0  0  0  0  0  0  0  0  0  0  0
  151.7591  143.9819  158.3011 C   0  0  0  0  0  0  0  0  0  0  0  0
  152.8292  144.0993  159.2091 C   0  0  0  0  0  0  0  0  0  0  0  0
  153.2872  142.9455  159.8699 C   0  0  0  0  0  0  0  0  0  0  0  0
  152.6490  141.7234  159.5892 C   0  0  0  0  0  0  0  0  0  0  0  0
  151.6239  141.6087  158.7187 N   0  0  0  0  0  0  0  0  0  0  0  0
  148.4338  142.0424  155.8494 N   0  0  0  0  0  0  0  0  0  0  0  0
  147.4470  141.1739  155.2022 C   0  0  2  0  0  0  0  0  0  0  0  0
  147.9655  140.7626  153.7997 C   0  0  0  0  0  0  0  0  0  0  0  0
  147.1496  139.6645  153.0884 C   0  0  0  0  0  0  0  0  0  0  0  0
  147.0029  139.9321  151.7088 O   0  0  0  0  0  0  0  0  0  0  0  0
  146.0599  141.8808  155.1692 C   0  0  0  0  0  0  0  0  0  0  0  0
  146.0683  143.1492  154.2768 C   0  0  0  0  0  0  0  0  0  0  0  0
  144.7012  143.8496  154.2386 C   0  0  0  0  0  0  0  0  0  0  0  0
  144.2230  144.2112  155.6498 C   0  0  0  0  0  0  0  0  0  0  0  0
  144.1830  142.9646  156.5420 C   0  0  0  0  0  0  0  0  0  0  0  0
  145.5482  142.2584  156.5818 C   0  0  0  0  0  0  0  0  0  0  0  0
  149.9245  143.5836  156.6782 H   0  0  0  0  0  0  0  0  0  0  0  0
  151.3949  144.8582  157.7844 H   0  0  0  0  0  0  0  0  0  0  0  0
  153.2897  145.0584  159.3945 H   0  0  0  0  0  0  0  0  0  0  0  0
  154.1057  142.9953  160.5726 H   0  0  0  0  0  0  0  0  0  0  0  0
  152.9694  140.8137  160.0750 H   0  0  0  0  0  0  0  0  0  0  0  0
  148.4525  143.0033  155.5407 H   0  0  0  0  0  0  0  0  0  0  0  0
  147.3314  140.2579  155.7843 H   0  0  0  0  0  0  0  0  0  0  0  0
  147.9315  141.6335  153.1475 H   0  0  0  0  0  0  0  0  0  0  0  0
  149.0157  140.4711  153.8508 H   0  0  0  0  0  0  0  0  0  0  0  0
  147.6075  138.6850  153.2291 H   0  0  0  0  0  0  0  0  0  0  0  0
  146.1496  139.6120  153.5195 H   0  0  0  0  0  0  0  0  0  0  0  0
  147.8630  139.9857  151.3204 H   0  0  0  0  0  0  0  0  0  0  0  0
  145.3433  141.1812  154.7355 H   0  0  0  0  0  0  0  0  0  0  0  0
  146.8240  143.8467  154.6409 H   0  0  0  0  0  0  0  0  0  0  0  0
  146.3483  142.9034  153.2529 H   0  0  0  0  0  0  0  0  0  0  0  0
  144.7624  144.7494  153.6257 H   0  0  0  0  0  0  0  0  0  0  0  0
  143.9697  143.1985  153.7584 H   0  0  0  0  0  0  0  0  0  0  0  0
  144.8913  144.9549  156.0856 H   0  0  0  0  0  0  0  0  0  0  0  0
  143.2348  144.6695  155.6035 H   0  0  0  0  0  0  0  0  0  0  0  0
  143.8795  143.2423  157.5518 H   0  0  0  0  0  0  0  0  0  0  0  0
  143.4251  142.2734  156.1714 H   0  0  0  0  0  0  0  0  0  0  0  0
  145.4438  141.3735  157.2075 H   0  0  0  0  0  0  0  0  0  0  0  0
  146.2764  142.9030  157.0759 H   0  0  0  0  0  0  0  0  0  0  0  0
  1  2  2  0  0  0  0
  2  3  1  0  0  0  0
  2 10  1  0  0  0  0
  3  4  1  0  0  0  0
  3 21  1  0  0  0  0
  4  9  1  0  0  0  0
  4  5  2  0  0  0  0
  5  6  1  0  0  0  0
  5 22  1  0  0  0  0
  6  7  2  0  0  0  0
  6 23  1  0  0  0  0
  7  8  1  0  0  0  0
  7 24  1  0  0  0  0
  8  9  2  0  0  0  0
  8 25  1  0  0  0  0
 10 11  1  0  0  0  0
 10 26  1  0  0  0  0
 11 12  1  0  0  0  0
 11 15  1  0  0  0  0
 11 27  1  0  0  0  0
 12 13  1  0  0  0  0
 12 28  1  0  0  0  0
 12 29  1  0  0  0  0
 13 14  1  0  0  0  0
 13 30  1  0  0  0  0
 13 31  1  0  0  0  0
 14 32  1  0  0  0  0
 15 20  1  0  0  0  0
 15 16  1  0  0  0  0
 15 33  1  0  0  0  0
 16 17  1  0  0  0  0
 16 34  1  0  0  0  0
 16 35  1  0  0  0  0
 17 18  1  0  0  0  0
 17 36  1  0  0  0  0
 17 37  1  0  0  0  0
 18 19  1  0  0  0  0
 18 38  1  0  0  0  0
 18 39  1  0  0  0  0
 19 20  1  0  0  0  0
 19 40  1  0  0  0  0
 19 41  1  0  0  0  0
 20 42  1  0  0  0  0
 20 43  1  0  0  0  0
M  END
> <s_m_source_file>
AV-unprocessed.smi

> <i_m_source_file_index>
2638

> <i_lp_mmshare_version>
43012

> <i_f3d_flags>
0

> <s_epik_input>
bjFbY0hdW2NIXVtjSF1bY0hdYzFbTkhdQyg9TylbTkhdW0NASF0oW0NIMl1bQ0gyXVtPSF0pW0NIXTJbQ0gyXVtDSDJdW0NIMl1bQ0gyXVtDSDJdMg==

> <s_epik_cmdline>
J2VwaWtfcHl0aG9uJywgJy1waCcsICc3LjAnLCAnLXRuJywgJzgnLCAnLW1hJywgJzIwMCcsICctbWV0YWxfYmluZGluZycsICctaW1hZScsICc8aW5maWxlLm1hZT4nLCAnLW9tYWUnLCAnPG91dGZpbGUubWFlPic=

> <r_lp_tautomer_probability>
1

> <r_epik_Ionization_Penalty>
5.22449e-05

> <r_epik_Ionization_Penalty_Charging>
0

> <r_epik_Ionization_Penalty_Neutral>
5.22449e-05

> <r_epik_State_Penalty>
-0

> <r_epik_Charging_Adjusted_Penalty>
0

> <i_epik_Tot_Q>
0

> <i_epik_Tot_abs_Q>
0

> <r_epik_Metal_State_Penalty>
-0

> <b_epik_Metal_Only>
0

> <s_lp_Force_Field>
OPLS_2005

> <r_lp_Energy>
19.3621

> <b_lp_Chiralities_Consistent>
1

> <s_lp_Variant>
AV-unprocessed.smi:2638-1

> <Gold.Version>
5.8.1

> <Gold.Id.Protein>
6NUR|6NUR_protein|mol2

> <Gold.PLP.Fitness>
49.4420

> <Gold.PLP.PLP>
-41.5830

> <Gold.PLP.part.hbond>
-3.0000

> <Gold.PLP.part.metal>
0.0000

> <Gold.PLP.part.buried>
-5.4537

> <Gold.PLP.part.nonpolar>
-34.1304

> <Gold.PLP.part.repulsive>
0.1228

> <Gold.PLP.ligand.clash>
0.0000

> <Gold.PLP.ligand.torsion>
0.5573

> <Gold.PLP.Chemscore.Hbond>
2.9760

> <Gold.PLP.Chemscore.CHOScore>
0.0000

> <Gold.PLP.Chemscore.Metal>
0.0000

> <Gold.Chemscore.Hbonds>
donor molecule, donor type, donor heavy atom, donor atom, acceptor molecule, acceptor atom, score
      L1  H     3    21       P1  8028  1.00
      L1  H    10    26       P1  8028  1.00
      L1  H    14    32       P1  7957  1.00

> <Gold.PLP.Chemscore.Internal.Correction>
0.0456

> <Gold.Rescore>
     Score         DG    S(hbond)    S(metal)    S(lipo)     H(rot)  DE(clash)    DE(int)     intcor
     18.60     -20.55       2.90        0.00      96.20       2.30       0.07       1.88       ----

> <Gold.Chemscore.Fitness>
18.5955

> <Gold.Chemscore.DG>
-20.5463

> <Gold.Chemscore.ZeroCoef>
-5.4800

> <Gold.Chemscore.Hbond>
2.9016

> <Gold.Chemscore.Metal>
0.0000

> <Gold.Chemscore.Lipo>
96.2027

> <Gold.Chemscore.Internal_Hbond>
0.0000

> <Gold.Chemscore.DEClash>
0.0681

> <Gold.Chemscore.DEInternal>
1.8827

> <Gold.Chemscore.Rot>
2.2972

> <Gold.Chemscore.Internal.Correction>
   9.000000E+99

> <Gold.Chemscore.Hbonds>
donor molecule, donor type, donor heavy atom, donor atom, acceptor molecule, acceptor atom, score
      L1  H     3    21       P1  8028  0.98
      L1  H    10    26       P1  8028  0.98
      L1  H    14    32       P1  7957  1.00

> <Gold.Chemscore.Hbond.Weighted>
-9.6913

> <Gold.Chemscore.Metal.Weighted>
-0.0000

> <Gold.Chemscore.Lipo.Weighted>
-11.2557

> <Gold.Chemscore.Internal_Hbond.Weighted>
0.0000

> <Gold.Chemscore.DEClash.Weighted>
0.0681

> <Gold.Chemscore.DEInternal.Weighted>
1.8827

> <Gold.Chemscore.Rot.Weighted>
5.8807

> <Gold.Chemscore.Internal.Correction.Weighted>
   9.000000E+99

> <Gold.Protein.RotatedTorsions>
[ 6907 6896 6895 6894 ] final  105.44 input  -60.11 | X-H torsion
[ 7974 7965 7964 7962 ] final  125.26 input  175.53 | X-H torsion
[ 8008 7997 7996 7995 ] final -113.49 input   59.86 | X-H torsion
[ 10167 10162 10161 10158 ] final   77.76 input  -65.29 | X-H torsion
[ 10718 10713 10712 10709 ] final  114.47 input   66.30 | X-H torsion
[ 10763 10752 10751 10750 ] final   22.22 input  -60.55 | X-H torsion
[ 11005 11000 10999 10996 ] final  -53.60 input  -57.11 | X-H torsion

> <Gold.Protein.ActiveResidues>
 VAL166  LYS551  ARG553  GLY616  TRP617  ASP618  TYR619  PRO620  LYS621  CYS622 
 ASP623  PHE694  ASN695  SER759  ASP760  ASP761  ALA762  ILE779  LEU786  VAL792 
 PHE793  MET794  SER795  GLU796  ALA797  LYS798  CYS799  TRP800  GLU811  SER814 

> <Gold.Protein.RotatedAtoms>
  152.5230  133.9528  159.7679 H   0  0  0  0  0  0  0  0  0  0  0  0  # atno 6907 bound_to 6896
  150.9834  133.6214  159.2726 H   0  0  0  0  0  0  0  0  0  0  0  0  # atno 6908 bound_to 6896
  151.3383  135.0863  159.9415 H   0  0  0  0  0  0  0  0  0  0  0  0  # atno 6909 bound_to 6896
  145.0750  139.3701  143.4938 H   0  0  0  0  0  0  0  0  0  0  0  0  # atno 7974 bound_to 7965
  155.0215  140.0393  157.2439 H   0  0  0  0  0  0  0  0  0  0  0  0  # atno 8008 bound_to 7997
  154.7374  140.2742  155.6380 H   0  0  0  0  0  0  0  0  0  0  0  0  # atno 8009 bound_to 7997
  156.2856  140.2672  156.2091 H   0  0  0  0  0  0  0  0  0  0  0  0  # atno 8010 bound_to 7997
  139.9782  144.5846  150.7924 H   0  0  0  0  0  0  0  0  0  0  0  0  # atno 10167 bound_to 10162
  157.6279  131.0999  150.7190 H   0  0  0  0  0  0  0  0  0  0  0  0  # atno 10718 bound_to 10713
  153.0933  135.6653  153.9812 H   0  0  0  0  0  0  0  0  0  0  0  0  # atno 10763 bound_to 10752
  153.9403  135.2994  155.3444 H   0  0  0  0  0  0  0  0  0  0  0  0  # atno 10764 bound_to 10752
  154.7349  135.5106  153.9099 H   0  0  0  0  0  0  0  0  0  0  0  0  # atno 10765 bound_to 10752
  141.0984  133.6621  156.4196 H   0  0  0  0  0  0  0  0  0  0  0  0  # atno 11005 bound_to 11000
  146.3530  140.0513  142.8636 LP  0  0  0  0  0  0  0  0  0  0  0  0  # atno 17320 bound_to 7965
  145.1247  140.9483  143.4580 LP  0  0  0  0  0  0  0  0  0  0  0  0  # atno 17321 bound_to 7965
  140.7498  143.2945  151.3240 LP  0  0  0  0  0  0  0  0  0  0  0  0  # atno 17342 bound_to 10162
  139.6430  144.0504  152.2569 LP  0  0  0  0  0  0  0  0  0  0  0  0  # atno 17343 bound_to 10162
  156.7535  130.4776  149.5452 LP  0  0  0  0  0  0  0  0  0  0  0  0  # atno 17370 bound_to 10713
  156.1463  130.6279  151.0536 LP  0  0  0  0  0  0  0  0  0  0  0  0  # atno 17371 bound_to 10713
  140.5083  134.6419  157.5275 LP  0  0  0  0  0  0  0  0  0  0  0  0  # atno 17394 bound_to 11000
  139.9827  134.7110  155.9829 LP  0  0  0  0  0  0  0  0  0  0  0  0  # atno 17395 bound_to 11000

$$$$
