AV-unprocessed.smi:1998|AV-procd|sdf|8091|dock4
  -GOLD-   2272010313D 1   1.00000     0.00000
 Structure written by MMmdl.
 48 49  0  0  0  0  0  0  0  0  2 V2000
  152.5464  144.1477  157.6252 C   0  0  0  0  0  0  0  0  0  0  0  0
  152.6739  143.3755  158.9052 C   0  0  0  0  0  0  0  0  0  0  0  0
  152.6524  143.8704  160.2391 C   0  0  0  0  0  0  0  0  0  0  0  0
  152.8065  142.7562  161.0150 C   0  0  0  0  0  0  0  0  0  0  0  0
  152.8648  142.6159  162.5006 C   0  0  0  0  0  0  0  0  0  0  0  0
  152.9112  141.6788  160.1533 N   0  0  0  0  0  0  0  0  0  0  0  0
  153.0909  140.2679  160.4658 C   0  0  0  0  0  0  0  0  0  0  0  0
  153.1548  139.3832  159.2146 C   0  0  0  0  0  0  0  0  0  0  0  0
  153.9923  139.5841  158.3340 O   0  0  0  0  0  0  0  0  0  0  0  0
  152.2397  138.4036  159.1471 N   0  0  0  0  0  0  0  0  0  0  0  0
  152.0839  137.4530  158.0457 C   0  0  0  0  0  0  0  0  0  0  0  0
  150.6627  137.4556  157.4021 C   0  0  0  0  0  0  0  0  0  0  0  0
  150.3940  136.0288  156.8534 C   0  0  0  0  0  0  0  0  0  0  0  0
  149.5789  137.7632  158.4648 C   0  0  0  0  0  0  0  0  0  0  0  0
  150.6417  138.4798  156.2921 N   0  3  0  0  0  0  0  0  0  0  0  0
  151.0710  139.8608  156.6578 C   0  0  0  0  0  0  0  0  0  0  0  0
  150.8682  140.8308  155.4799 C   0  0  0  0  0  0  0  0  0  0  0  0
  151.5630  140.3630  154.3338 O   0  0  0  0  0  0  0  0  0  0  0  0
  151.0833  139.0941  153.9162 C   0  0  0  0  0  0  0  0  0  0  0  0
  151.3293  138.0685  155.0335 C   0  0  0  0  0  0  0  0  0  0  0  0
  152.8275  142.0623  158.8605 N   0  0  0  0  0  0  0  0  0  0  0  0
  152.3978  145.2101  157.8195 H   0  0  0  0  0  0  0  0  0  0  0  0
  151.6983  143.7966  157.0368 H   0  0  0  0  0  0  0  0  0  0  0  0
  153.4430  144.0448  157.0135 H   0  0  0  0  0  0  0  0  0  0  0  0
  152.5414  144.8908  160.5755 H   0  0  0  0  0  0  0  0  0  0  0  0
  152.8123  143.5905  162.9859 H   0  0  0  0  0  0  0  0  0  0  0  0
  153.7935  142.1367  162.8106 H   0  0  0  0  0  0  0  0  0  0  0  0
  152.0328  142.0140  162.8661 H   0  0  0  0  0  0  0  0  0  0  0  0
  154.0058  140.1539  161.0484 H   0  0  0  0  0  0  0  0  0  0  0  0
  152.2678  139.9319  161.0984 H   0  0  0  0  0  0  0  0  0  0  0  0
  151.5901  138.3165  159.9154 H   0  0  0  0  0  0  0  0  0  0  0  0
  152.8626  137.6417  157.3082 H   0  0  0  0  0  0  0  0  0  0  0  0
  152.2987  136.4611  158.4448 H   0  0  0  0  0  0  0  0  0  0  0  0
  150.5030  135.2657  157.6240 H   0  0  0  0  0  0  0  0  0  0  0  0
  151.0830  135.7733  156.0477 H   0  0  0  0  0  0  0  0  0  0  0  0
  149.3762  135.9162  156.4794 H   0  0  0  0  0  0  0  0  0  0  0  0
  149.4936  136.9564  159.1933 H   0  0  0  0  0  0  0  0  0  0  0  0
  148.5939  137.8848  158.0141 H   0  0  0  0  0  0  0  0  0  0  0  0
  149.8029  138.6695  159.0279 H   0  0  0  0  0  0  0  0  0  0  0  0
  150.4910  140.2555  157.4903 H   0  0  0  0  0  0  0  0  0  0  0  0
  152.1182  139.8570  156.9620 H   0  0  0  0  0  0  0  0  0  0  0  0
  149.8075  140.9480  155.2516 H   0  0  0  0  0  0  0  0  0  0  0  0
  151.2461  141.8197  155.7403 H   0  0  0  0  0  0  0  0  0  0  0  0
  150.0241  139.1512  153.6596 H   0  0  0  0  0  0  0  0  0  0  0  0
  151.6146  138.7984  153.0115 H   0  0  0  0  0  0  0  0  0  0  0  0
  152.4039  137.9875  155.2008 H   0  0  0  0  0  0  0  0  0  0  0  0
  150.9888  137.0958  154.6861 H   0  0  0  0  0  0  0  0  0  0  0  0
  149.6654  138.5730  156.0504 H   0  0  0  0  0  0  0  0  0  0  0  0
  1  2  1  0  0  0  0
  1 22  1  0  0  0  0
  1 23  1  0  0  0  0
  1 24  1  0  0  0  0
  2 21  2  0  0  0  0
  2  3  1  0  0  0  0
  3  4  2  0  0  0  0
  3 25  1  0  0  0  0
  4  5  1  0  0  0  0
  4  6  1  0  0  0  0
  5 26  1  0  0  0  0
  5 27  1  0  0  0  0
  5 28  1  0  0  0  0
  6  7  1  0  0  0  0
  6 21  1  0  0  0  0
  7  8  1  0  0  0  0
  7 29  1  0  0  0  0
  7 30  1  0  0  0  0
  8  9  2  0  0  0  0
  8 10  1  0  0  0  0
 10 11  1  0  0  0  0
 10 31  1  0  0  0  0
 11 12  1  0  0  0  0
 11 32  1  0  0  0  0
 11 33  1  0  0  0  0
 12 13  1  0  0  0  0
 12 14  1  0  0  0  0
 12 15  1  0  0  0  0
 13 34  1  0  0  0  0
 13 35  1  0  0  0  0
 13 36  1  0  0  0  0
 14 37  1  0  0  0  0
 14 38  1  0  0  0  0
 14 39  1  0  0  0  0
 15 20  1  0  0  0  0
 15 16  1  0  0  0  0
 15 48  1  0  0  0  0
 16 17  1  0  0  0  0
 16 40  1  0  0  0  0
 16 41  1  0  0  0  0
 17 18  1  0  0  0  0
 17 42  1  0  0  0  0
 17 43  1  0  0  0  0
 18 19  1  0  0  0  0
 19 20  1  0  0  0  0
 19 44  1  0  0  0  0
 19 45  1  0  0  0  0
 20 46  1  0  0  0  0
 20 47  1  0  0  0  0
M  CHG  1  15   1
M  END
> <s_m_source_file>
AV-unprocessed.smi

> <i_m_source_file_index>
1998

> <i_lp_mmshare_version>
43012

> <i_f3d_flags>
0

> <s_epik_input>
W0NIM11jMVtjSF1jKFtDSDNdKW4objEpW0NIMl1DKD1PKVtOSF1bQ0gyXUMoW0NIM10pKFtDSDNdKU4yW0NIMl1bQ0gyXU9bQ0gyXVtDSDJdMg==

> <s_epik_cmdline>
J2VwaWtfcHl0aG9uJywgJy1waCcsICc3LjAnLCAnLXRuJywgJzgnLCAnLW1hJywgJzIwMCcsICctbWV0YWxfYmluZGluZycsICctaW1hZScsICc8aW5maWxlLm1hZT4nLCAnLW9tYWUnLCAnPG91dGZpbGUubWFlPic=

> <r_lp_tautomer_probability>
1

> <r_epik_Ionization_Penalty>
0.748602

> <r_epik_Ionization_Penalty_Charging>
0.748396

> <r_epik_Ionization_Penalty_Neutral>
0.000205295

> <r_epik_State_Penalty>
0.775162

> <r_epik_Charging_Adjusted_Penalty>
1.52356

> <i_epik_Tot_Q>
1

> <i_epik_Tot_abs_Q>
1

> <r_epik_Metal_State_Penalty>
0.775274

> <b_epik_Metal_Only>
0

> <s_lp_Force_Field>
OPLS_2005

> <r_lp_Energy>
25.5475

> <b_lp_Chiralities_Consistent>
1

> <s_lp_Variant>
AV-unprocessed.smi:1998-2

> <Gold.Version>
5.8.1

> <Gold.Id.Protein>
6NUR|6NUR_protein|mol2

> <Gold.PLP.Fitness>
44.8688

> <Gold.PLP.PLP>
-40.3389

> <Gold.PLP.part.hbond>
-1.8012

> <Gold.PLP.part.metal>
0.0000

> <Gold.PLP.part.buried>
-5.4274

> <Gold.PLP.part.nonpolar>
-34.2730

> <Gold.PLP.part.repulsive>
0.1935

> <Gold.PLP.ligand.clash>
0.0000

> <Gold.PLP.ligand.torsion>
0.7847

> <Gold.PLP.Chemscore.Hbond>
1.9913

> <Gold.PLP.Chemscore.CHOScore>
0.0000

> <Gold.PLP.Chemscore.Metal>
0.0000

> <Gold.Chemscore.Hbonds>
donor molecule, donor type, donor heavy atom, donor atom, acceptor molecule, acceptor atom, score
      P1  H  7997  8009       L1     9  0.83

> <Gold.PLP.Chemscore.Internal.Correction>
0.1256

> <Gold.Rescore>
     Score         DG    S(hbond)    S(metal)    S(lipo)     H(rot)  DE(clash)    DE(int)     intcor
     17.80     -20.01       1.97        0.00     105.86       1.74       0.06       2.14       ----

> <Gold.Chemscore.Fitness>
17.8027

> <Gold.Chemscore.DG>
-20.0073

> <Gold.Chemscore.ZeroCoef>
-5.4800

> <Gold.Chemscore.Hbond>
1.9736

> <Gold.Chemscore.Metal>
0.0000

> <Gold.Chemscore.Lipo>
105.8604

> <Gold.Chemscore.Internal_Hbond>
0.0000

> <Gold.Chemscore.DEClash>
0.0631

> <Gold.Chemscore.DEInternal>
2.1416

> <Gold.Chemscore.Rot>
1.7383

> <Gold.Chemscore.Internal.Correction>
   9.000000E+99

> <Gold.Chemscore.Hbonds>
donor molecule, donor type, donor heavy atom, donor atom, acceptor molecule, acceptor atom, score
      P1  H  7997  8009       L1     9  0.82

> <Gold.Chemscore.Hbond.Weighted>
-6.5918

> <Gold.Chemscore.Metal.Weighted>
-0.0000

> <Gold.Chemscore.Lipo.Weighted>
-12.3857

> <Gold.Chemscore.Internal_Hbond.Weighted>
0.0000

> <Gold.Chemscore.DEClash.Weighted>
0.0631

> <Gold.Chemscore.DEInternal.Weighted>
2.1416

> <Gold.Chemscore.Rot.Weighted>
4.4501

> <Gold.Chemscore.Internal.Correction.Weighted>
   9.000000E+99

> <Gold.Protein.RotatedTorsions>
[ 6907 6896 6895 6894 ] final   20.96 input  -60.11 | X-H torsion
[ 7974 7965 7964 7962 ] final -149.22 input  175.53 | X-H torsion
[ 8008 7997 7996 7995 ] final  133.47 input   59.86 | X-H torsion
[ 10167 10162 10161 10158 ] final  152.73 input  -65.29 | X-H torsion
[ 10718 10713 10712 10709 ] final  133.57 input   66.30 | X-H torsion
[ 10763 10752 10751 10750 ] final   27.55 input  -60.55 | X-H torsion
[ 11005 11000 10999 10996 ] final  146.61 input  -57.11 | X-H torsion

> <Gold.Protein.ActiveResidues>
 VAL166  LYS551  ARG553  GLY616  TRP617  ASP618  TYR619  PRO620  LYS621  CYS622 
 ASP623  PHE694  ASN695  SER759  ASP760  ASP761  ALA762  ILE779  LEU786  VAL792 
 PHE793  MET794  SER795  GLU796  ALA797  LYS798  CYS799  TRP800  GLU811  SER814 

> <Gold.Protein.RotatedAtoms>
  151.9044  135.0365  160.0508 H   0  0  0  0  0  0  0  0  0  0  0  0  # atno 6907 bound_to 6896
  152.2331  133.5070  159.5235 H   0  0  0  0  0  0  0  0  0  0  0  0  # atno 6908 bound_to 6896
  150.7031  134.1106  159.4041 H   0  0  0  0  0  0  0  0  0  0  0  0  # atno 6909 bound_to 6896
  144.7981  140.5094  143.5726 H   0  0  0  0  0  0  0  0  0  0  0  0  # atno 7974 bound_to 7965
  156.2992  140.2520  156.3258 H   0  0  0  0  0  0  0  0  0  0  0  0  # atno 8008 bound_to 7997
  154.9192  140.0401  157.2008 H   0  0  0  0  0  0  0  0  0  0  0  0  # atno 8009 bound_to 7997
  154.8328  140.2878  155.5715 H   0  0  0  0  0  0  0  0  0  0  0  0  # atno 8010 bound_to 7997
  139.4831  144.5333  151.7686 H   0  0  0  0  0  0  0  0  0  0  0  0  # atno 10167 bound_to 10162
  157.4760  131.1083  150.9743 H   0  0  0  0  0  0  0  0  0  0  0  0  # atno 10718 bound_to 10713
  153.0549  135.6534  154.0603 H   0  0  0  0  0  0  0  0  0  0  0  0  # atno 10763 bound_to 10752
  154.0283  135.2914  155.3373 H   0  0  0  0  0  0  0  0  0  0  0  0  # atno 10764 bound_to 10752
  154.6858  135.5302  153.8391 H   0  0  0  0  0  0  0  0  0  0  0  0  # atno 10765 bound_to 10752
  140.0807  134.9099  157.1496 H   0  0  0  0  0  0  0  0  0  0  0  0  # atno 11005 bound_to 11000
  145.5622  139.1480  143.3335 LP  0  0  0  0  0  0  0  0  0  0  0  0  # atno 17320 bound_to 7965
  146.2255  140.5758  142.8998 LP  0  0  0  0  0  0  0  0  0  0  0  0  # atno 17321 bound_to 7965
  140.4862  144.1377  150.5941 LP  0  0  0  0  0  0  0  0  0  0  0  0  # atno 17342 bound_to 10162
  140.4222  143.2606  151.9701 LP  0  0  0  0  0  0  0  0  0  0  0  0  # atno 17343 bound_to 10162
  157.0492  130.5780  149.5368 LP  0  0  0  0  0  0  0  0  0  0  0  0  # atno 17370 bound_to 10713
  156.0097  130.5187  150.7947 LP  0  0  0  0  0  0  0  0  0  0  0  0  # atno 17371 bound_to 10713
  140.3492  134.2618  155.7201 LP  0  0  0  0  0  0  0  0  0  0  0  0  # atno 17394 bound_to 11000
  141.2045  133.7883  157.0281 LP  0  0  0  0  0  0  0  0  0  0  0  0  # atno 17395 bound_to 11000

$$$$
