AV-unprocessed.smi:832|AV-procd|sdf|3877|dock3
  -GOLD-   22720 1333D 1   1.00000     0.00000
 Structure written by MMmdl.
 42 43  0  0  0  0  0  0  0  0  2 V2000
  150.7215  142.0394  156.8223 C   0  0  0  0  0  0  0  0  0  0  0  0
  150.4062  140.9648  155.8390 C   0  0  0  0  0  0  0  0  0  0  0  0
  149.2331  140.4950  155.3195 C   0  0  0  0  0  0  0  0  0  0  0  0
  149.6657  139.4623  154.4373 C   0  0  0  0  0  0  0  0  0  0  0  0
  148.8348  138.6401  153.6331 N   0  0  0  0  0  0  0  0  0  0  0  0
  147.4986  138.6827  153.4979 C   0  0  0  0  0  0  0  0  0  0  0  0
  146.7469  139.4679  154.0753 O   0  0  0  0  0  0  0  0  0  0  0  0
  147.0670  137.7462  152.6406 N   0  0  0  0  0  0  0  0  0  0  0  0
  145.6742  137.5429  152.2542 C   0  0  0  0  0  0  0  0  0  0  0  0
  145.3313  136.0537  152.0539 C   0  0  1  0  0  0  0  0  0  0  0  0
  143.9371  135.8098  151.4871 C   0  0  0  0  0  0  0  0  0  0  0  0
  144.0570  134.3988  150.9227 C   0  0  0  0  0  0  0  0  0  0  0  0
  145.4153  134.3283  150.3385 N   0  3  2  0  0  0  0  0  0  0  0  0
  145.9903  132.9597  150.2038 C   0  0  0  0  0  0  0  0  0  0  0  0
  145.2799  132.1684  149.0889 C   0  0  0  0  0  0  0  0  0  0  0  0
  145.9045  132.1700  151.5244 C   0  0  0  0  0  0  0  0  0  0  0  0
  146.2569  135.3006  151.0833 C   0  0  0  0  0  0  0  0  0  0  0  0
  150.9780  139.3179  154.4277 N   0  0  0  0  0  0  0  0  0  0  0  0
  151.4614  140.2789  155.3233 O   0  0  0  0  0  0  0  0  0  0  0  0
  149.8514  142.6717  156.9998 H   0  0  0  0  0  0  0  0  0  0  0  0
  151.5303  142.6732  156.4586 H   0  0  0  0  0  0  0  0  0  0  0  0
  151.0288  141.6108  157.7762 H   0  0  0  0  0  0  0  0  0  0  0  0
  148.2378  140.8464  155.5454 H   0  0  0  0  0  0  0  0  0  0  0  0
  149.3198  137.9424  153.0882 H   0  0  0  0  0  0  0  0  0  0  0  0
  147.7532  137.1454  152.2071 H   0  0  0  0  0  0  0  0  0  0  0  0
  145.0171  137.9836  153.0059 H   0  0  0  0  0  0  0  0  0  0  0  0
  145.4974  138.0951  151.3307 H   0  0  0  0  0  0  0  0  0  0  0  0
  145.3772  135.5460  153.0189 H   0  0  0  0  0  0  0  0  0  0  0  0
  143.1521  135.8993  152.2387 H   0  0  0  0  0  0  0  0  0  0  0  0
  143.7202  136.5156  150.6838 H   0  0  0  0  0  0  0  0  0  0  0  0
  143.9647  133.6743  151.7339 H   0  0  0  0  0  0  0  0  0  0  0  0
  143.2851  134.1835  150.1833 H   0  0  0  0  0  0  0  0  0  0  0  0
  147.0444  133.0592  149.9388 H   0  0  0  0  0  0  0  0  0  0  0  0
  145.6902  131.1618  149.0032 H   0  0  0  0  0  0  0  0  0  0  0  0
  145.3910  132.6385  148.1120 H   0  0  0  0  0  0  0  0  0  0  0  0
  144.2127  132.0717  149.2918 H   0  0  0  0  0  0  0  0  0  0  0  0
  146.2820  131.1549  151.3965 H   0  0  0  0  0  0  0  0  0  0  0  0
  144.8750  132.0963  151.8769 H   0  0  0  0  0  0  0  0  0  0  0  0
  146.4984  132.6271  152.3157 H   0  0  0  0  0  0  0  0  0  0  0  0
  146.7161  135.9769  150.3615 H   0  0  0  0  0  0  0  0  0  0  0  0
  147.0604  134.8171  151.6406 H   0  0  0  0  0  0  0  0  0  0  0  0
  145.3284  134.7006  149.4035 H   0  0  0  0  0  0  0  0  0  0  0  0
  1  2  1  0  0  0  0
  1 20  1  0  0  0  0
  1 21  1  0  0  0  0
  1 22  1  0  0  0  0
  2 19  1  0  0  0  0
  2  3  2  0  0  0  0
  3  4  1  0  0  0  0
  3 23  1  0  0  0  0
  4  5  1  0  0  0  0
  4 18  2  0  0  0  0
  5  6  1  0  0  0  0
  5 24  1  0  0  0  0
  6  7  2  0  0  0  0
  6  8  1  0  0  0  0
  8  9  1  0  0  0  0
  8 25  1  0  0  0  0
  9 10  1  0  0  0  0
  9 26  1  0  0  0  0
  9 27  1  0  0  0  0
 10 17  1  0  0  0  0
 10 11  1  0  0  0  0
 10 28  1  0  0  0  0
 11 12  1  0  0  0  0
 11 29  1  0  0  0  0
 11 30  1  0  0  0  0
 12 13  1  0  0  0  0
 12 31  1  0  0  0  0
 12 32  1  0  0  0  0
 13 14  1  0  0  0  0
 13 17  1  0  0  0  0
 13 42  1  0  0  0  0
 14 15  1  0  0  0  0
 14 16  1  0  0  0  0
 14 33  1  0  0  0  0
 15 34  1  0  0  0  0
 15 35  1  0  0  0  0
 15 36  1  0  0  0  0
 16 37  1  0  0  0  0
 16 38  1  0  0  0  0
 16 39  1  0  0  0  0
 17 40  1  0  0  0  0
 17 41  1  0  0  0  0
 18 19  1  0  0  0  0
M  CHG  1  13   1
M  END
> <s_m_source_file>
AV-unprocessed.smi

> <i_m_source_file_index>
832

> <i_lp_mmshare_version>
43012

> <i_f3d_flags>
0

> <s_epik_input>
W0NIM11jMVtjSF1jKG5vMSlbTkhdQyg9TylbTkhdW0NIMl1bQ0BASF0yW0NIMl1bQ0gyXU4oW0NIMl0yKVtDSF0oW0NIM10pW0NIM10=

> <s_epik_cmdline>
J2VwaWtfcHl0aG9uJywgJy1waCcsICc3LjAnLCAnLXRuJywgJzgnLCAnLW1hJywgJzIwMCcsICctbWV0YWxfYmluZGluZycsICctaW1hZScsICc8aW5maWxlLm1hZT4nLCAnLW9tYWUnLCAnPG91dGZpbGUubWFlPic=

> <r_lp_tautomer_probability>
1

> <r_epik_Ionization_Penalty>
0.000242791

> <r_epik_Ionization_Penalty_Charging>
0.000220876

> <r_epik_Ionization_Penalty_Neutral>
2.19143e-05

> <r_epik_State_Penalty>
-0

> <r_epik_Charging_Adjusted_Penalty>
0.000220876

> <i_epik_Tot_Q>
1

> <i_epik_Tot_abs_Q>
1

> <r_epik_Metal_State_Penalty>
-0

> <b_epik_Metal_Only>
0

> <s_lp_Force_Field>
OPLS_2005

> <r_lp_Energy>
29.9722

> <b_lp_Chiralities_Consistent>
1

> <s_lp_Variant>
AV-unprocessed.smi:832-2

> <Gold.Version>
5.8.1

> <Gold.Id.Protein>
6NUR|6NUR_protein|mol2

> <Gold.PLP.Fitness>
41.0902

> <Gold.PLP.PLP>
-33.7238

> <Gold.PLP.part.hbond>
-5.9971

> <Gold.PLP.part.metal>
0.0000

> <Gold.PLP.part.buried>
-3.3844

> <Gold.PLP.part.nonpolar>
-26.0372

> <Gold.PLP.part.repulsive>
0.4792

> <Gold.PLP.ligand.clash>
0.0000

> <Gold.PLP.ligand.torsion>
0.3664

> <Gold.PLP.Chemscore.Hbond>
2.6920

> <Gold.PLP.Chemscore.CHOScore>
0.0000

> <Gold.PLP.Chemscore.Metal>
0.0000

> <Gold.Chemscore.Hbonds>
donor molecule, donor type, donor heavy atom, donor atom, acceptor molecule, acceptor atom, score
      L1  H     5    24       P1  7948  0.69
      L1  H     8    25       P1  7948  1.00
      L1  H    13    42       P1  7921  0.91

> <Gold.PLP.Chemscore.Internal.Correction>
0.0231

> <Gold.Rescore>
     Score         DG    S(hbond)    S(metal)    S(lipo)     H(rot)  DE(clash)    DE(int)     intcor
     17.22     -19.64       2.69        0.00      77.33       1.51       0.91       1.51       ----

> <Gold.Chemscore.Fitness>
17.2249

> <Gold.Chemscore.DG>
-19.6373

> <Gold.Chemscore.ZeroCoef>
-5.4800

> <Gold.Chemscore.Hbond>
2.6907

> <Gold.Chemscore.Metal>
0.0000

> <Gold.Chemscore.Lipo>
77.3306

> <Gold.Chemscore.Internal_Hbond>
0.0000

> <Gold.Chemscore.DEClash>
0.9064

> <Gold.Chemscore.DEInternal>
1.5059

> <Gold.Chemscore.Rot>
1.5146

> <Gold.Chemscore.Internal.Correction>
   9.000000E+99

> <Gold.Chemscore.Hbonds>
donor molecule, donor type, donor heavy atom, donor atom, acceptor molecule, acceptor atom, score
      L1  H     5    24       P1  7948  0.66
      L1  H     8    25       P1  7948  0.93
      L1  H    13    42       P1  7921  0.88

> <Gold.Chemscore.Hbond.Weighted>
-8.9870

> <Gold.Chemscore.Metal.Weighted>
-0.0000

> <Gold.Chemscore.Lipo.Weighted>
-9.0477

> <Gold.Chemscore.Internal_Hbond.Weighted>
0.0000

> <Gold.Chemscore.DEClash.Weighted>
0.9064

> <Gold.Chemscore.DEInternal.Weighted>
1.5059

> <Gold.Chemscore.Rot.Weighted>
3.8774

> <Gold.Chemscore.Internal.Correction.Weighted>
   9.000000E+99

> <Gold.Protein.RotatedTorsions>
[ 6907 6896 6895 6894 ] final   -7.71 input  -60.11 | X-H torsion
[ 7974 7965 7964 7962 ] final  104.17 input  175.53 | X-H torsion
[ 8008 7997 7996 7995 ] final -136.87 input   59.86 | X-H torsion
[ 10167 10162 10161 10158 ] final  -17.12 input  -65.29 | X-H torsion
[ 10718 10713 10712 10709 ] final  118.33 input   66.30 | X-H torsion
[ 10763 10752 10751 10750 ] final -147.58 input  -60.55 | X-H torsion
[ 11005 11000 10999 10996 ] final   49.65 input  -57.11 | X-H torsion

> <Gold.Protein.ActiveResidues>
 VAL166  LYS551  ARG553  GLY616  TRP617  ASP618  TYR619  PRO620  LYS621  CYS622 
 ASP623  PHE694  ASN695  SER759  ASP760  ASP761  ALA762  ILE779  LEU786  VAL792 
 PHE793  MET794  SER795  GLU796  ALA797  LYS798  CYS799  TRP800  GLU811  SER814 

> <Gold.Protein.RotatedAtoms>
  151.4453  135.1024  159.9681 H   0  0  0  0  0  0  0  0  0  0  0  0  # atno 6907 bound_to 6896
  152.4908  133.8491  159.7202 H   0  0  0  0  0  0  0  0  0  0  0  0  # atno 6908 bound_to 6896
  150.9060  133.6999  159.2894 H   0  0  0  0  0  0  0  0  0  0  0  0  # atno 6909 bound_to 6896
  145.3362  139.2474  143.3634 H   0  0  0  0  0  0  0  0  0  0  0  0  # atno 7974 bound_to 7965
  155.4023  140.0507  157.3036 H   0  0  0  0  0  0  0  0  0  0  0  0  # atno 8008 bound_to 7997
  154.4985  140.2147  155.9357 H   0  0  0  0  0  0  0  0  0  0  0  0  # atno 8009 bound_to 7997
  156.1436  140.3149  155.8540 H   0  0  0  0  0  0  0  0  0  0  0  0  # atno 8010 bound_to 7997
  140.7243  143.5047  150.9825 H   0  0  0  0  0  0  0  0  0  0  0  0  # atno 10167 bound_to 10162
  157.6037  131.1047  150.7741 H   0  0  0  0  0  0  0  0  0  0  0  0  # atno 10718 bound_to 10713
  154.8278  135.3356  154.6841 H   0  0  0  0  0  0  0  0  0  0  0  0  # atno 10763 bound_to 10752
  153.7464  135.6942  153.4960 H   0  0  0  0  0  0  0  0  0  0  0  0  # atno 10764 bound_to 10752
  153.2207  135.4450  155.0437 H   0  0  0  0  0  0  0  0  0  0  0  0  # atno 10765 bound_to 10752
  140.1085  134.4987  155.8699 H   0  0  0  0  0  0  0  0  0  0  0  0  # atno 11005 bound_to 11000
  146.3026  140.3950  142.8699 LP  0  0  0  0  0  0  0  0  0  0  0  0  # atno 17320 bound_to 7965
  144.8825  140.7419  143.5977 LP  0  0  0  0  0  0  0  0  0  0  0  0  # atno 17321 bound_to 7965
  139.8758  143.7135  152.3162 LP  0  0  0  0  0  0  0  0  0  0  0  0  # atno 17342 bound_to 10162
  139.7399  144.7562  151.0668 LP  0  0  0  0  0  0  0  0  0  0  0  0  # atno 17343 bound_to 10162
  156.8134  130.4960  149.5353 LP  0  0  0  0  0  0  0  0  0  0  0  0  # atno 17370 bound_to 10713
  156.1118  130.6045  151.0058 LP  0  0  0  0  0  0  0  0  0  0  0  0  # atno 17371 bound_to 10713
  141.2124  133.6719  156.6658 LP  0  0  0  0  0  0  0  0  0  0  0  0  # atno 17394 bound_to 11000
  140.3123  134.8075  157.4186 LP  0  0  0  0  0  0  0  0  0  0  0  0  # atno 17395 bound_to 11000

$$$$
