AV-unprocessed.smi:2994|AV-procd|sdf|11405|dock5
  -GOLD-   2272016333D 1   1.00000     0.00000
 Structure written by MMmdl.
 47 49  0  0  0  0  0  0  0  0  1 V2000
  149.8318  132.3156  154.1261 C   0  0  0  0  0  0  0  0  0  0  0  0
  148.7254  133.3156  153.7620 C   0  0  1  0  0  0  0  0  0  0  0  0
  149.2834  134.6638  153.8039 N   0  0  0  0  0  0  0  0  0  0  0  0
  149.8496  135.2387  154.8747 C   0  0  0  0  0  0  0  0  0  0  0  0
  149.9629  134.6779  155.9639 O   0  0  0  0  0  0  0  0  0  0  0  0
  150.2564  136.4879  154.5901 N   0  0  0  0  0  0  0  0  0  0  0  0
  150.9083  137.4400  155.4222 C   0  0  0  0  0  0  0  0  0  0  0  0
  151.3908  138.7001  154.9925 C   0  0  0  0  0  0  0  0  0  0  0  0
  152.0092  139.5483  155.9308 C   0  0  0  0  0  0  0  0  0  0  0  0
  152.1148  139.1198  157.2729 C   0  0  0  0  0  0  0  0  0  0  0  0
  152.7855  139.9862  158.2991 C   0  0  0  0  0  0  0  0  0  0  0  0
  153.9296  139.6987  158.6538 O   0  0  0  0  0  0  0  0  0  0  0  0
  152.1052  141.0545  158.7871 N   0  0  0  0  0  0  0  0  0  0  0  0
  152.6848  142.1698  159.5534 C   0  0  0  0  0  0  0  0  0  0  0  0
  152.7334  143.4221  158.6583 C   0  0  0  0  0  0  0  0  0  0  0  0
  151.3386  143.7629  158.1027 C   0  0  0  0  0  0  0  0  0  0  0  0
  150.6736  142.5350  157.4554 C   0  0  0  0  0  0  0  0  0  0  0  0
  150.7120  141.3273  158.4089 C   0  0  0  0  0  0  0  0  0  0  0  0
  151.6645  137.9150  157.6874 N   0  0  0  0  0  0  0  0  0  0  0  0
  151.0744  137.1065  156.7826 C   0  0  0  0  0  0  0  0  0  0  0  0
  148.0949  132.9618  152.4251 C   0  0  0  0  0  0  0  0  0  0  0  0
  146.6572  133.3073  152.1154 C   0  0  0  0  0  0  0  0  0  0  0  0
  147.0612  131.8654  152.3201 C   0  0  0  0  0  0  0  0  0  0  0  0
  149.4443  131.2969  154.1610 H   0  0  0  0  0  0  0  0  0  0  0  0
  150.2572  132.5375  155.1055 H   0  0  0  0  0  0  0  0  0  0  0  0
  150.6429  132.3372  153.3971 H   0  0  0  0  0  0  0  0  0  0  0  0
  147.9538  133.2370  154.5306 H   0  0  0  0  0  0  0  0  0  0  0  0
  149.2308  135.2009  152.9507 H   0  0  0  0  0  0  0  0  0  0  0  0
  150.0564  136.8090  153.6541 H   0  0  0  0  0  0  0  0  0  0  0  0
  151.3001  139.0425  153.9747 H   0  0  0  0  0  0  0  0  0  0  0  0
  152.3897  140.5117  155.6238 H   0  0  0  0  0  0  0  0  0  0  0  0
  152.0670  142.3597  160.4322 H   0  0  0  0  0  0  0  0  0  0  0  0
  153.6854  141.9740  159.9337 H   0  0  0  0  0  0  0  0  0  0  0  0
  153.1281  144.2696  159.2193 H   0  0  0  0  0  0  0  0  0  0  0  0
  153.4239  143.2501  157.8313 H   0  0  0  0  0  0  0  0  0  0  0  0
  150.7084  144.1218  158.9173 H   0  0  0  0  0  0  0  0  0  0  0  0
  151.4076  144.5787  157.3827 H   0  0  0  0  0  0  0  0  0  0  0  0
  149.6438  142.7677  157.1835 H   0  0  0  0  0  0  0  0  0  0  0  0
  151.1905  142.2841  156.5280 H   0  0  0  0  0  0  0  0  0  0  0  0
  150.2263  140.4685  157.9433 H   0  0  0  0  0  0  0  0  0  0  0  0
  150.1316  141.5413  159.3075 H   0  0  0  0  0  0  0  0  0  0  0  0
  150.7231  136.1574  157.1603 H   0  0  0  0  0  0  0  0  0  0  0  0
  148.7887  133.0274  151.5888 H   0  0  0  0  0  0  0  0  0  0  0  0
  146.0648  133.7761  152.8986 H   0  0  0  0  0  0  0  0  0  0  0  0
  146.4270  133.6283  151.1016 H   0  0  0  0  0  0  0  0  0  0  0  0
  147.0975  131.2230  151.4427 H   0  0  0  0  0  0  0  0  0  0  0  0
  146.7397  131.3812  153.2401 H   0  0  0  0  0  0  0  0  0  0  0  0
  1  2  1  0  0  0  0
  1 24  1  0  0  0  0
  1 25  1  0  0  0  0
  1 26  1  0  0  0  0
  2  3  1  0  0  0  0
  2 21  1  0  0  0  0
  2 27  1  0  0  0  0
  3  4  1  0  0  0  0
  3 28  1  0  0  0  0
  4  5  2  0  0  0  0
  4  6  1  0  0  0  0
  6  7  1  0  0  0  0
  6 29  1  0  0  0  0
  7 20  1  0  0  0  0
  7  8  2  0  0  0  0
  8  9  1  0  0  0  0
  8 30  1  0  0  0  0
  9 10  2  0  0  0  0
  9 31  1  0  0  0  0
 10 11  1  0  0  0  0
 10 19  1  0  0  0  0
 11 12  2  0  0  0  0
 11 13  1  0  0  0  0
 13 18  1  0  0  0  0
 13 14  1  0  0  0  0
 14 15  1  0  0  0  0
 14 32  1  0  0  0  0
 14 33  1  0  0  0  0
 15 16  1  0  0  0  0
 15 34  1  0  0  0  0
 15 35  1  0  0  0  0
 16 17  1  0  0  0  0
 16 36  1  0  0  0  0
 16 37  1  0  0  0  0
 17 18  1  0  0  0  0
 17 38  1  0  0  0  0
 17 39  1  0  0  0  0
 18 40  1  0  0  0  0
 18 41  1  0  0  0  0
 19 20  2  0  0  0  0
 20 42  1  0  0  0  0
 21 23  1  0  0  0  0
 21 22  1  0  0  0  0
 21 43  1  0  0  0  0
 22 23  1  0  0  0  0
 22 44  1  0  0  0  0
 22 45  1  0  0  0  0
 23 46  1  0  0  0  0
 23 47  1  0  0  0  0
M  END
> <s_m_source_file>
AV-unprocessed.smi

> <i_m_source_file_index>
2994

> <i_lp_mmshare_version>
43012

> <i_f3d_flags>
0

> <s_epik_input>
W0NIMl0xW0NIMl1bQ0hdMVtDQEhdKFtDSDNdKVtOSF1DKD1PKVtOSF1jMltjSF1bY0hdYyhuW2NIXTIpQyg9TylOM1tDSDJdW0NIMl1bQ0gyXVtDSDJdW0NIMl0z

> <s_epik_cmdline>
J2VwaWtfcHl0aG9uJywgJy1waCcsICc3LjAnLCAnLXRuJywgJzgnLCAnLW1hJywgJzIwMCcsICctbWV0YWxfYmluZGluZycsICctaW1hZScsICc8aW5maWxlLm1hZT4nLCAnLW9tYWUnLCAnPG91dGZpbGUubWFlPic=

> <r_lp_tautomer_probability>
1

> <r_epik_Ionization_Penalty>
4.52104e-05

> <r_epik_Ionization_Penalty_Charging>
0

> <r_epik_Ionization_Penalty_Neutral>
4.52104e-05

> <r_epik_State_Penalty>
-0

> <r_epik_Charging_Adjusted_Penalty>
0

> <i_epik_Tot_Q>
0

> <i_epik_Tot_abs_Q>
0

> <r_epik_Metal_State_Penalty>
-0

> <b_epik_Metal_Only>
0

> <s_lp_Force_Field>
OPLS_2005

> <r_lp_Energy>
45.5302

> <b_lp_Chiralities_Consistent>
1

> <s_lp_Variant>
AV-unprocessed.smi:2994-2

> <Gold.Version>
5.8.1

> <Gold.Id.Protein>
6NUR|6NUR_protein|mol2

> <Gold.PLP.Fitness>
47.5621

> <Gold.PLP.PLP>
-41.7827

> <Gold.PLP.part.hbond>
-3.0000

> <Gold.PLP.part.metal>
0.0000

> <Gold.PLP.part.buried>
-2.7132

> <Gold.PLP.part.nonpolar>
-36.1343

> <Gold.PLP.part.repulsive>
0.0860

> <Gold.PLP.ligand.clash>
0.0000

> <Gold.PLP.ligand.torsion>
1.9980

> <Gold.PLP.Chemscore.Hbond>
2.5792

> <Gold.PLP.Chemscore.CHOScore>
0.0000

> <Gold.PLP.Chemscore.Metal>
0.0000

> <Gold.Chemscore.Hbonds>
donor molecule, donor type, donor heavy atom, donor atom, acceptor molecule, acceptor atom, score
      L1  H     3    28       P1  7948  0.52
      L1  H     6    29       P1  7948  0.58
      P1  H  7997  8008       L1    12  1.00

> <Gold.PLP.Chemscore.Internal.Correction>
2.0378

> <Gold.Rescore>
     Score         DG    S(hbond)    S(metal)    S(lipo)     H(rot)  DE(clash)    DE(int)     intcor
     18.33     -22.53       2.70        0.00      93.42       1.14       0.01       4.19       ----

> <Gold.Chemscore.Fitness>
18.3307

> <Gold.Chemscore.DG>
-22.5260

> <Gold.Chemscore.ZeroCoef>
-5.4800

> <Gold.Chemscore.Hbond>
2.7049

> <Gold.Chemscore.Metal>
0.0000

> <Gold.Chemscore.Lipo>
93.4165

> <Gold.Chemscore.Internal_Hbond>
0.0000

> <Gold.Chemscore.DEClash>
0.0077

> <Gold.Chemscore.DEInternal>
4.1876

> <Gold.Chemscore.Rot>
1.1399

> <Gold.Chemscore.Internal.Correction>
   9.000000E+99

> <Gold.Chemscore.Hbonds>
donor molecule, donor type, donor heavy atom, donor atom, acceptor molecule, acceptor atom, score
      L1  H     3    28       P1  7948  0.04
      L1  H     6    29       P1  7948  0.13
      P1  H  7997  8008       L1    12  0.67

> <Gold.Chemscore.Hbond.Weighted>
-9.0343

> <Gold.Chemscore.Metal.Weighted>
-0.0000

> <Gold.Chemscore.Lipo.Weighted>
-10.9297

> <Gold.Chemscore.Internal_Hbond.Weighted>
0.0000

> <Gold.Chemscore.DEClash.Weighted>
0.0077

> <Gold.Chemscore.DEInternal.Weighted>
4.1876

> <Gold.Chemscore.Rot.Weighted>
2.9180

> <Gold.Chemscore.Internal.Correction.Weighted>
   9.000000E+99

> <Gold.Protein.RotatedTorsions>
[ 6907 6896 6895 6894 ] final -116.93 input  -60.11 | X-H torsion
[ 7974 7965 7964 7962 ] final  -25.09 input  175.53 | X-H torsion
[ 8008 7997 7996 7995 ] final -118.11 input   59.86 | X-H torsion
[ 10167 10162 10161 10158 ] final  120.16 input  -65.29 | X-H torsion
[ 10718 10713 10712 10709 ] final  -80.98 input   66.30 | X-H torsion
[ 10763 10752 10751 10750 ] final   18.01 input  -60.55 | X-H torsion
[ 11005 11000 10999 10996 ] final   80.43 input  -57.11 | X-H torsion

> <Gold.Protein.ActiveResidues>
 VAL166  LYS551  ARG553  GLY616  TRP617  ASP618  TYR619  PRO620  LYS621  CYS622 
 ASP623  PHE694  ASN695  SER759  ASP760  ASP761  ALA762  ILE779  LEU786  VAL792 
 PHE793  MET794  SER795  GLU796  ALA797  LYS798  CYS799  TRP800  GLU811  SER814 

> <Gold.Protein.RotatedAtoms>
  150.8095  133.8448  159.3188 H   0  0  0  0  0  0  0  0  0  0  0  0  # atno 6907 bound_to 6896
  151.6237  135.1028  160.0116 H   0  0  0  0  0  0  0  0  0  0  0  0  # atno 6908 bound_to 6896
  152.4187  133.7040  159.6497 H   0  0  0  0  0  0  0  0  0  0  0  0  # atno 6909 bound_to 6896
  146.1513  140.4839  142.8610 H   0  0  0  0  0  0  0  0  0  0  0  0  # atno 7974 bound_to 7965
  155.0944  140.0395  157.2678 H   0  0  0  0  0  0  0  0  0  0  0  0  # atno 8008 bound_to 7997
  154.6807  140.2632  155.6886 H   0  0  0  0  0  0  0  0  0  0  0  0  # atno 8009 bound_to 7997
  156.2693  140.2779  156.1350 H   0  0  0  0  0  0  0  0  0  0  0  0  # atno 8010 bound_to 7997
  139.5999  144.7053  151.3086 H   0  0  0  0  0  0  0  0  0  0  0  0  # atno 10167 bound_to 10162
  156.0059  130.4590  150.3883 H   0  0  0  0  0  0  0  0  0  0  0  0  # atno 10718 bound_to 10713
  153.1287  135.6735  153.9214 H   0  0  0  0  0  0  0  0  0  0  0  0  # atno 10763 bound_to 10752
  153.8707  135.3070  155.3443 H   0  0  0  0  0  0  0  0  0  0  0  0  # atno 10764 bound_to 10752
  154.7688  135.4950  153.9688 H   0  0  0  0  0  0  0  0  0  0  0  0  # atno 10765 bound_to 10752
  139.9135  134.7920  156.1908 H   0  0  0  0  0  0  0  0  0  0  0  0  # atno 11005 bound_to 11000
  144.7908  140.6027  143.6543 LP  0  0  0  0  0  0  0  0  0  0  0  0  # atno 17320 bound_to 7965
  145.4815  139.1495  143.3759 LP  0  0  0  0  0  0  0  0  0  0  0  0  # atno 17321 bound_to 7965
  140.7242  143.7051  150.7813 LP  0  0  0  0  0  0  0  0  0  0  0  0  # atno 17342 bound_to 10162
  140.0626  143.5140  152.2620 LP  0  0  0  0  0  0  0  0  0  0  0  0  # atno 17343 bound_to 10162
  157.1959  131.0426  151.2676 LP  0  0  0  0  0  0  0  0  0  0  0  0  # atno 17370 bound_to 10713
  157.4019  130.7338  149.6773 LP  0  0  0  0  0  0  0  0  0  0  0  0  # atno 17371 bound_to 10713
  141.0585  133.6853  156.1906 LP  0  0  0  0  0  0  0  0  0  0  0  0  # atno 17394 bound_to 11000
  140.6699  134.4879  157.5587 LP  0  0  0  0  0  0  0  0  0  0  0  0  # atno 17395 bound_to 11000

$$$$
