AV-unprocessed.smi:3149|AV-procd|sdf|12006|dock2
  -GOLD-   2272017413D 1   1.00000     0.00000
 Structure written by MMmdl.
 37 38  0  0  0  0  0  0  0  0  1 V2000
  152.9325  137.5760  156.5547 C   0  0  0  0  0  0  0  0  0  0  0  0
  151.8320  138.6306  156.3211 C   0  0  1  0  0  0  0  0  0  0  0  0
  152.3994  139.9749  156.3910 N   0  0  0  0  0  0  0  0  0  0  0  0
  151.8466  140.7981  157.4721 C   0  0  0  0  0  0  0  0  0  0  0  0
  152.7304  140.7308  158.7198 C   0  0  0  0  0  0  0  0  0  0  0  0
  153.7069  139.9820  158.7438 O   0  0  0  0  0  0  0  0  0  0  0  0
  152.4487  141.6080  159.7708 N   0  0  0  0  0  0  0  0  0  0  0  0
  153.4976  142.0635  160.6700 C   0  0  0  0  0  0  0  0  0  0  0  0
  152.6540  143.3324  160.8335 C   0  0  0  0  0  0  0  0  0  0  0  0
  151.9281  142.9477  159.5405 C   0  0  0  0  0  0  0  0  0  0  0  0
  151.1032  138.4361  154.9632 C   0  0  1  0  0  0  0  0  0  0  0  0
  150.6088  136.9925  154.7418 C   0  0  0  0  0  0  0  0  0  0  0  0
  150.0515  139.4218  154.7210 N   0  0  0  0  0  0  0  0  0  0  0  0
  148.7432  139.1918  154.3457 C   0  0  0  0  0  0  0  0  0  0  0  0
  148.1340  140.4059  154.2085 C   0  0  0  0  0  0  0  0  0  0  0  0
  149.1637  141.3365  154.5182 C   0  0  0  0  0  0  0  0  0  0  0  0
  150.3085  140.7467  154.8190 N   0  0  0  0  0  0  0  0  0  0  0  0
  152.5426  136.5693  156.4026 H   0  0  0  0  0  0  0  0  0  0  0  0
  153.3207  137.6136  157.5721 H   0  0  0  0  0  0  0  0  0  0  0  0
  153.7737  137.7110  155.8740 H   0  0  0  0  0  0  0  0  0  0  0  0
  151.0818  138.5282  157.1069 H   0  0  0  0  0  0  0  0  0  0  0  0
  153.4075  139.9205  156.4325 H   0  0  0  0  0  0  0  0  0  0  0  0
  151.7436  141.8341  157.1466 H   0  0  0  0  0  0  0  0  0  0  0  0
  150.8503  140.4460  157.7388 H   0  0  0  0  0  0  0  0  0  0  0  0
  153.5986  141.4631  161.5745 H   0  0  0  0  0  0  0  0  0  0  0  0
  154.4528  142.2427  160.1720 H   0  0  0  0  0  0  0  0  0  0  0  0
  152.0094  143.3130  161.7140 H   0  0  0  0  0  0  0  0  0  0  0  0
  153.2233  144.2601  160.7681 H   0  0  0  0  0  0  0  0  0  0  0  0
  152.3435  143.4382  158.6584 H   0  0  0  0  0  0  0  0  0  0  0  0
  150.8411  143.0180  159.5907 H   0  0  0  0  0  0  0  0  0  0  0  0
  151.8528  138.6089  154.1892 H   0  0  0  0  0  0  0  0  0  0  0  0
  151.4294  136.2806  154.8348 H   0  0  0  0  0  0  0  0  0  0  0  0
  150.1834  136.8748  153.7450 H   0  0  0  0  0  0  0  0  0  0  0  0
  149.8426  136.7060  155.4628 H   0  0  0  0  0  0  0  0  0  0  0  0
  148.3585  138.1921  154.2068 H   0  0  0  0  0  0  0  0  0  0  0  0
  147.1099  140.6001  153.9266 H   0  0  0  0  0  0  0  0  0  0  0  0
  149.1150  142.4154  154.5301 H   0  0  0  0  0  0  0  0  0  0  0  0
  1  2  1  0  0  0  0
  1 18  1  0  0  0  0
  1 19  1  0  0  0  0
  1 20  1  0  0  0  0
  2  3  1  0  0  0  0
  2 11  1  0  0  0  0
  2 21  1  0  0  0  0
  3  4  1  0  0  0  0
  3 22  1  0  0  0  0
  4  5  1  0  0  0  0
  4 23  1  0  0  0  0
  4 24  1  0  0  0  0
  5  6  2  0  0  0  0
  5  7  1  0  0  0  0
  7 10  1  0  0  0  0
  7  8  1  0  0  0  0
  8  9  1  0  0  0  0
  8 25  1  0  0  0  0
  8 26  1  0  0  0  0
  9 10  1  0  0  0  0
  9 27  1  0  0  0  0
  9 28  1  0  0  0  0
 10 29  1  0  0  0  0
 10 30  1  0  0  0  0
 11 12  1  0  0  0  0
 11 13  1  0  0  0  0
 11 31  1  0  0  0  0
 12 32  1  0  0  0  0
 12 33  1  0  0  0  0
 12 34  1  0  0  0  0
 13 17  1  0  0  0  0
 13 14  1  0  0  0  0
 14 15  2  0  0  0  0
 14 35  1  0  0  0  0
 15 16  1  0  0  0  0
 15 36  1  0  0  0  0
 16 17  2  0  0  0  0
 16 37  1  0  0  0  0
M  END
> <s_m_source_file>
AV-unprocessed.smi

> <i_m_source_file_index>
3149

> <i_lp_mmshare_version>
43012

> <i_f3d_flags>
0

> <s_epik_input>
bjFbY0hdW2NIXVtjSF1uMVtDQEBIXShbQ0gzXSlbQ0BIXShbQ0gzXSlbTkhdW0NIMl1DKD1PKU4yW0NIMl1bQ0gyXVtDSDJdMg==

> <s_epik_cmdline>
J2VwaWtfcHl0aG9uJywgJy1waCcsICc3LjAnLCAnLXRuJywgJzgnLCAnLW1hJywgJzIwMCcsICctbWV0YWxfYmluZGluZycsICctaW1hZScsICc8aW5maWxlLm1hZT4nLCAnLW9tYWUnLCAnPG91dGZpbGUubWFlPic=

> <r_lp_tautomer_probability>
1

> <r_epik_Ionization_Penalty>
0.918674

> <r_epik_Ionization_Penalty_Charging>
0

> <r_epik_Ionization_Penalty_Neutral>
0.918674

> <r_epik_State_Penalty>
0.958258

> <r_epik_Charging_Adjusted_Penalty>
0.958258

> <i_epik_Tot_Q>
0

> <i_epik_Tot_abs_Q>
0

> <r_epik_Metal_State_Penalty>
0.956881

> <b_epik_Metal_Only>
0

> <s_lp_Force_Field>
OPLS_2005

> <r_lp_Energy>
24.8849

> <b_lp_Chiralities_Consistent>
1

> <s_lp_Variant>
AV-unprocessed.smi:3149-8

> <Gold.Version>
5.8.1

> <Gold.Id.Protein>
6NUR|6NUR_protein|mol2

> <Gold.PLP.Fitness>
42.7526

> <Gold.PLP.PLP>
-36.2545

> <Gold.PLP.part.hbond>
-3.0000

> <Gold.PLP.part.metal>
0.0000

> <Gold.PLP.part.buried>
-2.4977

> <Gold.PLP.part.nonpolar>
-30.7295

> <Gold.PLP.part.repulsive>
0.0995

> <Gold.PLP.ligand.clash>
0.0000

> <Gold.PLP.ligand.torsion>
1.5443

> <Gold.PLP.Chemscore.Hbond>
1.8480

> <Gold.PLP.Chemscore.CHOScore>
1.0000

> <Gold.PLP.Chemscore.Metal>
0.0000

> <Gold.Chemscore.Hbonds>
donor molecule, donor type, donor heavy atom, donor atom, acceptor molecule, acceptor atom, score
      P1  H  7989  7998       L1    17  0.79
      P1  H  7997  8008       L1     6  0.99
      L1  C    16    37       P1  8028  0.93

> <Gold.PLP.Chemscore.Internal.Correction>
1.0427

> <Gold.Rescore>
     Score         DG    S(hbond)    S(metal)    S(lipo)     H(rot)  DE(clash)    DE(int)     intcor
     13.50     -16.38       1.80        0.00      80.81       1.79       0.02       2.85       ----

> <Gold.Chemscore.Fitness>
13.5032

> <Gold.Chemscore.DG>
-16.3809

> <Gold.Chemscore.ZeroCoef>
-5.4800

> <Gold.Chemscore.Hbond>
1.8028

> <Gold.Chemscore.Metal>
0.0000

> <Gold.Chemscore.Lipo>
80.8147

> <Gold.Chemscore.Internal_Hbond>
0.0000

> <Gold.Chemscore.DEClash>
0.0234

> <Gold.Chemscore.DEInternal>
2.8542

> <Gold.Chemscore.Rot>
1.7874

> <Gold.Chemscore.Internal.Correction>
   9.000000E+99

> <Gold.Chemscore.Hbonds>
donor molecule, donor type, donor heavy atom, donor atom, acceptor molecule, acceptor atom, score
      P1  H  7989  7998       L1    17  0.16
      P1  H  7997  8008       L1     6  0.73

> <Gold.Chemscore.Hbond.Weighted>
-6.0214

> <Gold.Chemscore.Metal.Weighted>
-0.0000

> <Gold.Chemscore.Lipo.Weighted>
-9.4553

> <Gold.Chemscore.Internal_Hbond.Weighted>
0.0000

> <Gold.Chemscore.DEClash.Weighted>
0.0234

> <Gold.Chemscore.DEInternal.Weighted>
2.8542

> <Gold.Chemscore.Rot.Weighted>
4.5758

> <Gold.Chemscore.Internal.Correction.Weighted>
   9.000000E+99

> <Gold.Protein.RotatedTorsions>
[ 6907 6896 6895 6894 ] final  -20.23 input  -60.11 | X-H torsion
[ 7974 7965 7964 7962 ] final -136.35 input  175.53 | X-H torsion
[ 8008 7997 7996 7995 ] final  -88.97 input   59.86 | X-H torsion
[ 10167 10162 10161 10158 ] final  146.54 input  -65.29 | X-H torsion
[ 10718 10713 10712 10709 ] final  122.50 input   66.30 | X-H torsion
[ 10763 10752 10751 10750 ] final  -55.00 input  -60.55 | X-H torsion
[ 11005 11000 10999 10996 ] final   34.08 input  -57.11 | X-H torsion

> <Gold.Protein.ActiveResidues>
 VAL166  LYS551  ARG553  GLY616  TRP617  ASP618  TYR619  PRO620  LYS621  CYS622 
 ASP623  PHE694  ASN695  SER759  ASP760  ASP761  ALA762  ILE779  LEU786  VAL792 
 PHE793  MET794  SER795  GLU796  ALA797  LYS798  CYS799  TRP800  GLU811  SER814 

> <Gold.Protein.RotatedAtoms>
  151.2513  135.0623  159.9062 H   0  0  0  0  0  0  0  0  0  0  0  0  # atno 6907 bound_to 6896
  152.5379  134.0329  159.8043 H   0  0  0  0  0  0  0  0  0  0  0  0  # atno 6908 bound_to 6896
  151.0537  133.5553  159.2671 H   0  0  0  0  0  0  0  0  0  0  0  0  # atno 6909 bound_to 6896
  144.8934  140.6673  143.5131 H   0  0  0  0  0  0  0  0  0  0  0  0  # atno 7974 bound_to 7965
  154.6811  140.0547  157.0267 H   0  0  0  0  0  0  0  0  0  0  0  0  # atno 8008 bound_to 7997
  155.0950  140.3223  155.4544 H   0  0  0  0  0  0  0  0  0  0  0  0  # atno 8009 bound_to 7997
  156.2694  140.2041  156.6077 H   0  0  0  0  0  0  0  0  0  0  0  0  # atno 8010 bound_to 7997
  139.4905  144.5821  151.6850 H   0  0  0  0  0  0  0  0  0  0  0  0  # atno 10167 bound_to 10162
  157.5737  131.1081  150.8318 H   0  0  0  0  0  0  0  0  0  0  0  0  # atno 10718 bound_to 10713
  154.1838  135.6439  153.5041 H   0  0  0  0  0  0  0  0  0  0  0  0  # atno 10763 bound_to 10752
  153.0052  135.5412  154.6486 H   0  0  0  0  0  0  0  0  0  0  0  0  # atno 10764 bound_to 10752
  154.5857  135.2929  155.0659 H   0  0  0  0  0  0  0  0  0  0  0  0  # atno 10765 bound_to 10752
  140.2565  134.3242  155.7872 H   0  0  0  0  0  0  0  0  0  0  0  0  # atno 11005 bound_to 11000
  145.3742  139.1651  143.4315 LP  0  0  0  0  0  0  0  0  0  0  0  0  # atno 17320 bound_to 7965
  146.3067  140.3817  142.8685 LP  0  0  0  0  0  0  0  0  0  0  0  0  # atno 17321 bound_to 7965
  140.5430  144.0549  150.6096 LP  0  0  0  0  0  0  0  0  0  0  0  0  # atno 17342 bound_to 10162
  140.3577  143.2926  152.0418 LP  0  0  0  0  0  0  0  0  0  0  0  0  # atno 17343 bound_to 10162
  156.8783  130.5170  149.5292 LP  0  0  0  0  0  0  0  0  0  0  0  0  # atno 17370 bound_to 10713
  156.0782  130.5799  150.9514 LP  0  0  0  0  0  0  0  0  0  0  0  0  # atno 17371 bound_to 10713
  141.2195  133.7384  156.9119 LP  0  0  0  0  0  0  0  0  0  0  0  0  # atno 17394 bound_to 11000
  140.1507  134.9232  157.2588 LP  0  0  0  0  0  0  0  0  0  0  0  0  # atno 17395 bound_to 11000

$$$$
