AV-unprocessed.smi:1443|AV-procd|sdf|5878|dock1
  -GOLD-   22720 5553D 1   1.00000     0.00000
 Structure written by MMmdl.
 27 28  0  0  0  0  0  0  0  0  1 V2000
  154.7342  140.8466  161.0373 C   0  0  0  0  0  0  0  0  0  0  0  0
  153.5221  140.0861  159.9250 S   0  0  0  0  0  0  0  0  0  0  0  0
  152.7424  141.4135  159.0636 C   0  0  0  0  0  0  0  0  0  0  0  0
  153.1493  142.6806  159.2599 N   0  0  0  0  0  0  0  0  0  0  0  0
  152.2180  143.7024  158.2886 S   0  0  0  0  0  0  0  0  0  0  0  0
  151.3273  142.3464  157.6634 C   0  0  0  0  0  0  0  0  0  0  0  0
  150.2932  142.4996  156.6949 N   0  0  0  0  0  0  0  0  0  0  0  0
  149.7974  141.6440  155.7758 C   0  0  0  0  0  0  0  0  0  0  0  0
  150.2438  140.5031  155.6681 O   0  0  0  0  0  0  0  0  0  0  0  0
  148.8048  142.1138  155.0041 N   0  0  0  0  0  0  0  0  0  0  0  0
  148.1157  141.3806  153.9911 C   0  0  1  0  0  0  0  0  0  0  0  0
  146.8356  140.6820  154.3959 C   0  0  0  0  0  0  0  0  0  0  0  0
  146.7734  141.8892  153.4983 C   0  0  1  0  0  0  0  0  0  0  0  0
  146.1751  143.1912  153.9922 C   0  0  0  0  0  0  0  0  0  0  0  0
  151.7396  141.1943  158.1935 N   0  0  0  0  0  0  0  0  0  0  0  0
  155.2196  140.0818  161.6431 H   0  0  0  0  0  0  0  0  0  0  0  0
  154.2502  141.5610  161.7035 H   0  0  0  0  0  0  0  0  0  0  0  0
  155.4990  141.3658  160.4608 H   0  0  0  0  0  0  0  0  0  0  0  0
  149.8783  143.4200  156.6725 H   0  0  0  0  0  0  0  0  0  0  0  0
  148.5036  143.0655  155.1589 H   0  0  0  0  0  0  0  0  0  0  0  0
  148.7268  140.8569  153.2574 H   0  0  0  0  0  0  0  0  0  0  0  0
  146.6305  139.7120  153.9473 H   0  0  0  0  0  0  0  0  0  0  0  0
  146.4983  140.7973  155.4244 H   0  0  0  0  0  0  0  0  0  0  0  0
  146.5588  141.6911  152.4498 H   0  0  0  0  0  0  0  0  0  0  0  0
  146.3581  143.3280  155.0573 H   0  0  0  0  0  0  0  0  0  0  0  0
  145.0979  143.1938  153.8249 H   0  0  0  0  0  0  0  0  0  0  0  0
  146.6130  144.0317  153.4540 H   0  0  0  0  0  0  0  0  0  0  0  0
  1  2  1  0  0  0  0
  1 16  1  0  0  0  0
  1 17  1  0  0  0  0
  1 18  1  0  0  0  0
  2  3  1  0  0  0  0
  3 15  1  0  0  0  0
  3  4  2  0  0  0  0
  4  5  1  0  0  0  0
  5  6  1  0  0  0  0
  6  7  1  0  0  0  0
  6 15  2  0  0  0  0
  7  8  1  0  0  0  0
  7 19  1  0  0  0  0
  8  9  2  0  0  0  0
  8 10  1  0  0  0  0
 10 11  1  0  0  0  0
 10 20  1  0  0  0  0
 11 13  1  0  0  0  0
 11 12  1  0  0  0  0
 11 21  1  0  0  0  0
 12 13  1  0  0  0  0
 12 22  1  0  0  0  0
 12 23  1  0  0  0  0
 13 14  1  0  0  0  0
 13 24  1  0  0  0  0
 14 25  1  0  0  0  0
 14 26  1  0  0  0  0
 14 27  1  0  0  0  0
M  END
> <s_m_source_file>
AV-unprocessed.smi

> <i_m_source_file_index>
1443

> <i_lp_mmshare_version>
43012

> <i_f3d_flags>
0

> <s_epik_input>
W0NIM11TYzFuc2MobjEpW05IXUMoPU8pW05IXVtDQEBIXTJbQ0gyXVtDQEhdMltDSDNd

> <s_epik_cmdline>
J2VwaWtfcHl0aG9uJywgJy1waCcsICc3LjAnLCAnLXRuJywgJzgnLCAnLW1hJywgJzIwMCcsICctbWV0YWxfYmluZGluZycsICctaW1hZScsICc8aW5maWxlLm1hZT4nLCAnLW9tYWUnLCAnPG91dGZpbGUubWFlPic=

> <r_lp_tautomer_probability>
1

> <r_epik_Ionization_Penalty>
2.74658e-05

> <r_epik_Ionization_Penalty_Charging>
0

> <r_epik_Ionization_Penalty_Neutral>
2.74658e-05

> <r_epik_State_Penalty>
-0

> <r_epik_Charging_Adjusted_Penalty>
0

> <i_epik_Tot_Q>
0

> <i_epik_Tot_abs_Q>
0

> <r_epik_Metal_State_Penalty>
-0

> <b_epik_Metal_Only>
0

> <s_lp_Force_Field>
OPLS_2005

> <r_lp_Energy>
21.211

> <b_lp_Chiralities_Consistent>
1

> <s_lp_Variant>
AV-unprocessed.smi:1443-2

> <Gold.Version>
5.8.1

> <Gold.Id.Protein>
6NUR|6NUR_protein|mol2

> <Gold.PLP.Fitness>
35.4612

> <Gold.PLP.PLP>
-30.4383

> <Gold.PLP.part.hbond>
-2.0000

> <Gold.PLP.part.metal>
0.0000

> <Gold.PLP.part.buried>
-5.4681

> <Gold.PLP.part.nonpolar>
-23.3011

> <Gold.PLP.part.repulsive>
0.2884

> <Gold.PLP.ligand.clash>
0.0000

> <Gold.PLP.ligand.torsion>
0.4484

> <Gold.PLP.Chemscore.Hbond>
1.9600

> <Gold.PLP.Chemscore.CHOScore>
0.0000

> <Gold.PLP.Chemscore.Metal>
0.0000

> <Gold.Chemscore.Hbonds>
donor molecule, donor type, donor heavy atom, donor atom, acceptor molecule, acceptor atom, score
      L1  H     7    19       P1  8028  0.96
      L1  H    10    20       P1  8028  1.00

> <Gold.PLP.Chemscore.Internal.Correction>
0.0396

> <Gold.Rescore>
     Score         DG    S(hbond)    S(metal)    S(lipo)     H(rot)  DE(clash)    DE(int)     intcor
     13.88     -15.24       1.91        0.00      56.65       1.27       0.01       1.36       ----

> <Gold.Chemscore.Fitness>
13.8827

> <Gold.Chemscore.DG>
-15.2440

> <Gold.Chemscore.ZeroCoef>
-5.4800

> <Gold.Chemscore.Hbond>
1.9121

> <Gold.Chemscore.Metal>
0.0000

> <Gold.Chemscore.Lipo>
56.6540

> <Gold.Chemscore.Internal_Hbond>
0.0000

> <Gold.Chemscore.DEClash>
0.0063

> <Gold.Chemscore.DEInternal>
1.3550

> <Gold.Chemscore.Rot>
1.2699

> <Gold.Chemscore.Internal.Correction>
   9.000000E+99

> <Gold.Chemscore.Hbonds>
donor molecule, donor type, donor heavy atom, donor atom, acceptor molecule, acceptor atom, score
      L1  H     7    19       P1  8028  0.92
      L1  H    10    20       P1  8028  0.95

> <Gold.Chemscore.Hbond.Weighted>
-6.3864

> <Gold.Chemscore.Metal.Weighted>
-0.0000

> <Gold.Chemscore.Lipo.Weighted>
-6.6285

> <Gold.Chemscore.Internal_Hbond.Weighted>
0.0000

> <Gold.Chemscore.DEClash.Weighted>
0.0063

> <Gold.Chemscore.DEInternal.Weighted>
1.3550

> <Gold.Chemscore.Rot.Weighted>
3.2509

> <Gold.Chemscore.Internal.Correction.Weighted>
   9.000000E+99

> <Gold.Protein.RotatedTorsions>
[ 6907 6896 6895 6894 ] final   91.91 input  -60.11 | X-H torsion
[ 7974 7965 7964 7962 ] final  166.48 input  175.53 | X-H torsion
[ 8008 7997 7996 7995 ] final  -52.02 input   59.86 | X-H torsion
[ 10167 10162 10161 10158 ] final  -11.07 input  -65.29 | X-H torsion
[ 10718 10713 10712 10709 ] final   85.60 input   66.30 | X-H torsion
[ 10763 10752 10751 10750 ] final   72.91 input  -60.55 | X-H torsion
[ 11005 11000 10999 10996 ] final -139.20 input  -57.11 | X-H torsion

> <Gold.Protein.ActiveResidues>
 VAL166  LYS551  ARG553  GLY616  TRP617  ASP618  TYR619  PRO620  LYS621  CYS622 
 ASP623  PHE694  ASN695  SER759  ASP760  ASP761  ALA762  ILE779  LEU786  VAL792 
 PHE793  MET794  SER795  GLU796  ALA797  LYS798  CYS799  TRP800  GLU811  SER814 

> <Gold.Protein.RotatedAtoms>
  152.5451  134.1584  159.8547 H   0  0  0  0  0  0  0  0  0  0  0  0  # atno 6907 bound_to 6896
  151.1604  133.4841  159.2602 H   0  0  0  0  0  0  0  0  0  0  0  0  # atno 6908 bound_to 6896
  151.1378  135.0175  159.8667 H   0  0  0  0  0  0  0  0  0  0  0  0  # atno 6909 bound_to 6896
  144.7461  139.8621  143.6381 H   0  0  0  0  0  0  0  0  0  0  0  0  # atno 7974 bound_to 7965
  154.4096  140.1234  156.4923 H   0  0  0  0  0  0  0  0  0  0  0  0  # atno 8008 bound_to 7997
  155.6977  140.3495  155.4900 H   0  0  0  0  0  0  0  0  0  0  0  0  # atno 8009 bound_to 7997
  155.9412  140.1087  157.1044 H   0  0  0  0  0  0  0  0  0  0  0  0  # atno 8010 bound_to 7997
  140.7129  143.5679  150.9124 H   0  0  0  0  0  0  0  0  0  0  0  0  # atno 10167 bound_to 10162
  157.6917  131.0181  150.2847 H   0  0  0  0  0  0  0  0  0  0  0  0  # atno 10718 bound_to 10713
  153.0488  135.5082  154.7814 H   0  0  0  0  0  0  0  0  0  0  0  0  # atno 10763 bound_to 10752
  154.6693  135.2950  154.9765 H   0  0  0  0  0  0  0  0  0  0  0  0  # atno 10764 bound_to 10752
  154.0589  135.6693  153.4862 H   0  0  0  0  0  0  0  0  0  0  0  0  # atno 10765 bound_to 10752
  140.8542  134.2248  157.4743 H   0  0  0  0  0  0  0  0  0  0  0  0  # atno 11005 bound_to 11000
  146.1341  139.4383  143.0150 LP  0  0  0  0  0  0  0  0  0  0  0  0  # atno 17320 bound_to 7965
  145.7118  141.0103  143.1449 LP  0  0  0  0  0  0  0  0  0  0  0  0  # atno 17321 bound_to 7965
  139.9405  143.6387  152.3055 LP  0  0  0  0  0  0  0  0  0  0  0  0  # atno 17342 bound_to 10162
  139.6870  144.7650  151.1505 LP  0  0  0  0  0  0  0  0  0  0  0  0  # atno 17343 bound_to 10162
  156.3388  130.3812  149.7427 LP  0  0  0  0  0  0  0  0  0  0  0  0  # atno 17370 bound_to 10713
  156.4942  130.8099  151.3107 LP  0  0  0  0  0  0  0  0  0  0  0  0  # atno 17371 bound_to 10713
  139.8705  134.9698  156.4680 LP  0  0  0  0  0  0  0  0  0  0  0  0  # atno 17394 bound_to 11000
  140.8756  133.7956  155.9411 LP  0  0  0  0  0  0  0  0  0  0  0  0  # atno 17395 bound_to 11000

$$$$
