AV-unprocessed.smi:2923|AV-procd|sdf|11210|dock9
  -GOLD-   2272016103D 1   1.00000     0.00000
 Structure written by MMmdl.
 46 48  0  0  0  0  0  0  0  0  1 V2000
  152.0815  140.8094  157.9307 C   0  0  0  0  0  0  0  0  0  0  0  0
  151.2955  141.2781  156.7999 N   0  0  0  0  0  0  0  0  0  0  0  0
  150.5534  142.5137  156.9989 C   0  0  0  0  0  0  0  0  0  0  0  0
  150.5254  140.2650  156.2142 C   0  0  0  0  0  0  0  0  0  0  0  0
  149.5595  139.5515  156.9596 C   0  0  0  0  0  0  0  0  0  0  0  0
  148.8141  138.5450  156.3164 C   0  0  0  0  0  0  0  0  0  0  0  0
  149.0630  138.2785  154.9491 C   0  0  0  0  0  0  0  0  0  0  0  0
  148.3626  137.3090  154.1824 N   0  0  0  0  0  0  0  0  0  0  0  0
  147.2369  136.6462  154.4970 C   0  0  0  0  0  0  0  0  0  0  0  0
  146.6212  136.7470  155.5579 O   0  0  0  0  0  0  0  0  0  0  0  0
  146.8640  135.8316  153.5015 N   0  0  0  0  0  0  0  0  0  0  0  0
  145.6911  134.9516  153.5374 C   0  0  2  0  0  0  0  0  0  0  0  0
  145.8063  133.7831  152.5551 C   0  0  2  0  0  0  0  0  0  0  0  0
  146.9096  133.1265  151.8068 C   0  0  0  0  0  0  0  0  0  0  0  0
  146.1541  132.9511  150.4613 C   0  0  0  0  0  0  0  0  0  0  0  0
  144.9283  133.7168  150.5886 O   0  0  0  0  0  0  0  0  0  0  0  0
  145.2586  134.7356  151.5118 C   0  0  1  0  0  0  0  0  0  0  0  0
  144.4634  135.4091  152.6524 C   0  0  0  0  0  0  0  0  0  0  0  0
  143.0861  134.8124  152.9943 C   0  0  0  0  0  0  0  0  0  0  0  0
  144.2358  136.9167  152.4948 C   0  0  0  0  0  0  0  0  0  0  0  0
  150.0410  139.0566  154.2961 C   0  0  0  0  0  0  0  0  0  0  0  0
  150.7602  140.0218  154.9067 N   0  0  0  0  0  0  0  0  0  0  0  0
  152.5970  139.8795  157.6869 H   0  0  0  0  0  0  0  0  0  0  0  0
  151.4491  140.6351  158.8017 H   0  0  0  0  0  0  0  0  0  0  0  0
  152.8346  141.5510  158.1978 H   0  0  0  0  0  0  0  0  0  0  0  0
  150.0117  142.7911  156.0936 H   0  0  0  0  0  0  0  0  0  0  0  0
  151.2363  143.3272  157.2443 H   0  0  0  0  0  0  0  0  0  0  0  0
  149.8355  142.4137  157.8135 H   0  0  0  0  0  0  0  0  0  0  0  0
  149.3864  139.7716  158.0029 H   0  0  0  0  0  0  0  0  0  0  0  0
  148.0617  138.0133  156.8777 H   0  0  0  0  0  0  0  0  0  0  0  0
  148.7979  137.0540  153.3080 H   0  0  0  0  0  0  0  0  0  0  0  0
  147.4290  135.8072  152.6654 H   0  0  0  0  0  0  0  0  0  0  0  0
  145.4075  134.6334  154.5421 H   0  0  0  0  0  0  0  0  0  0  0  0
  145.0846  133.0173  152.8493 H   0  0  0  0  0  0  0  0  0  0  0  0
  147.7831  133.7718  151.7056 H   0  0  0  0  0  0  0  0  0  0  0  0
  147.2142  132.1757  152.2446 H   0  0  0  0  0  0  0  0  0  0  0  0
  146.7517  133.3257  149.6291 H   0  0  0  0  0  0  0  0  0  0  0  0
  145.9134  131.9065  150.2618 H   0  0  0  0  0  0  0  0  0  0  0  0
  146.0084  135.4081  151.0824 H   0  0  0  0  0  0  0  0  0  0  0  0
  142.3862  134.9397  152.1677 H   0  0  0  0  0  0  0  0  0  0  0  0
  142.6496  135.2988  153.8672 H   0  0  0  0  0  0  0  0  0  0  0  0
  143.1153  133.7475  153.2182 H   0  0  0  0  0  0  0  0  0  0  0  0
  143.4394  137.1299  151.7811 H   0  0  0  0  0  0  0  0  0  0  0  0
  145.1265  137.4297  152.1321 H   0  0  0  0  0  0  0  0  0  0  0  0
  143.9609  137.3783  153.4437 H   0  0  0  0  0  0  0  0  0  0  0  0
  150.2581  138.8989  153.2497 H   0  0  0  0  0  0  0  0  0  0  0  0
  1  2  1  0  0  0  0
  1 23  1  0  0  0  0
  1 24  1  0  0  0  0
  1 25  1  0  0  0  0
  2  3  1  0  0  0  0
  2  4  1  0  0  0  0
  3 26  1  0  0  0  0
  3 27  1  0  0  0  0
  3 28  1  0  0  0  0
  4 22  1  0  0  0  0
  4  5  2  0  0  0  0
  5  6  1  0  0  0  0
  5 29  1  0  0  0  0
  6  7  2  0  0  0  0
  6 30  1  0  0  0  0
  7  8  1  0  0  0  0
  7 21  1  0  0  0  0
  8  9  1  0  0  0  0
  8 31  1  0  0  0  0
  9 10  2  0  0  0  0
  9 11  1  0  0  0  0
 11 12  1  0  0  0  0
 11 32  1  0  0  0  0
 12 18  1  0  0  0  0
 12 13  1  0  0  0  0
 12 33  1  0  0  0  0
 13 17  1  0  0  0  0
 13 14  1  0  0  0  0
 13 34  1  0  0  0  0
 14 15  1  0  0  0  0
 14 35  1  0  0  0  0
 14 36  1  0  0  0  0
 15 16  1  0  0  0  0
 15 37  1  0  0  0  0
 15 38  1  0  0  0  0
 16 17  1  0  0  0  0
 17 18  1  0  0  0  0
 17 39  1  0  0  0  0
 18 19  1  0  0  0  0
 18 20  1  0  0  0  0
 19 40  1  0  0  0  0
 19 41  1  0  0  0  0
 19 42  1  0  0  0  0
 20 43  1  0  0  0  0
 20 44  1  0  0  0  0
 20 45  1  0  0  0  0
 21 22  2  0  0  0  0
 21 46  1  0  0  0  0
M  END
> <s_m_source_file>
AV-unprocessed.smi

> <i_m_source_file_index>
2923

> <i_lp_mmshare_version>
43012

> <i_f3d_flags>
0

> <s_epik_input>
W0NIM11OKFtDSDNdKWMxW2NIXVtjSF1jKFtjSF1uMSlbTkhdQyg9TylbTkhdW0NASF0yQyhbQ0gzXSkoW0NIM10pW0NAQEhdKFtDQEhdMjMpT1tDSDJdW0NIMl0z

> <s_epik_cmdline>
J2VwaWtfcHl0aG9uJywgJy1waCcsICc3LjAnLCAnLXRuJywgJzgnLCAnLW1hJywgJzIwMCcsICctbWV0YWxfYmluZGluZycsICctaW1hZScsICc8aW5maWxlLm1hZT4nLCAnLW9tYWUnLCAnPG91dGZpbGUubWFlPic=

> <r_lp_tautomer_probability>
1

> <r_epik_Ionization_Penalty>
0.628785

> <r_epik_Ionization_Penalty_Charging>
0

> <r_epik_Ionization_Penalty_Neutral>
0.628785

> <r_epik_State_Penalty>
0.644286

> <r_epik_Charging_Adjusted_Penalty>
0.644286

> <i_epik_Tot_Q>
0

> <i_epik_Tot_abs_Q>
0

> <r_epik_Metal_State_Penalty>
0.308404

> <b_epik_Metal_Only>
0

> <s_lp_Force_Field>
OPLS_2005

> <r_lp_Energy>
70.0189

> <b_lp_Chiralities_Consistent>
1

> <s_lp_Variant>
AV-unprocessed.smi:2923-9

> <Gold.Version>
5.8.1

> <Gold.Id.Protein>
6NUR|6NUR_protein|mol2

> <Gold.PLP.Fitness>
39.6171

> <Gold.PLP.PLP>
-28.1775

> <Gold.PLP.part.hbond>
-3.0000

> <Gold.PLP.part.metal>
0.0000

> <Gold.PLP.part.buried>
-4.6202

> <Gold.PLP.part.nonpolar>
-21.6556

> <Gold.PLP.part.repulsive>
0.2403

> <Gold.PLP.ligand.clash>
0.0000

> <Gold.PLP.ligand.torsion>
0.4793

> <Gold.PLP.Chemscore.Hbond>
2.9760

> <Gold.PLP.Chemscore.CHOScore>
1.0000

> <Gold.PLP.Chemscore.Metal>
0.0000

> <Gold.Chemscore.Hbonds>
donor molecule, donor type, donor heavy atom, donor atom, acceptor molecule, acceptor atom, score
      L1  H     8    31       P1  7948  1.00
      L1  H    11    32       P1  7948  0.99
      P1  H  7989  7998       L1    22  1.00
      L1  C    21    46       P1  7957  1.00

> <Gold.PLP.Chemscore.Internal.Correction>
0.4702

> <Gold.Rescore>
     Score         DG    S(hbond)    S(metal)    S(lipo)     H(rot)  DE(clash)    DE(int)     intcor
     17.33     -19.19       2.72        0.00      65.62       1.19       0.20       1.66       ----

> <Gold.Chemscore.Fitness>
17.3255

> <Gold.Chemscore.DG>
-19.1860

> <Gold.Chemscore.ZeroCoef>
-5.4800

> <Gold.Chemscore.Hbond>
2.7198

> <Gold.Chemscore.Metal>
0.0000

> <Gold.Chemscore.Lipo>
65.6215

> <Gold.Chemscore.Internal_Hbond>
0.0000

> <Gold.Chemscore.DEClash>
0.2033

> <Gold.Chemscore.DEInternal>
1.6571

> <Gold.Chemscore.Rot>
1.1937

> <Gold.Chemscore.Internal.Correction>
   9.000000E+99

> <Gold.Chemscore.Hbonds>
donor molecule, donor type, donor heavy atom, donor atom, acceptor molecule, acceptor atom, score
      L1  H     8    31       P1  7948  0.99
      L1  H    11    32       P1  7948  0.93
      P1  H  7989  7998       L1    22  0.45

> <Gold.Chemscore.Hbond.Weighted>
-9.0842

> <Gold.Chemscore.Metal.Weighted>
-0.0000

> <Gold.Chemscore.Lipo.Weighted>
-7.6777

> <Gold.Chemscore.Internal_Hbond.Weighted>
0.0000

> <Gold.Chemscore.DEClash.Weighted>
0.2033

> <Gold.Chemscore.DEInternal.Weighted>
1.6571

> <Gold.Chemscore.Rot.Weighted>
3.0559

> <Gold.Chemscore.Internal.Correction.Weighted>
   9.000000E+99

> <Gold.Protein.RotatedTorsions>
[ 6907 6896 6895 6894 ] final  116.76 input  -60.11 | X-H torsion
[ 7974 7965 7964 7962 ] final  102.87 input  175.53 | X-H torsion
[ 8008 7997 7996 7995 ] final -102.90 input   59.86 | X-H torsion
[ 10167 10162 10161 10158 ] final -122.63 input  -65.29 | X-H torsion
[ 10718 10713 10712 10709 ] final  -59.91 input   66.30 | X-H torsion
[ 10763 10752 10751 10750 ] final  112.36 input  -60.55 | X-H torsion
[ 11005 11000 10999 10996 ] final  -24.37 input  -57.11 | X-H torsion

> <Gold.Protein.ActiveResidues>
 VAL166  LYS551  ARG553  GLY616  TRP617  ASP618  TYR619  PRO620  LYS621  CYS622 
 ASP623  PHE694  ASN695  SER759  ASP760  ASP761  ALA762  ILE779  LEU786  VAL792 
 PHE793  MET794  SER795  GLU796  ALA797  LYS798  CYS799  TRP800  GLU811  SER814 

> <Gold.Protein.RotatedAtoms>
  152.4657  133.7918  159.6905 H   0  0  0  0  0  0  0  0  0  0  0  0  # atno 6907 bound_to 6896
  150.8620  133.7619  159.2995 H   0  0  0  0  0  0  0  0  0  0  0  0  # atno 6908 bound_to 6896
  151.5182  135.1070  159.9923 H   0  0  0  0  0  0  0  0  0  0  0  0  # atno 6909 bound_to 6896
  145.3534  139.2434  143.3545 H   0  0  0  0  0  0  0  0  0  0  0  0  # atno 7974 bound_to 7965
  154.8633  140.0426  157.1678 H   0  0  0  0  0  0  0  0  0  0  0  0  # atno 8008 bound_to 7997
  154.8817  140.2973  155.5401 H   0  0  0  0  0  0  0  0  0  0  0  0  # atno 8009 bound_to 7997
  156.2998  140.2410  156.3821 H   0  0  0  0  0  0  0  0  0  0  0  0  # atno 8010 bound_to 7997
  140.0122  143.5430  152.2258 H   0  0  0  0  0  0  0  0  0  0  0  0  # atno 10167 bound_to 10162
  156.1028  130.4184  150.0780 H   0  0  0  0  0  0  0  0  0  0  0  0  # atno 10718 bound_to 10713
  153.4767  135.3688  155.2420 H   0  0  0  0  0  0  0  0  0  0  0  0  # atno 10763 bound_to 10752
  154.8756  135.3944  154.3749 H   0  0  0  0  0  0  0  0  0  0  0  0  # atno 10764 bound_to 10752
  153.4345  135.7083  153.6274 H   0  0  0  0  0  0  0  0  0  0  0  0  # atno 10765 bound_to 10752
  140.8838  133.7635  156.0335 H   0  0  0  0  0  0  0  0  0  0  0  0  # atno 11005 bound_to 11000
  146.2958  140.4155  142.8722 LP  0  0  0  0  0  0  0  0  0  0  0  0  # atno 17320 bound_to 7965
  144.8700  140.7259  143.6053 LP  0  0  0  0  0  0  0  0  0  0  0  0  # atno 17321 bound_to 7965
  139.6197  144.7626  151.2768 LP  0  0  0  0  0  0  0  0  0  0  0  0  # atno 17342 bound_to 10162
  140.7376  143.6671  150.8113 LP  0  0  0  0  0  0  0  0  0  0  0  0  # atno 17343 bound_to 10162
  156.8763  130.9541  151.3604 LP  0  0  0  0  0  0  0  0  0  0  0  0  # atno 17370 bound_to 10713
  157.6201  130.8648  149.9093 LP  0  0  0  0  0  0  0  0  0  0  0  0  # atno 17371 bound_to 10713
  140.8429  134.3045  157.5306 LP  0  0  0  0  0  0  0  0  0  0  0  0  # atno 17394 bound_to 11000
  139.8722  134.9426  156.3829 LP  0  0  0  0  0  0  0  0  0  0  0  0  # atno 17395 bound_to 11000

$$$$
