AV-unprocessed.smi:2448|AV-procd|sdf|9660|dock10
  -GOLD-   2272013303D 1   1.00000     0.00000
 Structure written by MMmdl.
 38 39  0  0  0  0  0  0  0  0  2 V2000
  147.7603  137.1739  161.7818 O   0  0  0  0  0  0  0  0  0  0  0  0
  147.2723  136.2588  160.8164 C   0  0  2  0  0  0  0  0  0  0  0  0
  147.6333  136.7982  159.4168 C   0  0  0  0  0  0  0  0  0  0  0  0
  149.0756  136.7409  159.1656 N   0  0  0  0  0  0  0  0  0  0  0  0
  149.6832  137.9091  158.5107 C   0  0  2  0  0  0  0  0  0  0  0  0
  148.9830  138.0810  157.1413 C   0  0  0  0  0  0  0  0  0  0  0  0
  148.8708  139.5163  156.6556 C   0  0  0  0  0  0  0  0  0  0  0  0
  148.1651  140.4783  157.4128 C   0  0  0  0  0  0  0  0  0  0  0  0
  148.0787  141.8023  156.9359 C   0  0  0  0  0  0  0  0  0  0  0  0
  148.6708  142.1367  155.7685 N   0  3  0  0  0  0  0  0  0  0  0  0
  149.3587  141.2500  155.0164 C   0  0  0  0  0  0  0  0  0  0  0  0
  149.4786  139.9114  155.4431 C   0  0  0  0  0  0  0  0  0  0  0  0
  151.2283  137.7816  158.3867 C   0  0  0  0  0  0  0  0  0  0  0  0
  151.7871  137.4674  159.5537 F   0  0  0  0  0  0  0  0  0  0  0  0
  151.5435  136.8452  157.4916 F   0  0  0  0  0  0  0  0  0  0  0  0
  151.7754  138.9346  158.0048 F   0  0  0  0  0  0  0  0  0  0  0  0
  145.7505  136.1571  161.0102 C   0  0  0  0  0  0  0  0  0  0  0  0
  145.4917  135.3367  162.2781 C   0  0  0  0  0  0  0  0  0  0  0  0
  146.7994  134.0910  162.3985 S   0  0  0  0  0  0  0  0  0  0  0  0
  147.8172  134.8473  161.1024 C   0  0  0  0  0  0  0  0  0  0  0  0
  147.8419  136.7223  162.6077 H   0  0  0  0  0  0  0  0  0  0  0  0
  147.1101  136.2126  158.6600 H   0  0  0  0  0  0  0  0  0  0  0  0
  147.2631  137.8190  159.3358 H   0  0  0  0  0  0  0  0  0  0  0  0
  149.5582  136.5539  160.0389 H   0  0  0  0  0  0  0  0  0  0  0  0
  149.4623  138.7939  159.1091 H   0  0  0  0  0  0  0  0  0  0  0  0
  149.4954  137.4834  156.3859 H   0  0  0  0  0  0  0  0  0  0  0  0
  147.9685  137.6831  157.1975 H   0  0  0  0  0  0  0  0  0  0  0  0
  147.6911  140.2078  158.3453 H   0  0  0  0  0  0  0  0  0  0  0  0
  147.5578  142.5974  157.4490 H   0  0  0  0  0  0  0  0  0  0  0  0
  149.7894  141.6353  154.1036 H   0  0  0  0  0  0  0  0  0  0  0  0
  150.0290  139.1991  154.8456 H   0  0  0  0  0  0  0  0  0  0  0  0
  145.2712  137.1357  161.0582 H   0  0  0  0  0  0  0  0  0  0  0  0
  145.3119  135.6327  160.1601 H   0  0  0  0  0  0  0  0  0  0  0  0
  145.5511  135.9775  163.1582 H   0  0  0  0  0  0  0  0  0  0  0  0
  144.5060  134.8715  162.2726 H   0  0  0  0  0  0  0  0  0  0  0  0
  147.7213  134.2246  160.2122 H   0  0  0  0  0  0  0  0  0  0  0  0
  148.8704  134.8502  161.3845 H   0  0  0  0  0  0  0  0  0  0  0  0
  148.5959  143.1005  155.4416 H   0  0  0  0  0  0  0  0  0  0  0  0
  1  2  1  0  0  0  0
  1 21  1  0  0  0  0
  2 20  1  0  0  0  0
  2  3  1  0  0  0  0
  2 17  1  0  0  0  0
  3  4  1  0  0  0  0
  3 22  1  0  0  0  0
  3 23  1  0  0  0  0
  4  5  1  0  0  0  0
  4 24  1  0  0  0  0
  5  6  1  0  0  0  0
  5 13  1  0  0  0  0
  5 25  1  0  0  0  0
  6  7  1  0  0  0  0
  6 26  1  0  0  0  0
  6 27  1  0  0  0  0
  7 12  1  0  0  0  0
  7  8  2  0  0  0  0
  8  9  1  0  0  0  0
  8 28  1  0  0  0  0
  9 10  2  0  0  0  0
  9 29  1  0  0  0  0
 10 11  1  0  0  0  0
 10 38  1  0  0  0  0
 11 12  2  0  0  0  0
 11 30  1  0  0  0  0
 12 31  1  0  0  0  0
 13 14  1  0  0  0  0
 13 15  1  0  0  0  0
 13 16  1  0  0  0  0
 17 18  1  0  0  0  0
 17 32  1  0  0  0  0
 17 33  1  0  0  0  0
 18 19  1  0  0  0  0
 18 34  1  0  0  0  0
 18 35  1  0  0  0  0
 19 20  1  0  0  0  0
 20 36  1  0  0  0  0
 20 37  1  0  0  0  0
M  CHG  1  10   1
M  END
> <s_m_source_file>
AV-unprocessed.smi

> <i_m_source_file_index>
2448

> <i_lp_mmshare_version>
43012

> <i_f3d_flags>
0

> <s_epik_input>
W0NIMl0xU1tDSDJdW0NIMl1bQ0BAXTEoW09IXSlbQ0gyXVtOSF1bQ0BASF0oQyhGKShGKUYpW0NIMl1jMltjSF1bY0hdbltjSF1bY0hdMg==

> <s_epik_cmdline>
J2VwaWtfcHl0aG9uJywgJy1waCcsICc3LjAnLCAnLXRuJywgJzgnLCAnLW1hJywgJzIwMCcsICctbWV0YWxfYmluZGluZycsICctaW1hZScsICc8aW5maWxlLm1hZT4nLCAnLW9tYWUnLCAnPG91dGZpbGUubWFlPic=

> <r_epik_Ionization_Penalty>
1.11129

> <r_epik_Ionization_Penalty_Charging>
1.08366

> <r_epik_Ionization_Penalty_Neutral>
0.0276276

> <r_epik_State_Penalty>
1.93785

> <r_epik_Charging_Adjusted_Penalty>
3.02151

> <i_epik_Tot_Q>
1

> <i_epik_Tot_abs_Q>
1

> <r_epik_Metal_State_Penalty>
5.97911

> <b_epik_Metal_Only>
0

> <s_lp_Force_Field>
OPLS_2005

> <r_lp_Energy>
38.3653

> <b_lp_Chiralities_Consistent>
1

> <s_lp_Variant>
AV-unprocessed.smi:2448-10

> <Gold.Version>
5.8.1

> <Gold.Id.Protein>
6NUR|6NUR_protein|mol2

> <Gold.PLP.Fitness>
37.4870

> <Gold.PLP.PLP>
-27.8611

> <Gold.PLP.part.hbond>
-3.0000

> <Gold.PLP.part.metal>
0.0000

> <Gold.PLP.part.buried>
-4.2508

> <Gold.PLP.part.nonpolar>
-20.5687

> <Gold.PLP.part.repulsive>
0.1100

> <Gold.PLP.ligand.clash>
0.0000

> <Gold.PLP.ligand.torsion>
0.8520

> <Gold.PLP.Chemscore.Hbond>
3.6334

> <Gold.PLP.Chemscore.CHOScore>
0.0000

> <Gold.PLP.Chemscore.Metal>
0.0000

> <Gold.Chemscore.Hbonds>
donor molecule, donor type, donor heavy atom, donor atom, acceptor molecule, acceptor atom, score
      L1  H    10    38       P1  8028  2.00
      P1  H  6931  6943       L1     1  1.00
      P1  H  6934  6947       L1     1  0.55

> <Gold.PLP.Chemscore.Internal.Correction>
0.4297

> <Gold.Rescore>
     Score         DG    S(hbond)    S(metal)    S(lipo)     H(rot)  DE(clash)    DE(int)     intcor
     12.90     -13.88       2.04        0.00      66.50       2.42       0.02       0.95       ----

> <Gold.Chemscore.Fitness>
12.9034

> <Gold.Chemscore.DG>
-13.8789

> <Gold.Chemscore.ZeroCoef>
-5.4800

> <Gold.Chemscore.Hbond>
2.0435

> <Gold.Chemscore.Metal>
0.0000

> <Gold.Chemscore.Lipo>
66.5033

> <Gold.Chemscore.Internal_Hbond>
0.0000

> <Gold.Chemscore.DEClash>
0.0212

> <Gold.Chemscore.DEInternal>
0.9543

> <Gold.Chemscore.Rot>
2.4247

> <Gold.Chemscore.Internal.Correction>
   9.000000E+99

> <Gold.Chemscore.Hbonds>
donor molecule, donor type, donor heavy atom, donor atom, acceptor molecule, acceptor atom, score
      L1  H    10    38       P1  8028  0.95
      P1  H  6931  6943       L1     1  0.25
      P1  H  6934  6947       L1     1  0.18

> <Gold.Chemscore.Hbond.Weighted>
-6.8252

> <Gold.Chemscore.Metal.Weighted>
-0.0000

> <Gold.Chemscore.Lipo.Weighted>
-7.7809

> <Gold.Chemscore.Internal_Hbond.Weighted>
0.0000

> <Gold.Chemscore.DEClash.Weighted>
0.0212

> <Gold.Chemscore.DEInternal.Weighted>
0.9543

> <Gold.Chemscore.Rot.Weighted>
6.2072

> <Gold.Chemscore.Internal.Correction.Weighted>
   9.000000E+99

> <Gold.Protein.RotatedTorsions>
[ 6907 6896 6895 6894 ] final   43.49 input  -60.11 | X-H torsion
[ 7974 7965 7964 7962 ] final  -28.61 input  175.53 | X-H torsion
[ 8008 7997 7996 7995 ] final -163.61 input   59.86 | X-H torsion
[ 10167 10162 10161 10158 ] final   52.88 input  -65.29 | X-H torsion
[ 10718 10713 10712 10709 ] final   99.64 input   66.30 | X-H torsion
[ 10763 10752 10751 10750 ] final   65.71 input  -60.55 | X-H torsion
[ 11005 11000 10999 10996 ] final   36.30 input  -57.11 | X-H torsion

> <Gold.Protein.ActiveResidues>
 VAL166  LYS551  ARG553  GLY616  TRP617  ASP618  TYR619  PRO620  LYS621  CYS622 
 ASP623  PHE694  ASN695  SER759  ASP760  ASP761  ALA762  ILE779  LEU786  VAL792 
 PHE793  MET794  SER795  GLU796  ALA797  LYS798  CYS799  TRP800  GLU811  SER814 

> <Gold.Protein.RotatedAtoms>
  152.2210  134.8413  160.0485 H   0  0  0  0  0  0  0  0  0  0  0  0  # atno 6907 bound_to 6896
  151.9197  133.3577  159.3900 H   0  0  0  0  0  0  0  0  0  0  0  0  # atno 6908 bound_to 6896
  150.7000  134.4573  159.5408 H   0  0  0  0  0  0  0  0  0  0  0  0  # atno 6909 bound_to 6896
  146.1276  140.5304  142.8707 H   0  0  0  0  0  0  0  0  0  0  0  0  # atno 7974 bound_to 7965
  155.8238  140.0923  157.1833 H   0  0  0  0  0  0  0  0  0  0  0  0  # atno 8008 bound_to 7997
  154.3979  140.1432  156.3592 H   0  0  0  0  0  0  0  0  0  0  0  0  # atno 8009 bound_to 7997
  155.8238  140.3445  155.5533 H   0  0  0  0  0  0  0  0  0  0  0  0  # atno 8010 bound_to 7997
  140.2467  144.3524  150.6361 H   0  0  0  0  0  0  0  0  0  0  0  0  # atno 10167 bound_to 10162
  157.6871  131.0675  150.4979 H   0  0  0  0  0  0  0  0  0  0  0  0  # atno 10718 bound_to 10713
  153.0108  135.5347  154.6710 H   0  0  0  0  0  0  0  0  0  0  0  0  # atno 10763 bound_to 10752
  154.5894  135.2857  155.0653 H   0  0  0  0  0  0  0  0  0  0  0  0  # atno 10764 bound_to 10752
  154.1752  135.6525  153.5072 H   0  0  0  0  0  0  0  0  0  0  0  0  # atno 10765 bound_to 10752
  140.2340  134.3494  155.7952 H   0  0  0  0  0  0  0  0  0  0  0  0  # atno 11005 bound_to 11000
  144.7658  140.5526  143.6704 LP  0  0  0  0  0  0  0  0  0  0  0  0  # atno 17320 bound_to 7965
  145.5331  139.1475  143.3488 LP  0  0  0  0  0  0  0  0  0  0  0  0  # atno 17321 bound_to 7965
  140.6072  143.2168  151.6958 LP  0  0  0  0  0  0  0  0  0  0  0  0  # atno 17342 bound_to 10162
  139.5059  144.3700  152.0480 LP  0  0  0  0  0  0  0  0  0  0  0  0  # atno 17343 bound_to 10162
  156.5302  130.4183  149.6205 LP  0  0  0  0  0  0  0  0  0  0  0  0  # atno 17370 bound_to 10713
  156.3076  130.7211  151.2097 LP  0  0  0  0  0  0  0  0  0  0  0  0  # atno 17371 bound_to 10713
  141.2216  133.7261  156.8778 LP  0  0  0  0  0  0  0  0  0  0  0  0  # atno 17394 bound_to 11000
  140.1721  134.9092  157.2846 LP  0  0  0  0  0  0  0  0  0  0  0  0  # atno 17395 bound_to 11000

$$$$
