AV-unprocessed.smi:1055|AV-procd|sdf|4629|dock8
  -GOLD-   22720 3133D 1   1.00000     0.00000
 Structure written by MMmdl.
 50 51  0  0  0  0  0  0  0  0  1 V2000
  151.1994  140.5129  157.5534 C   0  0  0  0  0  0  0  0  0  0  0  0
  150.5219  141.6722  157.5822 C   0  0  0  0  0  0  0  0  0  0  0  0
  151.2274  143.0155  157.5945 C   0  0  0  0  0  0  0  0  0  0  0  0
  149.0007  141.7143  157.5803 C   0  0  0  0  0  0  0  0  0  0  0  0
  148.3942  140.8991  156.5276 N   0  0  0  0  0  0  0  0  0  0  0  0
  149.0301  141.1385  155.2272 C   0  0  0  0  0  0  0  0  0  0  0  0
  148.4177  140.2236  154.1526 C   0  0  0  0  0  0  0  0  0  0  0  0
  146.8990  140.4399  154.0386 C   0  0  0  0  0  0  0  0  0  0  0  0
  146.3013  139.4749  153.1206 N   0  0  0  0  0  0  0  0  0  0  0  0
  146.4514  138.1448  153.1928 C   0  0  0  0  0  0  0  0  0  0  0  0
  147.1305  137.5840  154.0526 O   0  0  0  0  0  0  0  0  0  0  0  0
  145.7836  137.5275  152.2031 N   0  0  0  0  0  0  0  0  0  0  0  0
  145.6710  136.1345  151.9461 C   0  0  0  0  0  0  0  0  0  0  0  0
  146.1603  135.2403  152.9168 C   0  0  0  0  0  0  0  0  0  0  0  0
  146.0790  133.8546  152.6832 C   0  0  0  0  0  0  0  0  0  0  0  0
  145.5136  133.3895  151.4700 C   0  0  0  0  0  0  0  0  0  0  0  0
  145.4059  132.0084  151.1875 N   0  0  0  0  0  0  0  0  0  0  0  0
  146.0395  131.0288  152.0615 C   0  0  0  0  0  0  0  0  0  0  0  0
  144.6087  131.5601  150.0502 C   0  0  0  0  0  0  0  0  0  0  0  0
  145.0581  134.2541  150.5305 N   0  0  0  0  0  0  0  0  0  0  0  0
  145.1360  135.5819  150.7590 C   0  0  0  0  0  0  0  0  0  0  0  0
  146.2675  140.2982  155.4310 C   0  0  0  0  0  0  0  0  0  0  0  0
  146.9665  141.2145  156.4502 C   0  0  0  0  0  0  0  0  0  0  0  0
  152.2792  140.4941  157.5464 H   0  0  0  0  0  0  0  0  0  0  0  0
  150.6839  139.5639  157.5371 H   0  0  0  0  0  0  0  0  0  0  0  0
  150.9203  143.6104  156.7345 H   0  0  0  0  0  0  0  0  0  0  0  0
  152.3106  142.8963  157.5556 H   0  0  0  0  0  0  0  0  0  0  0  0
  150.9820  143.5697  158.5008 H   0  0  0  0  0  0  0  0  0  0  0  0
  148.6583  141.3587  158.5531 H   0  0  0  0  0  0  0  0  0  0  0  0
  148.6628  142.7477  157.4852 H   0  0  0  0  0  0  0  0  0  0  0  0
  148.9164  142.1857  154.9428 H   0  0  0  0  0  0  0  0  0  0  0  0
  150.1000  140.9384  155.2840 H   0  0  0  0  0  0  0  0  0  0  0  0
  148.8990  140.4156  153.1930 H   0  0  0  0  0  0  0  0  0  0  0  0
  148.6297  139.1824  154.4014 H   0  0  0  0  0  0  0  0  0  0  0  0
  146.7072  141.4518  153.6755 H   0  0  0  0  0  0  0  0  0  0  0  0
  145.7282  139.8495  152.3787 H   0  0  0  0  0  0  0  0  0  0  0  0
  145.3398  138.1294  151.5252 H   0  0  0  0  0  0  0  0  0  0  0  0
  146.5914  135.6085  153.8364 H   0  0  0  0  0  0  0  0  0  0  0  0
  146.4525  133.1788  153.4374 H   0  0  0  0  0  0  0  0  0  0  0  0
  147.1213  131.1654  152.0687 H   0  0  0  0  0  0  0  0  0  0  0  0
  145.8356  130.0101  151.7308 H   0  0  0  0  0  0  0  0  0  0  0  0
  145.6673  131.1270  153.0818 H   0  0  0  0  0  0  0  0  0  0  0  0
  144.9917  131.9860  149.1222 H   0  0  0  0  0  0  0  0  0  0  0  0
  143.5683  131.8647  150.1681 H   0  0  0  0  0  0  0  0  0  0  0  0
  144.6301  130.4748  149.9515 H   0  0  0  0  0  0  0  0  0  0  0  0
  144.7752  136.1983  149.9508 H   0  0  0  0  0  0  0  0  0  0  0  0
  145.2053  140.5410  155.3863 H   0  0  0  0  0  0  0  0  0  0  0  0
  146.3351  139.2631  155.7702 H   0  0  0  0  0  0  0  0  0  0  0  0
  146.5076  141.0754  157.4298 H   0  0  0  0  0  0  0  0  0  0  0  0
  146.8263  142.2617  156.1771 H   0  0  0  0  0  0  0  0  0  0  0  0
  1  2  2  0  0  0  0
  1 24  1  0  0  0  0
  1 25  1  0  0  0  0
  2  3  1  0  0  0  0
  2  4  1  0  0  0  0
  3 26  1  0  0  0  0
  3 27  1  0  0  0  0
  3 28  1  0  0  0  0
  4  5  1  0  0  0  0
  4 29  1  0  0  0  0
  4 30  1  0  0  0  0
  5 23  1  0  0  0  0
  5  6  1  0  0  0  0
  6  7  1  0  0  0  0
  6 31  1  0  0  0  0
  6 32  1  0  0  0  0
  7  8  1  0  0  0  0
  7 33  1  0  0  0  0
  7 34  1  0  0  0  0
  8  9  1  0  0  0  0
  8 22  1  0  0  0  0
  8 35  1  0  0  0  0
  9 10  1  0  0  0  0
  9 36  1  0  0  0  0
 10 11  2  0  0  0  0
 10 12  1  0  0  0  0
 12 13  1  0  0  0  0
 12 37  1  0  0  0  0
 13 21  1  0  0  0  0
 13 14  2  0  0  0  0
 14 15  1  0  0  0  0
 14 38  1  0  0  0  0
 15 16  2  0  0  0  0
 15 39  1  0  0  0  0
 16 17  1  0  0  0  0
 16 20  1  0  0  0  0
 17 18  1  0  0  0  0
 17 19  1  0  0  0  0
 18 40  1  0  0  0  0
 18 41  1  0  0  0  0
 18 42  1  0  0  0  0
 19 43  1  0  0  0  0
 19 44  1  0  0  0  0
 19 45  1  0  0  0  0
 20 21  2  0  0  0  0
 21 46  1  0  0  0  0
 22 23  1  0  0  0  0
 22 47  1  0  0  0  0
 22 48  1  0  0  0  0
 23 49  1  0  0  0  0
 23 50  1  0  0  0  0
M  END
> <s_m_source_file>
AV-unprocessed.smi

> <i_m_source_file_index>
1055

> <i_lp_mmshare_version>
43012

> <i_f3d_flags>
0

> <s_epik_input>
W0NIMl09QyhbQ0gzXSlbQ0gyXU4xW0NIMl1bQ0gyXVtDSF0oW0NIMl1bQ0gyXTEpW05IXUMoPU8pW05IXWMyW2NIXVtjSF1jKE4oW0NIM10pW0NIM10pbltjSF0y

> <s_epik_cmdline>
J2VwaWtfcHl0aG9uJywgJy1waCcsICc3LjAnLCAnLXRuJywgJzgnLCAnLW1hJywgJzIwMCcsICctbWV0YWxfYmluZGluZycsICctaW1hZScsICc8aW5maWxlLm1hZT4nLCAnLW9tYWUnLCAnPG91dGZpbGUubWFlPic=

> <r_epik_Ionization_Penalty>
2.66572

> <r_epik_Ionization_Penalty_Charging>
0

> <r_epik_Ionization_Penalty_Neutral>
2.66572

> <r_epik_State_Penalty>
2.75204

> <r_epik_Charging_Adjusted_Penalty>
2.75204

> <i_epik_Tot_Q>
0

> <i_epik_Tot_abs_Q>
0

> <r_epik_Metal_State_Penalty>
2.38689

> <b_epik_Metal_Only>
1

> <s_lp_Force_Field>
OPLS_2005

> <r_lp_Energy>
18.8719

> <b_lp_Chiralities_Consistent>
1

> <s_lp_Variant>
AV-unprocessed.smi:1055-6

> <Gold.Version>
5.8.1

> <Gold.Id.Protein>
6NUR|6NUR_protein|mol2

> <Gold.PLP.Fitness>
42.1743

> <Gold.PLP.PLP>
-35.8234

> <Gold.PLP.part.hbond>
-2.3387

> <Gold.PLP.part.metal>
0.0000

> <Gold.PLP.part.buried>
-2.5583

> <Gold.PLP.part.nonpolar>
-32.8040

> <Gold.PLP.part.repulsive>
1.0053

> <Gold.PLP.ligand.clash>
0.0000

> <Gold.PLP.ligand.torsion>
0.2738

> <Gold.PLP.Chemscore.Hbond>
1.2960

> <Gold.PLP.Chemscore.CHOScore>
1.0000

> <Gold.PLP.Chemscore.Metal>
0.0000

> <Gold.Chemscore.Hbonds>
donor molecule, donor type, donor heavy atom, donor atom, acceptor molecule, acceptor atom, score
      L1  H     9    36       P1 10175  0.43
      L1  H    12    37       P1 10171  0.32
      L1  C    21    46       P1 10171  0.98

> <Gold.PLP.Chemscore.Internal.Correction>
0.0106

> <Gold.Rescore>
     Score         DG    S(hbond)    S(metal)    S(lipo)     H(rot)  DE(clash)    DE(int)     intcor
     14.02     -16.89       1.43        0.00      85.12       1.30       0.24       2.63       ----

> <Gold.Chemscore.Fitness>
14.0174

> <Gold.Chemscore.DG>
-16.8932

> <Gold.Chemscore.ZeroCoef>
-5.4800

> <Gold.Chemscore.Hbond>
1.4340

> <Gold.Chemscore.Metal>
0.0000

> <Gold.Chemscore.Lipo>
85.1159

> <Gold.Chemscore.Internal_Hbond>
0.0000

> <Gold.Chemscore.DEClash>
0.2431

> <Gold.Chemscore.DEInternal>
2.6327

> <Gold.Chemscore.Rot>
1.3027

> <Gold.Chemscore.Internal.Correction>
   9.000000E+99

> <Gold.Chemscore.Hbonds>
donor molecule, donor type, donor heavy atom, donor atom, acceptor molecule, acceptor atom, score
      L1  H     9    36       P1 10175  0.40
      L1  H    12    37       P1 10171  0.32

> <Gold.Chemscore.Hbond.Weighted>
-4.7894

> <Gold.Chemscore.Metal.Weighted>
-0.0000

> <Gold.Chemscore.Lipo.Weighted>
-9.9586

> <Gold.Chemscore.Internal_Hbond.Weighted>
0.0000

> <Gold.Chemscore.DEClash.Weighted>
0.2431

> <Gold.Chemscore.DEInternal.Weighted>
2.6327

> <Gold.Chemscore.Rot.Weighted>
3.3348

> <Gold.Chemscore.Internal.Correction.Weighted>
   9.000000E+99

> <Gold.Protein.RotatedTorsions>
[ 6907 6896 6895 6894 ] final   14.81 input  -60.11 | X-H torsion
[ 7974 7965 7964 7962 ] final  161.11 input  175.53 | X-H torsion
[ 8008 7997 7996 7995 ] final   66.47 input   59.86 | X-H torsion
[ 10167 10162 10161 10158 ] final   17.27 input  -65.29 | X-H torsion
[ 10718 10713 10712 10709 ] final -176.66 input   66.30 | X-H torsion
[ 10763 10752 10751 10750 ] final  102.25 input  -60.55 | X-H torsion
[ 11005 11000 10999 10996 ] final   44.49 input  -57.11 | X-H torsion

> <Gold.Protein.ActiveResidues>
 VAL166  LYS551  ARG553  GLY616  TRP617  ASP618  TYR619  PRO620  LYS621  CYS622 
 ASP623  PHE694  ASN695  SER759  ASP760  ASP761  ALA762  ILE779  LEU786  VAL792 
 PHE793  MET794  SER795  GLU796  ALA797  LYS798  CYS799  TRP800  GLU811  SER814 

> <Gold.Protein.RotatedAtoms>
  151.8082  135.0689  160.0409 H   0  0  0  0  0  0  0  0  0  0  0  0  # atno 6907 bound_to 6896
  152.3040  133.5679  159.5645 H   0  0  0  0  0  0  0  0  0  0  0  0  # atno 6908 bound_to 6896
  150.7287  134.0166  159.3729 H   0  0  0  0  0  0  0  0  0  0  0  0  # atno 6909 bound_to 6896
  144.7702  139.7852  143.6300 H   0  0  0  0  0  0  0  0  0  0  0  0  # atno 7974 bound_to 7965
  155.6778  140.3496  155.4843 H   0  0  0  0  0  0  0  0  0  0  0  0  # atno 8008 bound_to 7997
  155.9632  140.1141  157.0900 H   0  0  0  0  0  0  0  0  0  0  0  0  # atno 8009 bound_to 7997
  154.4148  140.1171  156.5194 H   0  0  0  0  0  0  0  0  0  0  0  0  # atno 8010 bound_to 7997
  140.5738  143.9112  150.6733 H   0  0  0  0  0  0  0  0  0  0  0  0  # atno 10167 bound_to 10162
  156.8179  130.9609  151.3113 H   0  0  0  0  0  0  0  0  0  0  0  0  # atno 10718 bound_to 10713
  153.3371  135.4017  155.1542 H   0  0  0  0  0  0  0  0  0  0  0  0  # atno 10763 bound_to 10752
  154.8636  135.3624  154.5394 H   0  0  0  0  0  0  0  0  0  0  0  0  # atno 10764 bound_to 10752
  153.5836  135.7076  153.5512 H   0  0  0  0  0  0  0  0  0  0  0  0  # atno 10765 bound_to 10752
  140.1546  134.4418  155.8358 H   0  0  0  0  0  0  0  0  0  0  0  0  # atno 11005 bound_to 11000
  146.1843  139.5050  142.9846 LP  0  0  0  0  0  0  0  0  0  0  0  0  # atno 17320 bound_to 7965
  145.6346  141.0297  143.1844 LP  0  0  0  0  0  0  0  0  0  0  0  0  # atno 17321 bound_to 7965
  140.2594  143.3535  152.1336 LP  0  0  0  0  0  0  0  0  0  0  0  0  # atno 17342 bound_to 10162
  139.5131  144.6928  151.5714 LP  0  0  0  0  0  0  0  0  0  0  0  0  # atno 17343 bound_to 10162
  157.6472  130.8854  149.9562 LP  0  0  0  0  0  0  0  0  0  0  0  0  # atno 17370 bound_to 10713
  156.1006  130.3656  150.0225 LP  0  0  0  0  0  0  0  0  0  0  0  0  # atno 17371 bound_to 10713
  141.2203  133.6887  156.7485 LP  0  0  0  0  0  0  0  0  0  0  0  0  # atno 17394 bound_to 11000
  140.2562  134.8502  157.3715 LP  0  0  0  0  0  0  0  0  0  0  0  0  # atno 17395 bound_to 11000

$$$$
