AV-unprocessed.smi:2083|AV-procd|sdf|8491|dock7
  -GOLD-   2272011203D 1   1.00000     0.00000
 Structure written by MMmdl.
 45 46  0  0  0  0  0  0  0  0  2 V2000
  150.8298  140.0855  158.5087 C   0  0  0  0  0  0  0  0  0  0  0  0
  150.7130  139.8286  157.0454 C   0  0  0  0  0  0  0  0  0  0  0  0
  149.6456  139.6016  156.2229 C   0  0  0  0  0  0  0  0  0  0  0  0
  150.2523  139.4386  154.9494 C   0  0  0  0  0  0  0  0  0  0  0  0
  149.4669  139.1796  153.7971 N   0  0  0  0  0  0  0  0  0  0  0  0
  148.1907  138.7615  153.7547 C   0  0  0  0  0  0  0  0  0  0  0  0
  147.4916  138.5154  154.7380 O   0  0  0  0  0  0  0  0  0  0  0  0
  147.7602  138.6335  152.4907 N   0  0  0  0  0  0  0  0  0  0  0  0
  146.4155  138.2243  152.0930 C   0  0  0  0  0  0  0  0  0  0  0  0
  145.8607  137.0746  152.9731 C   0  0  1  0  0  0  0  0  0  0  0  0
  144.3399  137.1604  153.2071 C   0  0  0  0  0  0  0  0  0  0  0  0
  146.2319  135.7202  152.4675 N   0  3  1  0  0  0  0  0  0  0  0  0
  146.5778  134.7197  153.5137 C   0  0  0  0  0  0  0  0  0  0  0  0
  147.1822  133.4595  152.8760 C   0  0  0  0  0  0  0  0  0  0  0  0
  146.2207  132.8562  151.8429 C   0  0  0  0  0  0  0  0  0  0  0  0
  145.8330  133.9092  150.7901 C   0  0  1  0  0  0  0  0  0  0  0  0
  144.8444  133.3383  149.7634 C   0  0  0  0  0  0  0  0  0  0  0  0
  145.2688  135.1700  151.4763 C   0  0  0  0  0  0  0  0  0  0  0  0
  151.5709  139.5543  154.9904 N   0  0  0  0  0  0  0  0  0  0  0  0
  151.8728  139.8045  156.3342 O   0  0  0  0  0  0  0  0  0  0  0  0
  149.8456  140.1407  158.9747 H   0  0  0  0  0  0  0  0  0  0  0  0
  151.3456  141.0274  158.6955 H   0  0  0  0  0  0  0  0  0  0  0  0
  151.3908  139.2889  158.9974 H   0  0  0  0  0  0  0  0  0  0  0  0
  148.6008  139.5602  156.4921 H   0  0  0  0  0  0  0  0  0  0  0  0
  149.9252  139.3365  152.9119 H   0  0  0  0  0  0  0  0  0  0  0  0
  148.4057  138.8552  151.7466 H   0  0  0  0  0  0  0  0  0  0  0  0
  145.7469  139.0858  152.1078 H   0  0  0  0  0  0  0  0  0  0  0  0
  146.4756  137.9074  151.0521 H   0  0  0  0  0  0  0  0  0  0  0  0
  146.3128  137.1729  153.9612 H   0  0  0  0  0  0  0  0  0  0  0  0
  144.0763  138.0502  153.7786 H   0  0  0  0  0  0  0  0  0  0  0  0
  143.9799  136.3010  153.7736 H   0  0  0  0  0  0  0  0  0  0  0  0
  143.7842  137.2005  152.2702 H   0  0  0  0  0  0  0  0  0  0  0  0
  147.2918  135.1371  154.2230 H   0  0  0  0  0  0  0  0  0  0  0  0
  145.6872  134.4457  154.0805 H   0  0  0  0  0  0  0  0  0  0  0  0
  148.1300  133.7079  152.3964 H   0  0  0  0  0  0  0  0  0  0  0  0
  147.4089  132.7232  153.6477 H   0  0  0  0  0  0  0  0  0  0  0  0
  146.6850  131.9940  151.3629 H   0  0  0  0  0  0  0  0  0  0  0  0
  145.3267  132.4872  152.3479 H   0  0  0  0  0  0  0  0  0  0  0  0
  146.7372  134.1956  150.2503 H   0  0  0  0  0  0  0  0  0  0  0  0
  143.9121  133.0307  150.2379 H   0  0  0  0  0  0  0  0  0  0  0  0
  145.2628  132.4676  149.2575 H   0  0  0  0  0  0  0  0  0  0  0  0
  144.6007  134.0762  148.9985 H   0  0  0  0  0  0  0  0  0  0  0  0
  144.3237  134.9366  151.9683 H   0  0  0  0  0  0  0  0  0  0  0  0
  145.0535  135.9231  150.7172 H   0  0  0  0  0  0  0  0  0  0  0  0
  147.0837  135.8686  151.9451 H   0  0  0  0  0  0  0  0  0  0  0  0
  1  2  1  0  0  0  0
  1 21  1  0  0  0  0
  1 22  1  0  0  0  0
  1 23  1  0  0  0  0
  2 20  1  0  0  0  0
  2  3  2  0  0  0  0
  3  4  1  0  0  0  0
  3 24  1  0  0  0  0
  4  5  1  0  0  0  0
  4 19  2  0  0  0  0
  5  6  1  0  0  0  0
  5 25  1  0  0  0  0
  6  7  2  0  0  0  0
  6  8  1  0  0  0  0
  8  9  1  0  0  0  0
  8 26  1  0  0  0  0
  9 10  1  0  0  0  0
  9 27  1  0  0  0  0
  9 28  1  0  0  0  0
 10 11  1  0  0  0  0
 10 12  1  0  0  0  0
 10 29  1  0  0  0  0
 11 30  1  0  0  0  0
 11 31  1  0  0  0  0
 11 32  1  0  0  0  0
 12 18  1  0  0  0  0
 12 13  1  0  0  0  0
 12 45  1  0  0  0  0
 13 14  1  0  0  0  0
 13 33  1  0  0  0  0
 13 34  1  0  0  0  0
 14 15  1  0  0  0  0
 14 35  1  0  0  0  0
 14 36  1  0  0  0  0
 15 16  1  0  0  0  0
 15 37  1  0  0  0  0
 15 38  1  0  0  0  0
 16 17  1  0  0  0  0
 16 18  1  0  0  0  0
 16 39  1  0  0  0  0
 17 40  1  0  0  0  0
 17 41  1  0  0  0  0
 17 42  1  0  0  0  0
 18 43  1  0  0  0  0
 18 44  1  0  0  0  0
 19 20  1  0  0  0  0
M  CHG  1  12   1
M  END
> <s_m_source_file>
AV-unprocessed.smi

> <i_m_source_file_index>
2083

> <i_lp_mmshare_version>
43012

> <i_f3d_flags>
0

> <s_epik_input>
W0NIM11jMVtjSF1jKG5vMSlbTkhdQyg9TylbTkhdW0NIMl1bQ0BIXShbQ0gzXSlOMltDSDJdW0NIMl1bQ0gyXVtDQEBIXShbQ0gzXSlbQ0gyXTI=

> <s_epik_cmdline>
J2VwaWtfcHl0aG9uJywgJy1waCcsICc3LjAnLCAnLXRuJywgJzgnLCAnLW1hJywgJzIwMCcsICctbWV0YWxfYmluZGluZycsICctaW1hZScsICc8aW5maWxlLm1hZT4nLCAnLW9tYWUnLCAnPG91dGZpbGUubWFlPic=

> <r_epik_Ionization_Penalty>
0.00216453

> <r_epik_Ionization_Penalty_Charging>
0.00212879

> <r_epik_Ionization_Penalty_Neutral>
3.57418e-05

> <r_epik_State_Penalty>
0.00146033

> <r_epik_Charging_Adjusted_Penalty>
0.00358912

> <i_epik_Tot_Q>
1

> <i_epik_Tot_abs_Q>
1

> <r_epik_Metal_State_Penalty>
0.0215827

> <b_epik_Metal_Only>
0

> <s_lp_Force_Field>
OPLS_2005

> <r_lp_Energy>
17.3533

> <b_lp_Chiralities_Consistent>
1

> <s_lp_Variant>
AV-unprocessed.smi:2083-2

> <Gold.Version>
5.8.1

> <Gold.Id.Protein>
6NUR|6NUR_protein|mol2

> <Gold.PLP.Fitness>
42.6920

> <Gold.PLP.PLP>
-30.6490

> <Gold.PLP.part.hbond>
-4.9903

> <Gold.PLP.part.metal>
0.0000

> <Gold.PLP.part.buried>
-2.7865

> <Gold.PLP.part.nonpolar>
-23.5530

> <Gold.PLP.part.repulsive>
0.3840

> <Gold.PLP.ligand.clash>
0.0000

> <Gold.PLP.ligand.torsion>
1.3175

> <Gold.PLP.Chemscore.Hbond>
4.8560

> <Gold.PLP.Chemscore.CHOScore>
0.0000

> <Gold.PLP.Chemscore.Metal>
0.0000

> <Gold.Chemscore.Hbonds>
donor molecule, donor type, donor heavy atom, donor atom, acceptor molecule, acceptor atom, score
      L1  H     5    25       P1  7957  0.85
      L1  H     8    26       P1  7957  0.93
      L1  H    12    45       P1  7948  2.00
      P1  H  7989  7998       L1    19  0.75

> <Gold.PLP.Chemscore.Internal.Correction>
0.1101

> <Gold.Rescore>
     Score         DG    S(hbond)    S(metal)    S(lipo)     H(rot)  DE(clash)    DE(int)     intcor
     16.74     -20.79       3.80        0.00      56.14       1.55       0.01       4.04       ----

> <Gold.Chemscore.Fitness>
16.7357

> <Gold.Chemscore.DG>
-20.7852

> <Gold.Chemscore.ZeroCoef>
-5.4800

> <Gold.Chemscore.Hbond>
3.8017

> <Gold.Chemscore.Metal>
0.0000

> <Gold.Chemscore.Lipo>
56.1435

> <Gold.Chemscore.Internal_Hbond>
0.0000

> <Gold.Chemscore.DEClash>
0.0141

> <Gold.Chemscore.DEInternal>
4.0354

> <Gold.Chemscore.Rot>
1.5474

> <Gold.Chemscore.Internal.Correction>
   9.000000E+99

> <Gold.Chemscore.Hbonds>
donor molecule, donor type, donor heavy atom, donor atom, acceptor molecule, acceptor atom, score
      L1  H     5    25       P1  7957  0.83
      L1  H     8    26       P1  7957  0.71
      L1  H    12    45       P1  7948  0.97
      P1  H  7989  7998       L1    19  0.09

> <Gold.Chemscore.Hbond.Weighted>
-12.6976

> <Gold.Chemscore.Metal.Weighted>
-0.0000

> <Gold.Chemscore.Lipo.Weighted>
-6.5688

> <Gold.Chemscore.Internal_Hbond.Weighted>
0.0000

> <Gold.Chemscore.DEClash.Weighted>
0.0141

> <Gold.Chemscore.DEInternal.Weighted>
4.0354

> <Gold.Chemscore.Rot.Weighted>
3.9612

> <Gold.Chemscore.Internal.Correction.Weighted>
   9.000000E+99

> <Gold.Protein.RotatedTorsions>
[ 6907 6896 6895 6894 ] final -129.28 input  -60.11 | X-H torsion
[ 7974 7965 7964 7962 ] final -175.61 input  175.53 | X-H torsion
[ 8008 7997 7996 7995 ] final -144.20 input   59.86 | X-H torsion
[ 10167 10162 10161 10158 ] final  131.35 input  -65.29 | X-H torsion
[ 10718 10713 10712 10709 ] final   88.47 input   66.30 | X-H torsion
[ 10763 10752 10751 10750 ] final  -16.21 input  -60.55 | X-H torsion
[ 11005 11000 10999 10996 ] final   92.30 input  -57.11 | X-H torsion

> <Gold.Protein.ActiveResidues>
 VAL166  LYS551  ARG553  GLY616  TRP617  ASP618  TYR619  PRO620  LYS621  CYS622 
 ASP623  PHE694  ASN695  SER759  ASP760  ASP761  ALA762  ILE779  LEU786  VAL792 
 PHE793  MET794  SER795  GLU796  ALA797  LYS798  CYS799  TRP800  GLU811  SER814 

> <Gold.Protein.RotatedAtoms>
  150.9270  133.6812  159.2819 H   0  0  0  0  0  0  0  0  0  0  0  0  # atno 6907 bound_to 6896
  151.4247  135.1001  159.9634 H   0  0  0  0  0  0  0  0  0  0  0  0  # atno 6908 bound_to 6896
  152.5007  133.8713  159.7355 H   0  0  0  0  0  0  0  0  0  0  0  0  # atno 6909 bound_to 6896
  144.7128  140.1296  143.6399 H   0  0  0  0  0  0  0  0  0  0  0  0  # atno 7974 bound_to 7965
  155.5230  140.0593  157.2903 H   0  0  0  0  0  0  0  0  0  0  0  0  # atno 8008 bound_to 7997
  154.4511  140.1949  156.0463 H   0  0  0  0  0  0  0  0  0  0  0  0  # atno 8009 bound_to 7997
  156.0705  140.3260  155.7574 H   0  0  0  0  0  0  0  0  0  0  0  0  # atno 8010 bound_to 7997
  139.5388  144.6709  151.4696 H   0  0  0  0  0  0  0  0  0  0  0  0  # atno 10167 bound_to 10162
  157.6949  131.0296  150.3279 H   0  0  0  0  0  0  0  0  0  0  0  0  # atno 10718 bound_to 10713
  153.5551  135.7011  153.5573 H   0  0  0  0  0  0  0  0  0  0  0  0  # atno 10763 bound_to 10752
  153.3480  135.4003  155.1624 H   0  0  0  0  0  0  0  0  0  0  0  0  # atno 10764 bound_to 10752
  154.8656  135.3758  154.5064 H   0  0  0  0  0  0  0  0  0  0  0  0  # atno 10765 bound_to 10752
  139.8825  134.8725  156.3553 H   0  0  0  0  0  0  0  0  0  0  0  0  # atno 11005 bound_to 11000
  145.9299  139.2599  143.1331 LP  0  0  0  0  0  0  0  0  0  0  0  0  # atno 17320 bound_to 7965
  145.9534  140.8891  143.0248 LP  0  0  0  0  0  0  0  0  0  0  0  0  # atno 17321 bound_to 7965
  140.6607  143.8503  150.6885 LP  0  0  0  0  0  0  0  0  0  0  0  0  # atno 17342 bound_to 10162
  140.1897  143.4046  152.1872 LP  0  0  0  0  0  0  0  0  0  0  0  0  # atno 17343 bound_to 10162
  156.3757  130.3871  149.7141 LP  0  0  0  0  0  0  0  0  0  0  0  0  # atno 17370 bound_to 10713
  156.4540  130.7920  151.2941 LP  0  0  0  0  0  0  0  0  0  0  0  0  # atno 17371 bound_to 10713
  140.9566  133.7416  156.0344 LP  0  0  0  0  0  0  0  0  0  0  0  0  # atno 17394 bound_to 11000
  140.8040  134.3475  157.5431 LP  0  0  0  0  0  0  0  0  0  0  0  0  # atno 17395 bound_to 11000

$$$$
