AV-unprocessed.smi:386|AV-procd|sdf|2473|dock9
  -GOLD-   2262022413D 1   1.00000     0.00000
 Structure written by MMmdl.
 27 28  0  0  0  0  0  0  0  0  1 V2000
  155.0475  141.1928  162.1341 N   0  0  0  0  0  0  0  0  0  0  0  0
  154.2058  141.3732  161.3603 C   0  0  0  0  0  0  0  0  0  0  0  0
  153.1903  141.5941  160.3848 C   0  0  0  0  0  0  0  0  0  0  0  0
  152.8516  142.8351  159.9794 C   0  0  0  0  0  0  0  0  0  0  0  0
  151.8782  143.0660  159.0319 N   0  0  0  0  0  0  0  0  0  0  0  0
  151.4240  144.3953  158.7338 C   0  0  0  0  0  0  0  0  0  0  0  0
  152.1191  145.5975  159.3428 C   0  0  0  0  0  0  0  0  0  0  0  0
  150.7440  145.1992  159.8204 C   0  0  0  0  0  0  0  0  0  0  0  0
  151.1346  141.9889  158.5018 C   0  0  0  0  0  0  0  0  0  0  0  0
  150.1936  142.1825  157.7280 O   0  0  0  0  0  0  0  0  0  0  0  0
  151.4940  140.6774  158.8968 N   0  0  0  0  0  0  0  0  0  0  0  0
  150.7370  139.5358  158.3371 C   0  0  0  0  0  0  0  0  0  0  0  0
  150.9098  139.3683  156.8191 C   0  0  0  0  0  0  0  0  0  0  0  0
  149.8321  139.6078  156.0688 N   0  0  0  0  0  0  0  0  0  0  0  0
  151.9851  139.0301  156.3262 O   0  0  0  0  0  0  0  0  0  0  0  0
  152.5201  140.4154  159.8406 C   0  0  0  0  0  0  0  0  0  0  0  0
  152.7991  139.2615  160.1715 O   0  0  0  0  0  0  0  0  0  0  0  0
  153.3649  143.6833  160.4094 H   0  0  0  0  0  0  0  0  0  0  0  0
  151.0342  144.5359  157.7272 H   0  0  0  0  0  0  0  0  0  0  0  0
  152.9504  145.4231  160.0234 H   0  0  0  0  0  0  0  0  0  0  0  0
  152.2002  146.4923  158.7292 H   0  0  0  0  0  0  0  0  0  0  0  0
  149.9082  145.8315  159.5283 H   0  0  0  0  0  0  0  0  0  0  0  0
  150.6704  144.7601  160.8135 H   0  0  0  0  0  0  0  0  0  0  0  0
  151.0253  138.6019  158.8224 H   0  0  0  0  0  0  0  0  0  0  0  0
  149.6724  139.6288  158.5575 H   0  0  0  0  0  0  0  0  0  0  0  0
  149.8840  139.5129  155.0650 H   0  0  0  0  0  0  0  0  0  0  0  0
  148.9663  139.8825  156.5099 H   0  0  0  0  0  0  0  0  0  0  0  0
  1  2  3  0  0  0  0
  2  3  1  0  0  0  0
  3 16  1  0  0  0  0
  3  4  2  0  0  0  0
  4  5  1  0  0  0  0
  4 18  1  0  0  0  0
  5  6  1  0  0  0  0
  5  9  1  0  0  0  0
  6  8  1  0  0  0  0
  6  7  1  0  0  0  0
  6 19  1  0  0  0  0
  7  8  1  0  0  0  0
  7 20  1  0  0  0  0
  7 21  1  0  0  0  0
  8 22  1  0  0  0  0
  8 23  1  0  0  0  0
  9 10  2  0  0  0  0
  9 11  1  0  0  0  0
 11 12  1  0  0  0  0
 11 16  1  0  0  0  0
 12 13  1  0  0  0  0
 12 24  1  0  0  0  0
 12 25  1  0  0  0  0
 13 14  1  0  0  0  0
 13 15  2  0  0  0  0
 14 26  1  0  0  0  0
 14 27  1  0  0  0  0
 16 17  2  0  0  0  0
M  END
> <s_m_source_file>
AV-unprocessed.smi

> <i_m_source_file_index>
386

> <i_lp_mmshare_version>
43012

> <i_f3d_flags>
0

> <s_epik_input>
TiNDYzFbY0hdbihbQ0hdMltDSDJdW0NIMl0yKWMoPU8pbihjMT1PKVtDSDJdQyg9TylbTkgyXQ==

> <s_epik_cmdline>
J2VwaWtfcHl0aG9uJywgJy1waCcsICc3LjAnLCAnLXRuJywgJzgnLCAnLW1hJywgJzIwMCcsICctbWV0YWxfYmluZGluZycsICctaW1hZScsICc8aW5maWxlLm1hZT4nLCAnLW9tYWUnLCAnPG91dGZpbGUubWFlPic=

> <r_lp_tautomer_probability>
1

> <r_epik_Ionization_Penalty>
3.46323e-08

> <r_epik_Ionization_Penalty_Charging>
7.2855e-11

> <r_epik_Ionization_Penalty_Neutral>
3.45594e-08

> <r_epik_State_Penalty>
-0

> <r_epik_Charging_Adjusted_Penalty>
7.2855e-11

> <i_epik_Tot_Q>
0

> <i_epik_Tot_abs_Q>
0

> <r_epik_Metal_State_Penalty>
-0

> <b_epik_Metal_Only>
0

> <s_lp_Force_Field>
OPLS_2005

> <r_lp_Energy>
26.3068

> <b_lp_Chiralities_Consistent>
1

> <s_lp_Variant>
AV-unprocessed.smi:386-1

> <Gold.Version>
5.8.1

> <Gold.Id.Protein>
6NUR|6NUR_protein|mol2

> <Gold.PLP.Fitness>
42.9663

> <Gold.PLP.PLP>
-40.1557

> <Gold.PLP.part.hbond>
-1.9501

> <Gold.PLP.part.metal>
0.0000

> <Gold.PLP.part.buried>
-6.2113

> <Gold.PLP.part.nonpolar>
-32.8887

> <Gold.PLP.part.repulsive>
0.6582

> <Gold.PLP.ligand.clash>
0.0000

> <Gold.PLP.ligand.torsion>
0.1992

> <Gold.PLP.Chemscore.Hbond>
1.0000

> <Gold.PLP.Chemscore.CHOScore>
0.0000

> <Gold.PLP.Chemscore.Metal>
0.0000

> <Gold.PLP.Chemscore.Internal.Correction>
0.2091

> <Gold.Rescore>
     Score         DG    S(hbond)    S(metal)    S(lipo)     H(rot)  DE(clash)    DE(int)     intcor
     10.40     -10.76       1.00        0.00      61.03       2.03       0.05       0.32       ----

> <Gold.Chemscore.Fitness>
10.3979

> <Gold.Chemscore.DG>
-10.7607

> <Gold.Chemscore.ZeroCoef>
-5.4800

> <Gold.Chemscore.Hbond>
0.9999

> <Gold.Chemscore.Metal>
0.0000

> <Gold.Chemscore.Lipo>
61.0347

> <Gold.Chemscore.Internal_Hbond>
0.0000

> <Gold.Chemscore.DEClash>
0.0456

> <Gold.Chemscore.DEInternal>
0.3173

> <Gold.Chemscore.Rot>
2.0313

> <Gold.Chemscore.Internal.Correction>
   9.000000E+99

> <Gold.Chemscore.Hbond.Weighted>
-3.3398

> <Gold.Chemscore.Metal.Weighted>
-0.0000

> <Gold.Chemscore.Lipo.Weighted>
-7.1411

> <Gold.Chemscore.Internal_Hbond.Weighted>
0.0000

> <Gold.Chemscore.DEClash.Weighted>
0.0456

> <Gold.Chemscore.DEInternal.Weighted>
0.3173

> <Gold.Chemscore.Rot.Weighted>
5.2001

> <Gold.Chemscore.Internal.Correction.Weighted>
   9.000000E+99

> <Gold.Protein.RotatedTorsions>
[ 6907 6896 6895 6894 ] final  -11.87 input  -60.11 | X-H torsion
[ 7974 7965 7964 7962 ] final   35.40 input  175.53 | X-H torsion
[ 8008 7997 7996 7995 ] final   98.30 input   59.86 | X-H torsion
[ 10167 10162 10161 10158 ] final -116.86 input  -65.29 | X-H torsion
[ 10718 10713 10712 10709 ] final -104.30 input   66.30 | X-H torsion
[ 10763 10752 10751 10750 ] final -128.76 input  -60.55 | X-H torsion
[ 11005 11000 10999 10996 ] final   16.77 input  -57.11 | X-H torsion

> <Gold.Protein.ActiveResidues>
 VAL166  LYS551  ARG553  GLY616  TRP617  ASP618  TYR619  PRO620  LYS621  CYS622 
 ASP623  PHE694  ASN695  SER759  ASP760  ASP761  ALA762  ILE779  LEU786  VAL792 
 PHE793  MET794  SER795  GLU796  ALA797  LYS798  CYS799  TRP800  GLU811  SER814 

> <Gold.Protein.RotatedAtoms>
  151.3794  135.0937  159.9490 H   0  0  0  0  0  0  0  0  0  0  0  0  # atno 6907 bound_to 6896
  152.5112  133.9086  159.7487 H   0  0  0  0  0  0  0  0  0  0  0  0  # atno 6908 bound_to 6896
  150.9517  133.6487  159.2799 H   0  0  0  0  0  0  0  0  0  0  0  0  # atno 6909 bound_to 6896
  146.1285  139.6147  142.9242 H   0  0  0  0  0  0  0  0  0  0  0  0  # atno 7974 bound_to 7965
  156.0990  140.3246  155.7917 H   0  0  0  0  0  0  0  0  0  0  0  0  # atno 8008 bound_to 7997
  155.4868  140.0558  157.2976 H   0  0  0  0  0  0  0  0  0  0  0  0  # atno 8009 bound_to 7997
  154.4685  140.2000  156.0071 H   0  0  0  0  0  0  0  0  0  0  0  0  # atno 8010 bound_to 7997
  140.0746  143.4845  152.1960 H   0  0  0  0  0  0  0  0  0  0  0  0  # atno 10167 bound_to 10162
  156.0299  130.5508  150.7377 H   0  0  0  0  0  0  0  0  0  0  0  0  # atno 10718 bound_to 10713
  154.8757  135.3918  154.3810 H   0  0  0  0  0  0  0  0  0  0  0  0  # atno 10763 bound_to 10752
  153.4557  135.7028  153.6086 H   0  0  0  0  0  0  0  0  0  0  0  0  # atno 10764 bound_to 10752
  153.4607  135.3813  155.2305 H   0  0  0  0  0  0  0  0  0  0  0  0  # atno 10765 bound_to 10752
  140.4433  134.1299  155.7693 H   0  0  0  0  0  0  0  0  0  0  0  0  # atno 11005 bound_to 11000
  145.5312  141.0427  143.2382 LP  0  0  0  0  0  0  0  0  0  0  0  0  # atno 17320 bound_to 7965
  144.7667  139.6830  143.7212 LP  0  0  0  0  0  0  0  0  0  0  0  0  # atno 17321 bound_to 7965
  139.5815  144.7512  151.3627 LP  0  0  0  0  0  0  0  0  0  0  0  0  # atno 17342 bound_to 10162
  140.7108  143.7395  150.7564 LP  0  0  0  0  0  0  0  0  0  0  0  0  # atno 17343 bound_to 10162
  157.4953  131.0914  151.0378 LP  0  0  0  0  0  0  0  0  0  0  0  0  # atno 17370 bound_to 10713
  157.0774  130.5889  149.5414 LP  0  0  0  0  0  0  0  0  0  0  0  0  # atno 17371 bound_to 10713
  141.1696  133.8635  157.1612 LP  0  0  0  0  0  0  0  0  0  0  0  0  # atno 17394 bound_to 11000
  140.0055  135.0010  157.0283 LP  0  0  0  0  0  0  0  0  0  0  0  0  # atno 17395 bound_to 11000

$$$$
