AV-unprocessed.smi:263|AV-procd|sdf|2005|dock5
  -GOLD-   2262021203D 1   1.00000     0.00000
 Structure written by MMmdl.
 57 61  0  0  0  0  0  0  0  0  1 V2000
  147.2325  133.8881  151.7084 O   0  0  0  0  0  0  0  0  0  0  0  0
  146.2976  133.2197  152.5377 C   0  0  0  0  0  0  0  0  0  0  0  0
  146.9440  133.0361  153.9337 C   0  0  0  0  0  0  0  0  0  0  0  0
  147.6316  134.2183  154.4299 N   0  0  0  0  0  0  0  0  0  0  0  0
  147.1369  135.5023  154.4713 C   0  0  0  0  0  0  0  0  0  0  0  0
  147.9505  136.3968  154.9615 N   0  0  0  0  0  0  0  0  0  0  0  0
  149.0886  135.6730  155.2981 C   0  0  0  0  0  0  0  0  0  0  0  0
  150.3466  136.0139  155.8706 C   0  0  0  0  0  0  0  0  0  0  0  0
  150.6616  137.2791  156.2470 N   0  0  0  0  0  0  0  0  0  0  0  0
  150.8746  137.4506  157.6825 C   0  0  0  0  0  0  0  0  0  0  0  0
  150.8002  138.9357  158.0770 C   0  0  0  0  0  0  0  0  0  0  0  0
  151.7468  139.8145  157.2250 C   0  0  2  0  0  0  0  0  0  0  0  0
  153.0754  139.4602  157.5657 O   0  0  0  0  0  0  0  0  0  0  0  0
  151.6132  141.3207  157.5517 C   0  0  0  0  0  0  0  0  0  0  0  0
  150.3121  141.9396  157.0149 C   0  0  0  0  0  0  0  0  0  0  0  0
  150.1621  141.6896  155.5083 C   0  0  0  0  0  0  0  0  0  0  0  0
  150.2296  140.1899  155.1864 C   0  0  0  0  0  0  0  0  0  0  0  0
  151.5337  139.5466  155.7089 C   0  0  2  0  0  0  0  0  0  0  0  0
  151.5767  138.0361  155.3906 C   0  0  0  0  0  0  0  0  0  0  0  0
  151.2486  135.0097  156.0396 N   0  0  0  0  0  0  0  0  0  0  0  0
  150.9406  133.7584  155.6865 C   0  0  0  0  0  0  0  0  0  0  0  0
  149.8083  133.2964  155.1528 N   0  0  0  0  0  0  0  0  0  0  0  0
  148.9038  134.3004  154.9685 C   0  0  0  0  0  0  0  0  0  0  0  0
  145.0055  134.0641  152.5864 C   0  0  0  0  0  0  0  0  0  0  0  0
  144.2629  134.0635  151.2384 C   0  0  0  0  0  0  0  0  0  0  0  0
  143.9969  132.7286  150.8258 O   0  0  0  0  0  0  0  0  0  0  0  0
  145.1843  131.9792  150.5984 C   0  0  0  0  0  0  0  0  0  0  0  0
  145.9817  131.8479  151.9082 C   0  0  0  0  0  0  0  0  0  0  0  0
  147.6620  134.5587  152.2171 H   0  0  0  0  0  0  0  0  0  0  0  0
  146.1799  132.7645  154.6634 H   0  0  0  0  0  0  0  0  0  0  0  0
  147.6538  132.2076  153.9187 H   0  0  0  0  0  0  0  0  0  0  0  0
  146.1489  135.7578  154.1164 H   0  0  0  0  0  0  0  0  0  0  0  0
  150.1445  136.8899  158.2649 H   0  0  0  0  0  0  0  0  0  0  0  0
  151.8529  137.0429  157.9405 H   0  0  0  0  0  0  0  0  0  0  0  0
  149.7696  139.2690  157.9572 H   0  0  0  0  0  0  0  0  0  0  0  0
  151.0291  139.0472  159.1376 H   0  0  0  0  0  0  0  0  0  0  0  0
  153.2306  139.7064  158.4647 H   0  0  0  0  0  0  0  0  0  0  0  0
  151.6827  141.4823  158.6283 H   0  0  0  0  0  0  0  0  0  0  0  0
  152.4521  141.8628  157.1117 H   0  0  0  0  0  0  0  0  0  0  0  0
  149.4525  141.5297  157.5453 H   0  0  0  0  0  0  0  0  0  0  0  0
  150.3073  143.0119  157.2122 H   0  0  0  0  0  0  0  0  0  0  0  0
  149.2162  142.1022  155.1561 H   0  0  0  0  0  0  0  0  0  0  0  0
  150.9496  142.2169  154.9683 H   0  0  0  0  0  0  0  0  0  0  0  0
  149.3618  139.6905  155.6182 H   0  0  0  0  0  0  0  0  0  0  0  0
  150.1541  140.0479  154.1080 H   0  0  0  0  0  0  0  0  0  0  0  0
  152.3516  140.0184  155.1619 H   0  0  0  0  0  0  0  0  0  0  0  0
  152.5893  137.6570  155.5371 H   0  0  0  0  0  0  0  0  0  0  0  0
  151.3295  137.8775  154.3400 H   0  0  0  0  0  0  0  0  0  0  0  0
  151.7121  133.0219  155.8561 H   0  0  0  0  0  0  0  0  0  0  0  0
  144.3400  133.6599  153.3502 H   0  0  0  0  0  0  0  0  0  0  0  0
  145.2231  135.0916  152.8803 H   0  0  0  0  0  0  0  0  0  0  0  0
  143.3161  134.5950  151.3359 H   0  0  0  0  0  0  0  0  0  0  0  0
  144.8390  134.5855  150.4728 H   0  0  0  0  0  0  0  0  0  0  0  0
  144.9090  130.9906  150.2305 H   0  0  0  0  0  0  0  0  0  0  0  0
  145.7831  132.4497  149.8170 H   0  0  0  0  0  0  0  0  0  0  0  0
  146.8995  131.2852  151.7330 H   0  0  0  0  0  0  0  0  0  0  0  0
  145.3918  131.2566  152.6099 H   0  0  0  0  0  0  0  0  0  0  0  0
  1  2  1  0  0  0  0
  1 29  1  0  0  0  0
  2 28  1  0  0  0  0
  2  3  1  0  0  0  0
  2 24  1  0  0  0  0
  3  4  1  0  0  0  0
  3 30  1  0  0  0  0
  3 31  1  0  0  0  0
  4 23  1  0  0  0  0
  4  5  1  0  0  0  0
  5  6  2  0  0  0  0
  5 32  1  0  0  0  0
  6  7  1  0  0  0  0
  7 23  2  0  0  0  0
  7  8  1  0  0  0  0
  8  9  1  0  0  0  0
  8 20  2  0  0  0  0
  9 19  1  0  0  0  0
  9 10  1  0  0  0  0
 10 11  1  0  0  0  0
 10 33  1  0  0  0  0
 10 34  1  0  0  0  0
 11 12  1  0  0  0  0
 11 35  1  0  0  0  0
 11 36  1  0  0  0  0
 12 18  1  0  0  0  0
 12 13  1  0  0  0  0
 12 14  1  0  0  0  0
 13 37  1  0  0  0  0
 14 15  1  0  0  0  0
 14 38  1  0  0  0  0
 14 39  1  0  0  0  0
 15 16  1  0  0  0  0
 15 40  1  0  0  0  0
 15 41  1  0  0  0  0
 16 17  1  0  0  0  0
 16 42  1  0  0  0  0
 16 43  1  0  0  0  0
 17 18  1  0  0  0  0
 17 44  1  0  0  0  0
 17 45  1  0  0  0  0
 18 19  1  0  0  0  0
 18 46  1  0  0  0  0
 19 47  1  0  0  0  0
 19 48  1  0  0  0  0
 20 21  1  0  0  0  0
 21 22  2  0  0  0  0
 21 49  1  0  0  0  0
 22 23  1  0  0  0  0
 24 25  1  0  0  0  0
 24 50  1  0  0  0  0
 24 51  1  0  0  0  0
 25 26  1  0  0  0  0
 25 52  1  0  0  0  0
 25 53  1  0  0  0  0
 26 27  1  0  0  0  0
 27 28  1  0  0  0  0
 27 54  1  0  0  0  0
 27 55  1  0  0  0  0
 28 56  1  0  0  0  0
 28 57  1  0  0  0  0
M  END
> <s_m_source_file>
AV-unprocessed.smi

> <i_m_source_file_index>
263

> <i_lp_mmshare_version>
43012

> <i_f3d_flags>
0

> <s_epik_input>
W0NIMl0xW0NIMl1PW0NIMl1bQ0gyXUMxKFtPSF0pW0NIMl1uKFtjSF1uMiljKGMyMyluW2NIXW5jM04oW0NIMl1bQ0gyXTQpW0NIMl1bQ0BASF0oW0NAXTQ1W09IXSlbQ0gyXVtDSDJdW0NIMl1bQ0gyXTU=

> <s_epik_cmdline>
J2VwaWtfcHl0aG9uJywgJy1waCcsICc3LjAnLCAnLXRuJywgJzgnLCAnLW1hJywgJzIwMCcsICctbWV0YWxfYmluZGluZycsICctaW1hZScsICc8aW5maWxlLm1hZT4nLCAnLW9tYWUnLCAnPG91dGZpbGUubWFlPic=

> <r_lp_tautomer_probability>
1

> <r_epik_Ionization_Penalty>
0.00747493

> <r_epik_Ionization_Penalty_Charging>
0

> <r_epik_Ionization_Penalty_Neutral>
0.00747493

> <r_epik_State_Penalty>
0.00549307

> <r_epik_Charging_Adjusted_Penalty>
0.00549307

> <i_epik_Tot_Q>
0

> <i_epik_Tot_abs_Q>
0

> <r_epik_Metal_State_Penalty>
-0

> <b_epik_Metal_Only>
0

> <s_lp_Force_Field>
OPLS_2005

> <r_lp_Energy>
40.0447

> <b_lp_Chiralities_Consistent>
1

> <s_lp_Variant>
AV-unprocessed.smi:263-3

> <Gold.Version>
5.8.1

> <Gold.Id.Protein>
6NUR|6NUR_protein|mol2

> <Gold.PLP.Fitness>
43.0871

> <Gold.PLP.PLP>
-36.1830

> <Gold.PLP.part.hbond>
-3.0000

> <Gold.PLP.part.metal>
0.0000

> <Gold.PLP.part.buried>
-5.4145

> <Gold.PLP.part.nonpolar>
-25.6754

> <Gold.PLP.part.repulsive>
0.3911

> <Gold.PLP.ligand.clash>
0.0000

> <Gold.PLP.ligand.torsion>
0.5125

> <Gold.PLP.Chemscore.Hbond>
2.5179

> <Gold.PLP.Chemscore.CHOScore>
0.0000

> <Gold.PLP.Chemscore.Metal>
0.0000

> <Gold.Chemscore.Hbonds>
donor molecule, donor type, donor heavy atom, donor atom, acceptor molecule, acceptor atom, score
      L1  H     1    29       P1  7948  0.60
      P1  H  7997  8008       L1    13  0.98
      P1  H 10752 10764       L1    20  0.65

> <Gold.PLP.Chemscore.Internal.Correction>
0.3754

> <Gold.Rescore>
     Score         DG    S(hbond)    S(metal)    S(lipo)     H(rot)  DE(clash)    DE(int)     intcor
     14.20     -15.37       1.72        0.00      92.75       2.62       0.56       0.61       ----

> <Gold.Chemscore.Fitness>
14.1955

> <Gold.Chemscore.DG>
-15.3710

> <Gold.Chemscore.ZeroCoef>
-5.4800

> <Gold.Chemscore.Hbond>
1.7228

> <Gold.Chemscore.Metal>
0.0000

> <Gold.Chemscore.Lipo>
92.7542

> <Gold.Chemscore.Internal_Hbond>
0.0000

> <Gold.Chemscore.DEClash>
0.5643

> <Gold.Chemscore.DEInternal>
0.6113

> <Gold.Chemscore.Rot>
2.6232

> <Gold.Chemscore.Internal.Correction>
   9.000000E+99

> <Gold.Chemscore.Hbonds>
donor molecule, donor type, donor heavy atom, donor atom, acceptor molecule, acceptor atom, score
      L1  H     1    29       P1  7948  0.36
      P1  H  7997  8008       L1    13  0.66
      P1  H 10752 10764       L1    20  0.22

> <Gold.Chemscore.Hbond.Weighted>
-5.7543

> <Gold.Chemscore.Metal.Weighted>
-0.0000

> <Gold.Chemscore.Lipo.Weighted>
-10.8522

> <Gold.Chemscore.Internal_Hbond.Weighted>
0.0000

> <Gold.Chemscore.DEClash.Weighted>
0.5643

> <Gold.Chemscore.DEInternal.Weighted>
0.6113

> <Gold.Chemscore.Rot.Weighted>
6.7155

> <Gold.Chemscore.Internal.Correction.Weighted>
   9.000000E+99

> <Gold.Protein.RotatedTorsions>
[ 6907 6896 6895 6894 ] final -104.85 input  -60.11 | X-H torsion
[ 7974 7965 7964 7962 ] final  109.02 input  175.53 | X-H torsion
[ 8008 7997 7996 7995 ] final  -52.20 input   59.86 | X-H torsion
[ 10167 10162 10161 10158 ] final  140.95 input  -65.29 | X-H torsion
[ 10718 10713 10712 10709 ] final  -50.18 input   66.30 | X-H torsion
[ 10763 10752 10751 10750 ] final  -40.81 input  -60.55 | X-H torsion
[ 11005 11000 10999 10996 ] final  -59.76 input  -57.11 | X-H torsion

> <Gold.Protein.ActiveResidues>
 VAL166  LYS551  ARG553  GLY616  TRP617  ASP618  TYR619  PRO620  LYS621  CYS622 
 ASP623  PHE694  ASN695  SER759  ASP760  ASP761  ALA762  ILE779  LEU786  VAL792 
 PHE793  MET794  SER795  GLU796  ALA797  LYS798  CYS799  TRP800  GLU811  SER814 

> <Gold.Protein.RotatedAtoms>
  150.7307  134.0215  159.3702 H   0  0  0  0  0  0  0  0  0  0  0  0  # atno 6907 bound_to 6896
  151.8180  135.0658  160.0431 H   0  0  0  0  0  0  0  0  0  0  0  0  # atno 6908 bound_to 6896
  152.3025  133.5633  159.5664 H   0  0  0  0  0  0  0  0  0  0  0  0  # atno 6909 bound_to 6896
  145.2731  139.2659  143.3955 H   0  0  0  0  0  0  0  0  0  0  0  0  # atno 7974 bound_to 7965
  154.4101  140.1229  156.4953 H   0  0  0  0  0  0  0  0  0  0  0  0  # atno 8008 bound_to 7997
  155.6949  140.3495  155.4889 H   0  0  0  0  0  0  0  0  0  0  0  0  # atno 8009 bound_to 7997
  155.9436  140.1091  157.1025 H   0  0  0  0  0  0  0  0  0  0  0  0  # atno 8010 bound_to 7997
  139.5034  144.6202  151.6069 H   0  0  0  0  0  0  0  0  0  0  0  0  # atno 10167 bound_to 10162
  156.1824  130.4151  149.9488 H   0  0  0  0  0  0  0  0  0  0  0  0  # atno 10718 bound_to 10713
  153.9522  135.6749  153.4744 H   0  0  0  0  0  0  0  0  0  0  0  0  # atno 10763 bound_to 10752
  153.0879  135.4889  154.8629 H   0  0  0  0  0  0  0  0  0  0  0  0  # atno 10764 bound_to 10752
  154.7319  135.3140  154.8836 H   0  0  0  0  0  0  0  0  0  0  0  0  # atno 10765 bound_to 10752
  141.1261  133.6618  156.5121 H   0  0  0  0  0  0  0  0  0  0  0  0  # atno 11005 bound_to 11000
  146.3240  140.3179  142.8631 LP  0  0  0  0  0  0  0  0  0  0  0  0  # atno 17320 bound_to 7965
  144.9317  140.7983  143.5685 LP  0  0  0  0  0  0  0  0  0  0  0  0  # atno 17321 bound_to 7965
  140.5902  143.9793  150.6320 LP  0  0  0  0  0  0  0  0  0  0  0  0  # atno 17342 bound_to 10162
  140.2971  143.3285  152.1007 LP  0  0  0  0  0  0  0  0  0  0  0  0  # atno 17343 bound_to 10162
  156.7254  130.9023  151.3621 LP  0  0  0  0  0  0  0  0  0  0  0  0  # atno 17370 bound_to 10713
  157.6877  130.9202  150.0429 LP  0  0  0  0  0  0  0  0  0  0  0  0  # atno 17371 bound_to 10713
  140.4361  134.7058  157.4967 LP  0  0  0  0  0  0  0  0  0  0  0  0  # atno 17394 bound_to 11000
  140.0261  134.6475  155.9171 LP  0  0  0  0  0  0  0  0  0  0  0  0  # atno 17395 bound_to 11000

$$$$
