AV-unprocessed.smi:2740|AV-procd|sdf|10555|dock1
  -GOLD-   2272015 03D 1   1.00000     0.00000
 Structure written by MMmdl.
 31 32  0  0  0  0  0  0  0  0  1 V2000
  150.8151  141.5839  156.1252 C   0  0  0  0  0  0  0  0  0  0  0  0
  149.7421  140.9002  155.3473 C   0  0  0  0  0  0  0  0  0  0  0  0
  148.4758  141.3618  155.0798 C   0  0  0  0  0  0  0  0  0  0  0  0
  147.7023  140.4831  154.3175 N   0  0  0  0  0  0  0  0  0  0  0  0
  148.3702  139.3664  154.0085 C   0  0  0  0  0  0  0  0  0  0  0  0
  147.8365  138.3001  153.2377 N   0  0  0  0  0  0  0  0  0  0  0  0
  146.5462  137.9637  153.0658 C   0  0  0  0  0  0  0  0  0  0  0  0
  145.5869  138.5391  153.5801 O   0  0  0  0  0  0  0  0  0  0  0  0
  146.4257  136.9032  152.2541 N   0  0  0  0  0  0  0  0  0  0  0  0
  145.1667  136.2787  151.8594 C   0  0  0  0  0  0  0  0  0  0  0  0
  145.3703  135.2217  150.7604 C   0  0  1  0  0  0  0  0  0  0  0  0
  146.2783  134.0523  151.1442 C   0  0  0  0  0  0  0  0  0  0  0  0
  145.7949  132.9708  150.2062 C   0  0  0  0  0  0  0  0  0  0  0  0
  144.2905  133.2244  150.1899 C   0  0  0  0  0  0  0  0  0  0  0  0
  144.1233  134.6218  150.4190 O   0  0  0  0  0  0  0  0  0  0  0  0
  150.0065  139.3236  154.6461 S   0  0  0  0  0  0  0  0  0  0  0  0
  150.5852  142.6403  156.2658 H   0  0  0  0  0  0  0  0  0  0  0  0
  151.7728  141.5157  155.6087 H   0  0  0  0  0  0  0  0  0  0  0  0
  150.9278  141.1292  157.1095 H   0  0  0  0  0  0  0  0  0  0  0  0
  148.0437  142.3018  155.3901 H   0  0  0  0  0  0  0  0  0  0  0  0
  148.5166  137.7321  152.7545 H   0  0  0  0  0  0  0  0  0  0  0  0
  147.2687  136.4952  151.8776 H   0  0  0  0  0  0  0  0  0  0  0  0
  144.6570  135.8423  152.7201 H   0  0  0  0  0  0  0  0  0  0  0  0
  144.5110  137.0659  151.4865 H   0  0  0  0  0  0  0  0  0  0  0  0
  145.7593  135.6947  149.8573 H   0  0  0  0  0  0  0  0  0  0  0  0
  147.3384  134.2790  151.0270 H   0  0  0  0  0  0  0  0  0  0  0  0
  146.1041  133.7518  152.1783 H   0  0  0  0  0  0  0  0  0  0  0  0
  146.2139  133.1235  149.2107 H   0  0  0  0  0  0  0  0  0  0  0  0
  146.0551  131.9654  150.5384 H   0  0  0  0  0  0  0  0  0  0  0  0
  143.8285  132.9165  149.2517 H   0  0  0  0  0  0  0  0  0  0  0  0
  143.8043  132.6810  151.0010 H   0  0  0  0  0  0  0  0  0  0  0  0
  1  2  1  0  0  0  0
  1 17  1  0  0  0  0
  1 18  1  0  0  0  0
  1 19  1  0  0  0  0
  2 16  1  0  0  0  0
  2  3  2  0  0  0  0
  3  4  1  0  0  0  0
  3 20  1  0  0  0  0
  4  5  2  0  0  0  0
  5  6  1  0  0  0  0
  5 16  1  0  0  0  0
  6  7  1  0  0  0  0
  6 21  1  0  0  0  0
  7  8  2  0  0  0  0
  7  9  1  0  0  0  0
  9 10  1  0  0  0  0
  9 22  1  0  0  0  0
 10 11  1  0  0  0  0
 10 23  1  0  0  0  0
 10 24  1  0  0  0  0
 11 15  1  0  0  0  0
 11 12  1  0  0  0  0
 11 25  1  0  0  0  0
 12 13  1  0  0  0  0
 12 26  1  0  0  0  0
 12 27  1  0  0  0  0
 13 14  1  0  0  0  0
 13 28  1  0  0  0  0
 13 29  1  0  0  0  0
 14 15  1  0  0  0  0
 14 30  1  0  0  0  0
 14 31  1  0  0  0  0
M  END
> <s_m_source_file>
AV-unprocessed.smi

> <i_m_source_file_index>
2740

> <i_lp_mmshare_version>
43012

> <i_f3d_flags>
0

> <s_epik_input>
W0NIM11jMVtjSF1uYyhzMSlbTkhdQyg9TylbTkhdW0NIMl1bQ0BASF0yW0NIMl1bQ0gyXVtDSDJdTzI=

> <s_epik_cmdline>
J2VwaWtfcHl0aG9uJywgJy1waCcsICc3LjAnLCAnLXRuJywgJzgnLCAnLW1hJywgJzIwMCcsICctbWV0YWxfYmluZGluZycsICctaW1hZScsICc8aW5maWxlLm1hZT4nLCAnLW9tYWUnLCAnPG91dGZpbGUubWFlPic=

> <r_lp_tautomer_probability>
0.999

> <r_epik_Ionization_Penalty>
0.000387528

> <r_epik_Ionization_Penalty_Charging>
0

> <r_epik_Ionization_Penalty_Neutral>
0.000387528

> <r_epik_State_Penalty>
0.000177984

> <r_epik_Charging_Adjusted_Penalty>
0.000177984

> <i_epik_Tot_Q>
0

> <i_epik_Tot_abs_Q>
0

> <r_epik_Metal_State_Penalty>
0.00626158

> <b_epik_Metal_Only>
0

> <s_lp_Force_Field>
OPLS_2005

> <r_lp_Energy>
15.3507

> <b_lp_Chiralities_Consistent>
1

> <s_lp_Variant>
AV-unprocessed.smi:2740-2

> <Gold.Version>
5.8.1

> <Gold.Id.Protein>
6NUR|6NUR_protein|mol2

> <Gold.PLP.Fitness>
36.4213

> <Gold.PLP.PLP>
-27.7382

> <Gold.PLP.part.hbond>
-2.4411

> <Gold.PLP.part.metal>
0.0000

> <Gold.PLP.part.buried>
-4.0971

> <Gold.PLP.part.nonpolar>
-23.3628

> <Gold.PLP.part.repulsive>
1.8027

> <Gold.PLP.ligand.clash>
0.0000

> <Gold.PLP.ligand.torsion>
0.1635

> <Gold.PLP.Chemscore.Hbond>
2.0000

> <Gold.PLP.Chemscore.CHOScore>
1.0000

> <Gold.PLP.Chemscore.Metal>
0.0000

> <Gold.Chemscore.Hbonds>
donor molecule, donor type, donor heavy atom, donor atom, acceptor molecule, acceptor atom, score
      L1  H     6    21       P1  7948  1.00
      L1  H     9    22       P1  7948  1.00
      L1  C     3    20       P1  8028  0.93

> <Gold.PLP.Chemscore.Internal.Correction>
0.0101

> <Gold.Rescore>
     Score         DG    S(hbond)    S(metal)    S(lipo)     H(rot)  DE(clash)    DE(int)     intcor
     14.46     -15.93       1.95        0.00      61.34       1.27       0.15       1.32       ----

> <Gold.Chemscore.Fitness>
14.4633

> <Gold.Chemscore.DG>
-15.9335

> <Gold.Chemscore.ZeroCoef>
-5.4800

> <Gold.Chemscore.Hbond>
1.9527

> <Gold.Chemscore.Metal>
0.0000

> <Gold.Chemscore.Lipo>
61.3412

> <Gold.Chemscore.Internal_Hbond>
0.0000

> <Gold.Chemscore.DEClash>
0.1458

> <Gold.Chemscore.DEInternal>
1.3244

> <Gold.Chemscore.Rot>
1.2678

> <Gold.Chemscore.Internal.Correction>
   9.000000E+99

> <Gold.Chemscore.Hbonds>
donor molecule, donor type, donor heavy atom, donor atom, acceptor molecule, acceptor atom, score
      L1  H     6    21       P1  7948  0.96
      L1  H     9    22       P1  7948  0.98

> <Gold.Chemscore.Hbond.Weighted>
-6.5221

> <Gold.Chemscore.Metal.Weighted>
-0.0000

> <Gold.Chemscore.Lipo.Weighted>
-7.1769

> <Gold.Chemscore.Internal_Hbond.Weighted>
0.0000

> <Gold.Chemscore.DEClash.Weighted>
0.1458

> <Gold.Chemscore.DEInternal.Weighted>
1.3244

> <Gold.Chemscore.Rot.Weighted>
3.2455

> <Gold.Chemscore.Internal.Correction.Weighted>
   9.000000E+99

> <Gold.Protein.RotatedTorsions>
[ 6907 6896 6895 6894 ] final -142.98 input  -60.11 | X-H torsion
[ 7974 7965 7964 7962 ] final   58.97 input  175.53 | X-H torsion
[ 8008 7997 7996 7995 ] final -166.86 input   59.86 | X-H torsion
[ 10167 10162 10161 10158 ] final  168.80 input  -65.29 | X-H torsion
[ 10718 10713 10712 10709 ] final -159.72 input   66.30 | X-H torsion
[ 10763 10752 10751 10750 ] final  130.94 input  -60.55 | X-H torsion
[ 11005 11000 10999 10996 ] final  174.51 input  -57.11 | X-H torsion

> <Gold.Protein.ActiveResidues>
 VAL166  LYS551  ARG553  GLY616  TRP617  ASP618  TYR619  PRO620  LYS621  CYS622 
 ASP623  PHE694  ASN695  SER759  ASP760  ASP761  ALA762  ILE779  LEU786  VAL792 
 PHE793  MET794  SER795  GLU796  ALA797  LYS798  CYS799  TRP800  GLU811  SER814 

> <Gold.Protein.RotatedAtoms>
  151.0943  133.5292  159.2613 H   0  0  0  0  0  0  0  0  0  0  0  0  # atno 6907 bound_to 6896
  151.2147  135.0494  159.8935 H   0  0  0  0  0  0  0  0  0  0  0  0  # atno 6908 bound_to 6896
  152.5437  134.0753  159.8265 H   0  0  0  0  0  0  0  0  0  0  0  0  # atno 6909 bound_to 6896
  145.9123  139.3664  143.0528 H   0  0  0  0  0  0  0  0  0  0  0  0  # atno 7974 bound_to 7965
  155.8697  140.0991  157.1558 H   0  0  0  0  0  0  0  0  0  0  0  0  # atno 8008 bound_to 7997
  154.3996  140.1349  156.4125 H   0  0  0  0  0  0  0  0  0  0  0  0  # atno 8009 bound_to 7997
  155.7764  140.3459  155.5276 H   0  0  0  0  0  0  0  0  0  0  0  0  # atno 8010 bound_to 7997
  139.4976  144.3775  151.9658 H   0  0  0  0  0  0  0  0  0  0  0  0  # atno 10167 bound_to 10162
  156.5721  130.8693  151.2841 H   0  0  0  0  0  0  0  0  0  0  0  0  # atno 10718 bound_to 10713
  153.7662  135.3188  155.3345 H   0  0  0  0  0  0  0  0  0  0  0  0  # atno 10763 bound_to 10752
  154.8212  135.4601  154.0789 H   0  0  0  0  0  0  0  0  0  0  0  0  # atno 10764 bound_to 10752
  153.2035  135.6926  153.8286 H   0  0  0  0  0  0  0  0  0  0  0  0  # atno 10765 bound_to 10752
  140.3521  134.7186  157.4275 H   0  0  0  0  0  0  0  0  0  0  0  0  # atno 11005 bound_to 11000
  145.8655  140.9450  143.0677 LP  0  0  0  0  0  0  0  0  0  0  0  0  # atno 17320 bound_to 7965
  144.6744  140.0587  143.7477 LP  0  0  0  0  0  0  0  0  0  0  0  0  # atno 17321 bound_to 7965
  140.3211  144.3426  150.6009 LP  0  0  0  0  0  0  0  0  0  0  0  0  # atno 17342 bound_to 10162
  140.5721  143.2180  151.7580 LP  0  0  0  0  0  0  0  0  0  0  0  0  # atno 17343 bound_to 10162
  157.7346  130.9748  150.2036 LP  0  0  0  0  0  0  0  0  0  0  0  0  # atno 17370 bound_to 10713
  156.2705  130.3721  149.8036 LP  0  0  0  0  0  0  0  0  0  0  0  0  # atno 17371 bound_to 10713
  140.0694  134.5883  155.8658 LP  0  0  0  0  0  0  0  0  0  0  0  0  # atno 17394 bound_to 11000
  141.2009  133.6615  156.5921 LP  0  0  0  0  0  0  0  0  0  0  0  0  # atno 17395 bound_to 11000

$$$$
