AV-unprocessed.smi:1589|AV-procd|sdf|6393|dock2
  -GOLD-   22720 7 23D 1   1.00000     0.00000
 Structure written by MMmdl.
 44 45  0  0  0  0  0  0  0  0  2 V2000
  152.2420  145.1832  159.1322 C   0  0  0  0  0  0  0  0  0  0  0  0
  151.6224  143.8102  159.4685 C   0  0  0  0  0  0  0  0  0  0  0  0
  152.7588  142.8364  159.8436 C   0  0  0  0  0  0  0  0  0  0  0  0
  150.7614  143.2771  158.3629 N   0  3  0  0  0  0  0  0  0  0  0  0
  149.9956  142.0500  158.7427 C   0  0  0  0  0  0  0  0  0  0  0  0
  149.1671  141.4851  157.5745 C   0  0  0  0  0  0  0  0  0  0  0  0
  150.0585  141.2436  156.4354 N   0  0  0  0  0  0  0  0  0  0  0  0
  150.5417  140.0415  156.0305 C   0  0  0  0  0  0  0  0  0  0  0  0
  151.4046  139.9348  155.1590 O   0  0  0  0  0  0  0  0  0  0  0  0
  149.9602  138.9832  156.6263 N   0  0  0  0  0  0  0  0  0  0  0  0
  150.2752  137.6121  156.4535 C   0  0  0  0  0  0  0  0  0  0  0  0
  151.5355  136.9556  156.5394 C   0  0  0  0  0  0  0  0  0  0  0  0
  151.4107  135.6566  156.3142 N   0  0  0  0  0  0  0  0  0  0  0  0
  150.0875  135.4612  156.0880 N   0  0  0  0  0  0  0  0  0  0  0  0
  149.5946  134.1225  155.8065 C   0  0  0  0  0  0  0  0  0  0  0  0
  150.0159  133.1088  156.8773 C   0  0  0  0  0  0  0  0  0  0  0  0
  150.7040  132.0439  156.4583 N   0  0  0  0  0  0  0  0  0  0  0  0
  149.7339  133.2770  158.0627 O   0  0  0  0  0  0  0  0  0  0  0  0
  149.3683  136.6385  156.1605 C   0  0  0  0  0  0  0  0  0  0  0  0
  150.6202  142.5085  155.9635 C   0  0  0  0  0  0  0  0  0  0  0  0
  151.5004  143.1100  157.0738 C   0  0  0  0  0  0  0  0  0  0  0  0
  152.9451  145.4961  159.9047 H   0  0  0  0  0  0  0  0  0  0  0  0
  151.4917  145.9716  159.0726 H   0  0  0  0  0  0  0  0  0  0  0  0
  152.7856  145.1550  158.1872 H   0  0  0  0  0  0  0  0  0  0  0  0
  150.9916  143.9420  160.3491 H   0  0  0  0  0  0  0  0  0  0  0  0
  153.4358  143.2848  160.5713 H   0  0  0  0  0  0  0  0  0  0  0  0
  153.3519  142.5624  158.9704 H   0  0  0  0  0  0  0  0  0  0  0  0
  152.3865  141.9216  160.3039 H   0  0  0  0  0  0  0  0  0  0  0  0
  150.6892  141.2885  159.1034 H   0  0  0  0  0  0  0  0  0  0  0  0
  149.3056  142.2682  159.5564 H   0  0  0  0  0  0  0  0  0  0  0  0
  148.6210  140.6011  157.9040 H   0  0  0  0  0  0  0  0  0  0  0  0
  148.3992  142.2028  157.2819 H   0  0  0  0  0  0  0  0  0  0  0  0
  149.2369  139.1853  157.3007 H   0  0  0  0  0  0  0  0  0  0  0  0
  152.5155  137.3562  156.7508 H   0  0  0  0  0  0  0  0  0  0  0  0
  148.5068  134.1658  155.7378 H   0  0  0  0  0  0  0  0  0  0  0  0
  149.9665  133.7937  154.8349 H   0  0  0  0  0  0  0  0  0  0  0  0
  151.0043  131.3424  157.1196 H   0  0  0  0  0  0  0  0  0  0  0  0
  150.9190  131.9429  155.4768 H   0  0  0  0  0  0  0  0  0  0  0  0
  148.2999  136.6755  156.0065 H   0  0  0  0  0  0  0  0  0  0  0  0
  151.1998  142.3942  155.0461 H   0  0  0  0  0  0  0  0  0  0  0  0
  149.8103  143.1950  155.7121 H   0  0  0  0  0  0  0  0  0  0  0  0
  151.8695  144.0703  156.7169 H   0  0  0  0  0  0  0  0  0  0  0  0
  152.3710  142.4723  157.2367 H   0  0  0  0  0  0  0  0  0  0  0  0
  150.0631  143.9848  158.1856 H   0  0  0  0  0  0  0  0  0  0  0  0
  1  2  1  0  0  0  0
  1 22  1  0  0  0  0
  1 23  1  0  0  0  0
  1 24  1  0  0  0  0
  2  3  1  0  0  0  0
  2  4  1  0  0  0  0
  2 25  1  0  0  0  0
  3 26  1  0  0  0  0
  3 27  1  0  0  0  0
  3 28  1  0  0  0  0
  4 21  1  0  0  0  0
  4  5  1  0  0  0  0
  4 44  1  0  0  0  0
  5  6  1  0  0  0  0
  5 29  1  0  0  0  0
  5 30  1  0  0  0  0
  6  7  1  0  0  0  0
  6 31  1  0  0  0  0
  6 32  1  0  0  0  0
  7  8  1  0  0  0  0
  7 20  1  0  0  0  0
  8  9  2  0  0  0  0
  8 10  1  0  0  0  0
 10 11  1  0  0  0  0
 10 33  1  0  0  0  0
 11 19  2  0  0  0  0
 11 12  1  0  0  0  0
 12 13  2  0  0  0  0
 12 34  1  0  0  0  0
 13 14  1  0  0  0  0
 14 15  1  0  0  0  0
 14 19  1  0  0  0  0
 15 16  1  0  0  0  0
 15 35  1  0  0  0  0
 15 36  1  0  0  0  0
 16 17  1  0  0  0  0
 16 18  2  0  0  0  0
 17 37  1  0  0  0  0
 17 38  1  0  0  0  0
 19 39  1  0  0  0  0
 20 21  1  0  0  0  0
 20 40  1  0  0  0  0
 20 41  1  0  0  0  0
 21 42  1  0  0  0  0
 21 43  1  0  0  0  0
M  CHG  1   4   1
M  END
> <s_m_source_file>
AV-unprocessed.smi

> <i_m_source_file_index>
1589

> <i_lp_mmshare_version>
43012

> <i_f3d_flags>
0

> <s_epik_input>
W0NIM11bQ0hdKFtDSDNdKU4xW0NIMl1bQ0gyXU4oW0NIMl1bQ0gyXTEpQyg9TylbTkhdYzJbY0hdbm4oW2NIXTIpW0NIMl1DKD1PKVtOSDJd

> <s_epik_cmdline>
J2VwaWtfcHl0aG9uJywgJy1waCcsICc3LjAnLCAnLXRuJywgJzgnLCAnLW1hJywgJzIwMCcsICctbWV0YWxfYmluZGluZycsICctaW1hZScsICc8aW5maWxlLm1hZT4nLCAnLW9tYWUnLCAnPG91dGZpbGUubWFlPic=

> <r_lp_tautomer_probability>
1

> <r_epik_Ionization_Penalty>
0.241469

> <r_epik_Ionization_Penalty_Charging>
0.241445

> <r_epik_Ionization_Penalty_Neutral>
2.46507e-05

> <r_epik_State_Penalty>
0.232445

> <r_epik_Charging_Adjusted_Penalty>
0.47389

> <i_epik_Tot_Q>
1

> <i_epik_Tot_abs_Q>
1

> <r_epik_Metal_State_Penalty>
0.232446

> <b_epik_Metal_Only>
0

> <s_lp_Force_Field>
OPLS_2005

> <r_lp_Energy>
56.898

> <b_lp_Chiralities_Consistent>
1

> <s_lp_Variant>
AV-unprocessed.smi:1589-1

> <Gold.Version>
5.8.1

> <Gold.Id.Protein>
6NUR|6NUR_protein|mol2

> <Gold.PLP.Fitness>
37.7320

> <Gold.PLP.PLP>
-29.7697

> <Gold.PLP.part.hbond>
-2.9981

> <Gold.PLP.part.metal>
0.0000

> <Gold.PLP.part.buried>
-3.1203

> <Gold.PLP.part.nonpolar>
-24.0905

> <Gold.PLP.part.repulsive>
0.2043

> <Gold.PLP.ligand.clash>
0.0000

> <Gold.PLP.ligand.torsion>
0.5684

> <Gold.PLP.Chemscore.Hbond>
2.9920

> <Gold.PLP.Chemscore.CHOScore>
0.0000

> <Gold.PLP.Chemscore.Metal>
0.0000

> <Gold.Chemscore.Hbonds>
donor molecule, donor type, donor heavy atom, donor atom, acceptor molecule, acceptor atom, score
      P1  H  6896  6907       L1    18  0.96
      P1  H  7989  7998       L1     9  1.00
      P1  H 10752 10764       L1    13  0.53

> <Gold.PLP.Chemscore.Internal.Correction>
0.1231

> <Gold.Rescore>
     Score         DG    S(hbond)    S(metal)    S(lipo)     H(rot)  DE(clash)    DE(int)     intcor
     17.19     -19.45       2.79        0.00      80.05       1.84       1.62       0.64       ----

> <Gold.Chemscore.Fitness>
17.1871

> <Gold.Chemscore.DG>
-19.4475

> <Gold.Chemscore.ZeroCoef>
-5.4800

> <Gold.Chemscore.Hbond>
2.7873

> <Gold.Chemscore.Metal>
0.0000

> <Gold.Chemscore.Lipo>
80.0520

> <Gold.Chemscore.Internal_Hbond>
0.0000

> <Gold.Chemscore.DEClash>
1.6246

> <Gold.Chemscore.DEInternal>
0.6357

> <Gold.Chemscore.Rot>
1.8392

> <Gold.Chemscore.Internal.Correction>
   9.000000E+99

> <Gold.Chemscore.Hbonds>
donor molecule, donor type, donor heavy atom, donor atom, acceptor molecule, acceptor atom, score
      P1  H  6896  6907       L1    18  0.88
      P1  H  7989  7998       L1     9  0.99
      P1  H 10752 10764       L1    13  0.08

> <Gold.Chemscore.Hbond.Weighted>
-9.3097

> <Gold.Chemscore.Metal.Weighted>
-0.0000

> <Gold.Chemscore.Lipo.Weighted>
-9.3661

> <Gold.Chemscore.Internal_Hbond.Weighted>
0.0000

> <Gold.Chemscore.DEClash.Weighted>
1.6246

> <Gold.Chemscore.DEInternal.Weighted>
0.6357

> <Gold.Chemscore.Rot.Weighted>
4.7083

> <Gold.Chemscore.Internal.Correction.Weighted>
   9.000000E+99

> <Gold.Protein.RotatedTorsions>
[ 6907 6896 6895 6894 ] final -144.03 input  -60.11 | X-H torsion
[ 7974 7965 7964 7962 ] final  -35.62 input  175.53 | X-H torsion
[ 8008 7997 7996 7995 ] final  114.15 input   59.86 | X-H torsion
[ 10167 10162 10161 10158 ] final  -51.58 input  -65.29 | X-H torsion
[ 10718 10713 10712 10709 ] final  118.45 input   66.30 | X-H torsion
[ 10763 10752 10751 10750 ] final  -43.61 input  -60.55 | X-H torsion
[ 11005 11000 10999 10996 ] final  111.43 input  -57.11 | X-H torsion

> <Gold.Protein.ActiveResidues>
 VAL166  LYS551  ARG553  GLY616  TRP617  ASP618  TYR619  PRO620  LYS621  CYS622 
 ASP623  PHE694  ASN695  SER759  ASP760  ASP761  ALA762  ILE779  LEU786  VAL792 
 PHE793  MET794  SER795  GLU796  ALA797  LYS798  CYS799  TRP800  GLU811  SER814 

> <Gold.Protein.RotatedAtoms>
  151.1085  133.5190  159.2606 H   0  0  0  0  0  0  0  0  0  0  0  0  # atno 6907 bound_to 6896
  151.1994  135.0435  159.8875 H   0  0  0  0  0  0  0  0  0  0  0  0  # atno 6908 bound_to 6896
  152.5448  134.0915  159.8332 H   0  0  0  0  0  0  0  0  0  0  0  0  # atno 6909 bound_to 6896
  146.0731  140.6181  142.8943 H   0  0  0  0  0  0  0  0  0  0  0  0  # atno 7974 bound_to 7965
  156.2303  140.2965  156.0171 H   0  0  0  0  0  0  0  0  0  0  0  0  # atno 8008 bound_to 7997
  155.2244  140.0417  157.2970 H   0  0  0  0  0  0  0  0  0  0  0  0  # atno 8009 bound_to 7997
  154.5984  140.2420  155.7833 H   0  0  0  0  0  0  0  0  0  0  0  0  # atno 8010 bound_to 7997
  140.6581  143.2614  151.4524 H   0  0  0  0  0  0  0  0  0  0  0  0  # atno 10167 bound_to 10162
  157.6029  131.1048  150.7758 H   0  0  0  0  0  0  0  0  0  0  0  0  # atno 10718 bound_to 10713
  153.9984  135.6696  153.4758 H   0  0  0  0  0  0  0  0  0  0  0  0  # atno 10763 bound_to 10752
  153.0673  135.4994  154.8224 H   0  0  0  0  0  0  0  0  0  0  0  0  # atno 10764 bound_to 10752
  154.7067  135.3089  154.9222 H   0  0  0  0  0  0  0  0  0  0  0  0  # atno 10765 bound_to 10752
  139.8903  134.9507  156.6430 H   0  0  0  0  0  0  0  0  0  0  0  0  # atno 11005 bound_to 11000
  144.7244  140.4478  143.6984 LP  0  0  0  0  0  0  0  0  0  0  0  0  # atno 17320 bound_to 7965
  145.6355  139.1542  143.2945 LP  0  0  0  0  0  0  0  0  0  0  0  0  # atno 17321 bound_to 7965
  139.5808  144.1714  152.1965 LP  0  0  0  0  0  0  0  0  0  0  0  0  # atno 17342 bound_to 10162
  140.1039  144.5516  150.6970 LP  0  0  0  0  0  0  0  0  0  0  0  0  # atno 17343 bound_to 10162
  156.8153  130.4966  149.5350 LP  0  0  0  0  0  0  0  0  0  0  0  0  # atno 17370 bound_to 10713
  156.1107  130.6038  151.0042 LP  0  0  0  0  0  0  0  0  0  0  0  0  # atno 17371 bound_to 10713
  140.7579  133.8842  155.8395 LP  0  0  0  0  0  0  0  0  0  0  0  0  # atno 17394 bound_to 11000
  140.9947  134.1231  157.4375 LP  0  0  0  0  0  0  0  0  0  0  0  0  # atno 17395 bound_to 11000

$$$$
