AV-unprocessed.smi:1707|AV-procd|sdf|6888|dock7
  -GOLD-   22720 8 93D 1   1.00000     0.00000
 Structure written by MMmdl.
 40 41  0  0  0  0  0  0  0  0  2 V2000
  147.0463  137.5004  153.5420 O   0  0  0  0  0  0  0  0  0  0  0  0
  146.2122  138.2782  153.0789 C   0  0  0  0  0  0  0  0  0  0  0  0
  146.4084  139.6025  153.0038 N   0  0  0  0  0  0  0  0  0  0  0  0
  147.6113  140.2965  153.4481 C   0  0  0  0  0  0  0  0  0  0  0  0
  148.0535  139.8215  154.8433 C   0  0  0  0  0  0  0  0  0  0  0  0
  149.5397  139.5135  154.9171 C   0  0  0  0  0  0  0  0  0  0  0  0
  150.3866  140.2555  155.6570 C   0  0  0  0  0  0  0  0  0  0  0  0
  151.8801  139.9996  155.7583 C   0  0  0  0  0  0  0  0  0  0  0  0
  152.3836  139.0318  154.6744 C   0  0  0  0  0  0  0  0  0  0  0  0
  151.4280  137.8442  154.5053 C   0  0  0  0  0  0  0  0  0  0  0  0
  150.0171  138.3128  154.1074 C   0  0  0  0  0  0  0  0  0  0  0  0
  144.9989  137.9480  152.6001 N   0  0  0  0  0  0  0  0  0  0  0  0
  144.3953  136.6846  152.4743 C   0  0  0  0  0  0  0  0  0  0  0  0
  144.9371  135.6202  151.8193 C   0  0  0  0  0  0  0  0  0  0  0  0
  144.2525  134.3378  151.7133 C   0  0  0  0  0  0  0  0  0  0  0  0
  144.8681  133.1045  151.0761 C   0  0  0  0  0  0  0  0  0  0  0  0
  146.0810  133.3697  150.5901 F   0  0  0  0  0  0  0  0  0  0  0  0
  144.9867  132.1367  151.9838 F   0  0  0  0  0  0  0  0  0  0  0  0
  144.1065  132.6500  150.0811 F   0  0  0  0  0  0  0  0  0  0  0  0
  143.0286  134.3426  152.3533 C   0  0  0  0  0  0  0  0  0  0  0  0
  142.4102  135.3552  152.9991 N   0  5  0  0  0  0  0  0  0  0  0  0
  143.0587  136.5505  153.0906 C   0  0  0  0  0  0  0  0  0  0  0  0
  142.5548  137.5130  153.6707 O   0  0  0  0  0  0  0  0  0  0  0  0
  145.6722  140.1705  152.6106 H   0  0  0  0  0  0  0  0  0  0  0  0
  148.4077  140.1565  152.7154 H   0  0  0  0  0  0  0  0  0  0  0  0
  147.3953  141.3649  153.4721 H   0  0  0  0  0  0  0  0  0  0  0  0
  147.8041  140.5847  155.5820 H   0  0  0  0  0  0  0  0  0  0  0  0
  147.5028  138.9254  155.1321 H   0  0  0  0  0  0  0  0  0  0  0  0
  150.0090  141.0867  156.2345 H   0  0  0  0  0  0  0  0  0  0  0  0
  152.4140  140.9474  155.6860 H   0  0  0  0  0  0  0  0  0  0  0  0
  152.0849  139.5949  156.7499 H   0  0  0  0  0  0  0  0  0  0  0  0
  152.4671  139.5609  153.7241 H   0  0  0  0  0  0  0  0  0  0  0  0
  153.3861  138.6821  154.9226 H   0  0  0  0  0  0  0  0  0  0  0  0
  151.8135  137.1501  153.7580 H   0  0  0  0  0  0  0  0  0  0  0  0
  151.3762  137.2897  155.4432 H   0  0  0  0  0  0  0  0  0  0  0  0
  149.3133  137.4884  154.2263 H   0  0  0  0  0  0  0  0  0  0  0  0
  150.0067  138.5867  153.0520 H   0  0  0  0  0  0  0  0  0  0  0  0
  144.4110  138.7148  152.3073 H   0  0  0  0  0  0  0  0  0  0  0  0
  145.8957  135.6947  151.3345 H   0  0  0  0  0  0  0  0  0  0  0  0
  142.4625  133.3867  152.3500 H   0  0  0  0  0  0  0  0  0  0  0  0
  1  2  2  0  0  0  0
  2  3  1  0  0  0  0
  2 12  1  0  0  0  0
  3  4  1  0  0  0  0
  3 24  1  0  0  0  0
  4  5  1  0  0  0  0
  4 25  1  0  0  0  0
  4 26  1  0  0  0  0
  5  6  1  0  0  0  0
  5 27  1  0  0  0  0
  5 28  1  0  0  0  0
  6 11  1  0  0  0  0
  6  7  2  0  0  0  0
  7  8  1  0  0  0  0
  7 29  1  0  0  0  0
  8  9  1  0  0  0  0
  8 30  1  0  0  0  0
  8 31  1  0  0  0  0
  9 10  1  0  0  0  0
  9 32  1  0  0  0  0
  9 33  1  0  0  0  0
 10 11  1  0  0  0  0
 10 34  1  0  0  0  0
 10 35  1  0  0  0  0
 11 36  1  0  0  0  0
 11 37  1  0  0  0  0
 12 13  1  0  0  0  0
 12 38  1  0  0  0  0
 13 22  1  0  0  0  0
 13 14  2  0  0  0  0
 14 15  1  0  0  0  0
 14 39  1  0  0  0  0
 15 16  1  0  0  0  0
 15 20  2  0  0  0  0
 16 17  1  0  0  0  0
 16 18  1  0  0  0  0
 16 19  1  0  0  0  0
 20 21  1  0  0  0  0
 20 40  1  0  0  0  0
 21 22  1  0  0  0  0
 22 23  2  0  0  0  0
M  CHG  1  21  -1
M  END
> <s_m_source_file>
AV-unprocessed.smi

> <i_m_source_file_index>
1707

> <i_lp_mmshare_version>
43012

> <i_f3d_flags>
0

> <s_epik_input>
Tz1jMVtuSF1bY0hdYyhDKEYpKEYpRilbY0hdYzFbTkhdQyg9TylbTkhdW0NIMl1bQ0gyXUMyPVtDSF1bQ0gyXVtDSDJdW0NIMl1bQ0gyXTI=

> <s_epik_cmdline>
J2VwaWtfcHl0aG9uJywgJy1waCcsICc3LjAnLCAnLXRuJywgJzgnLCAnLW1hJywgJzIwMCcsICctbWV0YWxfYmluZGluZycsICctaW1hZScsICc8aW5maWxlLm1hZT4nLCAnLW9tYWUnLCAnPG91dGZpbGUubWFlPic=

> <r_lp_tautomer_probability>
1

> <r_epik_Ionization_Penalty>
3.1649

> <r_epik_Ionization_Penalty_Charging>
0.171543

> <r_epik_Ionization_Penalty_Neutral>
2.99336

> <r_epik_State_Penalty>
2.98952

> <r_epik_Charging_Adjusted_Penalty>
3.16106

> <i_epik_Tot_Q>
-1

> <i_epik_Tot_abs_Q>
1

> <r_epik_Metal_State_Penalty>
0.452963

> <b_epik_Metal_Only>
1

> <s_lp_Force_Field>
OPLS_2005

> <r_lp_Energy>
21.1574

> <b_lp_Chiralities_Consistent>
1

> <s_lp_Variant>
AV-unprocessed.smi:1707-2

> <Gold.Version>
5.8.1

> <Gold.Id.Protein>
6NUR|6NUR_protein|mol2

> <Gold.PLP.Fitness>
45.1257

> <Gold.PLP.PLP>
-41.1917

> <Gold.PLP.part.hbond>
-2.9185

> <Gold.PLP.part.metal>
0.0000

> <Gold.PLP.part.buried>
-5.1644

> <Gold.PLP.part.nonpolar>
-36.0378

> <Gold.PLP.part.repulsive>
2.2954

> <Gold.PLP.ligand.clash>
0.0000

> <Gold.PLP.ligand.torsion>
0.9818

> <Gold.PLP.Chemscore.Hbond>
1.9440

> <Gold.PLP.Chemscore.CHOScore>
0.0000

> <Gold.PLP.Chemscore.Metal>
0.0000

> <Gold.Chemscore.Hbonds>
donor molecule, donor type, donor heavy atom, donor atom, acceptor molecule, acceptor atom, score
      L1  H     3    24       P1 10175  0.94
      L1  H    12    38       P1 10175  1.00

> <Gold.PLP.Chemscore.Internal.Correction>
0.0656

> <Gold.Rescore>
     Score         DG    S(hbond)    S(metal)    S(lipo)     H(rot)  DE(clash)    DE(int)     intcor
     14.12     -16.47       1.94        0.00      72.54       1.55       0.03       2.32       ----

> <Gold.Chemscore.Fitness>
14.1193

> <Gold.Chemscore.DG>
-16.4686

> <Gold.Chemscore.ZeroCoef>
-5.4800

> <Gold.Chemscore.Hbond>
1.9388

> <Gold.Chemscore.Metal>
0.0000

> <Gold.Chemscore.Lipo>
72.5376

> <Gold.Chemscore.Internal_Hbond>
0.0000

> <Gold.Chemscore.DEClash>
0.0318

> <Gold.Chemscore.DEInternal>
2.3175

> <Gold.Chemscore.Rot>
1.5523

> <Gold.Chemscore.Internal.Correction>
   9.000000E+99

> <Gold.Chemscore.Hbonds>
donor molecule, donor type, donor heavy atom, donor atom, acceptor molecule, acceptor atom, score
      L1  H     3    24       P1 10175  0.76
      L1  H    12    38       P1 10175  0.98

> <Gold.Chemscore.Hbond.Weighted>
-6.4757

> <Gold.Chemscore.Metal.Weighted>
-0.0000

> <Gold.Chemscore.Lipo.Weighted>
-8.4869

> <Gold.Chemscore.Internal_Hbond.Weighted>
0.0000

> <Gold.Chemscore.DEClash.Weighted>
0.0318

> <Gold.Chemscore.DEInternal.Weighted>
2.3175

> <Gold.Chemscore.Rot.Weighted>
3.9740

> <Gold.Chemscore.Internal.Correction.Weighted>
   9.000000E+99

> <Gold.Protein.RotatedTorsions>
[ 6907 6896 6895 6894 ] final  126.00 input  -60.11 | X-H torsion
[ 7974 7965 7964 7962 ] final   74.52 input  175.53 | X-H torsion
[ 8008 7997 7996 7995 ] final -101.07 input   59.86 | X-H torsion
[ 10167 10162 10161 10158 ] final -148.32 input  -65.29 | X-H torsion
[ 10718 10713 10712 10709 ] final -122.73 input   66.30 | X-H torsion
[ 10763 10752 10751 10750 ] final -152.35 input  -60.55 | X-H torsion
[ 11005 11000 10999 10996 ] final  135.12 input  -57.11 | X-H torsion

> <Gold.Protein.ActiveResidues>
 VAL166  LYS551  ARG553  GLY616  TRP617  ASP618  TYR619  PRO620  LYS621  CYS622 
 ASP623  PHE694  ASN695  SER759  ASP760  ASP761  ALA762  ILE779  LEU786  VAL792 
 PHE793  MET794  SER795  GLU796  ALA797  LYS798  CYS799  TRP800  GLU811  SER814 

> <Gold.Protein.RotatedAtoms>
  152.3942  133.6723  159.6262 H   0  0  0  0  0  0  0  0  0  0  0  0  # atno 6907 bound_to 6896
  150.7845  133.8902  159.3320 H   0  0  0  0  0  0  0  0  0  0  0  0  # atno 6908 bound_to 6896
  151.6682  135.0981  160.0244 H   0  0  0  0  0  0  0  0  0  0  0  0  # atno 6909 bound_to 6896
  145.7272  139.2670  143.1562 H   0  0  0  0  0  0  0  0  0  0  0  0  # atno 7974 bound_to 7965
  154.8374  140.0437  157.1518 H   0  0  0  0  0  0  0  0  0  0  0  0  # atno 8008 bound_to 7997
  154.9085  140.3010  155.5259 H   0  0  0  0  0  0  0  0  0  0  0  0  # atno 8009 bound_to 7997
  156.2990  140.2362  156.4121 H   0  0  0  0  0  0  0  0  0  0  0  0  # atno 8010 bound_to 7997
  139.7542  143.8472  152.2593 H   0  0  0  0  0  0  0  0  0  0  0  0  # atno 10167 bound_to 10162
  156.1443  130.6488  150.9818 H   0  0  0  0  0  0  0  0  0  0  0  0  # atno 10718 bound_to 10713
  154.7999  135.3238  154.7575 H   0  0  0  0  0  0  0  0  0  0  0  0  # atno 10763 bound_to 10752
  153.8245  135.6885  153.4827 H   0  0  0  0  0  0  0  0  0  0  0  0  # atno 10764 bound_to 10752
  153.1710  135.4623  154.9846 H   0  0  0  0  0  0  0  0  0  0  0  0  # atno 10765 bound_to 10752
  139.9959  134.9497  156.9962 H   0  0  0  0  0  0  0  0  0  0  0  0  # atno 11005 bound_to 11000
  146.0571  140.8009  142.9753 LP  0  0  0  0  0  0  0  0  0  0  0  0  # atno 17320 bound_to 7965
  144.6902  140.3141  143.7243 LP  0  0  0  0  0  0  0  0  0  0  0  0  # atno 17321 bound_to 7965
  139.8459  144.7187  150.9273 LP  0  0  0  0  0  0  0  0  0  0  0  0  # atno 17342 bound_to 10162
  140.7801  143.3941  151.1259 LP  0  0  0  0  0  0  0  0  0  0  0  0  # atno 17343 bound_to 10162
  157.6602  131.0882  150.7855 LP  0  0  0  0  0  0  0  0  0  0  0  0  # atno 17370 bound_to 10713
  156.7927  130.4895  149.5382 LP  0  0  0  0  0  0  0  0  0  0  0  0  # atno 17371 bound_to 10713
  140.4820  134.1280  155.7218 LP  0  0  0  0  0  0  0  0  0  0  0  0  # atno 17394 bound_to 11000
  141.1604  133.8804  157.1864 LP  0  0  0  0  0  0  0  0  0  0  0  0  # atno 17395 bound_to 11000

$$$$
