AV-unprocessed.smi:1164|AV-procd|sdf|4926|dock8
  -GOLD-   22720 3503D 1   1.00000     0.00000
 Structure written by MMmdl.
 30 30  0  0  0  0  0  0  0  0  2 V2000
  152.7797  144.8676  158.1359 C   0  0  0  0  0  0  0  0  0  0  0  0
  151.7644  144.2214  159.0950 C   0  0  0  0  0  0  0  0  0  0  0  0
  152.5199  143.6572  160.3170 C   0  0  0  0  0  0  0  0  0  0  0  0
  150.7396  145.2886  159.5341 C   0  0  0  0  0  0  0  0  0  0  0  0
  151.1016  143.1439  158.3509 N   0  0  0  0  0  0  0  0  0  0  0  0
  151.5158  141.8784  158.1612 C   0  0  0  0  0  0  0  0  0  0  0  0
  152.5733  141.4318  158.6084 O   0  0  0  0  0  0  0  0  0  0  0  0
  150.5728  140.9992  157.3241 C   0  0  0  0  0  0  0  0  0  0  0  0
  151.1248  139.6811  156.9770 N   0  0  0  0  0  0  0  0  0  0  0  0
  151.3776  138.8246  158.1323 N   0  5  0  0  0  0  0  0  0  0  0  0
  151.8690  137.5726  157.9339 C   0  0  0  0  0  0  0  0  0  0  0  0
  152.0884  136.7890  158.8548 O   0  0  0  0  0  0  0  0  0  0  0  0
  152.1469  137.1547  156.5697 C   0  0  0  0  0  0  0  0  0  0  0  0
  151.9253  137.9750  155.5237 C   0  0  0  0  0  0  0  0  0  0  0  0
  151.3924  139.3219  155.6888 C   0  0  0  0  0  0  0  0  0  0  0  0
  151.1946  140.0793  154.7384 O   0  0  0  0  0  0  0  0  0  0  0  0
  153.3136  145.6881  158.6163 H   0  0  0  0  0  0  0  0  0  0  0  0
  152.2894  145.2715  157.2490 H   0  0  0  0  0  0  0  0  0  0  0  0
  153.5248  144.1454  157.7993 H   0  0  0  0  0  0  0  0  0  0  0  0
  153.2125  142.8669  160.0249 H   0  0  0  0  0  0  0  0  0  0  0  0
  151.8423  143.2421  161.0630 H   0  0  0  0  0  0  0  0  0  0  0  0
  153.1010  144.4353  160.8126 H   0  0  0  0  0  0  0  0  0  0  0  0
  151.2347  146.1375  160.0067 H   0  0  0  0  0  0  0  0  0  0  0  0
  150.0221  144.8962  160.2549 H   0  0  0  0  0  0  0  0  0  0  0  0
  150.1752  145.6710  158.6827 H   0  0  0  0  0  0  0  0  0  0  0  0
  150.2182  143.3902  157.9285 H   0  0  0  0  0  0  0  0  0  0  0  0
  149.6352  140.8698  157.8677 H   0  0  0  0  0  0  0  0  0  0  0  0
  150.3106  141.5497  156.4188 H   0  0  0  0  0  0  0  0  0  0  0  0
  152.5423  136.1655  156.3918 H   0  0  0  0  0  0  0  0  0  0  0  0
  152.1477  137.6236  154.5273 H   0  0  0  0  0  0  0  0  0  0  0  0
  1  2  1  0  0  0  0
  1 17  1  0  0  0  0
  1 18  1  0  0  0  0
  1 19  1  0  0  0  0
  2  3  1  0  0  0  0
  2  4  1  0  0  0  0
  2  5  1  0  0  0  0
  3 20  1  0  0  0  0
  3 21  1  0  0  0  0
  3 22  1  0  0  0  0
  4 23  1  0  0  0  0
  4 24  1  0  0  0  0
  4 25  1  0  0  0  0
  5  6  1  0  0  0  0
  5 26  1  0  0  0  0
  6  7  2  0  0  0  0
  6  8  1  0  0  0  0
  8 27  1  0  0  0  0
  8 28  1  0  0  0  0
  8  9  1  0  0  0  0
  9 10  1  0  0  0  0
  9 15  1  0  0  0  0
 10 11  1  0  0  0  0
 11 12  2  0  0  0  0
 11 13  1  0  0  0  0
 13 29  1  0  0  0  0
 13 14  2  0  0  0  0
 14 30  1  0  0  0  0
 14 15  1  0  0  0  0
 15 16  2  0  0  0  0
M  CHG  1  10  -1
M  END
> <s_m_source_file>
AV-unprocessed.smi

> <i_m_source_file_index>
1164

> <i_lp_mmshare_version>
43012

> <i_f3d_flags>
0

> <s_epik_input>
W0NIM11DKFtDSDNdKShbQ0gzXSlbTkhdQyg9TylbQ0gyXW4xW25IXWMoPU8pW2NIXVtjSF1jMT1P

> <s_epik_cmdline>
J2VwaWtfcHl0aG9uJywgJy1waCcsICc3LjAnLCAnLXRuJywgJzgnLCAnLW1hJywgJzIwMCcsICctbWV0YWxfYmluZGluZycsICctaW1hZScsICc8aW5maWxlLm1hZT4nLCAnLW9tYWUnLCAnPG91dGZpbGUubWFlPic=

> <r_lp_tautomer_probability>
1

> <r_epik_Ionization_Penalty>
0.098909

> <r_epik_Ionization_Penalty_Charging>
0.0989089

> <r_epik_Ionization_Penalty_Neutral>
2.46306e-08

> <r_epik_State_Penalty>
0.0348838

> <r_epik_Charging_Adjusted_Penalty>
0.133793

> <i_epik_Tot_Q>
-1

> <i_epik_Tot_abs_Q>
1

> <r_epik_Metal_State_Penalty>
0.0348839

> <b_epik_Metal_Only>
0

> <s_lp_Force_Field>
OPLS_2005

> <r_lp_Energy>
18.541

> <b_lp_Chiralities_Consistent>
1

> <s_lp_Variant>
AV-unprocessed.smi:1164-1

> <Gold.Version>
5.8.1

> <Gold.Id.Protein>
6NUR|6NUR_protein|mol2

> <Gold.PLP.Fitness>
34.6637

> <Gold.PLP.PLP>
-30.1876

> <Gold.PLP.part.hbond>
-1.9987

> <Gold.PLP.part.metal>
0.0000

> <Gold.PLP.part.buried>
-5.9858

> <Gold.PLP.part.nonpolar>
-22.3515

> <Gold.PLP.part.repulsive>
0.1113

> <Gold.PLP.ligand.clash>
0.0000

> <Gold.PLP.ligand.torsion>
0.5851

> <Gold.PLP.Chemscore.Hbond>
1.8800

> <Gold.PLP.Chemscore.CHOScore>
0.0000

> <Gold.PLP.Chemscore.Metal>
0.0000

> <Gold.Chemscore.Hbonds>
donor molecule, donor type, donor heavy atom, donor atom, acceptor molecule, acceptor atom, score
      P1  H  6896  6908       L1    12  0.85
      P1  H  7989  7998       L1    16  1.00

> <Gold.PLP.Chemscore.Internal.Correction>
0.0063

> <Gold.Rescore>
     Score         DG    S(hbond)    S(metal)    S(lipo)     H(rot)  DE(clash)    DE(int)     intcor
     13.48     -15.47       1.99        0.00      65.78       1.70       0.01       1.99       ----

> <Gold.Chemscore.Fitness>
13.4788

> <Gold.Chemscore.DG>
-15.4729

> <Gold.Chemscore.ZeroCoef>
-5.4800

> <Gold.Chemscore.Hbond>
1.9869

> <Gold.Chemscore.Metal>
0.0000

> <Gold.Chemscore.Lipo>
65.7777

> <Gold.Chemscore.Internal_Hbond>
0.0000

> <Gold.Chemscore.DEClash>
0.0075

> <Gold.Chemscore.DEInternal>
1.9866

> <Gold.Chemscore.Rot>
1.6950

> <Gold.Chemscore.Internal.Correction>
   9.000000E+99

> <Gold.Chemscore.Hbonds>
donor molecule, donor type, donor heavy atom, donor atom, acceptor molecule, acceptor atom, score
      P1  H  6896  6908       L1    12  0.79
      P1  H  7989  7998       L1    16  0.93

> <Gold.Chemscore.Hbond.Weighted>
-6.6362

> <Gold.Chemscore.Metal.Weighted>
-0.0000

> <Gold.Chemscore.Lipo.Weighted>
-7.6960

> <Gold.Chemscore.Internal_Hbond.Weighted>
0.0000

> <Gold.Chemscore.DEClash.Weighted>
0.0075

> <Gold.Chemscore.DEInternal.Weighted>
1.9866

> <Gold.Chemscore.Rot.Weighted>
4.3393

> <Gold.Chemscore.Internal.Correction.Weighted>
   9.000000E+99

> <Gold.Protein.RotatedTorsions>
[ 6907 6896 6895 6894 ] final -116.27 input  -60.11 | X-H torsion
[ 7974 7965 7964 7962 ] final  -82.64 input  175.53 | X-H torsion
[ 8008 7997 7996 7995 ] final   78.67 input   59.86 | X-H torsion
[ 10167 10162 10161 10158 ] final  151.02 input  -65.29 | X-H torsion
[ 10718 10713 10712 10709 ] final   45.60 input   66.30 | X-H torsion
[ 10763 10752 10751 10750 ] final  121.27 input  -60.55 | X-H torsion
[ 11005 11000 10999 10996 ] final  -25.37 input  -57.11 | X-H torsion

> <Gold.Protein.ActiveResidues>
 VAL166  LYS551  ARG553  GLY616  TRP617  ASP618  TYR619  PRO620  LYS621  CYS622 
 ASP623  PHE694  ASN695  SER759  ASP760  ASP761  ALA762  ILE779  LEU786  VAL792 
 PHE793  MET794  SER795  GLU796  ALA797  LYS798  CYS799  TRP800  GLU811  SER814 

> <Gold.Protein.RotatedAtoms>
  150.8043  133.8540  159.3213 H   0  0  0  0  0  0  0  0  0  0  0  0  # atno 6907 bound_to 6896
  151.6344  135.1018  160.0138 H   0  0  0  0  0  0  0  0  0  0  0  0  # atno 6908 bound_to 6896
  152.4132  133.6957  159.6451 H   0  0  0  0  0  0  0  0  0  0  0  0  # atno 6909 bound_to 6896
  145.5307  140.9521  143.1605 H   0  0  0  0  0  0  0  0  0  0  0  0  # atno 7974 bound_to 7965
  155.8590  140.3454  155.5744 H   0  0  0  0  0  0  0  0  0  0  0  0  # atno 8008 bound_to 7997
  155.7954  140.0877  157.2006 H   0  0  0  0  0  0  0  0  0  0  0  0  # atno 8009 bound_to 7997
  154.4011  140.1475  156.3199 H   0  0  0  0  0  0  0  0  0  0  0  0  # atno 8010 bound_to 7997
  139.4844  144.5474  151.7459 H   0  0  0  0  0  0  0  0  0  0  0  0  # atno 10167 bound_to 10162
  157.4393  130.8071  149.7678 H   0  0  0  0  0  0  0  0  0  0  0  0  # atno 10718 bound_to 10713
  153.6115  135.3429  155.2980 H   0  0  0  0  0  0  0  0  0  0  0  0  # atno 10763 bound_to 10752
  154.8617  135.4251  154.2304 H   0  0  0  0  0  0  0  0  0  0  0  0  # atno 10764 bound_to 10752
  153.3156  135.7034  153.7148 H   0  0  0  0  0  0  0  0  0  0  0  0  # atno 10765 bound_to 10752
  140.8932  133.7574  156.0447 H   0  0  0  0  0  0  0  0  0  0  0  0  # atno 11005 bound_to 11000
  144.7627  139.6917  143.7227 LP  0  0  0  0  0  0  0  0  0  0  0  0  # atno 17320 bound_to 7965
  146.2046  139.5362  142.9721 LP  0  0  0  0  0  0  0  0  0  0  0  0  # atno 17321 bound_to 7965
  140.5023  144.1150  150.5974 LP  0  0  0  0  0  0  0  0  0  0  0  0  # atno 17342 bound_to 10162
  140.4047  143.2686  151.9905 LP  0  0  0  0  0  0  0  0  0  0  0  0  # atno 17343 bound_to 10162
  155.9942  130.3919  150.2867 LP  0  0  0  0  0  0  0  0  0  0  0  0  # atno 17370 bound_to 10713
  157.1030  131.0201  151.3078 LP  0  0  0  0  0  0  0  0  0  0  0  0  # atno 17371 bound_to 10713
  140.8321  134.3165  157.5345 LP  0  0  0  0  0  0  0  0  0  0  0  0  # atno 17394 bound_to 11000
  139.8732  134.9369  156.3673 LP  0  0  0  0  0  0  0  0  0  0  0  0  # atno 17395 bound_to 11000

$$$$
