AV-unprocessed.smi:1765|AV-procd|sdf|7134|dock3
  -GOLD-   22720 8373D 1   1.00000     0.00000
 Structure written by MMmdl.
 39 40  0  0  0  0  0  0  0  0  1 V2000
  143.8827  143.8486  155.5605 C   0  0  0  0  0  0  0  0  0  0  0  0
  145.1753  143.2068  155.3744 N   0  0  0  0  0  0  0  0  0  0  0  0
  145.8758  142.6083  156.3520 C   0  0  0  0  0  0  0  0  0  0  0  0
  145.4593  142.5626  157.5109 O   0  0  0  0  0  0  0  0  0  0  0  0
  147.1460  142.0326  155.9033 C   0  0  0  0  0  0  0  0  0  0  0  0
  147.4942  141.8699  154.4994 C   0  0  0  0  0  0  0  0  0  0  0  0
  148.6802  141.3376  154.1446 C   0  0  0  0  0  0  0  0  0  0  0  0
  149.6609  140.9026  155.1430 C   0  0  0  0  0  0  0  0  0  0  0  0
  150.7463  140.4169  154.8236 O   0  0  0  0  0  0  0  0  0  0  0  0
  149.2930  141.0688  156.4495 N   0  0  0  0  0  0  0  0  0  0  0  0
  150.1961  140.6666  157.5410 C   0  0  0  0  0  0  0  0  0  0  0  0
  150.7289  141.8549  158.3537 C   0  0  0  0  0  0  0  0  0  0  0  0
  149.9617  142.5740  158.9950 O   0  0  0  0  0  0  0  0  0  0  0  0
  152.0585  142.0317  158.3328 N   0  0  0  0  0  0  0  0  0  0  0  0
  152.7792  143.0915  159.0331 C   0  0  0  0  0  0  0  0  0  0  0  0
  152.4078  143.1100  160.5288 C   0  0  0  0  0  0  0  0  0  0  0  0
  152.0642  144.5625  160.8637 C   0  0  0  0  0  0  0  0  0  0  0  0
  151.5388  145.1398  159.5534 C   0  0  0  0  0  0  0  0  0  0  0  0
  152.4087  144.4826  158.4820 C   0  0  0  0  0  0  0  0  0  0  0  0
  148.0528  141.6289  156.8148 C   0  0  0  0  0  0  0  0  0  0  0  0
  143.5189  144.2343  154.6082 H   0  0  0  0  0  0  0  0  0  0  0  0
  143.9602  144.6826  156.2591 H   0  0  0  0  0  0  0  0  0  0  0  0
  143.1481  143.1393  155.9436 H   0  0  0  0  0  0  0  0  0  0  0  0
  145.5639  143.2136  154.4427 H   0  0  0  0  0  0  0  0  0  0  0  0
  146.8171  142.1705  153.7135 H   0  0  0  0  0  0  0  0  0  0  0  0
  148.9168  141.2278  153.0963 H   0  0  0  0  0  0  0  0  0  0  0  0
  149.6905  139.9874  158.2287 H   0  0  0  0  0  0  0  0  0  0  0  0
  151.0336  140.0920  157.1402 H   0  0  0  0  0  0  0  0  0  0  0  0
  152.6130  141.3887  157.7863 H   0  0  0  0  0  0  0  0  0  0  0  0
  153.8547  142.9342  158.9300 H   0  0  0  0  0  0  0  0  0  0  0  0
  151.5336  142.4849  160.7180 H   0  0  0  0  0  0  0  0  0  0  0  0
  153.2144  142.7306  161.1566 H   0  0  0  0  0  0  0  0  0  0  0  0
  151.3454  144.6464  161.6794 H   0  0  0  0  0  0  0  0  0  0  0  0
  152.9689  145.0946  161.1608 H   0  0  0  0  0  0  0  0  0  0  0  0
  150.4976  144.8466  159.4134 H   0  0  0  0  0  0  0  0  0  0  0  0
  151.5865  146.2288  159.5238 H   0  0  0  0  0  0  0  0  0  0  0  0
  153.3192  145.0686  158.3503 H   0  0  0  0  0  0  0  0  0  0  0  0
  151.9086  144.4495  157.5132 H   0  0  0  0  0  0  0  0  0  0  0  0
  147.8984  141.7100  157.8818 H   0  0  0  0  0  0  0  0  0  0  0  0
  1  2  1  0  0  0  0
  1 21  1  0  0  0  0
  1 22  1  0  0  0  0
  1 23  1  0  0  0  0
  2  3  1  0  0  0  0
  2 24  1  0  0  0  0
  3  4  2  0  0  0  0
  3  5  1  0  0  0  0
  5 20  2  0  0  0  0
  5  6  1  0  0  0  0
  6  7  2  0  0  0  0
  6 25  1  0  0  0  0
  7  8  1  0  0  0  0
  7 26  1  0  0  0  0
  8  9  2  0  0  0  0
  8 10  1  0  0  0  0
 10 11  1  0  0  0  0
 10 20  1  0  0  0  0
 11 12  1  0  0  0  0
 11 27  1  0  0  0  0
 11 28  1  0  0  0  0
 12 13  2  0  0  0  0
 12 14  1  0  0  0  0
 14 15  1  0  0  0  0
 14 29  1  0  0  0  0
 15 19  1  0  0  0  0
 15 16  1  0  0  0  0
 15 30  1  0  0  0  0
 16 17  1  0  0  0  0
 16 31  1  0  0  0  0
 16 32  1  0  0  0  0
 17 18  1  0  0  0  0
 17 33  1  0  0  0  0
 17 34  1  0  0  0  0
 18 19  1  0  0  0  0
 18 35  1  0  0  0  0
 18 36  1  0  0  0  0
 19 37  1  0  0  0  0
 19 38  1  0  0  0  0
 20 39  1  0  0  0  0
M  END
> <s_m_source_file>
AV-unprocessed.smi

> <i_m_source_file_index>
1765

> <i_lp_mmshare_version>
43012

> <i_f3d_flags>
0

> <s_epik_input>
W0NIM11bTkhdQyg9TyljMVtjSF1bY0hdYyg9TyluKFtjSF0xKVtDSDJdQyg9TylbTkhdW0NIXTJbQ0gyXVtDSDJdW0NIMl1bQ0gyXTI=

> <s_epik_cmdline>
J2VwaWtfcHl0aG9uJywgJy1waCcsICc3LjAnLCAnLXRuJywgJzgnLCAnLW1hJywgJzIwMCcsICctbWV0YWxfYmluZGluZycsICctaW1hZScsICc8aW5maWxlLm1hZT4nLCAnLW9tYWUnLCAnPG91dGZpbGUubWFlPic=

> <r_lp_tautomer_probability>
1

> <r_epik_Ionization_Penalty>
3.69544e-07

> <r_epik_Ionization_Penalty_Charging>
4.98828e-08

> <r_epik_Ionization_Penalty_Neutral>
3.19661e-07

> <r_epik_State_Penalty>
-0

> <r_epik_Charging_Adjusted_Penalty>
4.98828e-08

> <i_epik_Tot_Q>
0

> <i_epik_Tot_abs_Q>
0

> <r_epik_Metal_State_Penalty>
-0

> <b_epik_Metal_Only>
0

> <s_lp_Force_Field>
OPLS_2005

> <r_lp_Energy>
30.5558

> <b_lp_Chiralities_Consistent>
1

> <s_lp_Variant>
AV-unprocessed.smi:1765-1

> <Gold.Version>
5.8.1

> <Gold.Id.Protein>
6NUR|6NUR_protein|mol2

> <Gold.PLP.Fitness>
44.8368

> <Gold.PLP.PLP>
-42.1492

> <Gold.PLP.part.hbond>
-1.5694

> <Gold.PLP.part.metal>
0.0000

> <Gold.PLP.part.buried>
-5.5332

> <Gold.PLP.part.nonpolar>
-35.3241

> <Gold.PLP.part.repulsive>
0.3428

> <Gold.PLP.ligand.clash>
0.0000

> <Gold.PLP.ligand.torsion>
0.1606

> <Gold.PLP.Chemscore.Hbond>
1.0000

> <Gold.PLP.Chemscore.CHOScore>
0.0000

> <Gold.PLP.Chemscore.Metal>
0.0000

> <Gold.Chemscore.Hbonds>
donor molecule, donor type, donor heavy atom, donor atom, acceptor molecule, acceptor atom, score
      P1  H  7989  7998       L1     9  1.00

> <Gold.PLP.Chemscore.Internal.Correction>
0.0087

> <Gold.Rescore>
     Score         DG    S(hbond)    S(metal)    S(lipo)     H(rot)  DE(clash)    DE(int)     intcor
     12.98     -15.44       0.98        0.00      90.60       1.52       0.00       2.46       ----

> <Gold.Chemscore.Fitness>
12.9808

> <Gold.Chemscore.DG>
-15.4423

> <Gold.Chemscore.ZeroCoef>
-5.4800

> <Gold.Chemscore.Hbond>
0.9779

> <Gold.Chemscore.Metal>
0.0000

> <Gold.Chemscore.Lipo>
90.5986

> <Gold.Chemscore.Internal_Hbond>
0.0000

> <Gold.Chemscore.DEClash>
0.0033

> <Gold.Chemscore.DEInternal>
2.4582

> <Gold.Chemscore.Rot>
1.5250

> <Gold.Chemscore.Internal.Correction>
   9.000000E+99

> <Gold.Chemscore.Hbonds>
donor molecule, donor type, donor heavy atom, donor atom, acceptor molecule, acceptor atom, score
      P1  H  7989  7998       L1     9  0.97

> <Gold.Chemscore.Hbond.Weighted>
-3.2662

> <Gold.Chemscore.Metal.Weighted>
-0.0000

> <Gold.Chemscore.Lipo.Weighted>
-10.6000

> <Gold.Chemscore.Internal_Hbond.Weighted>
0.0000

> <Gold.Chemscore.DEClash.Weighted>
0.0033

> <Gold.Chemscore.DEInternal.Weighted>
2.4582

> <Gold.Chemscore.Rot.Weighted>
3.9039

> <Gold.Chemscore.Internal.Correction.Weighted>
   9.000000E+99

> <Gold.Protein.RotatedTorsions>
[ 6907 6896 6895 6894 ] final   43.30 input  -60.11 | X-H torsion
[ 7974 7965 7964 7962 ] final   37.94 input  175.53 | X-H torsion
[ 8008 7997 7996 7995 ] final  113.90 input   59.86 | X-H torsion
[ 10167 10162 10161 10158 ] final   98.93 input  -65.29 | X-H torsion
[ 10718 10713 10712 10709 ] final  -91.46 input   66.30 | X-H torsion
[ 10763 10752 10751 10750 ] final -145.05 input  -60.55 | X-H torsion
[ 11005 11000 10999 10996 ] final  -84.96 input  -57.11 | X-H torsion

> <Gold.Protein.ActiveResidues>
 VAL166  LYS551  ARG553  GLY616  TRP617  ASP618  TYR619  PRO620  LYS621  CYS622 
 ASP623  PHE694  ASN695  SER759  ASP760  ASP761  ALA762  ILE779  LEU786  VAL792 
 PHE793  MET794  SER795  GLU796  ALA797  LYS798  CYS799  TRP800  GLU811  SER814 

> <Gold.Protein.RotatedAtoms>
  152.2186  134.8434  160.0488 H   0  0  0  0  0  0  0  0  0  0  0  0  # atno 6907 bound_to 6896
  151.9226  133.3584  159.3910 H   0  0  0  0  0  0  0  0  0  0  0  0  # atno 6908 bound_to 6896
  150.6994  134.4544  159.5395 H   0  0  0  0  0  0  0  0  0  0  0  0  # atno 6909 bound_to 6896
  146.1100  139.5833  142.9358 H   0  0  0  0  0  0  0  0  0  0  0  0  # atno 7974 bound_to 7965
  156.2287  140.2970  156.0134 H   0  0  0  0  0  0  0  0  0  0  0  0  # atno 8008 bound_to 7997
  155.2284  140.0418  157.2976 H   0  0  0  0  0  0  0  0  0  0  0  0  # atno 8009 bound_to 7997
  154.5959  140.2414  155.7865 H   0  0  0  0  0  0  0  0  0  0  0  0  # atno 8010 bound_to 7997
  139.7664  144.6937  151.0219 H   0  0  0  0  0  0  0  0  0  0  0  0  # atno 10167 bound_to 10162
  155.9994  130.4949  150.5478 H   0  0  0  0  0  0  0  0  0  0  0  0  # atno 10718 bound_to 10713
  154.8401  135.3423  154.6444 H   0  0  0  0  0  0  0  0  0  0  0  0  # atno 10763 bound_to 10752
  153.7055  135.6967  153.5056 H   0  0  0  0  0  0  0  0  0  0  0  0  # atno 10764 bound_to 10752
  153.2490  135.4359  155.0732 H   0  0  0  0  0  0  0  0  0  0  0  0  # atno 10765 bound_to 10752
  141.1646  133.7374  156.8945 H   0  0  0  0  0  0  0  0  0  0  0  0  # atno 11005 bound_to 11000
  145.5683  141.0397  143.2188 LP  0  0  0  0  0  0  0  0  0  0  0  0  # atno 17320 bound_to 7965
  144.7503  139.7211  143.7275 LP  0  0  0  0  0  0  0  0  0  0  0  0  # atno 17321 bound_to 7965
  140.7811  143.4638  151.0240 LP  0  0  0  0  0  0  0  0  0  0  0  0  # atno 17342 bound_to 10162
  139.8323  143.7674  152.3180 LP  0  0  0  0  0  0  0  0  0  0  0  0  # atno 17343 bound_to 10162
  157.3406  131.0716  151.1791 LP  0  0  0  0  0  0  0  0  0  0  0  0  # atno 17370 bound_to 10713
  157.2641  130.6673  149.5988 LP  0  0  0  0  0  0  0  0  0  0  0  0  # atno 17371 bound_to 10713
  140.1625  134.9155  157.2733 LP  0  0  0  0  0  0  0  0  0  0  0  0  # atno 17394 bound_to 11000
  140.2594  134.3589  155.7412 LP  0  0  0  0  0  0  0  0  0  0  0  0  # atno 17395 bound_to 11000

$$$$
