AV-unprocessed.smi:1056|AV-procd|sdf|4630|dock2
  -GOLD-   22720 3133D 1   1.00000     0.00000
 Structure written by MMmdl.
 45 47  0  0  0  0  0  0  0  0  2 V2000
  152.9344  143.1720  161.4213 C   0  0  0  0  0  0  0  0  0  0  0  0
  152.3706  142.7790  160.0672 C   0  0  0  0  0  0  0  0  0  0  0  0
  152.8095  141.5801  159.4617 C   0  0  0  0  0  0  0  0  0  0  0  0
  152.3082  141.1781  158.2046 C   0  0  0  0  0  0  0  0  0  0  0  0
  152.5928  140.0604  157.4388 N   0  0  0  0  0  0  0  0  0  0  0  0
  151.8093  140.2521  156.3823 C   0  0  0  0  0  0  0  0  0  0  0  0
  151.0520  141.3659  156.3701 N   0  0  0  0  0  0  0  0  0  0  0  0
  150.1271  141.7800  155.3310 C   0  0  0  0  0  0  0  0  0  0  0  0
  149.4414  140.5829  154.6412 C   0  0  2  0  0  0  0  0  0  0  0  0
  150.3578  139.9583  153.7649 O   0  0  0  0  0  0  0  0  0  0  0  0
  148.2086  140.9988  153.8139 C   0  0  0  0  0  0  0  0  0  0  0  0
  147.6770  139.8909  152.9807 N   0  3  2  0  0  0  0  0  0  0  0  0
  146.8655  140.3463  151.8268 C   0  0  0  0  0  0  0  0  0  0  0  0
  146.5477  139.1581  150.9015 C   0  0  0  0  0  0  0  0  0  0  0  0
  146.1576  137.9534  151.6306 N   0  0  0  0  0  0  0  0  0  0  0  0
  146.3259  137.7513  152.9477 C   0  0  0  0  0  0  0  0  0  0  0  0
  145.9828  136.7045  153.4904 O   0  0  0  0  0  0  0  0  0  0  0  0
  146.9641  138.8681  153.7877 C   0  0  0  0  0  0  0  0  0  0  0  0
  151.3481  142.0153  157.5641 C   0  0  0  0  0  0  0  0  0  0  0  0
  150.9053  143.2116  158.1553 C   0  0  0  0  0  0  0  0  0  0  0  0
  151.4153  143.5975  159.4126 C   0  0  0  0  0  0  0  0  0  0  0  0
  150.9272  144.8885  160.0459 C   0  0  0  0  0  0  0  0  0  0  0  0
  153.6698  142.4475  161.7726 H   0  0  0  0  0  0  0  0  0  0  0  0
  152.1380  143.2276  162.1638 H   0  0  0  0  0  0  0  0  0  0  0  0
  153.4245  144.1441  161.3645 H   0  0  0  0  0  0  0  0  0  0  0  0
  153.5367  140.9563  159.9606 H   0  0  0  0  0  0  0  0  0  0  0  0
  151.7852  139.5427  155.5680 H   0  0  0  0  0  0  0  0  0  0  0  0
  149.3840  142.4348  155.7876 H   0  0  0  0  0  0  0  0  0  0  0  0
  150.6664  142.3854  154.6015 H   0  0  0  0  0  0  0  0  0  0  0  0
  149.1624  139.8414  155.3897 H   0  0  0  0  0  0  0  0  0  0  0  0
  149.9634  139.8968  152.9077 H   0  0  0  0  0  0  0  0  0  0  0  0
  147.4326  141.3392  154.5018 H   0  0  0  0  0  0  0  0  0  0  0  0
  148.4417  141.8508  153.1727 H   0  0  0  0  0  0  0  0  0  0  0  0
  145.9408  140.7939  152.1947 H   0  0  0  0  0  0  0  0  0  0  0  0
  147.3841  141.1165  151.2570 H   0  0  0  0  0  0  0  0  0  0  0  0
  145.7609  139.4255  150.1959 H   0  0  0  0  0  0  0  0  0  0  0  0
  147.4295  138.9112  150.3090 H   0  0  0  0  0  0  0  0  0  0  0  0
  145.7314  137.2121  151.0921 H   0  0  0  0  0  0  0  0  0  0  0  0
  147.6588  138.4199  154.4993 H   0  0  0  0  0  0  0  0  0  0  0  0
  146.1751  139.3483  154.3682 H   0  0  0  0  0  0  0  0  0  0  0  0
  150.1787  143.8274  157.6462 H   0  0  0  0  0  0  0  0  0  0  0  0
  150.2025  145.3958  159.4082 H   0  0  0  0  0  0  0  0  0  0  0  0
  151.7602  145.5713  160.2143 H   0  0  0  0  0  0  0  0  0  0  0  0
  150.4462  144.6857  161.0029 H   0  0  0  0  0  0  0  0  0  0  0  0
  148.4812  139.4183  152.5932 H   0  0  0  0  0  0  0  0  0  0  0  0
  1  2  1  0  0  0  0
  1 23  1  0  0  0  0
  1 24  1  0  0  0  0
  1 25  1  0  0  0  0
  2 21  1  0  0  0  0
  2  3  2  0  0  0  0
  3  4  1  0  0  0  0
  3 26  1  0  0  0  0
  4 19  2  0  0  0  0
  4  5  1  0  0  0  0
  5  6  2  0  0  0  0
  6  7  1  0  0  0  0
  6 27  1  0  0  0  0
  7  8  1  0  0  0  0
  7 19  1  0  0  0  0
  8  9  1  0  0  0  0
  8 28  1  0  0  0  0
  8 29  1  0  0  0  0
  9 10  1  0  0  0  0
  9 11  1  0  0  0  0
  9 30  1  0  0  0  0
 10 31  1  0  0  0  0
 11 12  1  0  0  0  0
 11 32  1  0  0  0  0
 11 33  1  0  0  0  0
 12 18  1  0  0  0  0
 12 13  1  0  0  0  0
 12 45  1  0  0  0  0
 13 14  1  0  0  0  0
 13 34  1  0  0  0  0
 13 35  1  0  0  0  0
 14 15  1  0  0  0  0
 14 36  1  0  0  0  0
 14 37  1  0  0  0  0
 15 16  1  0  0  0  0
 15 38  1  0  0  0  0
 16 17  2  0  0  0  0
 16 18  1  0  0  0  0
 18 39  1  0  0  0  0
 18 40  1  0  0  0  0
 19 20  1  0  0  0  0
 20 21  2  0  0  0  0
 20 41  1  0  0  0  0
 21 22  1  0  0  0  0
 22 42  1  0  0  0  0
 22 43  1  0  0  0  0
 22 44  1  0  0  0  0
M  CHG  1  12   1
M  END
> <s_m_source_file>
AV-unprocessed.smi

> <i_m_source_file_index>
1056

> <i_lp_mmshare_version>
43012

> <i_f3d_flags>
0

> <s_epik_input>
W0NIM11jKFtjSF0xKWMoW0NIM10pW2NIXWMoYzEyKW4oW2NIXW4yKVtDSDJdW0NASF0oW09IXSlbQ0gyXU4zW0NIMl1bQ0gyXVtOSF1DKD1PKVtDSDJdMw==

> <s_epik_cmdline>
J2VwaWtfcHl0aG9uJywgJy1waCcsICc3LjAnLCAnLXRuJywgJzgnLCAnLW1hJywgJzIwMCcsICctbWV0YWxfYmluZGluZycsICctaW1hZScsICc8aW5maWxlLm1hZT4nLCAnLW9tYWUnLCAnPG91dGZpbGUubWFlPic=

> <r_epik_Ionization_Penalty>
0.153633

> <r_epik_Ionization_Penalty_Charging>
0.0674887

> <r_epik_Ionization_Penalty_Neutral>
0.0861443

> <r_epik_State_Penalty>
0.135155

> <r_epik_Charging_Adjusted_Penalty>
0.202644

> <i_epik_Tot_Q>
1

> <i_epik_Tot_abs_Q>
1

> <r_epik_Metal_State_Penalty>
0.190685

> <b_epik_Metal_Only>
0

> <s_lp_Force_Field>
OPLS_2005

> <r_lp_Energy>
23.9975

> <b_lp_Chiralities_Consistent>
1

> <s_lp_Variant>
AV-unprocessed.smi:1056-1

> <Gold.Version>
5.8.1

> <Gold.Id.Protein>
6NUR|6NUR_protein|mol2

> <Gold.PLP.Fitness>
54.0094

> <Gold.PLP.PLP>
-44.8828

> <Gold.PLP.part.hbond>
-5.3279

> <Gold.PLP.part.metal>
0.0000

> <Gold.PLP.part.buried>
3.1389

> <Gold.PLP.part.nonpolar>
-40.4216

> <Gold.PLP.part.repulsive>
0.2360

> <Gold.PLP.ligand.clash>
0.0000

> <Gold.PLP.ligand.torsion>
0.6749

> <Gold.PLP.Chemscore.Hbond>
3.4436

> <Gold.PLP.Chemscore.CHOScore>
0.0000

> <Gold.PLP.Chemscore.Metal>
0.0000

> <Gold.Chemscore.Hbonds>
donor molecule, donor type, donor heavy atom, donor atom, acceptor molecule, acceptor atom, score
      L1  H    10    31       P1  7957  1.00
      L1  H    12    45       P1  7957  0.54
      P1  H  7989  7998       L1    10  0.91
      P1  H  7997  8008       L1     5  1.00

> <Gold.PLP.Chemscore.Internal.Correction>
0.1456

> <Gold.Rescore>
     Score         DG    S(hbond)    S(metal)    S(lipo)     H(rot)  DE(clash)    DE(int)     intcor
     18.70     -23.28       2.69        0.00     127.37       2.38       2.89       1.68       ----

> <Gold.Chemscore.Fitness>
18.7050

> <Gold.Chemscore.DG>
-23.2784

> <Gold.Chemscore.ZeroCoef>
-5.4800

> <Gold.Chemscore.Hbond>
2.6899

> <Gold.Chemscore.Metal>
0.0000

> <Gold.Chemscore.Lipo>
127.3704

> <Gold.Chemscore.Internal_Hbond>
0.0000

> <Gold.Chemscore.DEClash>
2.8918

> <Gold.Chemscore.DEInternal>
1.6816

> <Gold.Chemscore.Rot>
2.3783

> <Gold.Chemscore.Internal.Correction>
   9.000000E+99

> <Gold.Chemscore.Hbonds>
donor molecule, donor type, donor heavy atom, donor atom, acceptor molecule, acceptor atom, score
      L1  H    10    31       P1  7957  1.00
      L1  H    12    45       P1  7957  0.54
      P1  H  7989  7998       L1    10  0.21
      P1  H  7997  8008       L1     5  0.44

> <Gold.Chemscore.Hbond.Weighted>
-8.9844

> <Gold.Chemscore.Metal.Weighted>
-0.0000

> <Gold.Chemscore.Lipo.Weighted>
-14.9023

> <Gold.Chemscore.Internal_Hbond.Weighted>
0.0000

> <Gold.Chemscore.DEClash.Weighted>
2.8918

> <Gold.Chemscore.DEInternal.Weighted>
1.6816

> <Gold.Chemscore.Rot.Weighted>
6.0884

> <Gold.Chemscore.Internal.Correction.Weighted>
   9.000000E+99

> <Gold.Protein.RotatedTorsions>
[ 6907 6896 6895 6894 ] final    4.16 input  -60.11 | X-H torsion
[ 7974 7965 7964 7962 ] final  -99.16 input  175.53 | X-H torsion
[ 8008 7997 7996 7995 ] final  -67.73 input   59.86 | X-H torsion
[ 10167 10162 10161 10158 ] final -159.92 input  -65.29 | X-H torsion
[ 10718 10713 10712 10709 ] final -168.20 input   66.30 | X-H torsion
[ 10763 10752 10751 10750 ] final  -14.96 input  -60.55 | X-H torsion
[ 11005 11000 10999 10996 ] final   71.16 input  -57.11 | X-H torsion

> <Gold.Protein.ActiveResidues>
 VAL166  LYS551  ARG553  GLY616  TRP617  ASP618  TYR619  PRO620  LYS621  CYS622 
 ASP623  PHE694  ASN695  SER759  ASP760  ASP761  ALA762  ILE779  LEU786  VAL792 
 PHE793  MET794  SER795  GLU796  ALA797  LYS798  CYS799  TRP800  GLU811  SER814 

> <Gold.Protein.RotatedAtoms>
  151.6367  135.1017  160.0132 H   0  0  0  0  0  0  0  0  0  0  0  0  # atno 6907 bound_to 6896
  152.4076  133.6909  159.6378 H   0  0  0  0  0  0  0  0  0  0  0  0  # atno 6908 bound_to 6896
  150.7969  133.8598  159.3269 H   0  0  0  0  0  0  0  0  0  0  0  0  # atno 6909 bound_to 6896
  145.3112  140.9400  143.2768 H   0  0  0  0  0  0  0  0  0  0  0  0  # atno 7974 bound_to 7965
  154.4819  140.0887  156.7398 H   0  0  0  0  0  0  0  0  0  0  0  0  # atno 8008 bound_to 7997
  155.4448  140.3455  155.4276 H   0  0  0  0  0  0  0  0  0  0  0  0  # atno 8009 bound_to 7997
  156.1204  140.1472  156.9200 H   0  0  0  0  0  0  0  0  0  0  0  0  # atno 8010 bound_to 7997
  139.6578  143.9966  152.2206 H   0  0  0  0  0  0  0  0  0  0  0  0  # atno 10167 bound_to 10162
  156.6934  130.9168  151.3071 H   0  0  0  0  0  0  0  0  0  0  0  0  # atno 10718 bound_to 10713
  153.5361  135.7014  153.5659 H   0  0  0  0  0  0  0  0  0  0  0  0  # atno 10763 bound_to 10752
  153.3645  135.3961  155.1743 H   0  0  0  0  0  0  0  0  0  0  0  0  # atno 10764 bound_to 10752
  154.8679  135.3797  154.4862 H   0  0  0  0  0  0  0  0  0  0  0  0  # atno 10765 bound_to 10752
  139.9558  134.7146  156.0756 H   0  0  0  0  0  0  0  0  0  0  0  0  # atno 11005 bound_to 11000
  144.9014  139.4644  143.6630 LP  0  0  0  0  0  0  0  0  0  0  0  0  # atno 17320 bound_to 7965
  146.3117  139.7771  142.9014 LP  0  0  0  0  0  0  0  0  0  0  0  0  # atno 17321 bound_to 7965
  139.9698  144.6502  150.8000 LP  0  0  0  0  0  0  0  0  0  0  0  0  # atno 17342 bound_to 10162
  140.7567  143.3071  151.2935 LP  0  0  0  0  0  0  0  0  0  0  0  0  # atno 17343 bound_to 10162
  157.7000  130.9323  150.0757 LP  0  0  0  0  0  0  0  0  0  0  0  0  # atno 17370 bound_to 10713
  156.1781  130.3649  149.9073 LP  0  0  0  0  0  0  0  0  0  0  0  0  # atno 17371 bound_to 10713
  141.1229  133.6607  156.3262 LP  0  0  0  0  0  0  0  0  0  0  0  0  # atno 17394 bound_to 11000
  140.5612  134.5932  157.5434 LP  0  0  0  0  0  0  0  0  0  0  0  0  # atno 17395 bound_to 11000

$$$$
