AV-unprocessed.smi:895|AV-procd|sdf|4074|dock3
  -GOLD-   22720 1563D 1   1.00000     0.00000
 Structure written by MMmdl.
 44 45  0  0  0  0  0  0  0  0  1 V2000
  152.5916  143.4040  160.0933 C   0  0  0  0  0  0  0  0  0  0  0  0
  151.8678  144.4644  159.2410 C   0  0  0  0  0  0  0  0  0  0  0  0
  151.8155  145.8080  159.9872 C   0  0  0  0  0  0  0  0  0  0  0  0
  152.6295  144.6896  158.0709 O   0  0  0  0  0  0  0  0  0  0  0  0
  150.4455  144.0401  158.8098 C   0  0  0  0  0  0  0  0  0  0  0  0
  150.4569  143.1454  157.6586 N   0  0  0  0  0  0  0  0  0  0  0  0
  150.9276  141.8929  157.6785 C   0  0  0  0  0  0  0  0  0  0  0  0
  151.4056  141.3523  158.6759 O   0  0  0  0  0  0  0  0  0  0  0  0
  150.8141  141.3033  156.4811 N   0  0  0  0  0  0  0  0  0  0  0  0
  151.2302  139.9391  156.1597 C   0  0  1  0  0  0  0  0  0  0  0  0
  150.6579  138.9361  157.1844 C   0  0  0  0  0  0  0  0  0  0  0  0
  151.0651  137.4948  156.8419 C   0  0  0  0  0  0  0  0  0  0  0  0
  150.6442  137.1114  155.4152 C   0  0  0  0  0  0  0  0  0  0  0  0
  151.2008  138.1047  154.3780 C   0  0  0  0  0  0  0  0  0  0  0  0
  150.8707  139.5830  154.6915 C   0  0  1  0  0  0  0  0  0  0  0  0
  149.5076  139.9525  154.3023 N   0  0  0  0  0  0  0  0  0  0  0  0
  148.5365  139.1251  153.7741 C   0  0  0  0  0  0  0  0  0  0  0  0
  147.4235  139.8823  153.5465 C   0  0  0  0  0  0  0  0  0  0  0  0
  147.8100  141.1823  153.9719 C   0  0  0  0  0  0  0  0  0  0  0  0
  149.0531  141.2207  154.4205 N   0  0  0  0  0  0  0  0  0  0  0  0
  152.0207  143.1670  160.9914 H   0  0  0  0  0  0  0  0  0  0  0  0
  153.5731  143.7570  160.4118 H   0  0  0  0  0  0  0  0  0  0  0  0
  152.7483  142.4746  159.5450 H   0  0  0  0  0  0  0  0  0  0  0  0
  151.2491  145.7205  160.9149 H   0  0  0  0  0  0  0  0  0  0  0  0
  151.3392  146.5816  159.3837 H   0  0  0  0  0  0  0  0  0  0  0  0
  152.8149  146.1603  160.2460 H   0  0  0  0  0  0  0  0  0  0  0  0
  153.5359  144.5020  158.2617 H   0  0  0  0  0  0  0  0  0  0  0  0
  149.9591  143.5160  159.6342 H   0  0  0  0  0  0  0  0  0  0  0  0
  149.8314  144.9160  158.5922 H   0  0  0  0  0  0  0  0  0  0  0  0
  150.0767  143.5054  156.7956 H   0  0  0  0  0  0  0  0  0  0  0  0
  150.4001  141.8353  155.7295 H   0  0  0  0  0  0  0  0  0  0  0  0
  152.3185  139.8876  156.2327 H   0  0  0  0  0  0  0  0  0  0  0  0
  151.0184  139.1817  158.1839 H   0  0  0  0  0  0  0  0  0  0  0  0
  149.5718  139.0106  157.2324 H   0  0  0  0  0  0  0  0  0  0  0  0
  152.1460  137.3896  156.9420 H   0  0  0  0  0  0  0  0  0  0  0  0
  150.6205  136.8037  157.5585 H   0  0  0  0  0  0  0  0  0  0  0  0
  151.0019  136.1072  155.1863 H   0  0  0  0  0  0  0  0  0  0  0  0
  149.5578  137.0610  155.3521 H   0  0  0  0  0  0  0  0  0  0  0  0
  152.2852  137.9924  154.3466 H   0  0  0  0  0  0  0  0  0  0  0  0
  150.8457  137.8424  153.3807 H   0  0  0  0  0  0  0  0  0  0  0  0
  151.5251  140.1835  154.0573 H   0  0  0  0  0  0  0  0  0  0  0  0
  148.7169  138.0740  153.6025 H   0  0  0  0  0  0  0  0  0  0  0  0
  146.4786  139.5570  153.1378 H   0  0  0  0  0  0  0  0  0  0  0  0
  147.2293  142.0930  153.9670 H   0  0  0  0  0  0  0  0  0  0  0  0
  1  2  1  0  0  0  0
  1 21  1  0  0  0  0
  1 22  1  0  0  0  0
  1 23  1  0  0  0  0
  2  3  1  0  0  0  0
  2  4  1  0  0  0  0
  2  5  1  0  0  0  0
  3 24  1  0  0  0  0
  3 25  1  0  0  0  0
  3 26  1  0  0  0  0
  4 27  1  0  0  0  0
  5  6  1  0  0  0  0
  5 28  1  0  0  0  0
  5 29  1  0  0  0  0
  6  7  1  0  0  0  0
  6 30  1  0  0  0  0
  7  8  2  0  0  0  0
  7  9  1  0  0  0  0
  9 10  1  0  0  0  0
  9 31  1  0  0  0  0
 10 15  1  0  0  0  0
 10 11  1  0  0  0  0
 10 32  1  0  0  0  0
 11 12  1  0  0  0  0
 11 33  1  0  0  0  0
 11 34  1  0  0  0  0
 12 13  1  0  0  0  0
 12 35  1  0  0  0  0
 12 36  1  0  0  0  0
 13 14  1  0  0  0  0
 13 37  1  0  0  0  0
 13 38  1  0  0  0  0
 14 15  1  0  0  0  0
 14 39  1  0  0  0  0
 14 40  1  0  0  0  0
 15 16  1  0  0  0  0
 15 41  1  0  0  0  0
 16 20  1  0  0  0  0
 16 17  1  0  0  0  0
 17 18  2  0  0  0  0
 17 42  1  0  0  0  0
 18 19  1  0  0  0  0
 18 43  1  0  0  0  0
 19 20  2  0  0  0  0
 19 44  1  0  0  0  0
M  END
> <s_m_source_file>
AV-unprocessed.smi

> <i_m_source_file_index>
895

> <i_lp_mmshare_version>
43012

> <i_f3d_flags>
0

> <s_epik_input>
W0NIM11DKFtDSDNdKShbT0hdKVtDSDJdW05IXUMoPU8pW05IXVtDQEBIXTFbQ0gyXVtDSDJdW0NIMl1bQ0gyXVtDQEhdMW4yW2NIXVtjSF1bY0hdbjI=

> <s_epik_cmdline>
J2VwaWtfcHl0aG9uJywgJy1waCcsICc3LjAnLCAnLXRuJywgJzgnLCAnLW1hJywgJzIwMCcsICctbWV0YWxfYmluZGluZycsICctaW1hZScsICc8aW5maWxlLm1hZT4nLCAnLW9tYWUnLCAnPG91dGZpbGUubWFlPic=

> <r_lp_tautomer_probability>
1

> <r_epik_Ionization_Penalty>
0.000440451

> <r_epik_Ionization_Penalty_Charging>
0

> <r_epik_Ionization_Penalty_Neutral>
0.000440451

> <r_epik_State_Penalty>
-0

> <r_epik_Charging_Adjusted_Penalty>
0

> <i_epik_Tot_Q>
0

> <i_epik_Tot_abs_Q>
0

> <r_epik_Metal_State_Penalty>
-0

> <b_epik_Metal_Only>
0

> <s_lp_Force_Field>
OPLS_2005

> <r_lp_Energy>
15.0391

> <b_lp_Chiralities_Consistent>
1

> <s_lp_Variant>
AV-unprocessed.smi:895-2

> <Gold.Version>
5.8.1

> <Gold.Id.Protein>
6NUR|6NUR_protein|mol2

> <Gold.PLP.Fitness>
43.7139

> <Gold.PLP.PLP>
-38.5234

> <Gold.PLP.part.hbond>
-1.0514

> <Gold.PLP.part.metal>
0.0000

> <Gold.PLP.part.buried>
-2.2402

> <Gold.PLP.part.nonpolar>
-35.3501

> <Gold.PLP.part.repulsive>
0.2531

> <Gold.PLP.ligand.clash>
0.0000

> <Gold.PLP.ligand.torsion>
0.4414

> <Gold.PLP.Chemscore.Hbond>
0.9913

> <Gold.PLP.Chemscore.CHOScore>
1.0000

> <Gold.PLP.Chemscore.Metal>
0.0000

> <Gold.Chemscore.Hbonds>
donor molecule, donor type, donor heavy atom, donor atom, acceptor molecule, acceptor atom, score
      L1  H     6    30       P1  8028  0.99
      L1  C    17    42       P1  7948  1.00

> <Gold.PLP.Chemscore.Internal.Correction>
0.0995

> <Gold.Rescore>
     Score         DG    S(hbond)    S(metal)    S(lipo)     H(rot)  DE(clash)    DE(int)     intcor
      9.78     -14.44       0.95        0.00      97.55       2.19       0.25       4.41       ----

> <Gold.Chemscore.Fitness>
9.7810

> <Gold.Chemscore.DG>
-14.4400

> <Gold.Chemscore.ZeroCoef>
-5.4800

> <Gold.Chemscore.Hbond>
0.9456

> <Gold.Chemscore.Metal>
0.0000

> <Gold.Chemscore.Lipo>
97.5475

> <Gold.Chemscore.Internal_Hbond>
0.0000

> <Gold.Chemscore.DEClash>
0.2481

> <Gold.Chemscore.DEInternal>
4.4109

> <Gold.Chemscore.Rot>
2.1919

> <Gold.Chemscore.Internal.Correction>
   9.000000E+99

> <Gold.Chemscore.Hbonds>
donor molecule, donor type, donor heavy atom, donor atom, acceptor molecule, acceptor atom, score
      L1  H     6    30       P1  8028  0.90

> <Gold.Chemscore.Hbond.Weighted>
-3.1582

> <Gold.Chemscore.Metal.Weighted>
-0.0000

> <Gold.Chemscore.Lipo.Weighted>
-11.4131

> <Gold.Chemscore.Internal_Hbond.Weighted>
0.0000

> <Gold.Chemscore.DEClash.Weighted>
0.2481

> <Gold.Chemscore.DEInternal.Weighted>
4.4109

> <Gold.Chemscore.Rot.Weighted>
5.6113

> <Gold.Chemscore.Internal.Correction.Weighted>
   9.000000E+99

> <Gold.Protein.RotatedTorsions>
[ 6907 6896 6895 6894 ] final    2.55 input  -60.11 | X-H torsion
[ 7974 7965 7964 7962 ] final -111.31 input  175.53 | X-H torsion
[ 8008 7997 7996 7995 ] final   14.63 input   59.86 | X-H torsion
[ 10167 10162 10161 10158 ] final   -3.06 input  -65.29 | X-H torsion
[ 10718 10713 10712 10709 ] final  -26.08 input   66.30 | X-H torsion
[ 10763 10752 10751 10750 ] final -149.42 input  -60.55 | X-H torsion
[ 11005 11000 10999 10996 ] final  -98.01 input  -57.11 | X-H torsion

> <Gold.Protein.ActiveResidues>
 VAL166  LYS551  ARG553  GLY616  TRP617  ASP618  TYR619  PRO620  LYS621  CYS622 
 ASP623  PHE694  ASN695  SER759  ASP760  ASP761  ALA762  ILE779  LEU786  VAL792 
 PHE793  MET794  SER795  GLU796  ALA797  LYS798  CYS799  TRP800  GLU811  SER814 

> <Gold.Protein.RotatedAtoms>
  151.6106  135.1040  160.0080 H   0  0  0  0  0  0  0  0  0  0  0  0  # atno 6907 bound_to 6896
  152.4210  133.7112  159.6490 H   0  0  0  0  0  0  0  0  0  0  0  0  # atno 6908 bound_to 6896
  150.8098  133.8370  159.3210 H   0  0  0  0  0  0  0  0  0  0  0  0  # atno 6909 bound_to 6896
  145.1576  140.8862  143.3609 H   0  0  0  0  0  0  0  0  0  0  0  0  # atno 7974 bound_to 7965
  154.8512  140.2930  155.5597 H   0  0  0  0  0  0  0  0  0  0  0  0  # atno 8008 bound_to 7997
  156.3016  140.2495  156.3403 H   0  0  0  0  0  0  0  0  0  0  0  0  # atno 8009 bound_to 7997
  154.9019  140.0391  157.1887 H   0  0  0  0  0  0  0  0  0  0  0  0  # atno 8010 bound_to 7997
  140.6875  143.6584  150.8288 H   0  0  0  0  0  0  0  0  0  0  0  0  # atno 10167 bound_to 10162
  156.4559  130.4493  149.6960 H   0  0  0  0  0  0  0  0  0  0  0  0  # atno 10718 bound_to 10713
  154.8178  135.3309  154.7126 H   0  0  0  0  0  0  0  0  0  0  0  0  # atno 10763 bound_to 10752
  153.7764  135.6922  153.4901 H   0  0  0  0  0  0  0  0  0  0  0  0  # atno 10764 bound_to 10752
  153.2010  135.4516  155.0214 H   0  0  0  0  0  0  0  0  0  0  0  0  # atno 10765 bound_to 10752
  141.1359  133.8213  157.0782 H   0  0  0  0  0  0  0  0  0  0  0  0  # atno 11005 bound_to 11000
  145.0364  139.3296  143.5998 LP  0  0  0  0  0  0  0  0  0  0  0  0  # atno 17320 bound_to 7965
  146.3486  139.9722  142.8705 LP  0  0  0  0  0  0  0  0  0  0  0  0  # atno 17321 bound_to 7965
  140.0293  143.5460  152.2767 LP  0  0  0  0  0  0  0  0  0  0  0  0  # atno 17342 bound_to 10162
  139.6247  144.7635  151.2664 LP  0  0  0  0  0  0  0  0  0  0  0  0  # atno 17343 bound_to 10162
  156.3767  130.7558  151.2547 LP  0  0  0  0  0  0  0  0  0  0  0  0  # atno 17370 bound_to 10713
  157.7500  131.0307  150.4150 LP  0  0  0  0  0  0  0  0  0  0  0  0  # atno 17371 bound_to 10713
  140.0468  134.9826  157.1064 LP  0  0  0  0  0  0  0  0  0  0  0  0  # atno 17394 bound_to 11000
  140.4050  134.2042  155.7163 LP  0  0  0  0  0  0  0  0  0  0  0  0  # atno 17395 bound_to 11000

$$$$
