AV-unprocessed.smi:3068|AV-procd|sdf|11701|dock7
  -GOLD-   2272017103D 1   1.00000     0.00000
 Structure written by MMmdl.
 40 42  0  0  0  0  0  0  0  0  2 V2000
  150.5955  133.9969  157.2270 N   0  0  0  0  0  0  0  0  0  0  0  0
  150.4061  134.9241  156.5607 C   0  0  0  0  0  0  0  0  0  0  0  0
  150.1690  136.0915  155.7212 C   0  0  0  0  0  0  0  0  0  0  0  0
  151.2395  136.5936  155.0632 N   0  0  0  0  0  0  0  0  0  0  0  0
  151.0338  137.6744  154.2810 C   0  0  0  0  0  0  0  0  0  0  0  0
  149.7595  138.2598  154.1522 C   0  0  0  0  0  0  0  0  0  0  0  0
  148.6861  137.7668  154.8060 N   0  0  0  0  0  0  0  0  0  0  0  0
  148.8787  136.6805  155.5959 C   0  0  0  0  0  0  0  0  0  0  0  0
  147.7694  136.1547  156.2845 N   0  0  0  0  0  0  0  0  0  0  0  0
  146.5238  135.8209  155.6034 C   0  0  0  0  0  0  0  0  0  0  0  0
  146.6471  135.9139  154.0731 C   0  0  1  0  0  0  0  0  0  0  0  0
  146.6831  134.5201  153.4212 C   0  0  0  0  0  0  0  0  0  0  0  0
  146.7101  134.6362  151.9420 N   0  3  1  0  0  0  0  0  0  0  0  0
  146.8015  133.3306  151.2377 C   0  0  0  0  0  0  0  0  0  0  0  0
  145.4638  132.5659  151.2508 C   0  0  0  0  0  0  0  0  0  0  0  0
  144.3266  133.4328  150.6933 C   0  0  0  0  0  0  0  0  0  0  0  0
  144.2536  134.7692  151.4456 C   0  0  0  0  0  0  0  0  0  0  0  0
  145.6150  135.4984  151.4181 C   0  0  1  0  0  0  0  0  0  0  0  0
  145.5863  136.8401  152.1760 C   0  0  0  0  0  0  0  0  0  0  0  0
  145.5094  136.6115  153.5775 O   0  0  0  0  0  0  0  0  0  0  0  0
  151.8893  138.0740  153.7570 H   0  0  0  0  0  0  0  0  0  0  0  0
  149.6011  139.1245  153.5250 H   0  0  0  0  0  0  0  0  0  0  0  0
  147.7942  136.0985  157.2930 H   0  0  0  0  0  0  0  0  0  0  0  0
  146.2051  134.8209  155.8994 H   0  0  0  0  0  0  0  0  0  0  0  0
  145.7471  136.5008  155.9545 H   0  0  0  0  0  0  0  0  0  0  0  0
  147.5560  136.4574  153.8092 H   0  0  0  0  0  0  0  0  0  0  0  0
  147.5692  133.9792  153.7556 H   0  0  0  0  0  0  0  0  0  0  0  0
  145.8186  133.9388  153.7425 H   0  0  0  0  0  0  0  0  0  0  0  0
  147.0986  133.5204  150.2053 H   0  0  0  0  0  0  0  0  0  0  0  0
  147.5939  132.7240  151.6779 H   0  0  0  0  0  0  0  0  0  0  0  0
  145.5548  131.6529  150.6619 H   0  0  0  0  0  0  0  0  0  0  0  0
  145.2211  132.2487  152.2652 H   0  0  0  0  0  0  0  0  0  0  0  0
  144.4926  133.6169  149.6311 H   0  0  0  0  0  0  0  0  0  0  0  0
  143.3766  132.9036  150.7730 H   0  0  0  0  0  0  0  0  0  0  0  0
  143.4855  135.3986  150.9947 H   0  0  0  0  0  0  0  0  0  0  0  0
  143.9359  134.5939  152.4740 H   0  0  0  0  0  0  0  0  0  0  0  0
  145.8489  135.7166  150.3749 H   0  0  0  0  0  0  0  0  0  0  0  0
  146.4752  137.4308  151.9483 H   0  0  0  0  0  0  0  0  0  0  0  0
  144.7285  137.4365  151.8642 H   0  0  0  0  0  0  0  0  0  0  0  0
  147.5697  135.1236  151.7328 H   0  0  0  0  0  0  0  0  0  0  0  0
  1  2  3  0  0  0  0
  2  3  1  0  0  0  0
  3  8  1  0  0  0  0
  3  4  2  0  0  0  0
  4  5  1  0  0  0  0
  5  6  2  0  0  0  0
  5 21  1  0  0  0  0
  6  7  1  0  0  0  0
  6 22  1  0  0  0  0
  7  8  2  0  0  0  0
  8  9  1  0  0  0  0
  9 10  1  0  0  0  0
  9 23  1  0  0  0  0
 10 11  1  0  0  0  0
 10 24  1  0  0  0  0
 10 25  1  0  0  0  0
 11 20  1  0  0  0  0
 11 12  1  0  0  0  0
 11 26  1  0  0  0  0
 12 13  1  0  0  0  0
 12 27  1  0  0  0  0
 12 28  1  0  0  0  0
 13 18  1  0  0  0  0
 13 14  1  0  0  0  0
 13 40  1  0  0  0  0
 14 15  1  0  0  0  0
 14 29  1  0  0  0  0
 14 30  1  0  0  0  0
 15 16  1  0  0  0  0
 15 31  1  0  0  0  0
 15 32  1  0  0  0  0
 16 17  1  0  0  0  0
 16 33  1  0  0  0  0
 16 34  1  0  0  0  0
 17 18  1  0  0  0  0
 17 35  1  0  0  0  0
 17 36  1  0  0  0  0
 18 19  1  0  0  0  0
 18 37  1  0  0  0  0
 19 20  1  0  0  0  0
 19 38  1  0  0  0  0
 19 39  1  0  0  0  0
M  CHG  1  13   1
M  END
> <s_m_source_file>
AV-unprocessed.smi

> <i_m_source_file_index>
3068

> <i_lp_mmshare_version>
43012

> <i_f3d_flags>
0

> <s_epik_input>
TiNDYzFuW2NIXVtjSF1uYzFbTkhdW0NIMl1bQ0BIXShbQ0gyXTIpT1tDSDJdW0NAQEhdKE4yMylbQ0gyXVtDSDJdW0NIMl1bQ0gyXTM=

> <s_epik_cmdline>
J2VwaWtfcHl0aG9uJywgJy1waCcsICc3LjAnLCAnLXRuJywgJzgnLCAnLW1hJywgJzIwMCcsICctbWV0YWxfYmluZGluZycsICctaW1hZScsICc8aW5maWxlLm1hZT4nLCAnLW9tYWUnLCAnPG91dGZpbGUubWFlPic=

> <r_epik_Ionization_Penalty>
0.0804321

> <r_epik_Ionization_Penalty_Charging>
0.0803403

> <r_epik_Ionization_Penalty_Neutral>
9.17277e-05

> <r_epik_State_Penalty>
0.0711481

> <r_epik_Charging_Adjusted_Penalty>
0.151488

> <i_epik_Tot_Q>
1

> <i_epik_Tot_abs_Q>
1

> <r_epik_Metal_State_Penalty>
0.0711481

> <b_epik_Metal_Only>
0

> <s_lp_Force_Field>
OPLS_2005

> <r_lp_Energy>
39.2156

> <b_lp_Chiralities_Consistent>
1

> <s_lp_Variant>
AV-unprocessed.smi:3068-4

> <Gold.Version>
5.8.1

> <Gold.Id.Protein>
6NUR|6NUR_protein|mol2

> <Gold.PLP.Fitness>
37.3600

> <Gold.PLP.PLP>
-25.6266

> <Gold.PLP.part.hbond>
-3.0000

> <Gold.PLP.part.metal>
0.0000

> <Gold.PLP.part.buried>
-2.7263

> <Gold.PLP.part.nonpolar>
-21.0715

> <Gold.PLP.part.repulsive>
0.4232

> <Gold.PLP.ligand.clash>
0.0000

> <Gold.PLP.ligand.torsion>
1.1564

> <Gold.PLP.Chemscore.Hbond>
3.6820

> <Gold.PLP.Chemscore.CHOScore>
1.0000

> <Gold.PLP.Chemscore.Metal>
0.0000

> <Gold.Chemscore.Hbonds>
donor molecule, donor type, donor heavy atom, donor atom, acceptor molecule, acceptor atom, score
      L1  H    13    40       P1  7948  2.00
      P1  H  6896  6909       L1     1  0.68
      P1  H 10752 10763       L1     4  1.00
      L1  C     6    22       P1  7957  1.00

> <Gold.PLP.Chemscore.Internal.Correction>
0.0003

> <Gold.Rescore>
     Score         DG    S(hbond)    S(metal)    S(lipo)     H(rot)  DE(clash)    DE(int)     intcor
     14.40     -16.95       2.38        0.00      59.04       1.32       0.06       2.49       ----

> <Gold.Chemscore.Fitness>
14.4005

> <Gold.Chemscore.DG>
-16.9484

> <Gold.Chemscore.ZeroCoef>
-5.4800

> <Gold.Chemscore.Hbond>
2.3767

> <Gold.Chemscore.Metal>
0.0000

> <Gold.Chemscore.Lipo>
59.0399

> <Gold.Chemscore.Internal_Hbond>
0.0000

> <Gold.Chemscore.DEClash>
0.0580

> <Gold.Chemscore.DEInternal>
2.4900

> <Gold.Chemscore.Rot>
1.3193

> <Gold.Chemscore.Internal.Correction>
   9.000000E+99

> <Gold.Chemscore.Hbonds>
donor molecule, donor type, donor heavy atom, donor atom, acceptor molecule, acceptor atom, score
      L1  H    13    40       P1  7948  0.82
      P1  H  6896  6909       L1     1  0.63
      P1  H 10752 10763       L1     4  0.77

> <Gold.Chemscore.Hbond.Weighted>
-7.9381

> <Gold.Chemscore.Metal.Weighted>
-0.0000

> <Gold.Chemscore.Lipo.Weighted>
-6.9077

> <Gold.Chemscore.Internal_Hbond.Weighted>
0.0000

> <Gold.Chemscore.DEClash.Weighted>
0.0580

> <Gold.Chemscore.DEInternal.Weighted>
2.4900

> <Gold.Chemscore.Rot.Weighted>
3.3774

> <Gold.Chemscore.Internal.Correction.Weighted>
   9.000000E+99

> <Gold.Protein.RotatedTorsions>
[ 6907 6896 6895 6894 ] final   -4.23 input  -60.11 | X-H torsion
[ 7974 7965 7964 7962 ] final -147.73 input  175.53 | X-H torsion
[ 8008 7997 7996 7995 ] final -123.38 input   59.86 | X-H torsion
[ 10167 10162 10161 10158 ] final  -40.28 input  -65.29 | X-H torsion
[ 10718 10713 10712 10709 ] final   98.45 input   66.30 | X-H torsion
[ 10763 10752 10751 10750 ] final   56.90 input  -60.55 | X-H torsion
[ 11005 11000 10999 10996 ] final  -79.83 input  -57.11 | X-H torsion

> <Gold.Protein.ActiveResidues>
 VAL166  LYS551  ARG553  GLY616  TRP617  ASP618  TYR619  PRO620  LYS621  CYS622 
 ASP623  PHE694  ASN695  SER759  ASP760  ASP761  ALA762  ILE779  LEU786  VAL792 
 PHE793  MET794  SER795  GLU796  ALA797  LYS798  CYS799  TRP800  GLU811  SER814 

> <Gold.Protein.RotatedAtoms>
  151.5011  135.1062  159.9828 H   0  0  0  0  0  0  0  0  0  0  0  0  # atno 6907 bound_to 6896
  152.4701  133.8007  159.6962 H   0  0  0  0  0  0  0  0  0  0  0  0  # atno 6908 bound_to 6896
  150.8706  133.7448  159.2988 H   0  0  0  0  0  0  0  0  0  0  0  0  # atno 6909 bound_to 6896
  144.8074  140.5288  143.5665 H   0  0  0  0  0  0  0  0  0  0  0  0  # atno 7974 bound_to 7965
  155.1796  140.0410  157.2879 H   0  0  0  0  0  0  0  0  0  0  0  0  # atno 8008 bound_to 7997
  154.6212  140.2501  155.7519 H   0  0  0  0  0  0  0  0  0  0  0  0  # atno 8009 bound_to 7997
  156.2435  140.2894  156.0521 H   0  0  0  0  0  0  0  0  0  0  0  0  # atno 8010 bound_to 7997
  140.7039  143.3163  151.2903 H   0  0  0  0  0  0  0  0  0  0  0  0  # atno 10167 bound_to 10162
  157.6895  131.0640  150.4799 H   0  0  0  0  0  0  0  0  0  0  0  0  # atno 10718 bound_to 10713
  152.9840  135.5660  154.5304 H   0  0  0  0  0  0  0  0  0  0  0  0  # atno 10763 bound_to 10752
  154.4777  135.2787  155.1597 H   0  0  0  0  0  0  0  0  0  0  0  0  # atno 10764 bound_to 10752
  154.3118  135.6286  153.5522 H   0  0  0  0  0  0  0  0  0  0  0  0  # atno 10765 bound_to 10752
  141.1668  133.7123  156.8181 H   0  0  0  0  0  0  0  0  0  0  0  0  # atno 11005 bound_to 11000
  145.5405  139.1475  143.3449 LP  0  0  0  0  0  0  0  0  0  0  0  0  # atno 17320 bound_to 7965
  146.2368  140.5545  142.8951 LP  0  0  0  0  0  0  0  0  0  0  0  0  # atno 17321 bound_to 7965
  139.6602  144.0203  152.2687 LP  0  0  0  0  0  0  0  0  0  0  0  0  # atno 17342 bound_to 10162
  139.9768  144.6456  150.7938 LP  0  0  0  0  0  0  0  0  0  0  0  0  # atno 17343 bound_to 10162
  156.5131  130.4144  149.6290 LP  0  0  0  0  0  0  0  0  0  0  0  0  # atno 17370 bound_to 10713
  156.3222  130.7287  151.2201 LP  0  0  0  0  0  0  0  0  0  0  0  0  # atno 17371 bound_to 10713
  140.2139  134.8807  157.3304 LP  0  0  0  0  0  0  0  0  0  0  0  0  # atno 17394 bound_to 11000
  140.2058  134.4199  155.7638 LP  0  0  0  0  0  0  0  0  0  0  0  0  # atno 17395 bound_to 11000

$$$$
