AV-unprocessed.smi:1245|AV-procd|sdf|5240|dock5
  -GOLD-   22720 4353D 1   1.00000     0.00000
 Structure written by MMmdl.
 44 45  0  0  0  0  0  0  0  0  2 V2000
  151.0174  138.3048  158.9621 O   0  0  0  0  0  0  0  0  0  0  0  0
  149.9798  138.5520  158.3464 C   0  0  0  0  0  0  0  0  0  0  0  0
  148.6779  137.8141  158.6713 C   0  0  0  0  0  0  0  0  0  0  0  0
  148.8757  136.6262  159.6300 C   0  0  0  0  0  0  0  0  0  0  0  0
  147.6411  136.6414  161.0117 S   0  0  0  0  0  0  0  0  0  0  0  0
  148.3830  136.8192  162.2693 O   0  0  0  0  0  0  0  0  0  0  0  0
  146.5547  137.5704  160.6634 O   0  0  0  0  0  0  0  0  0  0  0  0
  146.9515  134.9191  161.0042 C   0  0  0  0  0  0  0  0  0  0  0  0
  145.4384  134.8798  160.7167 C   0  0  0  0  0  0  0  0  0  0  0  0
  144.7882  134.2156  161.9352 C   0  0  0  0  0  0  0  0  0  0  0  0
  145.8964  133.3683  162.5577 C   0  0  0  0  0  0  0  0  0  0  0  0
  147.1676  134.1881  162.3394 C   0  0  0  0  0  0  0  0  0  0  0  0
  149.9090  139.4654  157.3660 N   0  0  0  0  0  0  0  0  0  0  0  0
  151.0211  140.2862  156.9007 C   0  0  0  0  0  0  0  0  0  0  0  0
  150.6022  141.7525  156.6985 C   0  0  0  0  0  0  0  0  0  0  0  0
  151.2563  142.6813  157.7032 C   0  0  0  0  0  0  0  0  0  0  0  0
  152.1569  142.2126  158.6844 C   0  0  0  0  0  0  0  0  0  0  0  0
  152.7258  143.1306  159.5921 C   0  0  0  0  0  0  0  0  0  0  0  0
  152.3821  144.4953  159.5004 C   0  0  0  0  0  0  0  0  0  0  0  0
  151.4757  144.9082  158.5027 C   0  0  0  0  0  0  0  0  0  0  0  0
  150.9515  143.9985  157.6521 N   0  3  0  0  0  0  0  0  0  0  0  0
  147.9760  138.5275  159.1048 H   0  0  0  0  0  0  0  0  0  0  0  0
  148.2351  137.4643  157.7382 H   0  0  0  0  0  0  0  0  0  0  0  0
  148.8061  135.6799  159.0972 H   0  0  0  0  0  0  0  0  0  0  0  0
  149.8683  136.6649  160.0800 H   0  0  0  0  0  0  0  0  0  0  0  0
  147.4705  134.3770  160.2127 H   0  0  0  0  0  0  0  0  0  0  0  0
  145.0141  135.8657  160.5247 H   0  0  0  0  0  0  0  0  0  0  0  0
  145.2548  134.2762  159.8270 H   0  0  0  0  0  0  0  0  0  0  0  0
  144.4664  134.9766  162.6466 H   0  0  0  0  0  0  0  0  0  0  0  0
  143.9111  133.6250  161.6692 H   0  0  0  0  0  0  0  0  0  0  0  0
  145.7152  133.1473  163.6100 H   0  0  0  0  0  0  0  0  0  0  0  0
  145.9755  132.4189  162.0263 H   0  0  0  0  0  0  0  0  0  0  0  0
  148.0649  133.5686  162.3326 H   0  0  0  0  0  0  0  0  0  0  0  0
  147.2735  134.8995  163.1571 H   0  0  0  0  0  0  0  0  0  0  0  0
  149.0158  139.6083  156.9167 H   0  0  0  0  0  0  0  0  0  0  0  0
  151.8163  140.2242  157.6440 H   0  0  0  0  0  0  0  0  0  0  0  0
  151.4282  139.8735  155.9759 H   0  0  0  0  0  0  0  0  0  0  0  0
  150.8597  142.0853  155.6922 H   0  0  0  0  0  0  0  0  0  0  0  0
  149.5187  141.8463  156.7846 H   0  0  0  0  0  0  0  0  0  0  0  0
  152.4092  141.1637  158.7439 H   0  0  0  0  0  0  0  0  0  0  0  0
  153.4171  142.7916  160.3498 H   0  0  0  0  0  0  0  0  0  0  0  0
  152.8068  145.2140  160.1861 H   0  0  0  0  0  0  0  0  0  0  0  0
  151.1565  145.9304  158.3603 H   0  0  0  0  0  0  0  0  0  0  0  0
  150.2977  144.3200  156.9379 H   0  0  0  0  0  0  0  0  0  0  0  0
  1  2  2  0  0  0  0
  2  3  1  0  0  0  0
  2 13  1  0  0  0  0
  3  4  1  0  0  0  0
  3 22  1  0  0  0  0
  3 23  1  0  0  0  0
  4  5  1  0  0  0  0
  4 24  1  0  0  0  0
  4 25  1  0  0  0  0
  5  6  2  0  0  0  0
  5  7  2  0  0  0  0
  5  8  1  0  0  0  0
  8 12  1  0  0  0  0
  8  9  1  0  0  0  0
  8 26  1  0  0  0  0
  9 10  1  0  0  0  0
  9 27  1  0  0  0  0
  9 28  1  0  0  0  0
 10 11  1  0  0  0  0
 10 29  1  0  0  0  0
 10 30  1  0  0  0  0
 11 12  1  0  0  0  0
 11 31  1  0  0  0  0
 11 32  1  0  0  0  0
 12 33  1  0  0  0  0
 12 34  1  0  0  0  0
 13 14  1  0  0  0  0
 13 35  1  0  0  0  0
 14 15  1  0  0  0  0
 14 36  1  0  0  0  0
 14 37  1  0  0  0  0
 15 16  1  0  0  0  0
 15 38  1  0  0  0  0
 15 39  1  0  0  0  0
 16 21  1  0  0  0  0
 16 17  2  0  0  0  0
 17 18  1  0  0  0  0
 17 40  1  0  0  0  0
 18 19  2  0  0  0  0
 18 41  1  0  0  0  0
 19 20  1  0  0  0  0
 19 42  1  0  0  0  0
 20 21  2  0  0  0  0
 20 43  1  0  0  0  0
 21 44  1  0  0  0  0
M  CHG  1  21   1
M  END
> <s_m_source_file>
AV-unprocessed.smi

> <i_m_source_file_index>
1245

> <i_lp_mmshare_version>
43012

> <i_f3d_flags>
0

> <s_epik_input>
W0NIMl0xW0NIMl1bQ0gyXVtDSDJdW0NIXTFTKD1PKSg9TylbQ0gyXVtDSDJdQyg9TylbTkhdW0NIMl1bQ0gyXWMyW2NIXVtjSF1bY0hdW2NIXW4y

> <s_epik_cmdline>
J2VwaWtfcHl0aG9uJywgJy1waCcsICc3LjAnLCAnLXRuJywgJzgnLCAnLW1hJywgJzIwMCcsICctbWV0YWxfYmluZGluZycsICctaW1hZScsICc8aW5maWxlLm1hZT4nLCAnLW9tYWUnLCAnPG91dGZpbGUubWFlPic=

> <r_epik_Ionization_Penalty>
1.90383

> <r_epik_Ionization_Penalty_Charging>
1.90383

> <r_epik_Ionization_Penalty_Neutral>
6.52612e-08

> <r_epik_State_Penalty>
2.02532

> <r_epik_Charging_Adjusted_Penalty>
3.92915

> <i_epik_Tot_Q>
1

> <i_epik_Tot_abs_Q>
1

> <r_epik_Metal_State_Penalty>
2.0489

> <b_epik_Metal_Only>
0

> <s_lp_Force_Field>
OPLS_2005

> <r_lp_Energy>
22.4311

> <b_lp_Chiralities_Consistent>
1

> <s_lp_Variant>
AV-unprocessed.smi:1245-2

> <Gold.Version>
5.8.1

> <Gold.Id.Protein>
6NUR|6NUR_protein|mol2

> <Gold.PLP.Fitness>
53.0123

> <Gold.PLP.PLP>
-42.8555

> <Gold.PLP.part.hbond>
-3.0000

> <Gold.PLP.part.metal>
0.0000

> <Gold.PLP.part.buried>
-6.3922

> <Gold.PLP.part.nonpolar>
-34.1074

> <Gold.PLP.part.repulsive>
0.0701

> <Gold.PLP.ligand.clash>
0.0000

> <Gold.PLP.ligand.torsion>
1.1040

> <Gold.PLP.Chemscore.Hbond>
4.0000

> <Gold.PLP.Chemscore.CHOScore>
0.0000

> <Gold.PLP.Chemscore.Metal>
0.0000

> <Gold.Chemscore.Hbonds>
donor molecule, donor type, donor heavy atom, donor atom, acceptor molecule, acceptor atom, score
      L1  H    21    44       P1  8028  2.00
      P1  H  6931  6943       L1     6  0.90
      P1  H  6934  6947       L1     7  1.00

> <Gold.PLP.Chemscore.Internal.Correction>
0.3648

> <Gold.Rescore>
     Score         DG    S(hbond)    S(metal)    S(lipo)     H(rot)  DE(clash)    DE(int)     intcor
     18.20     -19.57       2.00        0.00     110.13       2.14       0.09       1.28       ----

> <Gold.Chemscore.Fitness>
18.1977

> <Gold.Chemscore.DG>
-19.5686

> <Gold.Chemscore.ZeroCoef>
-5.4800

> <Gold.Chemscore.Hbond>
2.0011

> <Gold.Chemscore.Metal>
0.0000

> <Gold.Chemscore.Lipo>
110.1304

> <Gold.Chemscore.Internal_Hbond>
0.0000

> <Gold.Chemscore.DEClash>
0.0924

> <Gold.Chemscore.DEInternal>
1.2786

> <Gold.Chemscore.Rot>
2.1408

> <Gold.Chemscore.Internal.Correction>
   9.000000E+99

> <Gold.Chemscore.Hbonds>
donor molecule, donor type, donor heavy atom, donor atom, acceptor molecule, acceptor atom, score
      L1  H    21    44       P1  8028  0.90
      P1  H  6931  6943       L1     6  0.18
      P1  H  6934  6947       L1     7  0.49

> <Gold.Chemscore.Hbond.Weighted>
-6.6838

> <Gold.Chemscore.Metal.Weighted>
-0.0000

> <Gold.Chemscore.Lipo.Weighted>
-12.8853

> <Gold.Chemscore.Internal_Hbond.Weighted>
0.0000

> <Gold.Chemscore.DEClash.Weighted>
0.0924

> <Gold.Chemscore.DEInternal.Weighted>
1.2786

> <Gold.Chemscore.Rot.Weighted>
5.4805

> <Gold.Chemscore.Internal.Correction.Weighted>
   9.000000E+99

> <Gold.Protein.RotatedTorsions>
[ 6907 6896 6895 6894 ] final   32.86 input  -60.11 | X-H torsion
[ 7974 7965 7964 7962 ] final   17.75 input  175.53 | X-H torsion
[ 8008 7997 7996 7995 ] final   97.18 input   59.86 | X-H torsion
[ 10167 10162 10161 10158 ] final  -10.61 input  -65.29 | X-H torsion
[ 10718 10713 10712 10709 ] final -104.61 input   66.30 | X-H torsion
[ 10763 10752 10751 10750 ] final   -6.37 input  -60.55 | X-H torsion
[ 11005 11000 10999 10996 ] final -110.11 input  -57.11 | X-H torsion

> <Gold.Protein.ActiveResidues>
 VAL166  LYS551  ARG553  GLY616  TRP617  ASP618  TYR619  PRO620  LYS621  CYS622 
 ASP623  PHE694  ASN695  SER759  ASP760  ASP761  ALA762  ILE779  LEU786  VAL792 
 PHE793  MET794  SER795  GLU796  ALA797  LYS798  CYS799  TRP800  GLU811  SER814 

> <Gold.Protein.RotatedAtoms>
  152.0804  134.9475  160.0573 H   0  0  0  0  0  0  0  0  0  0  0  0  # atno 6907 bound_to 6896
  152.0766  133.4127  159.4491 H   0  0  0  0  0  0  0  0  0  0  0  0  # atno 6908 bound_to 6896
  150.6836  134.2950  159.4726 H   0  0  0  0  0  0  0  0  0  0  0  0  # atno 6909 bound_to 6896
  146.2208  139.8556  142.8614 H   0  0  0  0  0  0  0  0  0  0  0  0  # atno 7974 bound_to 7965
  156.0874  140.3262  155.7771 H   0  0  0  0  0  0  0  0  0  0  0  0  # atno 8008 bound_to 7997
  155.5053  140.0572  157.2950 H   0  0  0  0  0  0  0  0  0  0  0  0  # atno 8009 bound_to 7997
  154.4617  140.1970  156.0243 H   0  0  0  0  0  0  0  0  0  0  0  0  # atno 8010 bound_to 7997
  140.7118  143.5730  150.9073 H   0  0  0  0  0  0  0  0  0  0  0  0  # atno 10167 bound_to 10162
  156.0311  130.5523  150.7420 H   0  0  0  0  0  0  0  0  0  0  0  0  # atno 10718 bound_to 10713
  153.4114  135.7008  153.6356 H   0  0  0  0  0  0  0  0  0  0  0  0  # atno 10763 bound_to 10752
  153.4849  135.3685  155.2462 H   0  0  0  0  0  0  0  0  0  0  0  0  # atno 10764 bound_to 10752
  154.8717  135.4075  154.3467 H   0  0  0  0  0  0  0  0  0  0  0  0  # atno 10765 bound_to 10752
  141.0810  133.9219  157.2288 H   0  0  0  0  0  0  0  0  0  0  0  0  # atno 11005 bound_to 11000
  145.2756  141.0122  143.3747 LP  0  0  0  0  0  0  0  0  0  0  0  0  # atno 17320 bound_to 7965
  144.9189  139.4435  143.6550 LP  0  0  0  0  0  0  0  0  0  0  0  0  # atno 17321 bound_to 7965
  139.9456  143.6332  152.3042 LP  0  0  0  0  0  0  0  0  0  0  0  0  # atno 17342 bound_to 10162
  139.6832  144.7654  151.1571 LP  0  0  0  0  0  0  0  0  0  0  0  0  # atno 17343 bound_to 10162
  157.4987  131.0917  151.0341 LP  0  0  0  0  0  0  0  0  0  0  0  0  # atno 17370 bound_to 10713
  157.0728  130.5871  149.5405 LP  0  0  0  0  0  0  0  0  0  0  0  0  # atno 17371 bound_to 10713
  139.9624  135.0151  156.9297 LP  0  0  0  0  0  0  0  0  0  0  0  0  # atno 17394 bound_to 11000
  140.5468  134.0666  155.7357 LP  0  0  0  0  0  0  0  0  0  0  0  0  # atno 17395 bound_to 11000

$$$$
