AV-unprocessed.smi:2858|AV-procd|sdf|11001|dock6
  -GOLD-   2272015453D 1   1.00000     0.00000
 Structure written by MMmdl.
 39 40  0  0  0  0  0  0  0  0  1 V2000
  154.4796  133.4083  164.9313 O   0  0  0  0  0  0  0  0  0  0  0  0
  154.4546  134.5275  164.4244 C   0  0  0  0  0  0  0  0  0  0  0  0
  154.7741  134.6978  162.9289 C   0  0  0  0  0  0  0  0  0  0  0  0
  155.0279  136.0913  162.4879 N   0  0  0  0  0  0  0  0  0  0  0  0
  155.0793  136.1420  161.0240 C   0  0  0  0  0  0  0  0  0  0  0  0
  155.2163  137.5733  160.4673 C   0  0  0  0  0  0  0  0  0  0  0  0
  153.9521  138.0668  159.7408 C   0  0  0  0  0  0  0  0  0  0  0  0
  153.5789  139.4110  160.1662 N   0  0  0  0  0  0  0  0  0  0  0  0
  153.1111  140.3729  159.3572 C   0  0  0  0  0  0  0  0  0  0  0  0
  152.9370  140.2170  158.1482 O   0  0  0  0  0  0  0  0  0  0  0  0
  152.8628  141.5049  160.0397 N   0  0  0  0  0  0  0  0  0  0  0  0
  152.3811  142.7446  159.5400 C   0  0  0  0  0  0  0  0  0  0  0  0
  152.4362  143.8207  160.4547 C   0  0  0  0  0  0  0  0  0  0  0  0
  151.9844  145.0934  160.0556 C   0  0  0  0  0  0  0  0  0  0  0  0
  151.4891  145.2583  158.7499 C   0  0  0  0  0  0  0  0  0  0  0  0
  151.4684  144.1355  157.9022 C   0  0  0  0  0  0  0  0  0  0  0  0
  151.9002  142.9147  158.2830 N   0  0  0  0  0  0  0  0  0  0  0  0
  154.0301  136.9999  163.0570 C   0  0  0  0  0  0  0  0  0  0  0  0
  154.1398  136.9740  164.5928 C   0  0  0  0  0  0  0  0  0  0  0  0
  154.1262  135.6189  165.1314 N   0  0  0  0  0  0  0  0  0  0  0  0
  155.6379  134.0787  162.6828 H   0  0  0  0  0  0  0  0  0  0  0  0
  153.9257  134.2894  162.3769 H   0  0  0  0  0  0  0  0  0  0  0  0
  155.9366  135.5661  160.6716 H   0  0  0  0  0  0  0  0  0  0  0  0
  154.1948  135.6588  160.6054 H   0  0  0  0  0  0  0  0  0  0  0  0
  155.4194  138.2392  161.3069 H   0  0  0  0  0  0  0  0  0  0  0  0
  156.0836  137.6631  159.8147 H   0  0  0  0  0  0  0  0  0  0  0  0
  154.1252  138.0949  158.6650 H   0  0  0  0  0  0  0  0  0  0  0  0
  153.1225  137.3764  159.9026 H   0  0  0  0  0  0  0  0  0  0  0  0
  153.6901  139.6246  161.1464 H   0  0  0  0  0  0  0  0  0  0  0  0
  153.0471  141.4798  161.0314 H   0  0  0  0  0  0  0  0  0  0  0  0
  152.8209  143.6771  161.4541 H   0  0  0  0  0  0  0  0  0  0  0  0
  152.0181  145.9282  160.7400 H   0  0  0  0  0  0  0  0  0  0  0  0
  151.1346  146.2190  158.4071 H   0  0  0  0  0  0  0  0  0  0  0  0
  151.0956  144.2186  156.8920 H   0  0  0  0  0  0  0  0  0  0  0  0
  154.1828  138.0229  162.7173 H   0  0  0  0  0  0  0  0  0  0  0  0
  153.0286  136.7039  162.7395 H   0  0  0  0  0  0  0  0  0  0  0  0
  155.0670  137.4546  164.9078 H   0  0  0  0  0  0  0  0  0  0  0  0
  153.3235  137.5430  165.0381 H   0  0  0  0  0  0  0  0  0  0  0  0
  153.8946  135.5077  166.1079 H   0  0  0  0  0  0  0  0  0  0  0  0
  1  2  2  0  0  0  0
  2 20  1  0  0  0  0
  2  3  1  0  0  0  0
  3  4  1  0  0  0  0
  3 21  1  0  0  0  0
  3 22  1  0  0  0  0
  4  5  1  0  0  0  0
  4 18  1  0  0  0  0
  5  6  1  0  0  0  0
  5 23  1  0  0  0  0
  5 24  1  0  0  0  0
  6  7  1  0  0  0  0
  6 25  1  0  0  0  0
  6 26  1  0  0  0  0
  7  8  1  0  0  0  0
  7 27  1  0  0  0  0
  7 28  1  0  0  0  0
  8  9  1  0  0  0  0
  8 29  1  0  0  0  0
  9 10  2  0  0  0  0
  9 11  1  0  0  0  0
 11 12  1  0  0  0  0
 11 30  1  0  0  0  0
 12 17  1  0  0  0  0
 12 13  2  0  0  0  0
 13 14  1  0  0  0  0
 13 31  1  0  0  0  0
 14 15  2  0  0  0  0
 14 32  1  0  0  0  0
 15 16  1  0  0  0  0
 15 33  1  0  0  0  0
 16 17  2  0  0  0  0
 16 34  1  0  0  0  0
 18 19  1  0  0  0  0
 18 35  1  0  0  0  0
 18 36  1  0  0  0  0
 19 20  1  0  0  0  0
 19 37  1  0  0  0  0
 19 38  1  0  0  0  0
 20 39  1  0  0  0  0
M  END
> <s_m_source_file>
AV-unprocessed.smi

> <i_m_source_file_index>
2858

> <i_lp_mmshare_version>
43012

> <i_f3d_flags>
0

> <s_epik_input>
Tz1DMVtDSDJdTihbQ0gyXVtDSDJdW05IXTEpW0NIMl1bQ0gyXVtDSDJdW05IXUMoPU8pW05IXWMyW2NIXVtjSF1bY0hdW2NIXW4y

> <s_epik_cmdline>
J2VwaWtfcHl0aG9uJywgJy1waCcsICc3LjAnLCAnLXRuJywgJzgnLCAnLW1hJywgJzIwMCcsICctbWV0YWxfYmluZGluZycsICctaW1hZScsICc8aW5maWxlLm1hZT4nLCAnLW9tYWUnLCAnPG91dGZpbGUubWFlPic=

> <r_epik_Ionization_Penalty>
1.05093

> <r_epik_Ionization_Penalty_Charging>
0

> <r_epik_Ionization_Penalty_Neutral>
1.05093

> <r_epik_State_Penalty>
1.10373

> <r_epik_Charging_Adjusted_Penalty>
1.10373

> <i_epik_Tot_Q>
0

> <i_epik_Tot_abs_Q>
0

> <r_epik_Metal_State_Penalty>
1.17671

> <b_epik_Metal_Only>
0

> <s_lp_Force_Field>
OPLS_2005

> <r_lp_Energy>
22.2327

> <b_lp_Chiralities_Consistent>
1

> <s_lp_Variant>
AV-unprocessed.smi:2858-3

> <Gold.Version>
5.8.1

> <Gold.Id.Protein>
6NUR|6NUR_protein|mol2

> <Gold.PLP.Fitness>
45.0102

> <Gold.PLP.PLP>
-40.8226

> <Gold.PLP.part.hbond>
-2.0000

> <Gold.PLP.part.metal>
0.0000

> <Gold.PLP.part.buried>
-6.8032

> <Gold.PLP.part.nonpolar>
-32.6405

> <Gold.PLP.part.repulsive>
0.3999

> <Gold.PLP.ligand.clash>
0.0000

> <Gold.PLP.ligand.torsion>
0.8831

> <Gold.PLP.Chemscore.Hbond>
0.9760

> <Gold.PLP.Chemscore.CHOScore>
1.0000

> <Gold.PLP.Chemscore.Metal>
0.0000

> <Gold.Chemscore.Hbonds>
donor molecule, donor type, donor heavy atom, donor atom, acceptor molecule, acceptor atom, score
      P1  H  7997  8010       L1    10  0.98
      L1  C    16    34       P1  8028  0.95

> <Gold.PLP.Chemscore.Internal.Correction>
0.0259

> <Gold.Rescore>
     Score         DG    S(hbond)    S(metal)    S(lipo)     H(rot)  DE(clash)    DE(int)     intcor
     10.15     -13.82       0.93        0.00      88.99       2.02       1.54       2.13       ----

> <Gold.Chemscore.Fitness>
10.1541

> <Gold.Chemscore.DG>
-13.8213

> <Gold.Chemscore.ZeroCoef>
-5.4800

> <Gold.Chemscore.Hbond>
0.9295

> <Gold.Chemscore.Metal>
0.0000

> <Gold.Chemscore.Lipo>
88.9855

> <Gold.Chemscore.Internal_Hbond>
0.0000

> <Gold.Chemscore.DEClash>
1.5367

> <Gold.Chemscore.DEInternal>
2.1305

> <Gold.Chemscore.Rot>
2.0213

> <Gold.Chemscore.Internal.Correction>
   9.000000E+99

> <Gold.Chemscore.Hbonds>
donor molecule, donor type, donor heavy atom, donor atom, acceptor molecule, acceptor atom, score
      P1  H  7997  8010       L1    10  0.86

> <Gold.Chemscore.Hbond.Weighted>
-3.1044

> <Gold.Chemscore.Metal.Weighted>
-0.0000

> <Gold.Chemscore.Lipo.Weighted>
-10.4113

> <Gold.Chemscore.Internal_Hbond.Weighted>
0.0000

> <Gold.Chemscore.DEClash.Weighted>
1.5367

> <Gold.Chemscore.DEInternal.Weighted>
2.1305

> <Gold.Chemscore.Rot.Weighted>
5.1744

> <Gold.Chemscore.Internal.Correction.Weighted>
   9.000000E+99

> <Gold.Protein.RotatedTorsions>
[ 6907 6896 6895 6894 ] final  -52.83 input  -60.11 | X-H torsion
[ 7974 7965 7964 7962 ] final  167.27 input  175.53 | X-H torsion
[ 8008 7997 7996 7995 ] final   40.19 input   59.86 | X-H torsion
[ 10167 10162 10161 10158 ] final  156.69 input  -65.29 | X-H torsion
[ 10718 10713 10712 10709 ] final  -41.72 input   66.30 | X-H torsion
[ 10763 10752 10751 10750 ] final  111.64 input  -60.55 | X-H torsion
[ 11005 11000 10999 10996 ] final  133.75 input  -57.11 | X-H torsion

> <Gold.Protein.ActiveResidues>
 VAL166  LYS551  ARG553  GLY616  TRP617  ASP618  TYR619  PRO620  LYS621  CYS622 
 ASP623  PHE694  ASN695  SER759  ASP760  ASP761  ALA762  ILE779  LEU786  VAL792 
 PHE793  MET794  SER795  GLU796  ALA797  LYS798  CYS799  TRP800  GLU811  SER814 

> <Gold.Protein.RotatedAtoms>
  150.8482  134.7798  159.6987 H   0  0  0  0  0  0  0  0  0  0  0  0  # atno 6907 bound_to 6896
  152.4554  134.5301  159.9818 H   0  0  0  0  0  0  0  0  0  0  0  0  # atno 6908 bound_to 6896
  151.5427  133.3392  159.2974 H   0  0  0  0  0  0  0  0  0  0  0  0  # atno 6909 bound_to 6896
  144.7431  139.8736  143.6391 H   0  0  0  0  0  0  0  0  0  0  0  0  # atno 7974 bound_to 7965
  155.2491  140.3351  155.4284 H   0  0  0  0  0  0  0  0  0  0  0  0  # atno 8008 bound_to 7997
  156.2223  140.1814  156.7490 H   0  0  0  0  0  0  0  0  0  0  0  0  # atno 8009 bound_to 7997
  154.5845  140.0648  156.9136 H   0  0  0  0  0  0  0  0  0  0  0  0  # atno 8010 bound_to 7997
  139.4821  144.4986  151.8202 H   0  0  0  0  0  0  0  0  0  0  0  0  # atno 10167 bound_to 10162
  156.2673  130.4203  149.8476 H   0  0  0  0  0  0  0  0  0  0  0  0  # atno 10718 bound_to 10713
  153.4663  135.3710  155.2366 H   0  0  0  0  0  0  0  0  0  0  0  0  # atno 10763 bound_to 10752
  154.8757  135.3921  154.3864 H   0  0  0  0  0  0  0  0  0  0  0  0  # atno 10764 bound_to 10752
  153.4446  135.7084  153.6212 H   0  0  0  0  0  0  0  0  0  0  0  0  # atno 10765 bound_to 10752
  139.9871  134.9528  156.9769 H   0  0  0  0  0  0  0  0  0  0  0  0  # atno 11005 bound_to 11000
  146.1262  139.4289  143.0197 LP  0  0  0  0  0  0  0  0  0  0  0  0  # atno 17320 bound_to 7965
  145.7231  141.0068  143.1392 LP  0  0  0  0  0  0  0  0  0  0  0  0  # atno 17321 bound_to 7965
  140.4477  144.1899  150.5895 LP  0  0  0  0  0  0  0  0  0  0  0  0  # atno 17342 bound_to 10162
  140.4617  143.2446  151.9210 LP  0  0  0  0  0  0  0  0  0  0  0  0  # atno 17343 bound_to 10162
  156.5970  130.8530  151.3422 LP  0  0  0  0  0  0  0  0  0  0  0  0  # atno 17370 bound_to 10713
  157.7272  130.9639  150.1687 LP  0  0  0  0  0  0  0  0  0  0  0  0  # atno 17371 bound_to 10713
  140.4981  134.1125  155.7245 LP  0  0  0  0  0  0  0  0  0  0  0  0  # atno 17394 bound_to 11000
  141.1534  133.8927  157.2040 LP  0  0  0  0  0  0  0  0  0  0  0  0  # atno 17395 bound_to 11000

$$$$
