AV-unprocessed.smi:1875|AV-procd|sdf|7619|dock8
  -GOLD-   22720 9343D 1   1.00000     0.00000
 Structure written by MMmdl.
 48 50  0  0  0  0  0  0  0  0  2 V2000
  147.2473  137.8236  163.6251 C   0  0  0  0  0  0  0  0  0  0  0  0
  147.5236  136.7473  162.5959 C   0  0  0  0  0  0  0  0  0  0  0  0
  147.3169  135.4826  162.9764 N   0  0  0  0  0  0  0  0  0  0  0  0
  147.5697  134.5207  162.0619 C   0  0  0  0  0  0  0  0  0  0  0  0
  148.0312  134.8303  160.7666 C   0  0  0  0  0  0  0  0  0  0  0  0
  148.2118  136.2001  160.4820 C   0  0  0  0  0  0  0  0  0  0  0  0
  148.7164  136.6618  159.1310 C   0  0  0  0  0  0  0  0  0  0  0  0
  150.0700  136.1875  158.8656 N   0  0  0  0  0  0  0  0  0  0  0  0
  150.7412  136.9347  157.8074 C   0  0  0  0  0  0  0  0  0  0  0  0
  150.5930  138.4543  158.0135 C   0  0  1  0  0  0  0  0  0  0  0  0
  150.9120  138.7569  159.3558 O   0  0  0  0  0  0  0  0  0  0  0  0
  151.5313  139.2958  157.1257 C   0  0  0  0  0  0  0  0  0  0  0  0
  151.1115  140.7002  157.0155 N   0  0  0  0  0  0  0  0  0  0  0  0
  150.3373  141.2973  156.0690 C   0  0  0  0  0  0  0  0  0  0  0  0
  150.2220  142.6125  156.4013 N   0  3  0  0  0  0  0  0  0  0  0  0
  150.9321  142.8597  157.5779 C   0  0  0  0  0  0  0  0  0  0  0  0
  151.1116  144.0327  158.3014 C   0  0  0  0  0  0  0  0  0  0  0  0
  151.9054  143.9563  159.4678 C   0  0  0  0  0  0  0  0  0  0  0  0
  152.1248  145.2216  160.2798 C   0  0  0  0  0  0  0  0  0  0  0  0
  152.4892  142.7285  159.8739 C   0  0  0  0  0  0  0  0  0  0  0  0
  153.3484  142.6592  161.1250 C   0  0  0  0  0  0  0  0  0  0  0  0
  152.2893  141.5450  159.1277 C   0  0  0  0  0  0  0  0  0  0  0  0
  151.5053  141.6371  157.9793 C   0  0  0  0  0  0  0  0  0  0  0  0
  147.9591  137.1583  161.4010 N   0  0  0  0  0  0  0  0  0  0  0  0
  146.5074  137.4904  164.3538 H   0  0  0  0  0  0  0  0  0  0  0  0
  146.8671  138.7285  163.1493 H   0  0  0  0  0  0  0  0  0  0  0  0
  148.1642  138.0760  164.1583 H   0  0  0  0  0  0  0  0  0  0  0  0
  147.4049  133.4978  162.3661 H   0  0  0  0  0  0  0  0  0  0  0  0
  148.2353  134.0610  160.0365 H   0  0  0  0  0  0  0  0  0  0  0  0
  148.0326  136.2988  158.3628 H   0  0  0  0  0  0  0  0  0  0  0  0
  148.6835  137.7515  159.0893 H   0  0  0  0  0  0  0  0  0  0  0  0
  150.0339  135.2057  158.6112 H   0  0  0  0  0  0  0  0  0  0  0  0
  151.7960  136.6626  157.7479 H   0  0  0  0  0  0  0  0  0  0  0  0
  150.2963  136.6477  156.8554 H   0  0  0  0  0  0  0  0  0  0  0  0
  149.5628  138.7596  157.8236 H   0  0  0  0  0  0  0  0  0  0  0  0
  151.8387  138.6217  159.4823 H   0  0  0  0  0  0  0  0  0  0  0  0
  152.5353  139.3025  157.5526 H   0  0  0  0  0  0  0  0  0  0  0  0
  151.6297  138.8634  156.1300 H   0  0  0  0  0  0  0  0  0  0  0  0
  149.8937  140.8141  155.2103 H   0  0  0  0  0  0  0  0  0  0  0  0
  150.6660  144.9643  157.9843 H   0  0  0  0  0  0  0  0  0  0  0  0
  151.7937  145.0806  161.3091 H   0  0  0  0  0  0  0  0  0  0  0  0
  151.5694  146.0632  159.8646 H   0  0  0  0  0  0  0  0  0  0  0  0
  153.1813  145.4911  160.2889 H   0  0  0  0  0  0  0  0  0  0  0  0
  153.7609  141.6605  161.2710 H   0  0  0  0  0  0  0  0  0  0  0  0
  152.7600  142.9104  162.0076 H   0  0  0  0  0  0  0  0  0  0  0  0
  154.1841  143.3556  161.0553 H   0  0  0  0  0  0  0  0  0  0  0  0
  152.7373  140.6131  159.4387 H   0  0  0  0  0  0  0  0  0  0  0  0
  149.6970  143.2895  155.8625 H   0  0  0  0  0  0  0  0  0  0  0  0
  1  2  1  0  0  0  0
  1 25  1  0  0  0  0
  1 26  1  0  0  0  0
  1 27  1  0  0  0  0
  2 24  1  0  0  0  0
  2  3  2  0  0  0  0
  3  4  1  0  0  0  0
  4  5  2  0  0  0  0
  4 28  1  0  0  0  0
  5  6  1  0  0  0  0
  5 29  1  0  0  0  0
  6  7  1  0  0  0  0
  6 24  2  0  0  0  0
  7  8  1  0  0  0  0
  7 30  1  0  0  0  0
  7 31  1  0  0  0  0
  8  9  1  0  0  0  0
  8 32  1  0  0  0  0
  9 10  1  0  0  0  0
  9 33  1  0  0  0  0
  9 34  1  0  0  0  0
 10 11  1  0  0  0  0
 10 12  1  0  0  0  0
 10 35  1  0  0  0  0
 11 36  1  0  0  0  0
 12 13  1  0  0  0  0
 12 37  1  0  0  0  0
 12 38  1  0  0  0  0
 13 23  1  0  0  0  0
 13 14  1  0  0  0  0
 14 15  2  0  0  0  0
 14 39  1  0  0  0  0
 15 16  1  0  0  0  0
 15 48  1  0  0  0  0
 16 23  2  0  0  0  0
 16 17  1  0  0  0  0
 17 18  2  0  0  0  0
 17 40  1  0  0  0  0
 18 19  1  0  0  0  0
 18 20  1  0  0  0  0
 19 41  1  0  0  0  0
 19 42  1  0  0  0  0
 19 43  1  0  0  0  0
 20 21  1  0  0  0  0
 20 22  2  0  0  0  0
 21 44  1  0  0  0  0
 21 45  1  0  0  0  0
 21 46  1  0  0  0  0
 22 23  1  0  0  0  0
 22 47  1  0  0  0  0
M  CHG  1  15   1
M  END
> <s_m_source_file>
AV-unprocessed.smi

> <i_m_source_file_index>
1875

> <i_lp_mmshare_version>
43012

> <i_f3d_flags>
0

> <s_epik_input>
W0NIM11jMW5bY0hdW2NIXWMobjEpW0NIMl1bTkhdW0NIMl1bQ0BIXShbT0hdKVtDSDJdbihbY0hdbjIpYyhjMjMpW2NIXWMoW0NIM10pYyhbY0hdMylbQ0gzXQ==

> <s_epik_cmdline>
J2VwaWtfcHl0aG9uJywgJy1waCcsICc3LjAnLCAnLXRuJywgJzgnLCAnLW1hJywgJzIwMCcsICctbWV0YWxfYmluZGluZycsICctaW1hZScsICc8aW5maWxlLm1hZT4nLCAnLW9tYWUnLCAnPG91dGZpbGUubWFlPic=

> <r_epik_Ionization_Penalty>
2.02862

> <r_epik_Ionization_Penalty_Charging>
1.0004

> <r_epik_Ionization_Penalty_Neutral>
1.02823

> <r_epik_State_Penalty>
2.23022

> <r_epik_Charging_Adjusted_Penalty>
3.23062

> <i_epik_Tot_Q>
1

> <i_epik_Tot_abs_Q>
1

> <r_epik_Metal_State_Penalty>
2.31249

> <b_epik_Metal_Only>
0

> <s_epik_Chemistry_Notes>
This compound contains an electron-poor aromatic ring that is susceptible to covalent hydrolysis at low pH, typically resulting in measured values for nitrogen ring protonation that are around two units higher than predicted values.

> <s_lp_Force_Field>
OPLS_2005

> <r_lp_Energy>
17.8623

> <b_lp_Chiralities_Consistent>
1

> <s_lp_Variant>
AV-unprocessed.smi:1875-8

> <Gold.Version>
5.8.1

> <Gold.Id.Protein>
6NUR|6NUR_protein|mol2

> <Gold.PLP.Fitness>
61.3766

> <Gold.PLP.PLP>
-51.6916

> <Gold.PLP.part.hbond>
-5.0000

> <Gold.PLP.part.metal>
0.0000

> <Gold.PLP.part.buried>
-6.5752

> <Gold.PLP.part.nonpolar>
-41.6820

> <Gold.PLP.part.repulsive>
0.0893

> <Gold.PLP.ligand.clash>
0.0000

> <Gold.PLP.ligand.torsion>
0.7197

> <Gold.PLP.Chemscore.Hbond>
3.6820

> <Gold.PLP.Chemscore.CHOScore>
0.0000

> <Gold.PLP.Chemscore.Metal>
0.0000

> <Gold.Chemscore.Hbonds>
donor molecule, donor type, donor heavy atom, donor atom, acceptor molecule, acceptor atom, score
      L1  H    15    48       P1  8028  2.00
      P1  H  6931  6943       L1    24  0.90
      P1  H  6934  6947       L1    24  0.63

> <Gold.PLP.Chemscore.Internal.Correction>
0.0785

> <Gold.Rescore>
     Score         DG    S(hbond)    S(metal)    S(lipo)     H(rot)  DE(clash)    DE(int)     intcor
     18.44     -19.44       1.95        0.00     125.04       2.80       0.29       0.71       ----

> <Gold.Chemscore.Fitness>
18.4373

> <Gold.Chemscore.DG>
-19.4397

> <Gold.Chemscore.ZeroCoef>
-5.4800

> <Gold.Chemscore.Hbond>
1.9479

> <Gold.Chemscore.Metal>
0.0000

> <Gold.Chemscore.Lipo>
125.0408

> <Gold.Chemscore.Internal_Hbond>
0.0000

> <Gold.Chemscore.DEClash>
0.2922

> <Gold.Chemscore.DEInternal>
0.7102

> <Gold.Chemscore.Rot>
2.8032

> <Gold.Chemscore.Internal.Correction>
   9.000000E+99

> <Gold.Chemscore.Hbonds>
donor molecule, donor type, donor heavy atom, donor atom, acceptor molecule, acceptor atom, score
      L1  H    15    48       P1  8028  0.97
      P1  H  6931  6943       L1    24  0.17
      P1  H  6934  6947       L1    24  0.46

> <Gold.Chemscore.Hbond.Weighted>
-6.5060

> <Gold.Chemscore.Metal.Weighted>
-0.0000

> <Gold.Chemscore.Lipo.Weighted>
-14.6298

> <Gold.Chemscore.Internal_Hbond.Weighted>
0.0000

> <Gold.Chemscore.DEClash.Weighted>
0.2922

> <Gold.Chemscore.DEInternal.Weighted>
0.7102

> <Gold.Chemscore.Rot.Weighted>
7.1761

> <Gold.Chemscore.Internal.Correction.Weighted>
   9.000000E+99

> <Gold.Protein.RotatedTorsions>
[ 6907 6896 6895 6894 ] final  -40.25 input  -60.11 | X-H torsion
[ 7974 7965 7964 7962 ] final    2.39 input  175.53 | X-H torsion
[ 8008 7997 7996 7995 ] final -159.09 input   59.86 | X-H torsion
[ 10167 10162 10161 10158 ] final  169.32 input  -65.29 | X-H torsion
[ 10718 10713 10712 10709 ] final -127.00 input   66.30 | X-H torsion
[ 10763 10752 10751 10750 ] final   73.77 input  -60.55 | X-H torsion
[ 11005 11000 10999 10996 ] final -150.25 input  -57.11 | X-H torsion

> <Gold.Protein.ActiveResidues>
 VAL166  LYS551  ARG553  GLY616  TRP617  ASP618  TYR619  PRO620  LYS621  CYS622 
 ASP623  PHE694  ASN695  SER759  ASP760  ASP761  ALA762  ILE779  LEU786  VAL792 
 PHE793  MET794  SER795  GLU796  ALA797  LYS798  CYS799  TRP800  GLU811  SER814 

> <Gold.Protein.RotatedAtoms>
  150.9806  134.9162  159.7841 H   0  0  0  0  0  0  0  0  0  0  0  0  # atno 6907 bound_to 6896
  152.5220  134.3415  159.9229 H   0  0  0  0  0  0  0  0  0  0  0  0  # atno 6908 bound_to 6896
  151.3422  133.3917  159.2707 H   0  0  0  0  0  0  0  0  0  0  0  0  # atno 6909 bound_to 6896
  146.2443  140.0843  142.8355 H   0  0  0  0  0  0  0  0  0  0  0  0  # atno 7974 bound_to 7965
  155.7573  140.0834  157.2172 H   0  0  0  0  0  0  0  0  0  0  0  0  # atno 8008 bound_to 7997
  154.4006  140.1549  156.2849 H   0  0  0  0  0  0  0  0  0  0  0  0  # atno 8009 bound_to 7997
  155.8873  140.3417  155.5933 H   0  0  0  0  0  0  0  0  0  0  0  0  # atno 8010 bound_to 7997
  139.4989  144.3718  151.9716 H   0  0  0  0  0  0  0  0  0  0  0  0  # atno 10167 bound_to 10162
  156.1817  130.6736  151.0312 H   0  0  0  0  0  0  0  0  0  0  0  0  # atno 10718 bound_to 10713
  153.0543  135.5050  154.7944 H   0  0  0  0  0  0  0  0  0  0  0  0  # atno 10763 bound_to 10752
  154.6781  135.2964  154.9652 H   0  0  0  0  0  0  0  0  0  0  0  0  # atno 10764 bound_to 10752
  154.0448  135.6712  153.4846 H   0  0  0  0  0  0  0  0  0  0  0  0  # atno 10765 bound_to 10752
  140.7422  134.3501  157.5145 H   0  0  0  0  0  0  0  0  0  0  0  0  # atno 11005 bound_to 11000
  145.0706  140.9152  143.4884 LP  0  0  0  0  0  0  0  0  0  0  0  0  # atno 17320 bound_to 7965
  145.0976  139.2845  143.5703 LP  0  0  0  0  0  0  0  0  0  0  0  0  # atno 17321 bound_to 7965
  140.3155  144.3489  150.6023 LP  0  0  0  0  0  0  0  0  0  0  0  0  # atno 17342 bound_to 10162
  140.5765  143.2176  151.7506 LP  0  0  0  0  0  0  0  0  0  0  0  0  # atno 17343 bound_to 10162
  157.6872  131.0821  150.7209 LP  0  0  0  0  0  0  0  0  0  0  0  0  # atno 17370 bound_to 10713
  156.7266  130.4697  149.5509 LP  0  0  0  0  0  0  0  0  0  0  0  0  # atno 17371 bound_to 10713
  139.8804  134.9088  156.2976 LP  0  0  0  0  0  0  0  0  0  0  0  0  # atno 17394 bound_to 11000
  140.9826  133.7258  156.0695 LP  0  0  0  0  0  0  0  0  0  0  0  0  # atno 17395 bound_to 11000

$$$$
