AV-unprocessed.smi:2356|AV-procd|sdf|9395|dock2
  -GOLD-   2272013 23D 1   1.00000     0.00000
 Structure written by MMmdl.
 53 56  0  0  0  0  0  0  0  0  1 V2000
  151.1396  138.1054  154.1435 C   0  0  0  0  0  0  0  0  0  0  0  0
  150.3969  139.3302  154.6497 C   0  0  0  0  0  0  0  0  0  0  0  0
  151.1037  140.1371  155.4705 N   0  0  0  0  0  0  0  0  0  0  0  0
  150.5168  141.2498  155.9701 C   0  0  0  0  0  0  0  0  0  0  0  0
  151.2894  142.0636  156.8222 N   0  0  0  0  0  0  0  0  0  0  0  0
  151.0042  143.4800  156.9917 C   0  0  0  0  0  0  0  0  0  0  0  0
  151.9580  143.9366  158.0942 C   0  0  0  0  0  0  0  0  0  0  0  0
  152.0817  142.6968  158.9796 C   0  0  0  0  0  0  0  0  0  0  0  0
  151.9516  141.5229  158.0016 C   0  0  0  0  0  0  0  0  0  0  0  0
  149.1757  141.5796  155.6680 C   0  0  0  0  0  0  0  0  0  0  0  0
  148.4381  140.7397  154.8130 C   0  0  0  0  0  0  0  0  0  0  0  0
  149.0578  139.5883  154.2727 C   0  0  0  0  0  0  0  0  0  0  0  0
  148.4037  138.6656  153.4090 N   0  0  0  0  0  0  0  0  0  0  0  0
  147.0877  138.4365  153.2332 C   0  0  0  0  0  0  0  0  0  0  0  0
  146.1852  139.0187  153.8300 O   0  0  0  0  0  0  0  0  0  0  0  0
  146.8156  137.4898  152.3164 N   0  0  0  0  0  0  0  0  0  0  0  0
  145.5067  136.9959  151.8811 C   0  0  2  0  0  0  0  0  0  0  0  0
  144.5689  136.8790  153.0914 C   0  0  0  0  0  0  0  0  0  0  0  0
  143.2332  136.2375  152.6827 C   0  0  0  0  0  0  0  0  0  0  0  0
  143.4664  134.9687  152.0807 O   0  0  0  0  0  0  0  0  0  0  0  0
  144.2324  135.0487  150.8825 C   0  0  2  0  0  0  0  0  0  0  0  0
  144.3160  133.6597  150.2816 C   0  0  0  0  0  0  0  0  0  0  0  0
  143.4531  132.5375  150.8100 C   0  0  0  0  0  0  0  0  0  0  0  0
  144.9436  132.5205  151.0502 C   0  0  0  0  0  0  0  0  0  0  0  0
  145.6260  135.6193  151.2029 C   0  0  0  0  0  0  0  0  0  0  0  0
  150.6353  137.1947  154.4676 H   0  0  0  0  0  0  0  0  0  0  0  0
  152.1638  138.0739  154.5168 H   0  0  0  0  0  0  0  0  0  0  0  0
  151.1791  138.1088  153.0540 H   0  0  0  0  0  0  0  0  0  0  0  0
  151.1600  144.0367  156.0671 H   0  0  0  0  0  0  0  0  0  0  0  0
  149.9663  143.6075  157.3027 H   0  0  0  0  0  0  0  0  0  0  0  0
  152.9306  144.1807  157.6647 H   0  0  0  0  0  0  0  0  0  0  0  0
  151.5966  144.8131  158.6327 H   0  0  0  0  0  0  0  0  0  0  0  0
  153.0106  142.6720  159.5497 H   0  0  0  0  0  0  0  0  0  0  0  0
  151.2534  142.6738  159.6891 H   0  0  0  0  0  0  0  0  0  0  0  0
  151.3899  140.7033  158.4511 H   0  0  0  0  0  0  0  0  0  0  0  0
  152.9343  141.1489  157.7126 H   0  0  0  0  0  0  0  0  0  0  0  0
  148.7004  142.4544  156.0856 H   0  0  0  0  0  0  0  0  0  0  0  0
  147.4109  140.9932  154.6055 H   0  0  0  0  0  0  0  0  0  0  0  0
  149.0177  138.1422  152.8022 H   0  0  0  0  0  0  0  0  0  0  0  0
  147.6133  137.0407  151.8903 H   0  0  0  0  0  0  0  0  0  0  0  0
  145.0615  137.7056  151.1811 H   0  0  0  0  0  0  0  0  0  0  0  0
  145.0356  136.2692  153.8664 H   0  0  0  0  0  0  0  0  0  0  0  0
  144.3920  137.8616  153.5307 H   0  0  0  0  0  0  0  0  0  0  0  0
  142.6011  136.0990  153.5600 H   0  0  0  0  0  0  0  0  0  0  0  0
  142.6850  136.8831  151.9950 H   0  0  0  0  0  0  0  0  0  0  0  0
  143.7217  135.7029  150.1732 H   0  0  0  0  0  0  0  0  0  0  0  0
  144.4864  133.6576  149.2065 H   0  0  0  0  0  0  0  0  0  0  0  0
  142.8098  132.7498  151.6617 H   0  0  0  0  0  0  0  0  0  0  0  0
  143.0516  131.8308  150.0866 H   0  0  0  0  0  0  0  0  0  0  0  0
  145.5361  131.8023  150.4872 H   0  0  0  0  0  0  0  0  0  0  0  0
  145.2916  132.7214  152.0615 H   0  0  0  0  0  0  0  0  0  0  0  0
  146.2131  135.6930  150.2868 H   0  0  0  0  0  0  0  0  0  0  0  0
  146.1594  134.9301  151.8594 H   0  0  0  0  0  0  0  0  0  0  0  0
  1  2  1  0  0  0  0
  1 26  1  0  0  0  0
  1 27  1  0  0  0  0
  1 28  1  0  0  0  0
  2 12  1  0  0  0  0
  2  3  2  0  0  0  0
  3  4  1  0  0  0  0
  4  5  1  0  0  0  0
  4 10  2  0  0  0  0
  5  9  1  0  0  0  0
  5  6  1  0  0  0  0
  6  7  1  0  0  0  0
  6 29  1  0  0  0  0
  6 30  1  0  0  0  0
  7  8  1  0  0  0  0
  7 31  1  0  0  0  0
  7 32  1  0  0  0  0
  8  9  1  0  0  0  0
  8 33  1  0  0  0  0
  8 34  1  0  0  0  0
  9 35  1  0  0  0  0
  9 36  1  0  0  0  0
 10 11  1  0  0  0  0
 10 37  1  0  0  0  0
 11 12  2  0  0  0  0
 11 38  1  0  0  0  0
 12 13  1  0  0  0  0
 13 14  1  0  0  0  0
 13 39  1  0  0  0  0
 14 15  2  0  0  0  0
 14 16  1  0  0  0  0
 16 17  1  0  0  0  0
 16 40  1  0  0  0  0
 17 25  1  0  0  0  0
 17 18  1  0  0  0  0
 17 41  1  0  0  0  0
 18 19  1  0  0  0  0
 18 42  1  0  0  0  0
 18 43  1  0  0  0  0
 19 20  1  0  0  0  0
 19 44  1  0  0  0  0
 19 45  1  0  0  0  0
 20 21  1  0  0  0  0
 21 22  1  0  0  0  0
 21 25  1  0  0  0  0
 21 46  1  0  0  0  0
 22 24  1  0  0  0  0
 22 23  1  0  0  0  0
 22 47  1  0  0  0  0
 23 24  1  0  0  0  0
 23 48  1  0  0  0  0
 23 49  1  0  0  0  0
 24 50  1  0  0  0  0
 24 51  1  0  0  0  0
 25 52  1  0  0  0  0
 25 53  1  0  0  0  0
M  END
> <s_m_source_file>
AV-unprocessed.smi

> <i_m_source_file_index>
2356

> <i_lp_mmshare_version>
43012

> <i_f3d_flags>
0

> <s_epik_input>
W0NIMl0xW0NIMl1bQ0gyXVtDSDJdTjFjKG5jMltDSDNdKVtjSF1bY0hdYzJbTkhdQyg9TylbTkhdW0NAQEhdM1tDSDJdW0NIMl1PW0NASF0oW0NIMl0zKVtDSF00W0NIMl1bQ0gyXTQ=

> <s_epik_cmdline>
J2VwaWtfcHl0aG9uJywgJy1waCcsICc3LjAnLCAnLXRuJywgJzgnLCAnLW1hJywgJzIwMCcsICctbWV0YWxfYmluZGluZycsICctaW1hZScsICc8aW5maWxlLm1hZT4nLCAnLW9tYWUnLCAnPG91dGZpbGUubWFlPic=

> <r_lp_tautomer_probability>
1

> <r_epik_Ionization_Penalty>
0.308781

> <r_epik_Ionization_Penalty_Charging>
0

> <r_epik_Ionization_Penalty_Neutral>
0.308781

> <r_epik_State_Penalty>
0.302092

> <r_epik_Charging_Adjusted_Penalty>
0.302092

> <i_epik_Tot_Q>
0

> <i_epik_Tot_abs_Q>
0

> <r_epik_Metal_State_Penalty>
0.197467

> <b_epik_Metal_Only>
0

> <s_lp_Force_Field>
OPLS_2005

> <r_lp_Energy>
53.3559

> <b_lp_Chiralities_Consistent>
1

> <s_lp_Variant>
AV-unprocessed.smi:2356-3

> <Gold.Version>
5.8.1

> <Gold.Id.Protein>
6NUR|6NUR_protein|mol2

> <Gold.PLP.Fitness>
51.5696

> <Gold.PLP.PLP>
-48.9036

> <Gold.PLP.part.hbond>
-3.5456

> <Gold.PLP.part.metal>
0.0000

> <Gold.PLP.part.buried>
-3.1226

> <Gold.PLP.part.nonpolar>
-43.8928

> <Gold.PLP.part.repulsive>
0.4839

> <Gold.PLP.ligand.clash>
0.0000

> <Gold.PLP.ligand.torsion>
1.7024

> <Gold.PLP.Chemscore.Hbond>
1.5949

> <Gold.PLP.Chemscore.CHOScore>
0.0000

> <Gold.PLP.Chemscore.Metal>
0.0000

> <Gold.Chemscore.Hbonds>
donor molecule, donor type, donor heavy atom, donor atom, acceptor molecule, acceptor atom, score
      L1  H    13    39       P1  7948  0.61
      L1  H    16    40       P1  7948  1.00

> <Gold.PLP.Chemscore.Internal.Correction>
1.2863

> <Gold.Rescore>
     Score         DG    S(hbond)    S(metal)    S(lipo)     H(rot)  DE(clash)    DE(int)     intcor
     17.76     -22.57       1.86        0.00     117.80       1.14       0.36       4.45       ----

> <Gold.Chemscore.Fitness>
17.7559

> <Gold.Chemscore.DG>
-22.5660

> <Gold.Chemscore.ZeroCoef>
-5.4800

> <Gold.Chemscore.Hbond>
1.8626

> <Gold.Chemscore.Metal>
0.0000

> <Gold.Chemscore.Lipo>
117.7958

> <Gold.Chemscore.Internal_Hbond>
0.0000

> <Gold.Chemscore.DEClash>
0.3593

> <Gold.Chemscore.DEInternal>
4.4507

> <Gold.Chemscore.Rot>
1.1395

> <Gold.Chemscore.Internal.Correction>
   9.000000E+99

> <Gold.Chemscore.Hbonds>
donor molecule, donor type, donor heavy atom, donor atom, acceptor molecule, acceptor atom, score
      L1  H    13    39       P1  7948  0.60
      L1  H    16    40       P1  7948  0.94

> <Gold.Chemscore.Hbond.Weighted>
-6.2210

> <Gold.Chemscore.Metal.Weighted>
-0.0000

> <Gold.Chemscore.Lipo.Weighted>
-13.7821

> <Gold.Chemscore.Internal_Hbond.Weighted>
0.0000

> <Gold.Chemscore.DEClash.Weighted>
0.3593

> <Gold.Chemscore.DEInternal.Weighted>
4.4507

> <Gold.Chemscore.Rot.Weighted>
2.9171

> <Gold.Chemscore.Internal.Correction.Weighted>
   9.000000E+99

> <Gold.Protein.RotatedTorsions>
[ 6907 6896 6895 6894 ] final  -56.66 input  -60.11 | X-H torsion
[ 7974 7965 7964 7962 ] final   17.38 input  175.53 | X-H torsion
[ 8008 7997 7996 7995 ] final  -25.58 input   59.86 | X-H torsion
[ 10167 10162 10161 10158 ] final  148.80 input  -65.29 | X-H torsion
[ 10718 10713 10712 10709 ] final -168.41 input   66.30 | X-H torsion
[ 10763 10752 10751 10750 ] final   66.81 input  -60.55 | X-H torsion
[ 11005 11000 10999 10996 ] final   14.46 input  -57.11 | X-H torsion

> <Gold.Protein.ActiveResidues>
 VAL166  LYS551  ARG553  GLY616  TRP617  ASP618  TYR619  PRO620  LYS621  CYS622 
 ASP623  PHE694  ASN695  SER759  ASP760  ASP761  ALA762  ILE779  LEU786  VAL792 
 PHE793  MET794  SER795  GLU796  ALA797  LYS798  CYS799  TRP800  GLU811  SER814 

> <Gold.Protein.RotatedAtoms>
  150.8149  134.7325  159.6720 H   0  0  0  0  0  0  0  0  0  0  0  0  # atno 6907 bound_to 6896
  152.4268  134.5850  159.9968 H   0  0  0  0  0  0  0  0  0  0  0  0  # atno 6908 bound_to 6896
  151.6049  133.3315  159.3091 H   0  0  0  0  0  0  0  0  0  0  0  0  # atno 6909 bound_to 6896
  146.2220  139.8610  142.8604 H   0  0  0  0  0  0  0  0  0  0  0  0  # atno 7974 bound_to 7965
  154.4469  140.1923  156.0641 H   0  0  0  0  0  0  0  0  0  0  0  0  # atno 8008 bound_to 7997
  156.0561  140.3302  155.7380 H   0  0  0  0  0  0  0  0  0  0  0  0  # atno 8009 bound_to 7997
  155.5484  140.0592  157.2846 H   0  0  0  0  0  0  0  0  0  0  0  0  # atno 8010 bound_to 7997
  139.4870  144.5651  151.7159 H   0  0  0  0  0  0  0  0  0  0  0  0  # atno 10167 bound_to 10162
  156.6965  130.9180  151.3075 H   0  0  0  0  0  0  0  0  0  0  0  0  # atno 10718 bound_to 10713
  153.0157  135.5307  154.6881 H   0  0  0  0  0  0  0  0  0  0  0  0  # atno 10763 bound_to 10752
  154.6023  135.2869  155.0524 H   0  0  0  0  0  0  0  0  0  0  0  0  # atno 10764 bound_to 10752
  154.1576  135.6553  153.5031 H   0  0  0  0  0  0  0  0  0  0  0  0  # atno 10765 bound_to 10752
  140.4692  134.1048  155.7729 H   0  0  0  0  0  0  0  0  0  0  0  0  # atno 11005 bound_to 11000
  145.2704  141.0106  143.3775 LP  0  0  0  0  0  0  0  0  0  0  0  0  # atno 17320 bound_to 7965
  144.9228  139.4391  143.6533 LP  0  0  0  0  0  0  0  0  0  0  0  0  # atno 17321 bound_to 7965
  140.5228  144.0852  150.6028 LP  0  0  0  0  0  0  0  0  0  0  0  0  # atno 17342 bound_to 10162
  140.3816  143.2800  152.0164 LP  0  0  0  0  0  0  0  0  0  0  0  0  # atno 17343 bound_to 10162
  157.6989  130.9312  150.0726 LP  0  0  0  0  0  0  0  0  0  0  0  0  # atno 17370 bound_to 10713
  156.1759  130.3648  149.9101 LP  0  0  0  0  0  0  0  0  0  0  0  0  # atno 17371 bound_to 10713
  141.1585  133.8838  157.1913 LP  0  0  0  0  0  0  0  0  0  0  0  0  # atno 17394 bound_to 11000
  139.9896  135.0069  156.9943 LP  0  0  0  0  0  0  0  0  0  0  0  0  # atno 17395 bound_to 11000

$$$$
