AV-unprocessed.smi:1726|AV-procd|sdf|6960|dock3
  -GOLD-   22720 8173D 1   1.00000     0.00000
 Structure written by MMmdl.
 43 44  0  0  0  0  0  0  0  0  2 V2000
  147.1864  141.0285  153.2892 C   0  0  0  0  0  0  0  0  0  0  0  0
  147.3441  139.7260  152.4917 C   0  0  0  0  0  0  0  0  0  0  0  0
  148.0035  138.6516  153.2769 N   0  3  2  0  0  0  0  0  0  0  0  0
  147.0269  137.8621  154.0718 C   0  0  0  0  0  0  0  0  0  0  0  0
  147.7072  136.6746  154.7724 C   0  0  0  0  0  0  0  0  0  0  0  0
  148.8714  137.1466  155.6526 C   0  0  0  0  0  0  0  0  0  0  0  0
  149.8568  137.9788  154.8178 C   0  0  2  0  0  0  0  0  0  0  0  0
  150.9346  138.4744  155.6695 N   0  0  0  0  0  0  0  0  0  0  0  0
  150.8101  139.4499  156.5813 C   0  0  0  0  0  0  0  0  0  0  0  0
  149.7473  140.0299  156.8030 O   0  0  0  0  0  0  0  0  0  0  0  0
  151.9783  139.6743  157.2107 N   0  0  0  0  0  0  0  0  0  0  0  0
  152.2830  140.6147  158.2096 C   0  0  0  0  0  0  0  0  0  0  0  0
  151.9176  141.9233  158.1827 C   0  0  0  0  0  0  0  0  0  0  0  0
  152.2736  142.8460  159.2480 C   0  0  0  0  0  0  0  0  0  0  0  0
  151.9070  144.3208  159.1832 C   0  0  0  0  0  0  0  0  0  0  0  0
  152.1568  144.9313  160.3424 F   0  0  0  0  0  0  0  0  0  0  0  0
  152.5927  144.9449  158.2253 F   0  0  0  0  0  0  0  0  0  0  0  0
  150.6083  144.4526  158.9167 F   0  0  0  0  0  0  0  0  0  0  0  0
  153.0144  142.3446  160.2534 C   0  0  0  0  0  0  0  0  0  0  0  0
  153.3944  141.0011  160.2888 N   0  0  0  0  0  0  0  0  0  0  0  0
  153.0818  140.0975  159.3331 C   0  0  0  0  0  0  0  0  0  0  0  0
  153.4590  138.9306  159.4340 O   0  0  0  0  0  0  0  0  0  0  0  0
  149.1228  139.1458  154.1228 C   0  0  0  0  0  0  0  0  0  0  0  0
  153.9416  140.6999  161.0824 H   0  0  0  0  0  0  0  0  0  0  0  0
  146.7963  141.8220  152.6513 H   0  0  0  0  0  0  0  0  0  0  0  0
  148.1441  141.3665  153.6858 H   0  0  0  0  0  0  0  0  0  0  0  0
  146.4947  140.9187  154.1239 H   0  0  0  0  0  0  0  0  0  0  0  0
  146.3776  139.3810  152.1213 H   0  0  0  0  0  0  0  0  0  0  0  0
  147.9491  139.9495  151.6119 H   0  0  0  0  0  0  0  0  0  0  0  0
  146.5470  138.5096  154.8075 H   0  0  0  0  0  0  0  0  0  0  0  0
  146.2383  137.4849  153.4195 H   0  0  0  0  0  0  0  0  0  0  0  0
  146.9796  136.1328  155.3774 H   0  0  0  0  0  0  0  0  0  0  0  0
  148.0743  135.9696  154.0253 H   0  0  0  0  0  0  0  0  0  0  0  0
  148.4855  137.7419  156.4814 H   0  0  0  0  0  0  0  0  0  0  0  0
  149.3774  136.2865  156.0929 H   0  0  0  0  0  0  0  0  0  0  0  0
  150.2876  137.3276  154.0541 H   0  0  0  0  0  0  0  0  0  0  0  0
  151.8421  138.0466  155.5529 H   0  0  0  0  0  0  0  0  0  0  0  0
  152.7451  139.0646  156.9654 H   0  0  0  0  0  0  0  0  0  0  0  0
  151.3578  142.3260  157.3548 H   0  0  0  0  0  0  0  0  0  0  0  0
  153.3712  142.9233  161.0927 H   0  0  0  0  0  0  0  0  0  0  0  0
  149.8318  139.7002  153.5091 H   0  0  0  0  0  0  0  0  0  0  0  0
  148.7353  139.8456  154.8654 H   0  0  0  0  0  0  0  0  0  0  0  0
  148.4030  138.0113  152.6056 H   0  0  0  0  0  0  0  0  0  0  0  0
  1  2  1  0  0  0  0
  1 25  1  0  0  0  0
  1 26  1  0  0  0  0
  1 27  1  0  0  0  0
  2  3  1  0  0  0  0
  2 28  1  0  0  0  0
  2 29  1  0  0  0  0
  3 23  1  0  0  0  0
  3  4  1  0  0  0  0
  3 43  1  0  0  0  0
  4  5  1  0  0  0  0
  4 30  1  0  0  0  0
  4 31  1  0  0  0  0
  5  6  1  0  0  0  0
  5 32  1  0  0  0  0
  5 33  1  0  0  0  0
  6  7  1  0  0  0  0
  6 34  1  0  0  0  0
  6 35  1  0  0  0  0
  7  8  1  0  0  0  0
  7 23  1  0  0  0  0
  7 36  1  0  0  0  0
  8  9  1  0  0  0  0
  8 37  1  0  0  0  0
  9 10  2  0  0  0  0
  9 11  1  0  0  0  0
 11 12  1  0  0  0  0
 11 38  1  0  0  0  0
 12 21  1  0  0  0  0
 12 13  2  0  0  0  0
 13 14  1  0  0  0  0
 13 39  1  0  0  0  0
 14 15  1  0  0  0  0
 14 19  2  0  0  0  0
 15 16  1  0  0  0  0
 15 17  1  0  0  0  0
 15 18  1  0  0  0  0
 19 20  1  0  0  0  0
 19 40  1  0  0  0  0
 20 24  1  0  0  0  0
 20 21  1  0  0  0  0
 21 22  2  0  0  0  0
 23 41  1  0  0  0  0
 23 42  1  0  0  0  0
M  CHG  1   3   1
M  END
> <s_m_source_file>
AV-unprocessed.smi

> <i_m_source_file_index>
1726

> <i_lp_mmshare_version>
43012

> <i_f3d_flags>
0

> <s_epik_input>
W0NIM11bQ0gyXU4xW0NIMl1bQ0gyXVtDSDJdW0NASF0oW0NIMl0xKVtOSF1DKD1PKVtOSF1jMltjSF1jKEMoRikoRilGKVtjSF1bbkhdYzI9Tw==

> <s_epik_cmdline>
J2VwaWtfcHl0aG9uJywgJy1waCcsICc3LjAnLCAnLXRuJywgJzgnLCAnLW1hJywgJzIwMCcsICctbWV0YWxfYmluZGluZycsICctaW1hZScsICc8aW5maWxlLm1hZT4nLCAnLW9tYWUnLCAnPG91dGZpbGUubWFlPic=

> <r_lp_tautomer_probability>
1

> <r_epik_Ionization_Penalty>
0.00745721

> <r_epik_Ionization_Penalty_Charging>
0.00743804

> <r_epik_Ionization_Penalty_Neutral>
1.91703e-05

> <r_epik_State_Penalty>
-0

> <r_epik_Charging_Adjusted_Penalty>
0.00743804

> <i_epik_Tot_Q>
1

> <i_epik_Tot_abs_Q>
1

> <r_epik_Metal_State_Penalty>
0.37929

> <b_epik_Metal_Only>
0

> <s_lp_Force_Field>
OPLS_2005

> <r_lp_Energy>
26.6941

> <b_lp_Chiralities_Consistent>
1

> <s_lp_Variant>
AV-unprocessed.smi:1726-4

> <Gold.Version>
5.8.1

> <Gold.Id.Protein>
6NUR|6NUR_protein|mol2

> <Gold.PLP.Fitness>
43.1982

> <Gold.PLP.PLP>
-40.1289

> <Gold.PLP.part.hbond>
-2.0000

> <Gold.PLP.part.metal>
0.0000

> <Gold.PLP.part.buried>
-2.4485

> <Gold.PLP.part.nonpolar>
-35.3268

> <Gold.PLP.part.repulsive>
0.2665

> <Gold.PLP.ligand.clash>
0.8441

> <Gold.PLP.ligand.torsion>
1.0813

> <Gold.PLP.Chemscore.Hbond>
2.0000

> <Gold.PLP.Chemscore.CHOScore>
0.0000

> <Gold.PLP.Chemscore.Metal>
0.0000

> <Gold.Chemscore.Hbonds>
donor molecule, donor type, donor heavy atom, donor atom, acceptor molecule, acceptor atom, score
      L1  H     3    43       P1  7948  2.00

> <Gold.PLP.Chemscore.Internal.Correction>
0.0760

> <Gold.Rescore>
     Score         DG    S(hbond)    S(metal)    S(lipo)     H(rot)  DE(clash)    DE(int)     intcor
     12.67     -14.66       1.00        0.00      78.11       1.29       0.12       1.86       ----

> <Gold.Chemscore.Fitness>
12.6736

> <Gold.Chemscore.DG>
-14.6553

> <Gold.Chemscore.ZeroCoef>
-5.4800

> <Gold.Chemscore.Hbond>
0.9985

> <Gold.Chemscore.Metal>
0.0000

> <Gold.Chemscore.Lipo>
78.1069

> <Gold.Chemscore.Internal_Hbond>
0.0000

> <Gold.Chemscore.DEClash>
0.1204

> <Gold.Chemscore.DEInternal>
1.8612

> <Gold.Chemscore.Rot>
1.2884

> <Gold.Chemscore.Internal.Correction>
   9.000000E+99

> <Gold.Chemscore.Hbonds>
donor molecule, donor type, donor heavy atom, donor atom, acceptor molecule, acceptor atom, score
      L1  H     3    43       P1  7948  0.97

> <Gold.Chemscore.Hbond.Weighted>
-3.3351

> <Gold.Chemscore.Metal.Weighted>
-0.0000

> <Gold.Chemscore.Lipo.Weighted>
-9.1385

> <Gold.Chemscore.Internal_Hbond.Weighted>
0.0000

> <Gold.Chemscore.DEClash.Weighted>
0.1204

> <Gold.Chemscore.DEInternal.Weighted>
1.8612

> <Gold.Chemscore.Rot.Weighted>
3.2983

> <Gold.Chemscore.Internal.Correction.Weighted>
   9.000000E+99

> <Gold.Protein.RotatedTorsions>
[ 6907 6896 6895 6894 ] final -136.00 input  -60.11 | X-H torsion
[ 7974 7965 7964 7962 ] final  -56.95 input  175.53 | X-H torsion
[ 8008 7997 7996 7995 ] final  166.00 input   59.86 | X-H torsion
[ 10167 10162 10161 10158 ] final -108.90 input  -65.29 | X-H torsion
[ 10718 10713 10712 10709 ] final   74.41 input   66.30 | X-H torsion
[ 10763 10752 10751 10750 ] final  145.36 input  -60.55 | X-H torsion
[ 11005 11000 10999 10996 ] final  -94.51 input  -57.11 | X-H torsion

> <Gold.Protein.ActiveResidues>
 VAL166  LYS551  ARG553  GLY616  TRP617  ASP618  TYR619  PRO620  LYS621  CYS622 
 ASP623  PHE694  ASN695  SER759  ASP760  ASP761  ALA762  ILE779  LEU786  VAL792 
 PHE793  MET794  SER795  GLU796  ALA797  LYS798  CYS799  TRP800  GLU811  SER814 

> <Gold.Protein.RotatedAtoms>
  151.0047  133.6022  159.2690 H   0  0  0  0  0  0  0  0  0  0  0  0  # atno 6907 bound_to 6896
  151.3196  135.0814  159.9310 H   0  0  0  0  0  0  0  0  0  0  0  0  # atno 6908 bound_to 6896
  152.5283  133.9697  159.7810 H   0  0  0  0  0  0  0  0  0  0  0  0  # atno 6909 bound_to 6896
  145.8567  140.8314  142.9958 H   0  0  0  0  0  0  0  0  0  0  0  0  # atno 7974 bound_to 7965
  156.1755  140.1655  156.8371 H   0  0  0  0  0  0  0  0  0  0  0  0  # atno 8008 bound_to 7997
  154.5302  140.0758  156.8364 H   0  0  0  0  0  0  0  0  0  0  0  0  # atno 8009 bound_to 7997
  155.3423  140.3385  155.4241 H   0  0  0  0  0  0  0  0  0  0  0  0  # atno 8010 bound_to 7997
  140.1612  143.4119  152.1424 H   0  0  0  0  0  0  0  0  0  0  0  0  # atno 10167 bound_to 10162
  157.6591  130.9676  150.1207 H   0  0  0  0  0  0  0  0  0  0  0  0  # atno 10718 bound_to 10713
  154.0041  135.2920  155.3399 H   0  0  0  0  0  0  0  0  0  0  0  0  # atno 10763 bound_to 10752
  154.7142  135.5136  153.8716 H   0  0  0  0  0  0  0  0  0  0  0  0  # atno 10764 bound_to 10752
  153.0753  135.6661  154.0279 H   0  0  0  0  0  0  0  0  0  0  0  0  # atno 10765 bound_to 10752
  141.1468  133.7961  157.0308 H   0  0  0  0  0  0  0  0  0  0  0  0  # atno 11005 bound_to 11000
  144.6727  140.1034  143.7459 LP  0  0  0  0  0  0  0  0  0  0  0  0  # atno 17320 bound_to 7965
  145.9295  139.2597  143.1333 LP  0  0  0  0  0  0  0  0  0  0  0  0  # atno 17321 bound_to 7965
  139.5380  144.7229  151.4827 LP  0  0  0  0  0  0  0  0  0  0  0  0  # atno 17342 bound_to 10162
  140.6642  143.8434  150.6922 LP  0  0  0  0  0  0  0  0  0  0  0  0  # atno 17343 bound_to 10162
  156.2079  130.3664  149.8706 LP  0  0  0  0  0  0  0  0  0  0  0  0  # atno 17370 bound_to 10713
  156.6593  130.8775  151.3544 LP  0  0  0  0  0  0  0  0  0  0  0  0  # atno 17371 bound_to 10713
  140.0755  134.9678  157.1538 LP  0  0  0  0  0  0  0  0  0  0  0  0  # atno 17394 bound_to 11000
  140.3650  134.2452  155.7183 LP  0  0  0  0  0  0  0  0  0  0  0  0  # atno 17395 bound_to 11000

$$$$
