AV-unprocessed.smi:1933|AV-procd|sdf|7816|dock5
  -GOLD-   22720 9563D 1   1.00000     0.00000
 Structure written by MMmdl.
 47 49  0  0  0  0  0  0  0  0  1 V2000
  145.4506  134.9406  154.2630 O   0  0  0  0  0  0  0  0  0  0  0  0
  146.4290  135.1851  153.5565 C   0  0  0  0  0  0  0  0  0  0  0  0
  147.4325  135.9906  153.9326 N   0  0  0  0  0  0  0  0  0  0  0  0
  147.5157  136.7066  155.2026 C   0  0  0  0  0  0  0  0  0  0  0  0
  148.9844  136.8455  155.6854 C   0  0  1  0  0  0  0  0  0  0  0  0
  149.8448  137.7260  154.7249 C   0  0  2  0  0  0  0  0  0  0  0  0
  151.3465  137.4272  154.6719 C   0  0  0  0  0  0  0  0  0  0  0  0
  152.0009  138.7949  154.8599 C   0  0  0  0  0  0  0  0  0  0  0  0
  151.0192  139.7125  154.4081 O   0  0  0  0  0  0  0  0  0  0  0  0
  149.7687  139.2529  154.8946 C   0  0  0  0  0  0  0  0  0  0  0  0
  149.1402  137.1435  157.1242 N   0  0  0  0  0  0  0  0  0  0  0  0
  150.5352  137.1968  157.5572 C   0  0  0  0  0  0  0  0  0  0  0  0
  150.6617  137.6537  159.0193 C   0  0  0  0  0  0  0  0  0  0  0  0
  149.9095  136.7784  159.8523 O   0  0  0  0  0  0  0  0  0  0  0  0
  148.5307  136.7386  159.5000 C   0  0  0  0  0  0  0  0  0  0  0  0
  148.3721  136.2962  158.0343 C   0  0  0  0  0  0  0  0  0  0  0  0
  146.6377  134.6959  152.3214 N   0  0  0  0  0  0  0  0  0  0  0  0
  145.8001  133.8336  151.5649 C   0  0  0  0  0  0  0  0  0  0  0  0
  146.4785  132.9678  150.6772 C   0  0  0  0  0  0  0  0  0  0  0  0
  145.7380  132.0737  149.8798 C   0  0  0  0  0  0  0  0  0  0  0  0
  144.3360  132.0686  149.9903 C   0  0  0  0  0  0  0  0  0  0  0  0
  143.7393  132.9627  150.8981 C   0  0  0  0  0  0  0  0  0  0  0  0
  144.4471  133.8202  151.6635 N   0  0  0  0  0  0  0  0  0  0  0  0
  148.1951  136.1298  153.2859 H   0  0  0  0  0  0  0  0  0  0  0  0
  147.0502  137.6902  155.1290 H   0  0  0  0  0  0  0  0  0  0  0  0
  146.9193  136.1399  155.9161 H   0  0  0  0  0  0  0  0  0  0  0  0
  149.4151  135.8509  155.5604 H   0  0  0  0  0  0  0  0  0  0  0  0
  149.4754  137.5326  153.7163 H   0  0  0  0  0  0  0  0  0  0  0  0
  151.6990  136.7151  155.4173 H   0  0  0  0  0  0  0  0  0  0  0  0
  151.6053  137.0195  153.6939 H   0  0  0  0  0  0  0  0  0  0  0  0
  152.2112  138.9815  155.9138 H   0  0  0  0  0  0  0  0  0  0  0  0
  152.9326  138.8956  154.3033 H   0  0  0  0  0  0  0  0  0  0  0  0
  148.9506  139.6938  154.3251 H   0  0  0  0  0  0  0  0  0  0  0  0
  149.6474  139.5631  155.9303 H   0  0  0  0  0  0  0  0  0  0  0  0
  150.9997  136.2155  157.4635 H   0  0  0  0  0  0  0  0  0  0  0  0
  151.0990  137.8761  156.9172 H   0  0  0  0  0  0  0  0  0  0  0  0
  151.7051  137.6358  159.3337 H   0  0  0  0  0  0  0  0  0  0  0  0
  150.3074  138.6789  159.1378 H   0  0  0  0  0  0  0  0  0  0  0  0
  148.0127  136.0455  160.1627 H   0  0  0  0  0  0  0  0  0  0  0  0
  148.0833  137.7220  159.6537 H   0  0  0  0  0  0  0  0  0  0  0  0
  147.3139  136.3413  157.7922 H   0  0  0  0  0  0  0  0  0  0  0  0
  148.6845  135.2562  157.9360 H   0  0  0  0  0  0  0  0  0  0  0  0
  147.4912  134.9808  151.8647 H   0  0  0  0  0  0  0  0  0  0  0  0
  147.5562  132.9850  150.6046 H   0  0  0  0  0  0  0  0  0  0  0  0
  146.2378  131.4040  149.1956 H   0  0  0  0  0  0  0  0  0  0  0  0
  143.7341  131.3976  149.3956 H   0  0  0  0  0  0  0  0  0  0  0  0
  142.6659  132.9905  151.0139 H   0  0  0  0  0  0  0  0  0  0  0  0
  1  2  2  0  0  0  0
  2  3  1  0  0  0  0
  2 17  1  0  0  0  0
  3  4  1  0  0  0  0
  3 24  1  0  0  0  0
  4  5  1  0  0  0  0
  4 25  1  0  0  0  0
  4 26  1  0  0  0  0
  5  6  1  0  0  0  0
  5 11  1  0  0  0  0
  5 27  1  0  0  0  0
  6 10  1  0  0  0  0
  6  7  1  0  0  0  0
  6 28  1  0  0  0  0
  7  8  1  0  0  0  0
  7 29  1  0  0  0  0
  7 30  1  0  0  0  0
  8  9  1  0  0  0  0
  8 31  1  0  0  0  0
  8 32  1  0  0  0  0
  9 10  1  0  0  0  0
 10 33  1  0  0  0  0
 10 34  1  0  0  0  0
 11 16  1  0  0  0  0
 11 12  1  0  0  0  0
 12 13  1  0  0  0  0
 12 35  1  0  0  0  0
 12 36  1  0  0  0  0
 13 14  1  0  0  0  0
 13 37  1  0  0  0  0
 13 38  1  0  0  0  0
 14 15  1  0  0  0  0
 15 16  1  0  0  0  0
 15 39  1  0  0  0  0
 15 40  1  0  0  0  0
 16 41  1  0  0  0  0
 16 42  1  0  0  0  0
 17 18  1  0  0  0  0
 17 43  1  0  0  0  0
 18 23  1  0  0  0  0
 18 19  2  0  0  0  0
 19 20  1  0  0  0  0
 19 44  1  0  0  0  0
 20 21  2  0  0  0  0
 20 45  1  0  0  0  0
 21 22  1  0  0  0  0
 21 46  1  0  0  0  0
 22 23  2  0  0  0  0
 22 47  1  0  0  0  0
M  END
> <s_m_source_file>
AV-unprocessed.smi

> <i_m_source_file_index>
1933

> <i_lp_mmshare_version>
43012

> <i_f3d_flags>
0

> <s_epik_input>
bjFbY0hdW2NIXVtjSF1bY0hdYzFbTkhdQyg9TylbTkhdW0NIMl1bQ0BIXShbQ0BASF0yW0NIMl1bQ0gyXU9bQ0gyXTIpTjNbQ0gyXVtDSDJdT1tDSDJdW0NIMl0z

> <s_epik_cmdline>
J2VwaWtfcHl0aG9uJywgJy1waCcsICc3LjAnLCAnLXRuJywgJzgnLCAnLW1hJywgJzIwMCcsICctbWV0YWxfYmluZGluZycsICctaW1hZScsICc8aW5maWxlLm1hZT4nLCAnLW9tYWUnLCAnPG91dGZpbGUubWFlPic=

> <r_epik_Ionization_Penalty>
0.125062

> <r_epik_Ionization_Penalty_Charging>
0

> <r_epik_Ionization_Penalty_Neutral>
0.125062

> <r_epik_State_Penalty>
0.114484

> <r_epik_Charging_Adjusted_Penalty>
0.114484

> <i_epik_Tot_Q>
0

> <i_epik_Tot_abs_Q>
0

> <r_epik_Metal_State_Penalty>
0.114484

> <b_epik_Metal_Only>
0

> <s_lp_Force_Field>
OPLS_2005

> <r_lp_Energy>
56.3046

> <b_lp_Chiralities_Consistent>
1

> <s_lp_Variant>
AV-unprocessed.smi:1933-2

> <Gold.Version>
5.8.1

> <Gold.Id.Protein>
6NUR|6NUR_protein|mol2

> <Gold.PLP.Fitness>
46.5262

> <Gold.PLP.PLP>
-36.0777

> <Gold.PLP.part.hbond>
-3.9101

> <Gold.PLP.part.metal>
0.0000

> <Gold.PLP.part.buried>
-5.9305

> <Gold.PLP.part.nonpolar>
-27.3463

> <Gold.PLP.part.repulsive>
0.3150

> <Gold.PLP.ligand.clash>
0.0000

> <Gold.PLP.ligand.torsion>
0.8861

> <Gold.PLP.Chemscore.Hbond>
2.9600

> <Gold.PLP.Chemscore.CHOScore>
0.9865

> <Gold.PLP.Chemscore.Metal>
0.0000

> <Gold.Chemscore.Hbonds>
donor molecule, donor type, donor heavy atom, donor atom, acceptor molecule, acceptor atom, score
      L1  H     3    24       P1  7948  1.00
      L1  H    17    43       P1  7948  0.96
      P1  H  6896  6908       L1    14  0.13
      P1  H  7989  7998       L1     9  1.00
      L1  C    22    47       P1 10186  0.70

> <Gold.PLP.Chemscore.Internal.Correction>
0.3815

> <Gold.Rescore>
     Score         DG    S(hbond)    S(metal)    S(lipo)     H(rot)  DE(clash)    DE(int)     intcor
     17.77     -19.99       2.88        0.00      79.30       1.72       0.00       2.22       ----

> <Gold.Chemscore.Fitness>
17.7704

> <Gold.Chemscore.DG>
-19.9898

> <Gold.Chemscore.ZeroCoef>
-5.4800

> <Gold.Chemscore.Hbond>
2.8819

> <Gold.Chemscore.Metal>
0.0000

> <Gold.Chemscore.Lipo>
79.2951

> <Gold.Chemscore.Internal_Hbond>
0.0000

> <Gold.Chemscore.DEClash>
0.0000

> <Gold.Chemscore.DEInternal>
2.2194

> <Gold.Chemscore.Rot>
1.7161

> <Gold.Chemscore.Internal.Correction>
   9.000000E+99

> <Gold.Chemscore.Hbonds>
donor molecule, donor type, donor heavy atom, donor atom, acceptor molecule, acceptor atom, score
      L1  H     3    24       P1  7948  0.98
      L1  H    17    43       P1  7948  0.76
      P1  H  6896  6908       L1    14  0.02
      P1  H  7989  7998       L1     9  0.81

> <Gold.Chemscore.Hbond.Weighted>
-9.6254

> <Gold.Chemscore.Metal.Weighted>
-0.0000

> <Gold.Chemscore.Lipo.Weighted>
-9.2775

> <Gold.Chemscore.Internal_Hbond.Weighted>
0.0000

> <Gold.Chemscore.DEClash.Weighted>
0.0000

> <Gold.Chemscore.DEInternal.Weighted>
2.2194

> <Gold.Chemscore.Rot.Weighted>
4.3932

> <Gold.Chemscore.Internal.Correction.Weighted>
   9.000000E+99

> <Gold.Protein.RotatedTorsions>
[ 6907 6896 6895 6894 ] final -117.95 input  -60.11 | X-H torsion
[ 7974 7965 7964 7962 ] final  -80.18 input  175.53 | X-H torsion
[ 8008 7997 7996 7995 ] final  -32.00 input   59.86 | X-H torsion
[ 10167 10162 10161 10158 ] final   23.02 input  -65.29 | X-H torsion
[ 10718 10713 10712 10709 ] final   69.55 input   66.30 | X-H torsion
[ 10763 10752 10751 10750 ] final   63.93 input  -60.55 | X-H torsion
[ 11005 11000 10999 10996 ] final   38.50 input  -57.11 | X-H torsion

> <Gold.Protein.ActiveResidues>
 VAL166  LYS551  ARG553  GLY616  TRP617  ASP618  TYR619  PRO620  LYS621  CYS622 
 ASP623  PHE694  ASN695  SER759  ASP760  ASP761  ALA762  ILE779  LEU786  VAL792 
 PHE793  MET794  SER795  GLU796  ALA797  LYS798  CYS799  TRP800  GLU811  SER814 

> <Gold.Protein.RotatedAtoms>
  150.8179  133.8305  159.3152 H   0  0  0  0  0  0  0  0  0  0  0  0  # atno 6907 bound_to 6896
  151.6072  135.1041  160.0082 H   0  0  0  0  0  0  0  0  0  0  0  0  # atno 6908 bound_to 6896
  152.4269  133.7170  159.6568 H   0  0  0  0  0  0  0  0  0  0  0  0  # atno 6909 bound_to 6896
  145.5634  140.9478  143.1435 H   0  0  0  0  0  0  0  0  0  0  0  0  # atno 7974 bound_to 7965
  154.4194  140.1749  156.1657 H   0  0  0  0  0  0  0  0  0  0  0  0  # atno 8008 bound_to 7997
  155.9802  140.3378  155.6631 H   0  0  0  0  0  0  0  0  0  0  0  0  # atno 8009 bound_to 7997
  155.6510  140.0690  157.2577 H   0  0  0  0  0  0  0  0  0  0  0  0  # atno 8010 bound_to 7997
  140.5302  143.9854  150.6461 H   0  0  0  0  0  0  0  0  0  0  0  0  # atno 10167 bound_to 10162
  157.6352  130.9431  150.0529 H   0  0  0  0  0  0  0  0  0  0  0  0  # atno 10718 bound_to 10713
  153.0036  135.5411  154.6430 H   0  0  0  0  0  0  0  0  0  0  0  0  # atno 10763 bound_to 10752
  154.5681  135.2839  155.0857 H   0  0  0  0  0  0  0  0  0  0  0  0  # atno 10764 bound_to 10752
  154.2033  135.6480  153.5146 H   0  0  0  0  0  0  0  0  0  0  0  0  # atno 10765 bound_to 10752
  140.2120  134.3744  155.8045 H   0  0  0  0  0  0  0  0  0  0  0  0  # atno 11005 bound_to 11000
  144.7472  139.7289  143.7287 LP  0  0  0  0  0  0  0  0  0  0  0  0  # atno 17320 bound_to 7965
  146.1835  139.5039  142.9851 LP  0  0  0  0  0  0  0  0  0  0  0  0  # atno 17321 bound_to 7965
  140.3227  143.3127  152.0768 LP  0  0  0  0  0  0  0  0  0  0  0  0  # atno 17342 bound_to 10162
  139.4952  144.6563  151.6566 LP  0  0  0  0  0  0  0  0  0  0  0  0  # atno 17343 bound_to 10162
  156.1585  130.3643  149.9333 LP  0  0  0  0  0  0  0  0  0  0  0  0  # atno 17370 bound_to 10713
  156.7336  130.9053  151.3627 LP  0  0  0  0  0  0  0  0  0  0  0  0  # atno 17371 bound_to 10713
  141.2226  133.7148  156.8433 LP  0  0  0  0  0  0  0  0  0  0  0  0  # atno 17394 bound_to 11000
  140.1941  134.8944  157.3094 LP  0  0  0  0  0  0  0  0  0  0  0  0  # atno 17395 bound_to 11000

$$$$
