AV-unprocessed.smi:323|AV-procd|sdf|2339|dock1
  -GOLD-   2262022253D 1   1.00000     0.00000
 Structure written by MMmdl.
 41 42  0  0  0  0  0  0  0  0  1 V2000
  153.0006  143.1925  159.3690 C   0  0  0  0  0  0  0  0  0  0  0  0
  152.0538  144.0212  158.4864 C   0  0  0  0  0  0  0  0  0  0  0  0
  151.7243  145.3623  159.1573 C   0  0  0  0  0  0  0  0  0  0  0  0
  150.7641  143.2520  158.1162 C   0  0  0  0  0  0  0  0  0  0  0  0
  150.9799  141.9573  157.3036 C   0  0  0  0  0  0  0  0  0  0  0  0
  150.9374  140.7729  158.1534 N   0  0  0  0  0  0  0  0  0  0  0  0
  151.7992  139.7453  158.0954 C   0  0  0  0  0  0  0  0  0  0  0  0
  152.6431  139.6138  157.2093 O   0  0  0  0  0  0  0  0  0  0  0  0
  151.7279  138.7364  159.2438 C   0  0  0  0  0  0  0  0  0  0  0  0
  150.5638  137.8158  159.0150 C   0  0  0  0  0  0  0  0  0  0  0  0
  150.1041  137.3486  157.8081 C   0  0  0  0  0  0  0  0  0  0  0  0
  148.7955  136.2139  158.0029 S   0  0  0  0  0  0  0  0  0  0  0  0
  148.9170  136.4249  159.7519 C   0  0  0  0  0  0  0  0  0  0  0  0
  148.1565  135.7400  160.7459 N   0  0  0  0  0  0  0  0  0  0  0  0
  147.9490  134.2953  160.6977 C   0  0  0  0  0  0  0  0  0  0  0  0
  146.8795  133.9897  161.7506 C   0  0  0  0  0  0  0  0  0  0  0  0
  146.8124  135.2364  162.6296 C   0  0  0  0  0  0  0  0  0  0  0  0
  147.5449  136.2870  161.8113 C   0  0  0  0  0  0  0  0  0  0  0  0
  147.5377  137.4737  162.1348 O   0  0  0  0  0  0  0  0  0  0  0  0
  149.8481  137.3148  160.1078 N   0  0  0  0  0  0  0  0  0  0  0  0
  152.5157  142.8934  160.2985 H   0  0  0  0  0  0  0  0  0  0  0  0
  153.8926  143.7637  159.6285 H   0  0  0  0  0  0  0  0  0  0  0  0
  153.3354  142.2897  158.8596 H   0  0  0  0  0  0  0  0  0  0  0  0
  152.5870  144.2626  157.5695 H   0  0  0  0  0  0  0  0  0  0  0  0
  151.1884  145.2165  160.0956 H   0  0  0  0  0  0  0  0  0  0  0  0
  151.1037  145.9825  158.5100 H   0  0  0  0  0  0  0  0  0  0  0  0
  152.6325  145.9261  159.3736 H   0  0  0  0  0  0  0  0  0  0  0  0
  150.2095  143.0154  159.0249 H   0  0  0  0  0  0  0  0  0  0  0  0
  150.1138  143.9108  157.5389 H   0  0  0  0  0  0  0  0  0  0  0  0
  150.2125  141.8573  156.5367 H   0  0  0  0  0  0  0  0  0  0  0  0
  151.9314  142.0043  156.7718 H   0  0  0  0  0  0  0  0  0  0  0  0
  150.2763  140.7880  158.9168 H   0  0  0  0  0  0  0  0  0  0  0  0
  152.6634  138.1783  159.3035 H   0  0  0  0  0  0  0  0  0  0  0  0
  151.6214  139.2699  160.1893 H   0  0  0  0  0  0  0  0  0  0  0  0
  150.4748  137.5802  156.8207 H   0  0  0  0  0  0  0  0  0  0  0  0
  147.6329  133.9575  159.7104 H   0  0  0  0  0  0  0  0  0  0  0  0
  148.8867  133.7943  160.9419 H   0  0  0  0  0  0  0  0  0  0  0  0
  145.9155  133.8256  161.2671 H   0  0  0  0  0  0  0  0  0  0  0  0
  147.1180  133.0936  162.3239 H   0  0  0  0  0  0  0  0  0  0  0  0
  145.7854  135.5369  162.8396 H   0  0  0  0  0  0  0  0  0  0  0  0
  147.3344  135.0853  163.5750 H   0  0  0  0  0  0  0  0  0  0  0  0
  1  2  1  0  0  0  0
  1 21  1  0  0  0  0
  1 22  1  0  0  0  0
  1 23  1  0  0  0  0
  2  3  1  0  0  0  0
  2  4  1  0  0  0  0
  2 24  1  0  0  0  0
  3 25  1  0  0  0  0
  3 26  1  0  0  0  0
  3 27  1  0  0  0  0
  4  5  1  0  0  0  0
  4 28  1  0  0  0  0
  4 29  1  0  0  0  0
  5  6  1  0  0  0  0
  5 30  1  0  0  0  0
  5 31  1  0  0  0  0
  6  7  1  0  0  0  0
  6 32  1  0  0  0  0
  7  8  2  0  0  0  0
  7  9  1  0  0  0  0
  9 10  1  0  0  0  0
  9 33  1  0  0  0  0
  9 34  1  0  0  0  0
 10 20  1  0  0  0  0
 10 11  2  0  0  0  0
 11 12  1  0  0  0  0
 11 35  1  0  0  0  0
 12 13  1  0  0  0  0
 13 14  1  0  0  0  0
 13 20  2  0  0  0  0
 14 18  1  0  0  0  0
 14 15  1  0  0  0  0
 15 16  1  0  0  0  0
 15 36  1  0  0  0  0
 15 37  1  0  0  0  0
 16 17  1  0  0  0  0
 16 38  1  0  0  0  0
 16 39  1  0  0  0  0
 17 18  1  0  0  0  0
 17 40  1  0  0  0  0
 17 41  1  0  0  0  0
 18 19  2  0  0  0  0
M  END
> <s_m_source_file>
AV-unprocessed.smi

> <i_m_source_file_index>
323

> <i_lp_mmshare_version>
43012

> <i_f3d_flags>
0

> <s_epik_input>
W0NIM11bQ0hdKFtDSDNdKVtDSDJdW0NIMl1bTkhdQyg9TylbQ0gyXWMxW2NIXXNjKG4xKU4yW0NIMl1bQ0gyXVtDSDJdQzI9Tw==

> <s_epik_cmdline>
J2VwaWtfcHl0aG9uJywgJy1waCcsICc3LjAnLCAnLXRuJywgJzgnLCAnLW1hJywgJzIwMCcsICctbWV0YWxfYmluZGluZycsICctaW1hZScsICc8aW5maWxlLm1hZT4nLCAnLW9tYWUnLCAnPG91dGZpbGUubWFlPic=

> <r_lp_tautomer_probability>
1

> <r_epik_Ionization_Penalty>
3.047e-05

> <r_epik_Ionization_Penalty_Charging>
0

> <r_epik_Ionization_Penalty_Neutral>
3.047e-05

> <r_epik_State_Penalty>
-0

> <r_epik_Charging_Adjusted_Penalty>
0

> <i_epik_Tot_Q>
0

> <i_epik_Tot_abs_Q>
0

> <r_epik_Metal_State_Penalty>
-0

> <b_epik_Metal_Only>
0

> <s_lp_Force_Field>
OPLS_2005

> <r_lp_Energy>
17.0488

> <b_lp_Chiralities_Consistent>
1

> <s_lp_Variant>
AV-unprocessed.smi:323-1

> <Gold.Version>
5.8.1

> <Gold.Id.Protein>
6NUR|6NUR_protein|mol2

> <Gold.PLP.Fitness>
47.2950

> <Gold.PLP.PLP>
-43.8229

> <Gold.PLP.part.hbond>
-3.8049

> <Gold.PLP.part.metal>
0.0000

> <Gold.PLP.part.buried>
-4.8414

> <Gold.PLP.part.nonpolar>
-35.4022

> <Gold.PLP.part.repulsive>
0.1153

> <Gold.PLP.ligand.clash>
0.0000

> <Gold.PLP.ligand.torsion>
1.7636

> <Gold.PLP.Chemscore.Hbond>
2.3056

> <Gold.PLP.Chemscore.CHOScore>
0.0000

> <Gold.PLP.Chemscore.Metal>
0.0000

> <Gold.Chemscore.Hbonds>
donor molecule, donor type, donor heavy atom, donor atom, acceptor molecule, acceptor atom, score
      P1  H  6931  6943       L1    19  0.77
      P1  H  6934  6947       L1    19  0.54
      P1  H  7997  8009       L1     8  1.00

> <Gold.PLP.Chemscore.Internal.Correction>
0.0826

> <Gold.Rescore>
     Score         DG    S(hbond)    S(metal)    S(lipo)     H(rot)  DE(clash)    DE(int)     intcor
     18.53     -20.30       2.69        0.00      88.14       1.74       0.01       1.76       ----

> <Gold.Chemscore.Fitness>
18.5274

> <Gold.Chemscore.DG>
-20.2963

> <Gold.Chemscore.ZeroCoef>
-5.4800

> <Gold.Chemscore.Hbond>
2.6856

> <Gold.Chemscore.Metal>
0.0000

> <Gold.Chemscore.Lipo>
88.1412

> <Gold.Chemscore.Internal_Hbond>
0.0000

> <Gold.Chemscore.DEClash>
0.0073

> <Gold.Chemscore.DEInternal>
1.7616

> <Gold.Chemscore.Rot>
1.7446

> <Gold.Chemscore.Internal.Correction>
   9.000000E+99

> <Gold.Chemscore.Hbonds>
donor molecule, donor type, donor heavy atom, donor atom, acceptor molecule, acceptor atom, score
      P1  H  6931  6943       L1    19  0.70
      P1  H  6934  6947       L1    19  0.53
      P1  H  7997  8009       L1     8  1.00

> <Gold.Chemscore.Hbond.Weighted>
-8.9700

> <Gold.Chemscore.Metal.Weighted>
-0.0000

> <Gold.Chemscore.Lipo.Weighted>
-10.3125

> <Gold.Chemscore.Internal_Hbond.Weighted>
0.0000

> <Gold.Chemscore.DEClash.Weighted>
0.0073

> <Gold.Chemscore.DEInternal.Weighted>
1.7616

> <Gold.Chemscore.Rot.Weighted>
4.4662

> <Gold.Chemscore.Internal.Correction.Weighted>
   9.000000E+99

> <Gold.Protein.RotatedTorsions>
[ 6907 6896 6895 6894 ] final  171.70 input  -60.11 | X-H torsion
[ 7974 7965 7964 7962 ] final   13.10 input  175.53 | X-H torsion
[ 8008 7997 7996 7995 ] final  171.13 input   59.86 | X-H torsion
[ 10167 10162 10161 10158 ] final  -23.37 input  -65.29 | X-H torsion
[ 10718 10713 10712 10709 ] final   36.68 input   66.30 | X-H torsion
[ 10763 10752 10751 10750 ] final  176.51 input  -60.55 | X-H torsion
[ 11005 11000 10999 10996 ] final   86.04 input  -57.11 | X-H torsion

> <Gold.Protein.ActiveResidues>
 VAL166  LYS551  ARG553  GLY616  TRP617  ASP618  TYR619  PRO620  LYS621  CYS622 
 ASP623  PHE694  ASN695  SER759  ASP760  ASP761  ALA762  ILE779  LEU786  VAL792 
 PHE793  MET794  SER795  GLU796  ALA797  LYS798  CYS799  TRP800  GLU811  SER814 

> <Gold.Protein.RotatedAtoms>
  151.7960  133.3364  159.3512 H   0  0  0  0  0  0  0  0  0  0  0  0  # atno 6907 bound_to 6896
  150.7375  134.5798  159.5942 H   0  0  0  0  0  0  0  0  0  0  0  0  # atno 6908 bound_to 6896
  152.3176  134.7421  160.0373 H   0  0  0  0  0  0  0  0  0  0  0  0  # atno 6909 bound_to 6896
  146.2337  139.9239  142.8506 H   0  0  0  0  0  0  0  0  0  0  0  0  # atno 7974 bound_to 7965
  156.1300  140.1520  156.9079 H   0  0  0  0  0  0  0  0  0  0  0  0  # atno 8008 bound_to 7997
  154.4902  140.0853  156.7616 H   0  0  0  0  0  0  0  0  0  0  0  0  # atno 8009 bound_to 7997
  155.4273  140.3425  155.4279 H   0  0  0  0  0  0  0  0  0  0  0  0  # atno 8010 bound_to 7997
  140.7288  143.4449  151.0601 H   0  0  0  0  0  0  0  0  0  0  0  0  # atno 10167 bound_to 10162
  157.3378  130.7532  149.6891 H   0  0  0  0  0  0  0  0  0  0  0  0  # atno 10718 bound_to 10713
  154.4821  135.2775  155.1562 H   0  0  0  0  0  0  0  0  0  0  0  0  # atno 10763 bound_to 10752
  154.3268  135.6198  153.5536 H   0  0  0  0  0  0  0  0  0  0  0  0  # atno 10764 bound_to 10752
  152.9876  135.5756  154.5224 H   0  0  0  0  0  0  0  0  0  0  0  0  # atno 10765 bound_to 10752
  139.8955  134.8328  156.2666 H   0  0  0  0  0  0  0  0  0  0  0  0  # atno 11005 bound_to 11000
  145.2110  140.9895  143.4101 LP  0  0  0  0  0  0  0  0  0  0  0  0  # atno 17320 bound_to 7965
  144.9692  139.3898  143.6317 LP  0  0  0  0  0  0  0  0  0  0  0  0  # atno 17321 bound_to 7965
  139.8120  143.7938  152.3172 LP  0  0  0  0  0  0  0  0  0  0  0  0  # atno 17342 bound_to 10162
  139.7990  144.7381  150.9850 LP  0  0  0  0  0  0  0  0  0  0  0  0  # atno 17343 bound_to 10162
  155.9704  130.4176  150.4289 LP  0  0  0  0  0  0  0  0  0  0  0  0  # atno 17370 bound_to 10713
  157.2331  131.0508  151.2480 LP  0  0  0  0  0  0  0  0  0  0  0  0  # atno 17371 bound_to 10713
  141.0128  133.7086  156.1139 LP  0  0  0  0  0  0  0  0  0  0  0  0  # atno 17394 bound_to 11000
  140.7343  134.4220  157.5562 LP  0  0  0  0  0  0  0  0  0  0  0  0  # atno 17395 bound_to 11000

$$$$
