#       Name:                AV-unprocessed.smi:691
#       Creating user name   scv26
#       Creation time:       Fri Mar 27 00:34:27 2020


#       File generated by GOLD software.
#

@<TRIPOS>MOLECULE
AV-unprocessed.smi:691
    42    43     1
SMALL
NO_CHARGES


@<TRIPOS>ATOM
      1 ****        -0.6918   1.0511   2.2659 C.3            1 S1                 0.0000
      2 ****        -0.2914  -0.4470   2.2882 C.3            1 S1                 0.0000
      3 ****         1.2329  -0.5797   2.5215 C.3            1 S1                 0.0000
      4 ****         1.6266  -0.0252   3.7610 O.3            1 S1                 0.0000
      5 ****        -1.0961  -1.1823   3.3756 C.3            1 S1                 0.0000
      6 ****        -2.4402  -1.5131   2.7333 C.3            1 S1                 0.0000
      7 ****        -2.1143  -1.8034   1.2675 C.3            1 S1                 0.0000
      8 ****        -0.7232  -1.1973   0.9926 C.3            1 S1                 0.0000
      9 ****        -0.7553  -0.3523  -0.2019 N.am           1 S1                 0.0000
     10 ****         0.2569  -0.1897  -1.0656 C.2            1 S1                 0.0000
     11 ****         1.3493  -0.7434  -0.9445 O.2            1 S1                 0.0000
     12 ****        -0.0783   0.6638  -2.0481 N.am           1 S1                 0.0000
     13 ****         0.6951   1.0822  -3.1650 C.ar           1 S1                 0.0000
     14 ****         1.8185   0.3824  -3.6692 C.ar           1 S1                 0.0000
     15 ****         2.4875   0.8941  -4.7979 C.ar           1 S1                 0.0000
     16 ****         2.0069   2.0805  -5.3848 C.ar           1 S1                 0.0000
     17 ****         0.9313   2.7515  -4.9221 N.ar           1 S1                 0.0000
     18 ****         0.2946   2.2547  -3.8402 C.ar           1 S1                 0.0000
     19 ****        -0.5335   1.5205   3.2372 H              1 S1                 0.0000
     20 ****        -1.7429   1.1877   2.0111 H              1 S1                 0.0000
     21 ****        -0.1027   1.6137   1.5409 H              1 S1                 0.0000
     22 ****         1.5381  -1.6267   2.5060 H              1 S1                 0.0000
     23 ****         1.7868  -0.0787   1.7274 H              1 S1                 0.0000
     24 ****         2.5617  -0.1275   3.8515 H              1 S1                 0.0000
     25 ****        -0.5952  -2.1141   3.6430 H              1 S1                 0.0000
     26 ****        -1.2067  -0.6026   4.2927 H              1 S1                 0.0000
     27 ****        -2.9390  -2.3500   3.2227 H              1 S1                 0.0000
     28 ****        -3.1048  -0.6511   2.8009 H              1 S1                 0.0000
     29 ****        -2.0892  -2.8796   1.0917 H              1 S1                 0.0000
     30 ****        -2.8890  -1.3935   0.6175 H              1 S1                 0.0000
     31 ****        -0.0473  -2.0378   0.8214 H              1 S1                 0.0000
     32 ****        -1.6132   0.1503  -0.3762 H              1 S1                 0.0000
     33 ****        -0.9845   1.1009  -1.9644 H              1 S1                 0.0000
     34 ****         2.1715  -0.5366  -3.2284 H              1 S1                 0.0000
     35 ****         3.3473   0.3851  -5.2077 H              1 S1                 0.0000
     36 ****         2.4959   2.4985  -6.2521 H              1 S1                 0.0000
     37 ****        -0.5634   2.8162  -3.5004 H              1 S1                 0.0000
     38 ****         1.1613  -0.5019   4.5068 LP             1 S1                 0.0000
     39 ****         1.3894   0.9459   3.7867 LP             1 S1                 0.0000
     40 ****         1.5180  -1.3525  -0.1696 LP             1 S1                 0.0000
     41 ****         2.0683  -0.5843  -1.6211 LP             1 S1                 0.0000
     42 ****         0.6160   3.5900  -5.3665 LP             1 S1                 0.0000
@<TRIPOS>BOND
    1    1    2 1     
    2    1   19 1     
    3    1   20 1     
    4    1   21 1     
    5    2    8 1     
    6    2    3 1     
    7    2    5 1     
    8    3    4 1     
    9    3   22 1     
   10    3   23 1     
   11    4   24 1     
   12    5    6 1     
   13    5   25 1     
   14    5   26 1     
   15    6    7 1     
   16    6   27 1     
   17    6   28 1     
   18    7    8 1     
   19    7   29 1     
   20    7   30 1     
   21    8    9 1     
   22    8   31 1     
   23    9   10 am    
   24    9   32 1     
   25   10   11 2     
   26   10   12 am    
   27   12   13 1     
   28   12   33 1     
   29   13   18 ar    
   30   13   14 ar    
   31   14   15 ar    
   32   14   34 1     
   33   15   16 ar    
   34   15   35 1     
   35   16   17 ar    
   36   16   36 1     
   37   17   18 ar    
   38   18   37 1     
   39    4   38 1     
   40    4   39 1     
   41   11   40 1     
   42   11   41 1     
   43   17   42 1     
@<TRIPOS>SUBSTRUCTURE
      1 S1             1
@<TRIPOS>SET
LONE_PAIRS      STATIC     ATOMS    <user>   **** ""
5 38 39 40 41 42
DONOR_HYDROGENS      STATIC     ATOMS    <user>   **** ""
3 24 32 33
ATOM$BLUE        STATIC     ATOMS    COLORGROUP SYSTEM
5 38 39 40 41 42
ATOM$RED        STATIC     ATOMS    COLORGROUP SYSTEM
3 24 32 33
