AV-unprocessed.smi:3245|AV-procd|sdf|12407|dock9
  -GOLD-   2272018283D 1   1.00000     0.00000
 Structure written by MMmdl.
 35 36  0  0  0  0  0  0  0  0  3 V2000
  146.6533  139.8481  153.9560 C   0  0  0  0  0  0  0  0  0  0  0  0
  147.0397  138.6105  153.1352 C   0  0  1  0  0  0  0  0  0  0  0  0
  146.2359  138.5569  151.8177 C   0  0  0  0  0  0  0  0  0  0  0  0
  145.4872  137.3227  151.6617 N   0  0  0  0  0  0  0  0  0  0  0  0
  144.4670  136.8317  152.4486 C   0  0  0  0  0  0  0  0  0  0  0  0
  144.0956  135.6265  151.9252 C   0  0  0  0  0  0  0  0  0  0  0  0
  144.9550  135.4651  150.8027 C   0  0  0  0  0  0  0  0  0  0  0  0
  145.7849  136.4839  150.6457 N   0  0  0  0  0  0  0  0  0  0  0  0
  148.4970  138.6283  152.8732 N   0  3  0  0  0  0  0  0  0  0  0  0
  149.3362  138.9151  154.0540 C   0  0  0  0  0  0  0  0  0  0  0  0
  150.6961  138.2123  153.9450 C   0  0  0  0  0  0  0  0  0  0  0  0
  151.4994  138.4383  155.1488 N   0  0  0  0  0  0  0  0  0  0  0  0
  151.9379  137.4688  155.9568 C   0  0  0  0  0  0  0  0  0  0  0  0
  151.7481  136.2568  155.8545 O   0  0  0  0  0  0  0  0  0  0  0  0
  152.7503  138.1215  157.0506 C   0  0  0  0  0  0  0  0  0  0  0  0
  152.6836  139.5204  156.6911 N   0  5  0  0  0  0  0  0  0  0  0  0
  151.9393  139.6402  155.5678 C   0  0  0  0  0  0  0  0  0  0  0  0
  151.6777  140.6804  154.9644 O   0  0  0  0  0  0  0  0  0  0  0  0
  145.5888  139.8452  154.1922 H   0  0  0  0  0  0  0  0  0  0  0  0
  146.8705  140.7694  153.4142 H   0  0  0  0  0  0  0  0  0  0  0  0
  147.1984  139.8800  154.9001 H   0  0  0  0  0  0  0  0  0  0  0  0
  146.7948  137.7336  153.7374 H   0  0  0  0  0  0  0  0  0  0  0  0
  145.5258  139.3839  151.7795 H   0  0  0  0  0  0  0  0  0  0  0  0
  146.8987  138.6801  150.9594 H   0  0  0  0  0  0  0  0  0  0  0  0
  144.0993  137.3705  153.3094 H   0  0  0  0  0  0  0  0  0  0  0  0
  143.3291  134.9589  152.2897 H   0  0  0  0  0  0  0  0  0  0  0  0
  145.0023  134.6426  150.1043 H   0  0  0  0  0  0  0  0  0  0  0  0
  148.7605  137.7286  152.4968 H   0  0  0  0  0  0  0  0  0  0  0  0
  149.4706  139.9941  154.1407 H   0  0  0  0  0  0  0  0  0  0  0  0
  148.8275  138.5858  154.9597 H   0  0  0  0  0  0  0  0  0  0  0  0
  150.5526  137.1405  153.7968 H   0  0  0  0  0  0  0  0  0  0  0  0
  151.2307  138.5652  153.0614 H   0  0  0  0  0  0  0  0  0  0  0  0
  152.3063  137.9048  158.0228 H   0  0  0  0  0  0  0  0  0  0  0  0
  153.7654  137.7234  157.0466 H   0  0  0  0  0  0  0  0  0  0  0  0
  148.6920  139.3370  152.1808 H   0  0  0  0  0  0  0  0  0  0  0  0
  1  2  1  0  0  0  0
  1 19  1  0  0  0  0
  1 20  1  0  0  0  0
  1 21  1  0  0  0  0
  2  3  1  0  0  0  0
  2  9  1  0  0  0  0
  2 22  1  0  0  0  0
  3  4  1  0  0  0  0
  3 23  1  0  0  0  0
  3 24  1  0  0  0  0
  4  8  1  0  0  0  0
  4  5  1  0  0  0  0
  5  6  2  0  0  0  0
  5 25  1  0  0  0  0
  6  7  1  0  0  0  0
  6 26  1  0  0  0  0
  7  8  2  0  0  0  0
  7 27  1  0  0  0  0
  9 10  1  0  0  0  0
  9 28  1  0  0  0  0
  9 35  1  0  0  0  0
 10 11  1  0  0  0  0
 10 29  1  0  0  0  0
 10 30  1  0  0  0  0
 11 12  1  0  0  0  0
 11 31  1  0  0  0  0
 11 32  1  0  0  0  0
 12 17  1  0  0  0  0
 12 13  1  0  0  0  0
 13 14  2  0  0  0  0
 13 15  1  0  0  0  0
 15 16  1  0  0  0  0
 15 33  1  0  0  0  0
 15 34  1  0  0  0  0
 16 17  1  0  0  0  0
 17 18  2  0  0  0  0
M  CHG  1   9   1
M  CHG  1  16  -1
M  END
> <s_m_source_file>
AV-unprocessed.smi

> <i_m_source_file_index>
3245

> <i_lp_mmshare_version>
43012

> <i_f3d_flags>
0

> <s_epik_input>
bjFbY0hdW2NIXVtjSF1uMVtDSDJdW0NAQEhdKFtDSDNdKVtOSF1bQ0gyXVtDSDJdTjJDKD1PKVtDSDJdW05IXUMyPU8=

> <s_epik_cmdline>
J2VwaWtfcHl0aG9uJywgJy1waCcsICc3LjAnLCAnLXRuJywgJzgnLCAnLW1hJywgJzIwMCcsICctbWV0YWxfYmluZGluZycsICctaW1hZScsICc8aW5maWxlLm1hZT4nLCAnLW9tYWUnLCAnPG91dGZpbGUubWFlPic=

> <r_lp_tautomer_probability>
1

> <r_epik_Ionization_Penalty>
5.1873

> <r_epik_Ionization_Penalty_Charging>
5.18729

> <r_epik_Ionization_Penalty_Neutral>
3.83745e-06

> <r_epik_State_Penalty>
5.18822

> <r_epik_Charging_Adjusted_Penalty>
10.3755

> <i_epik_Tot_Q>
0

> <i_epik_Tot_abs_Q>
2

> <r_epik_Metal_State_Penalty>
1.25934

> <b_epik_Metal_Only>
1

> <s_lp_Force_Field>
OPLS_2005

> <r_lp_Energy>
10.2516

> <b_lp_Chiralities_Consistent>
1

> <s_lp_Variant>
AV-unprocessed.smi:3245-6

> <Gold.Version>
5.8.1

> <Gold.Id.Protein>
6NUR|6NUR_protein|mol2

> <Gold.PLP.Fitness>
50.3910

> <Gold.PLP.PLP>
-29.0980

> <Gold.PLP.part.hbond>
-5.0000

> <Gold.PLP.part.metal>
0.0000

> <Gold.PLP.part.buried>
-1.1402

> <Gold.PLP.part.nonpolar>
-25.4564

> <Gold.PLP.part.repulsive>
0.6786

> <Gold.PLP.ligand.clash>
0.0000

> <Gold.PLP.ligand.torsion>
1.0171

> <Gold.PLP.Chemscore.Hbond>
6.8000

> <Gold.PLP.Chemscore.CHOScore>
0.9497

> <Gold.PLP.Chemscore.Metal>
0.0000

> <Gold.Chemscore.Hbonds>
donor molecule, donor type, donor heavy atom, donor atom, acceptor molecule, acceptor atom, score
      L1  H     9    28       P1  7948  2.00
      L1  H     9    35       P1  7957  0.99
      P1  H  7989  7998       L1    18  0.60
      P1  H  7997  8008       L1    16  2.00
      P1  H 10752 10765       L1    14  1.00
      L1  C     7    27       P1  7921  0.46

> <Gold.PLP.Chemscore.Internal.Correction>
0.0782

> <Gold.Rescore>
     Score         DG    S(hbond)    S(metal)    S(lipo)     H(rot)  DE(clash)    DE(int)     intcor
     16.41     -18.17       4.06        0.00      50.82       2.66       0.06       1.70       ----

> <Gold.Chemscore.Fitness>
16.4101

> <Gold.Chemscore.DG>
-18.1692

> <Gold.Chemscore.ZeroCoef>
-5.4800

> <Gold.Chemscore.Hbond>
4.0578

> <Gold.Chemscore.Metal>
0.0000

> <Gold.Chemscore.Lipo>
50.8194

> <Gold.Chemscore.Internal_Hbond>
0.0000

> <Gold.Chemscore.DEClash>
0.0563

> <Gold.Chemscore.DEInternal>
1.7028

> <Gold.Chemscore.Rot>
2.6601

> <Gold.Chemscore.Internal.Correction>
   9.000000E+99

> <Gold.Chemscore.Hbonds>
donor molecule, donor type, donor heavy atom, donor atom, acceptor molecule, acceptor atom, score
      L1  H     9    28       P1  7948  0.99
      L1  H     9    35       P1  7957  0.90
      P1  H  7989  7998       L1    18  0.59
      P1  H  7997  8008       L1    16  0.43
      P1  H 10752 10765       L1    14  0.74

> <Gold.Chemscore.Hbond.Weighted>
-13.5531

> <Gold.Chemscore.Metal.Weighted>
-0.0000

> <Gold.Chemscore.Lipo.Weighted>
-5.9459

> <Gold.Chemscore.Internal_Hbond.Weighted>
0.0000

> <Gold.Chemscore.DEClash.Weighted>
0.0563

> <Gold.Chemscore.DEInternal.Weighted>
1.7028

> <Gold.Chemscore.Rot.Weighted>
6.8098

> <Gold.Chemscore.Internal.Correction.Weighted>
   9.000000E+99

> <Gold.Protein.RotatedTorsions>
[ 6907 6896 6895 6894 ] final  140.14 input  -60.11 | X-H torsion
[ 7974 7965 7964 7962 ] final  116.86 input  175.53 | X-H torsion
[ 8008 7997 7996 7995 ] final  -69.50 input   59.86 | X-H torsion
[ 10167 10162 10161 10158 ] final -178.65 input  -65.29 | X-H torsion
[ 10718 10713 10712 10709 ] final -179.11 input   66.30 | X-H torsion
[ 10763 10752 10751 10750 ] final -147.16 input  -60.55 | X-H torsion
[ 11005 11000 10999 10996 ] final  -67.24 input  -57.11 | X-H torsion

> <Gold.Protein.ActiveResidues>
 VAL166  LYS551  ARG553  GLY616  TRP617  ASP618  TYR619  PRO620  LYS621  CYS622 
 ASP623  PHE694  ASN695  SER759  ASP760  ASP761  ALA762  ILE779  LEU786  VAL792 
 PHE793  MET794  SER795  GLU796  ALA797  LYS798  CYS799  TRP800  GLU811  SER814 

> <Gold.Protein.RotatedAtoms>
  152.2466  133.5180  159.5300 H   0  0  0  0  0  0  0  0  0  0  0  0  # atno 6907 bound_to 6896
  150.7080  134.1016  159.3977 H   0  0  0  0  0  0  0  0  0  0  0  0  # atno 6908 bound_to 6896
  151.8937  135.0406  160.0551 H   0  0  0  0  0  0  0  0  0  0  0  0  # atno 6909 bound_to 6896
  145.1744  139.3084  143.4451 H   0  0  0  0  0  0  0  0  0  0  0  0  # atno 7974 bound_to 7965
  154.4943  140.0852  156.7662 H   0  0  0  0  0  0  0  0  0  0  0  0  # atno 8008 bound_to 7997
  155.4155  140.3443  155.4249 H   0  0  0  0  0  0  0  0  0  0  0  0  # atno 8009 bound_to 7997
  156.1372  140.1519  156.8963 H   0  0  0  0  0  0  0  0  0  0  0  0  # atno 8010 bound_to 7997
  139.5422  144.2331  152.0919 H   0  0  0  0  0  0  0  0  0  0  0  0  # atno 10167 bound_to 10162
  156.8543  130.9730  151.3089 H   0  0  0  0  0  0  0  0  0  0  0  0  # atno 10718 bound_to 10713
  154.8300  135.3367  154.6774 H   0  0  0  0  0  0  0  0  0  0  0  0  # atno 10763 bound_to 10752
  153.7395  135.6946  153.4975 H   0  0  0  0  0  0  0  0  0  0  0  0  # atno 10764 bound_to 10752
  153.2254  135.4434  155.0487 H   0  0  0  0  0  0  0  0  0  0  0  0  # atno 10765 bound_to 10752
  141.1503  133.6715  156.6263 H   0  0  0  0  0  0  0  0  0  0  0  0  # atno 11005 bound_to 11000
  146.3463  140.1901  142.8589 LP  0  0  0  0  0  0  0  0  0  0  0  0  # atno 17320 bound_to 7965
  145.0200  140.8785  143.5173 LP  0  0  0  0  0  0  0  0  0  0  0  0  # atno 17321 bound_to 7965
  140.1811  144.4843  150.6528 LP  0  0  0  0  0  0  0  0  0  0  0  0  # atno 17342 bound_to 10162
  140.6657  143.2267  151.5748 LP  0  0  0  0  0  0  0  0  0  0  0  0  # atno 17343 bound_to 10162
  157.6286  130.8711  149.9233 LP  0  0  0  0  0  0  0  0  0  0  0  0  # atno 17370 bound_to 10713
  156.0811  130.3673  150.0579 LP  0  0  0  0  0  0  0  0  0  0  0  0  # atno 17371 bound_to 10713
  140.3502  134.7775  157.4461 LP  0  0  0  0  0  0  0  0  0  0  0  0  # atno 17394 bound_to 11000
  140.0867  134.5657  155.8485 LP  0  0  0  0  0  0  0  0  0  0  0  0  # atno 17395 bound_to 11000

$$$$
