AV-unprocessed.smi:1796|AV-procd|sdf|7251|dock6
  -GOLD-   22720 8503D 1   1.00000     0.00000
 Structure written by MMmdl.
 42 43  0  0  0  0  0  0  0  0  1 V2000
  152.2978  144.6401  157.5216 C   0  0  0  0  0  0  0  0  0  0  0  0
  152.0376  144.7727  159.0244 C   0  0  0  0  0  0  0  0  0  0  0  0
  151.9602  145.9056  159.4999 O   0  0  0  0  0  0  0  0  0  0  0  0
  151.9061  143.6529  159.7753 N   0  0  0  0  0  0  0  0  0  0  0  0
  151.7310  143.6864  161.2331 C   0  0  0  0  0  0  0  0  0  0  0  0
  153.0051  143.1386  161.9030 C   0  0  0  0  0  0  0  0  0  0  0  0
  153.3439  141.7282  161.3832 C   0  0  0  0  0  0  0  0  0  0  0  0
  153.3655  141.6857  159.8387 C   0  0  1  0  0  0  0  0  0  0  0  0
  153.5812  140.2615  159.3152 C   0  0  0  0  0  0  0  0  0  0  0  0
  154.7196  139.8509  159.0890 O   0  0  0  0  0  0  0  0  0  0  0  0
  152.4786  139.5092  159.1705 N   0  0  0  0  0  0  0  0  0  0  0  0
  152.4558  138.0786  158.8687 C   0  0  2  0  0  0  0  0  0  0  0  0
  152.9716  137.2953  160.0834 C   0  0  0  0  0  0  0  0  0  0  0  0
  153.2969  137.7908  157.6072 C   0  0  0  0  0  0  0  0  0  0  0  0
  152.6049  138.1499  156.3808 N   0  0  0  0  0  0  0  0  0  0  0  0
  152.1039  139.3807  156.0106 C   0  0  0  0  0  0  0  0  0  0  0  0
  151.5115  139.2279  154.7902 C   0  0  0  0  0  0  0  0  0  0  0  0
  151.7104  137.8514  154.4890 C   0  0  0  0  0  0  0  0  0  0  0  0
  152.3672  137.2092  155.4418 N   0  0  0  0  0  0  0  0  0  0  0  0
  152.0531  142.2791  159.2787 C   0  0  0  0  0  0  0  0  0  0  0  0
  153.2096  144.0725  157.3339 H   0  0  0  0  0  0  0  0  0  0  0  0
  152.4181  145.6231  157.0646 H   0  0  0  0  0  0  0  0  0  0  0  0
  151.4625  144.1435  157.0269 H   0  0  0  0  0  0  0  0  0  0  0  0
  151.5154  144.6869  161.6105 H   0  0  0  0  0  0  0  0  0  0  0  0
  150.8705  143.0743  161.5068 H   0  0  0  0  0  0  0  0  0  0  0  0
  153.8391  143.8117  161.7002 H   0  0  0  0  0  0  0  0  0  0  0  0
  152.8810  143.1176  162.9861 H   0  0  0  0  0  0  0  0  0  0  0  0
  154.3057  141.4075  161.7854 H   0  0  0  0  0  0  0  0  0  0  0  0
  152.6012  141.0251  161.7638 H   0  0  0  0  0  0  0  0  0  0  0  0
  154.1931  142.3078  159.4916 H   0  0  0  0  0  0  0  0  0  0  0  0
  151.5879  139.9422  159.3669 H   0  0  0  0  0  0  0  0  0  0  0  0
  151.4328  137.7478  158.6812 H   0  0  0  0  0  0  0  0  0  0  0  0
  152.9482  136.2216  159.8947 H   0  0  0  0  0  0  0  0  0  0  0  0
  152.3580  137.4872  160.9642 H   0  0  0  0  0  0  0  0  0  0  0  0
  153.9992  137.5681  160.3261 H   0  0  0  0  0  0  0  0  0  0  0  0
  154.2398  138.3383  157.6447 H   0  0  0  0  0  0  0  0  0  0  0  0
  153.5538  136.7315  157.5581 H   0  0  0  0  0  0  0  0  0  0  0  0
  152.1996  140.2499  156.6444 H   0  0  0  0  0  0  0  0  0  0  0  0
  151.0105  139.9834  154.2034 H   0  0  0  0  0  0  0  0  0  0  0  0
  151.3985  137.3035  153.6120 H   0  0  0  0  0  0  0  0  0  0  0  0
  151.1957  141.6932  159.6146 H   0  0  0  0  0  0  0  0  0  0  0  0
  152.0378  142.2073  158.1917 H   0  0  0  0  0  0  0  0  0  0  0  0
  1  2  1  0  0  0  0
  1 21  1  0  0  0  0
  1 22  1  0  0  0  0
  1 23  1  0  0  0  0
  2  3  2  0  0  0  0
  2  4  1  0  0  0  0
  4 20  1  0  0  0  0
  4  5  1  0  0  0  0
  5  6  1  0  0  0  0
  5 24  1  0  0  0  0
  5 25  1  0  0  0  0
  6  7  1  0  0  0  0
  6 26  1  0  0  0  0
  6 27  1  0  0  0  0
  7  8  1  0  0  0  0
  7 28  1  0  0  0  0
  7 29  1  0  0  0  0
  8  9  1  0  0  0  0
  8 20  1  0  0  0  0
  8 30  1  0  0  0  0
  9 10  2  0  0  0  0
  9 11  1  0  0  0  0
 11 12  1  0  0  0  0
 11 31  1  0  0  0  0
 12 13  1  0  0  0  0
 12 14  1  0  0  0  0
 12 32  1  0  0  0  0
 13 33  1  0  0  0  0
 13 34  1  0  0  0  0
 13 35  1  0  0  0  0
 14 15  1  0  0  0  0
 14 36  1  0  0  0  0
 14 37  1  0  0  0  0
 15 19  1  0  0  0  0
 15 16  1  0  0  0  0
 16 17  2  0  0  0  0
 16 38  1  0  0  0  0
 17 18  1  0  0  0  0
 17 39  1  0  0  0  0
 18 19  2  0  0  0  0
 18 40  1  0  0  0  0
 20 41  1  0  0  0  0
 20 42  1  0  0  0  0
M  END
> <s_m_source_file>
AV-unprocessed.smi

> <i_m_source_file_index>
1796

> <i_lp_mmshare_version>
43012

> <i_f3d_flags>
0

> <s_epik_input>
W0NIM11DKD1PKU4xW0NIMl1bQ0gyXVtDSDJdW0NASF0oW0NIMl0xKUMoPU8pW05IXVtDQEhdKFtDSDNdKVtDSDJdbjJbY0hdW2NIXVtjSF1uMg==

> <s_epik_cmdline>
J2VwaWtfcHl0aG9uJywgJy1waCcsICc3LjAnLCAnLXRuJywgJzgnLCAnLW1hJywgJzIwMCcsICctbWV0YWxfYmluZGluZycsICctaW1hZScsICc8aW5maWxlLm1hZT4nLCAnLW9tYWUnLCAnPG91dGZpbGUubWFlPic=

> <r_lp_tautomer_probability>
1

> <r_epik_Ionization_Penalty>
0.000315051

> <r_epik_Ionization_Penalty_Charging>
0

> <r_epik_Ionization_Penalty_Neutral>
0.000315051

> <r_epik_State_Penalty>
-0

> <r_epik_Charging_Adjusted_Penalty>
0

> <i_epik_Tot_Q>
0

> <i_epik_Tot_abs_Q>
0

> <r_epik_Metal_State_Penalty>
-0

> <b_epik_Metal_Only>
0

> <s_lp_Force_Field>
OPLS_2005

> <r_lp_Energy>
23.171

> <b_lp_Chiralities_Consistent>
1

> <s_lp_Variant>
AV-unprocessed.smi:1796-1

> <Gold.Version>
5.8.1

> <Gold.Id.Protein>
6NUR|6NUR_protein|mol2

> <Gold.PLP.Fitness>
53.3708

> <Gold.PLP.PLP>
-46.8546

> <Gold.PLP.part.hbond>
-3.0000

> <Gold.PLP.part.metal>
0.0000

> <Gold.PLP.part.buried>
-5.3322

> <Gold.PLP.part.nonpolar>
-39.0686

> <Gold.PLP.part.repulsive>
0.2958

> <Gold.PLP.ligand.clash>
0.0000

> <Gold.PLP.ligand.torsion>
0.9412

> <Gold.PLP.Chemscore.Hbond>
1.8160

> <Gold.PLP.Chemscore.CHOScore>
0.9720

> <Gold.PLP.Chemscore.Metal>
0.0000

> <Gold.Chemscore.Hbonds>
donor molecule, donor type, donor heavy atom, donor atom, acceptor molecule, acceptor atom, score
      P1  H  7997  8010       L1    10  1.00
      P1  H 10752 10765       L1    19  0.75
      L1  C    18    40       P1  7949  1.00

> <Gold.PLP.Chemscore.Internal.Correction>
0.0347

> <Gold.Rescore>
     Score         DG    S(hbond)    S(metal)    S(lipo)     H(rot)  DE(clash)    DE(int)     intcor
     17.41     -19.50       1.80        0.00     104.19       1.63       0.04       2.05       ----

> <Gold.Chemscore.Fitness>
17.4094

> <Gold.Chemscore.DG>
-19.5004

> <Gold.Chemscore.ZeroCoef>
-5.4800

> <Gold.Chemscore.Hbond>
1.8002

> <Gold.Chemscore.Metal>
0.0000

> <Gold.Chemscore.Lipo>
104.1858

> <Gold.Chemscore.Internal_Hbond>
0.0000

> <Gold.Chemscore.DEClash>
0.0431

> <Gold.Chemscore.DEInternal>
2.0479

> <Gold.Chemscore.Rot>
1.6336

> <Gold.Chemscore.Internal.Correction>
   9.000000E+99

> <Gold.Chemscore.Hbonds>
donor molecule, donor type, donor heavy atom, donor atom, acceptor molecule, acceptor atom, score
      P1  H  7997  8010       L1    10  0.47
      P1  H 10752 10765       L1    19  0.65

> <Gold.Chemscore.Hbond.Weighted>
-6.0128

> <Gold.Chemscore.Metal.Weighted>
-0.0000

> <Gold.Chemscore.Lipo.Weighted>
-12.1897

> <Gold.Chemscore.Internal_Hbond.Weighted>
0.0000

> <Gold.Chemscore.DEClash.Weighted>
0.0431

> <Gold.Chemscore.DEInternal.Weighted>
2.0479

> <Gold.Chemscore.Rot.Weighted>
4.1821

> <Gold.Chemscore.Internal.Correction.Weighted>
   9.000000E+99

> <Gold.Protein.RotatedTorsions>
[ 6907 6896 6895 6894 ] final  152.38 input  -60.11 | X-H torsion
[ 7974 7965 7964 7962 ] final -158.39 input  175.53 | X-H torsion
[ 8008 7997 7996 7995 ] final   12.16 input   59.86 | X-H torsion
[ 10167 10162 10161 10158 ] final  136.89 input  -65.29 | X-H torsion
[ 10718 10713 10712 10709 ] final -104.36 input   66.30 | X-H torsion
[ 10763 10752 10751 10750 ] final -162.37 input  -60.55 | X-H torsion
[ 11005 11000 10999 10996 ] final  -75.64 input  -57.11 | X-H torsion

> <Gold.Protein.ActiveResidues>
 VAL166  LYS551  ARG553  GLY616  TRP617  ASP618  TYR619  PRO620  LYS621  CYS622 
 ASP623  PHE694  ASN695  SER759  ASP760  ASP761  ALA762  ILE779  LEU786  VAL792 
 PHE793  MET794  SER795  GLU796  ALA797  LYS798  CYS799  TRP800  GLU811  SER814 

> <Gold.Protein.RotatedAtoms>
  152.0875  133.4183  159.4528 H   0  0  0  0  0  0  0  0  0  0  0  0  # atno 6907 bound_to 6896
  150.6862  134.2910  159.4676 H   0  0  0  0  0  0  0  0  0  0  0  0  # atno 6908 bound_to 6896
  152.0758  134.9503  160.0624 H   0  0  0  0  0  0  0  0  0  0  0  0  # atno 6909 bound_to 6896
  144.7507  140.3834  143.6050 H   0  0  0  0  0  0  0  0  0  0  0  0  # atno 7974 bound_to 7965
  154.8168  140.2877  155.5815 H   0  0  0  0  0  0  0  0  0  0  0  0  # atno 8008 bound_to 7997
  156.2994  140.2558  156.2997 H   0  0  0  0  0  0  0  0  0  0  0  0  # atno 8009 bound_to 7997
  154.9385  140.0382  157.2074 H   0  0  0  0  0  0  0  0  0  0  0  0  # atno 8010 bound_to 7997
  139.5164  144.6440  151.5491 H   0  0  0  0  0  0  0  0  0  0  0  0  # atno 10167 bound_to 10162
  156.0301  130.5511  150.7385 H   0  0  0  0  0  0  0  0  0  0  0  0  # atno 10718 bound_to 10713
  154.7220  135.3028  154.9032 H   0  0  0  0  0  0  0  0  0  0  0  0  # atno 10763 bound_to 10752
  153.9901  135.6720  153.4758 H   0  0  0  0  0  0  0  0  0  0  0  0  # atno 10764 bound_to 10752
  153.0842  135.4993  154.8481 H   0  0  0  0  0  0  0  0  0  0  0  0  # atno 10765 bound_to 10752
  141.1647  133.6954  156.7547 H   0  0  0  0  0  0  0  0  0  0  0  0  # atno 11005 bound_to 11000
  145.6953  139.1648  143.2623 LP  0  0  0  0  0  0  0  0  0  0  0  0  # atno 17320 bound_to 7965
  146.1454  140.7000  142.9347 LP  0  0  0  0  0  0  0  0  0  0  0  0  # atno 17321 bound_to 7965
  140.6217  143.9245  150.6532 LP  0  0  0  0  0  0  0  0  0  0  0  0  # atno 17342 bound_to 10162
  140.2521  143.3586  152.1397 LP  0  0  0  0  0  0  0  0  0  0  0  0  # atno 17343 bound_to 10162
  157.4959  131.0915  151.0371 LP  0  0  0  0  0  0  0  0  0  0  0  0  # atno 17370 bound_to 10713
  157.0765  130.5885  149.5412 LP  0  0  0  0  0  0  0  0  0  0  0  0  # atno 17371 bound_to 10713
  140.2578  134.8491  157.3729 LP  0  0  0  0  0  0  0  0  0  0  0  0  # atno 17394 bound_to 11000
  140.1641  134.4692  155.7875 LP  0  0  0  0  0  0  0  0  0  0  0  0  # atno 17395 bound_to 11000

$$$$
