AV-unprocessed.smi:101|AV-procd|sdf|917|dock1
  -GOLD-   2262017413D 1   1.00000     0.00000
 Structure written by MMmdl.
 44 46  0  0  0  0  0  0  0  0  1 V2000
  147.4378  136.7913  158.1654 C   0  0  0  0  0  0  0  0  0  0  0  0
  148.6135  136.8751  157.2050 C   0  0  0  0  0  0  0  0  0  0  0  0
  148.7872  137.9223  156.3588 C   0  0  0  0  0  0  0  0  0  0  0  0
  149.8481  138.0285  155.4638 N   0  0  0  0  0  0  0  0  0  0  0  0
  150.0388  139.2334  154.5546 C   0  0  2  0  0  0  0  0  0  0  0  0
  151.0536  140.0449  155.0583 O   0  0  0  0  0  0  0  0  0  0  0  0
  150.4767  141.0251  155.9086 C   0  0  1  0  0  0  0  0  0  0  0  0
  151.4919  142.1390  156.1751 C   0  0  0  0  0  0  0  0  0  0  0  0
  151.5007  142.3833  157.5716 O   0  0  0  0  0  0  0  0  0  0  0  0
  152.2718  141.6463  158.3898 C   0  0  0  0  0  0  0  0  0  0  0  0
  152.7485  140.5533  158.0786 O   0  0  0  0  0  0  0  0  0  0  0  0
  152.4854  142.2946  159.7162 C   0  0  0  0  0  0  0  0  0  0  0  0
  153.2370  141.6189  160.7056 C   0  0  0  0  0  0  0  0  0  0  0  0
  153.4533  142.2061  161.9674 C   0  0  0  0  0  0  0  0  0  0  0  0
  152.9209  143.4765  162.2552 C   0  0  0  0  0  0  0  0  0  0  0  0
  152.1713  144.1591  161.2796 C   0  0  0  0  0  0  0  0  0  0  0  0
  151.9535  143.5736  160.0173 C   0  0  0  0  0  0  0  0  0  0  0  0
  149.2496  141.4474  155.1054 C   0  0  2  0  0  0  0  0  0  0  0  0
  148.2677  141.9977  155.9605 O   0  0  0  0  0  0  0  0  0  0  0  0
  148.7718  140.1246  154.5049 C   0  0  1  0  0  0  0  0  0  0  0  0
  148.3212  140.3227  153.1803 O   0  0  0  0  0  0  0  0  0  0  0  0
  150.8464  137.0314  155.4693 C   0  0  0  0  0  0  0  0  0  0  0  0
  151.8467  137.0872  154.7548 O   0  0  0  0  0  0  0  0  0  0  0  0
  150.6652  135.9524  156.3321 N   0  0  0  0  0  0  0  0  0  0  0  0
  149.5946  135.7872  157.2133 C   0  0  0  0  0  0  0  0  0  0  0  0
  149.5410  134.7842  157.9230 O   0  0  0  0  0  0  0  0  0  0  0  0
  151.3728  135.2321  156.3264 H   0  0  0  0  0  0  0  0  0  0  0  0
  146.7752  137.6529  158.0743 H   0  0  0  0  0  0  0  0  0  0  0  0
  147.7906  136.7495  159.1964 H   0  0  0  0  0  0  0  0  0  0  0  0
  146.8478  135.8956  157.9679 H   0  0  0  0  0  0  0  0  0  0  0  0
  148.0489  138.7083  156.4060 H   0  0  0  0  0  0  0  0  0  0  0  0
  150.3407  138.8112  153.5938 H   0  0  0  0  0  0  0  0  0  0  0  0
  150.1626  140.5662  156.8484 H   0  0  0  0  0  0  0  0  0  0  0  0
  152.4827  141.8540  155.8184 H   0  0  0  0  0  0  0  0  0  0  0  0
  151.1971  143.0512  155.6550 H   0  0  0  0  0  0  0  0  0  0  0  0
  153.6551  140.6422  160.5078 H   0  0  0  0  0  0  0  0  0  0  0  0
  154.0287  141.6804  162.7151 H   0  0  0  0  0  0  0  0  0  0  0  0
  153.0874  143.9265  163.2226 H   0  0  0  0  0  0  0  0  0  0  0  0
  151.7620  145.1343  161.4989 H   0  0  0  0  0  0  0  0  0  0  0  0
  151.3734  144.1254  159.2918 H   0  0  0  0  0  0  0  0  0  0  0  0
  149.5322  142.1598  154.3283 H   0  0  0  0  0  0  0  0  0  0  0  0
  148.3747  142.9369  155.9719 H   0  0  0  0  0  0  0  0  0  0  0  0
  147.9751  139.6844  155.1064 H   0  0  0  0  0  0  0  0  0  0  0  0
  148.9989  140.0308  152.5894 H   0  0  0  0  0  0  0  0  0  0  0  0
  1  2  1  0  0  0  0
  1 28  1  0  0  0  0
  1 29  1  0  0  0  0
  1 30  1  0  0  0  0
  2 25  1  0  0  0  0
  2  3  2  0  0  0  0
  3  4  1  0  0  0  0
  3 31  1  0  0  0  0
  4  5  1  0  0  0  0
  4 22  1  0  0  0  0
  5 20  1  0  0  0  0
  5  6  1  0  0  0  0
  5 32  1  0  0  0  0
  6  7  1  0  0  0  0
  7  8  1  0  0  0  0
  7 18  1  0  0  0  0
  7 33  1  0  0  0  0
  8  9  1  0  0  0  0
  8 34  1  0  0  0  0
  8 35  1  0  0  0  0
  9 10  1  0  0  0  0
 10 11  2  0  0  0  0
 10 12  1  0  0  0  0
 12 17  1  0  0  0  0
 12 13  2  0  0  0  0
 13 14  1  0  0  0  0
 13 36  1  0  0  0  0
 14 15  2  0  0  0  0
 14 37  1  0  0  0  0
 15 16  1  0  0  0  0
 15 38  1  0  0  0  0
 16 17  2  0  0  0  0
 16 39  1  0  0  0  0
 17 40  1  0  0  0  0
 18 19  1  0  0  0  0
 18 20  1  0  0  0  0
 18 41  1  0  0  0  0
 19 42  1  0  0  0  0
 20 21  1  0  0  0  0
 20 43  1  0  0  0  0
 21 44  1  0  0  0  0
 22 23  2  0  0  0  0
 22 24  1  0  0  0  0
 24 27  1  0  0  0  0
 24 25  1  0  0  0  0
 25 26  2  0  0  0  0
M  END
> <s_m_source_file>
AV-unprocessed.smi

> <i_m_source_file_index>
101

> <i_lp_mmshare_version>
43012

> <i_f3d_flags>
0

> <s_epik_input>
Tz1jMVtuSF1jKD1PKW4oW2NIXWMxW0NIM10pW0NAQEhdMk9bQ0BIXShbQ0BASF0oW09IXSlbQ0BIXTJbT0hdKVtDSDJdT0MoPU8pYzNbY0hdW2NIXVtjSF1bY0hdW2NIXTM=

> <s_epik_cmdline>
J2VwaWtfcHl0aG9uJywgJy1waCcsICc3LjAnLCAnLXRuJywgJzgnLCAnLW1hJywgJzIwMCcsICctbWV0YWxfYmluZGluZycsICctaW1hZScsICc8aW5maWxlLm1hZT4nLCAnLW9tYWUnLCAnPG91dGZpbGUubWFlPic=

> <r_lp_tautomer_probability>
0.999537

> <r_epik_Ionization_Penalty>
0.00263537

> <r_epik_Ionization_Penalty_Charging>
0.00263428

> <r_epik_Ionization_Penalty_Neutral>
1.09111e-06

> <r_epik_State_Penalty>
0.00183335

> <r_epik_Charging_Adjusted_Penalty>
0.00446763

> <i_epik_Tot_Q>
0

> <i_epik_Tot_abs_Q>
0

> <r_epik_Metal_State_Penalty>
1.00528

> <b_epik_Metal_Only>
0

> <s_epik_Chemistry_Notes>
This compound has an ester and may undergo hydrolysis at high or low pH. This compound contains an acetal/aminal-like group ( X-CH(R)-Y where X, Y are N, S, or O) that may be acid/base labile, releasing an aldehyde.

> <s_lp_Force_Field>
OPLS_2005

> <r_lp_Energy>
27.5612

> <b_lp_Chiralities_Consistent>
1

> <s_lp_Variant>
AV-unprocessed.smi:101-5

> <Gold.Version>
5.8.1

> <Gold.Id.Protein>
6NUR|6NUR_protein|mol2

> <Gold.PLP.Fitness>
59.6925

> <Gold.PLP.PLP>
-44.9479

> <Gold.PLP.part.hbond>
-5.6840

> <Gold.PLP.part.metal>
0.0000

> <Gold.PLP.part.buried>
-7.7084

> <Gold.PLP.part.nonpolar>
-30.2722

> <Gold.PLP.part.repulsive>
0.3466

> <Gold.PLP.ligand.clash>
0.0000

> <Gold.PLP.ligand.torsion>
1.3717

> <Gold.PLP.Chemscore.Hbond>
5.7249

> <Gold.PLP.Chemscore.CHOScore>
0.0000

> <Gold.PLP.Chemscore.Metal>
0.0000

> <Gold.Chemscore.Hbonds>
donor molecule, donor type, donor heavy atom, donor atom, acceptor molecule, acceptor atom, score
      L1  H    19    42       P1  8028  1.00
      L1  H    21    44       P1  7957  0.96
      P1  H  6896  6908       L1    26  0.94
      P1  H  7989  7998       L1     6  1.00
      P1  H  7997  8009       L1    11  0.57
      P1  H 10752 10763       L1    23  0.98

> <Gold.PLP.Chemscore.Internal.Correction>
0.3132

> <Gold.Rescore>
     Score         DG    S(hbond)    S(metal)    S(lipo)     H(rot)  DE(clash)    DE(int)     intcor
     21.06     -24.04       4.65        0.00      98.37       3.32       1.53       1.45       ----

> <Gold.Chemscore.Fitness>
21.0617

> <Gold.Chemscore.DG>
-24.0411

> <Gold.Chemscore.ZeroCoef>
-5.4800

> <Gold.Chemscore.Hbond>
4.6540

> <Gold.Chemscore.Metal>
0.0000

> <Gold.Chemscore.Lipo>
98.3658

> <Gold.Chemscore.Internal_Hbond>
0.0000

> <Gold.Chemscore.DEClash>
1.5281

> <Gold.Chemscore.DEInternal>
1.4513

> <Gold.Chemscore.Rot>
3.3172

> <Gold.Chemscore.Internal.Correction>
   9.000000E+99

> <Gold.Chemscore.Hbonds>
donor molecule, donor type, donor heavy atom, donor atom, acceptor molecule, acceptor atom, score
      L1  H    19    42       P1  8028  0.94
      L1  H    21    44       P1  7957  0.88
      P1  H  6896  6908       L1    26  0.89
      P1  H  7989  7998       L1     6  0.21
      P1  H  7997  8009       L1    11  0.56
      P1  H 10752 10763       L1    23  0.93

> <Gold.Chemscore.Hbond.Weighted>
-15.5443

> <Gold.Chemscore.Metal.Weighted>
-0.0000

> <Gold.Chemscore.Lipo.Weighted>
-11.5088

> <Gold.Chemscore.Internal_Hbond.Weighted>
0.0000

> <Gold.Chemscore.DEClash.Weighted>
1.5281

> <Gold.Chemscore.DEInternal.Weighted>
1.4513

> <Gold.Chemscore.Rot.Weighted>
8.4920

> <Gold.Chemscore.Internal.Correction.Weighted>
   9.000000E+99

> <Gold.Protein.RotatedTorsions>
[ 6907 6896 6895 6894 ] final  131.69 input  -60.11 | X-H torsion
[ 7974 7965 7964 7962 ] final  -79.48 input  175.53 | X-H torsion
[ 8008 7997 7996 7995 ] final  165.03 input   59.86 | X-H torsion
[ 10167 10162 10161 10158 ] final  109.78 input  -65.29 | X-H torsion
[ 10718 10713 10712 10709 ] final  -16.71 input   66.30 | X-H torsion
[ 10763 10752 10751 10750 ] final   41.70 input  -60.55 | X-H torsion
[ 11005 11000 10999 10996 ] final -164.91 input  -57.11 | X-H torsion

> <Gold.Protein.ActiveResidues>
 VAL166  LYS551  ARG553  GLY616  TRP617  ASP618  TYR619  PRO620  LYS621  CYS622 
 ASP623  PHE694  ASN695  SER759  ASP760  ASP761  ALA762  ILE779  LEU786  VAL792 
 PHE793  MET794  SER795  GLU796  ALA797  LYS798  CYS799  TRP800  GLU811  SER814 

> <Gold.Protein.RotatedAtoms>
  152.3401  133.6056  159.5869 H   0  0  0  0  0  0  0  0  0  0  0  0  # atno 6907 bound_to 6896
  150.7473  133.9736  159.3562 H   0  0  0  0  0  0  0  0  0  0  0  0  # atno 6908 bound_to 6896
  151.7601  135.0813  160.0395 H   0  0  0  0  0  0  0  0  0  0  0  0  # atno 6909 bound_to 6896
  145.5727  140.9463  143.1387 H   0  0  0  0  0  0  0  0  0  0  0  0  # atno 7974 bound_to 7965
  156.1833  140.1681  156.8233 H   0  0  0  0  0  0  0  0  0  0  0  0  # atno 8008 bound_to 7997
  154.5385  140.0741  156.8502 H   0  0  0  0  0  0  0  0  0  0  0  0  # atno 8009 bound_to 7997
  155.3262  140.3376  155.4242 H   0  0  0  0  0  0  0  0  0  0  0  0  # atno 8010 bound_to 7997
  139.6740  144.7123  151.1636 H   0  0  0  0  0  0  0  0  0  0  0  0  # atno 10167 bound_to 10162
  156.5838  130.4781  149.6309 H   0  0  0  0  0  0  0  0  0  0  0  0  # atno 10718 bound_to 10713
  152.9901  135.6154  154.2829 H   0  0  0  0  0  0  0  0  0  0  0  0  # atno 10763 bound_to 10752
  154.2558  135.2784  155.2800 H   0  0  0  0  0  0  0  0  0  0  0  0  # atno 10764 bound_to 10752
  154.5249  135.5804  153.6768 H   0  0  0  0  0  0  0  0  0  0  0  0  # atno 10765 bound_to 10752
  140.5816  134.5136  157.5179 H   0  0  0  0  0  0  0  0  0  0  0  0  # atno 11005 bound_to 11000
  144.7430  139.7396  143.7303 LP  0  0  0  0  0  0  0  0  0  0  0  0  # atno 17320 bound_to 7965
  146.1773  139.4949  142.9889 LP  0  0  0  0  0  0  0  0  0  0  0  0  # atno 17321 bound_to 7965
  140.7628  143.5800  150.8904 LP  0  0  0  0  0  0  0  0  0  0  0  0  # atno 17342 bound_to 10162
  139.9468  143.6318  152.3039 LP  0  0  0  0  0  0  0  0  0  0  0  0  # atno 17343 bound_to 10162
  156.2608  130.6961  151.1729 LP  0  0  0  0  0  0  0  0  0  0  0  0  # atno 17370 bound_to 10713
  157.7320  131.0603  150.5649 LP  0  0  0  0  0  0  0  0  0  0  0  0  # atno 17371 bound_to 10713
  139.9315  134.7955  156.0919 LP  0  0  0  0  0  0  0  0  0  0  0  0  # atno 17394 bound_to 11000
  141.0993  133.6683  156.2716 LP  0  0  0  0  0  0  0  0  0  0  0  0  # atno 17395 bound_to 11000

$$$$
