AV-unprocessed.smi:1381|AV-procd|sdf|5605|dock4
  -GOLD-   22720 5213D 1   1.00000     0.00000
 Structure written by MMmdl.
 43 44  0  0  0  0  0  0  0  0  2 V2000
  150.8690  141.4153  156.2925 C   0  0  0  0  0  0  0  0  0  0  0  0
  151.1610  140.1012  155.6532 C   0  0  0  0  0  0  0  0  0  0  0  0
  150.3703  139.0490  155.2855 C   0  0  0  0  0  0  0  0  0  0  0  0
  151.3004  138.1266  154.7372 C   0  0  0  0  0  0  0  0  0  0  0  0
  150.8703  136.8745  154.2284 N   0  0  0  0  0  0  0  0  0  0  0  0
  150.2812  135.8750  154.9067 C   0  0  0  0  0  0  0  0  0  0  0  0
  150.0128  135.8931  156.1085 O   0  0  0  0  0  0  0  0  0  0  0  0
  150.0143  134.8310  154.1087 N   0  0  0  0  0  0  0  0  0  0  0  0
  149.3692  133.5974  154.5434 C   0  0  0  0  0  0  0  0  0  0  0  0
  148.5858  132.9334  153.3947 C   0  0  0  0  0  0  0  0  0  0  0  0
  147.5163  133.8109  152.8572 N   0  3  1  0  0  0  0  0  0  0  0  0
  146.6236  133.0984  151.9126 C   0  0  0  0  0  0  0  0  0  0  0  0
  145.5674  134.0597  151.3355 C   0  0  1  0  0  0  0  0  0  0  0  0
  144.5774  133.3432  150.4104 C   0  0  0  0  0  0  0  0  0  0  0  0
  144.8337  134.6406  152.4080 O   0  0  0  0  0  0  0  0  0  0  0  0
  145.6561  135.4047  153.2830 C   0  0  1  0  0  0  0  0  0  0  0  0
  144.7555  136.0534  154.3399 C   0  0  0  0  0  0  0  0  0  0  0  0
  146.7175  134.4824  153.9122 C   0  0  0  0  0  0  0  0  0  0  0  0
  152.5458  138.5755  154.7655 N   0  0  0  0  0  0  0  0  0  0  0  0
  152.4630  139.8431  155.3537 O   0  0  0  0  0  0  0  0  0  0  0  0
  149.7944  141.5859  156.3587 H   0  0  0  0  0  0  0  0  0  0  0  0
  151.3059  142.2313  155.7168 H   0  0  0  0  0  0  0  0  0  0  0  0
  151.2801  141.4535  157.3013 H   0  0  0  0  0  0  0  0  0  0  0  0
  149.2998  138.9573  155.3940 H   0  0  0  0  0  0  0  0  0  0  0  0
  151.0269  136.7262  153.2425 H   0  0  0  0  0  0  0  0  0  0  0  0
  150.2656  134.8978  153.1330 H   0  0  0  0  0  0  0  0  0  0  0  0
  150.1252  132.9272  154.9531 H   0  0  0  0  0  0  0  0  0  0  0  0
  148.6922  133.8395  155.3629 H   0  0  0  0  0  0  0  0  0  0  0  0
  149.2919  132.6993  152.5965 H   0  0  0  0  0  0  0  0  0  0  0  0
  148.1524  131.9828  153.7091 H   0  0  0  0  0  0  0  0  0  0  0  0
  147.2129  132.6718  151.0999 H   0  0  0  0  0  0  0  0  0  0  0  0
  146.1381  132.2674  152.4275 H   0  0  0  0  0  0  0  0  0  0  0  0
  146.0608  134.8510  150.7683 H   0  0  0  0  0  0  0  0  0  0  0  0
  145.0905  132.8864  149.5638 H   0  0  0  0  0  0  0  0  0  0  0  0
  143.8398  134.0412  150.0135 H   0  0  0  0  0  0  0  0  0  0  0  0
  144.0393  132.5562  150.9399 H   0  0  0  0  0  0  0  0  0  0  0  0
  146.1476  136.1960  152.7140 H   0  0  0  0  0  0  0  0  0  0  0  0
  145.3378  136.6632  155.0311 H   0  0  0  0  0  0  0  0  0  0  0  0
  144.2250  135.3002  154.9234 H   0  0  0  0  0  0  0  0  0  0  0  0
  144.0106  136.6990  153.8741 H   0  0  0  0  0  0  0  0  0  0  0  0
  146.2367  133.7294  154.5391 H   0  0  0  0  0  0  0  0  0  0  0  0
  147.3645  135.0707  154.5617 H   0  0  0  0  0  0  0  0  0  0  0  0
  147.9747  134.5354  152.3233 H   0  0  0  0  0  0  0  0  0  0  0  0
  1  2  1  0  0  0  0
  1 21  1  0  0  0  0
  1 22  1  0  0  0  0
  1 23  1  0  0  0  0
  2 20  1  0  0  0  0
  2  3  2  0  0  0  0
  3  4  1  0  0  0  0
  3 24  1  0  0  0  0
  4  5  1  0  0  0  0
  4 19  2  0  0  0  0
  5  6  1  0  0  0  0
  5 25  1  0  0  0  0
  6  7  2  0  0  0  0
  6  8  1  0  0  0  0
  8  9  1  0  0  0  0
  8 26  1  0  0  0  0
  9 10  1  0  0  0  0
  9 27  1  0  0  0  0
  9 28  1  0  0  0  0
 10 11  1  0  0  0  0
 10 29  1  0  0  0  0
 10 30  1  0  0  0  0
 11 18  1  0  0  0  0
 11 12  1  0  0  0  0
 11 43  1  0  0  0  0
 12 13  1  0  0  0  0
 12 31  1  0  0  0  0
 12 32  1  0  0  0  0
 13 14  1  0  0  0  0
 13 15  1  0  0  0  0
 13 33  1  0  0  0  0
 14 34  1  0  0  0  0
 14 35  1  0  0  0  0
 14 36  1  0  0  0  0
 15 16  1  0  0  0  0
 16 17  1  0  0  0  0
 16 18  1  0  0  0  0
 16 37  1  0  0  0  0
 17 38  1  0  0  0  0
 17 39  1  0  0  0  0
 17 40  1  0  0  0  0
 18 41  1  0  0  0  0
 18 42  1  0  0  0  0
 19 20  1  0  0  0  0
M  CHG  1  11   1
M  END
> <s_m_source_file>
AV-unprocessed.smi

> <i_m_source_file_index>
1381

> <i_lp_mmshare_version>
43012

> <i_f3d_flags>
0

> <s_epik_input>
W0NIM11jMVtjSF1jKG5vMSlbTkhdQyg9TylbTkhdW0NIMl1bQ0gyXU4yW0NIMl1bQ0BASF0oW0NIM10pT1tDQEBIXShbQ0gzXSlbQ0gyXTI=

> <s_epik_cmdline>
J2VwaWtfcHl0aG9uJywgJy1waCcsICc3LjAnLCAnLXRuJywgJzgnLCAnLW1hJywgJzIwMCcsICctbWV0YWxfYmluZGluZycsICctaW1hZScsICc8aW5maWxlLm1hZT4nLCAnLW9tYWUnLCAnPG91dGZpbGUubWFlPic=

> <r_epik_Ionization_Penalty>
0.707076

> <r_epik_Ionization_Penalty_Charging>
0.707039

> <r_epik_Ionization_Penalty_Neutral>
3.6548e-05

> <r_epik_State_Penalty>
0.730276

> <r_epik_Charging_Adjusted_Penalty>
1.43732

> <i_epik_Tot_Q>
1

> <i_epik_Tot_abs_Q>
1

> <r_epik_Metal_State_Penalty>
0.743132

> <b_epik_Metal_Only>
0

> <s_lp_Force_Field>
OPLS_2005

> <r_lp_Energy>
11.2606

> <b_lp_Chiralities_Consistent>
1

> <s_lp_Variant>
AV-unprocessed.smi:1381-4

> <Gold.Version>
5.8.1

> <Gold.Id.Protein>
6NUR|6NUR_protein|mol2

> <Gold.PLP.Fitness>
43.3384

> <Gold.PLP.PLP>
-33.0371

> <Gold.PLP.part.hbond>
-6.7585

> <Gold.PLP.part.metal>
0.0000

> <Gold.PLP.part.buried>
-1.6407

> <Gold.PLP.part.nonpolar>
-24.3730

> <Gold.PLP.part.repulsive>
0.3287

> <Gold.PLP.ligand.clash>
0.0000

> <Gold.PLP.ligand.torsion>
0.8572

> <Gold.PLP.Chemscore.Hbond>
4.0000

> <Gold.PLP.Chemscore.CHOScore>
0.0000

> <Gold.PLP.Chemscore.Metal>
0.0000

> <Gold.Chemscore.Hbonds>
donor molecule, donor type, donor heavy atom, donor atom, acceptor molecule, acceptor atom, score
      L1  H     5    25       P1  7949  1.00
      L1  H    11    43       P1  7948  2.00
      P1  H  7997  8010       L1    20  0.89

> <Gold.PLP.Chemscore.Internal.Correction>
0.0158

> <Gold.Rescore>
     Score         DG    S(hbond)    S(metal)    S(lipo)     H(rot)  DE(clash)    DE(int)     intcor
     14.15     -15.31       2.28        0.00      54.11       1.61       0.26       0.90       ----

> <Gold.Chemscore.Fitness>
14.1504

> <Gold.Chemscore.DG>
-15.3099

> <Gold.Chemscore.ZeroCoef>
-5.4800

> <Gold.Chemscore.Hbond>
2.2801

> <Gold.Chemscore.Metal>
0.0000

> <Gold.Chemscore.Lipo>
54.1102

> <Gold.Chemscore.Internal_Hbond>
0.0000

> <Gold.Chemscore.DEClash>
0.2566

> <Gold.Chemscore.DEInternal>
0.9028

> <Gold.Chemscore.Rot>
1.6081

> <Gold.Chemscore.Internal.Correction>
   9.000000E+99

> <Gold.Chemscore.Hbonds>
donor molecule, donor type, donor heavy atom, donor atom, acceptor molecule, acceptor atom, score
      L1  H     5    25       P1  7949  0.30
      L1  H    11    43       P1  7948  0.39
      P1  H  7997  8010       L1    20  0.35

> <Gold.Chemscore.Hbond.Weighted>
-7.6157

> <Gold.Chemscore.Metal.Weighted>
-0.0000

> <Gold.Chemscore.Lipo.Weighted>
-6.3309

> <Gold.Chemscore.Internal_Hbond.Weighted>
0.0000

> <Gold.Chemscore.DEClash.Weighted>
0.2566

> <Gold.Chemscore.DEInternal.Weighted>
0.9028

> <Gold.Chemscore.Rot.Weighted>
4.1167

> <Gold.Chemscore.Internal.Correction.Weighted>
   9.000000E+99

> <Gold.Protein.RotatedTorsions>
[ 6907 6896 6895 6894 ] final -148.29 input  -60.11 | X-H torsion
[ 7974 7965 7964 7962 ] final   40.05 input  175.53 | X-H torsion
[ 8008 7997 7996 7995 ] final  100.00 input   59.86 | X-H torsion
[ 10167 10162 10161 10158 ] final -127.80 input  -65.29 | X-H torsion
[ 10718 10713 10712 10709 ] final   11.75 input   66.30 | X-H torsion
[ 10763 10752 10751 10750 ] final -102.49 input  -60.55 | X-H torsion
[ 11005 11000 10999 10996 ] final    4.75 input  -57.11 | X-H torsion

> <Gold.Protein.ActiveResidues>
 VAL166  LYS551  ARG553  GLY616  TRP617  ASP618  TYR619  PRO620  LYS621  CYS622 
 ASP623  PHE694  ASN695  SER759  ASP760  ASP761  ALA762  ILE779  LEU786  VAL792 
 PHE793  MET794  SER795  GLU796  ALA797  LYS798  CYS799  TRP800  GLU811  SER814 

> <Gold.Protein.RotatedAtoms>
  151.1677  133.4804  159.2593 H   0  0  0  0  0  0  0  0  0  0  0  0  # atno 6907 bound_to 6896
  151.1388  135.0168  159.8626 H   0  0  0  0  0  0  0  0  0  0  0  0  # atno 6908 bound_to 6896
  152.5462  134.1573  159.8596 H   0  0  0  0  0  0  0  0  0  0  0  0  # atno 6909 bound_to 6896
  146.0936  139.5579  142.9460 H   0  0  0  0  0  0  0  0  0  0  0  0  # atno 7974 bound_to 7965
  156.1160  140.3220  155.8140 H   0  0  0  0  0  0  0  0  0  0  0  0  # atno 8008 bound_to 7997
  155.4589  140.0538  157.3010 H   0  0  0  0  0  0  0  0  0  0  0  0  # atno 8009 bound_to 7997
  154.4793  140.2046  155.9816 H   0  0  0  0  0  0  0  0  0  0  0  0  # atno 8010 bound_to 7997
  139.9570  143.5992  152.2457 H   0  0  0  0  0  0  0  0  0  0  0  0  # atno 10167 bound_to 10162
  157.0001  130.6076  149.5695 H   0  0  0  0  0  0  0  0  0  0  0  0  # atno 10718 bound_to 10713
  154.7737  135.4859  153.9701 H   0  0  0  0  0  0  0  0  0  0  0  0  # atno 10763 bound_to 10752
  153.1401  135.6771  153.9048 H   0  0  0  0  0  0  0  0  0  0  0  0  # atno 10764 bound_to 10752
  153.8725  135.3142  155.3421 H   0  0  0  0  0  0  0  0  0  0  0  0  # atno 10765 bound_to 10752
  140.5784  134.0036  155.8037 H   0  0  0  0  0  0  0  0  0  0  0  0  # atno 11005 bound_to 11000
  145.5991  141.0358  143.2028 LP  0  0  0  0  0  0  0  0  0  0  0  0  # atno 17320 bound_to 7965
  144.7378  139.7534  143.7322 LP  0  0  0  0  0  0  0  0  0  0  0  0  # atno 17321 bound_to 7965
  139.6584  144.7662  151.2011 LP  0  0  0  0  0  0  0  0  0  0  0  0  # atno 17342 bound_to 10162
  140.7565  143.6049  150.8662 LP  0  0  0  0  0  0  0  0  0  0  0  0  # atno 17343 bound_to 10162
  156.0174  130.5268  150.8175 LP  0  0  0  0  0  0  0  0  0  0  0  0  # atno 17370 bound_to 10713
  157.5396  131.0940  150.9845 LP  0  0  0  0  0  0  0  0  0  0  0  0  # atno 17371 bound_to 10713
  141.1012  133.9765  157.3075 LP  0  0  0  0  0  0  0  0  0  0  0  0  # atno 17394 bound_to 11000
  139.9329  135.0199  156.8459 LP  0  0  0  0  0  0  0  0  0  0  0  0  # atno 17395 bound_to 11000

$$$$
