#       Name:                AV-unprocessed.smi:412
#       Creating user name   scv26
#       Creation time:       Thu Mar 26 22:46:13 2020


#       File generated by GOLD software.
#

@<TRIPOS>MOLECULE
AV-unprocessed.smi:412
    40    42     1
SMALL
NO_CHARGES


@<TRIPOS>ATOM
      1 ****        -1.9692   3.4208  -2.1157 C.3            1 S1                 0.0000
      2 ****        -1.5831   2.4216  -1.1267 N.am           1 S1                 0.0000
      3 ****        -1.0992   1.1806  -1.3666 C.2            1 S1                 0.0000
      4 ****        -0.9021   0.6803  -2.4741 O.2            1 S1                 0.0000
      5 ****        -0.8622   0.5846  -0.1738 N.am           1 S1                 0.0000
      6 ****        -0.3304  -0.7618   0.0346 C.3            1 S1                 0.0000
      7 ****         1.1967  -0.8161  -0.1692 C.3            1 S1                 0.0000
      8 ****         1.8221  -0.2167   0.9490 O.3            1 S1                 0.0000
      9 ****         1.6683  -2.2483  -0.3731 C.ar           1 S1                 0.0000
     10 ****         1.7917  -3.1319   0.7226 C.ar           1 S1                 0.0000
     11 ****         2.2231  -4.4575   0.5213 C.ar           1 S1                 0.0000
     12 ****         2.5280  -4.9097  -0.7767 C.ar           1 S1                 0.0000
     13 ****         2.3994  -4.0364  -1.8735 C.ar           1 S1                 0.0000
     14 ****         1.9705  -2.7099  -1.6724 C.ar           1 S1                 0.0000
     15 ****        -1.1986   1.4730   0.8582 C.ar           1 S1                 0.0000
     16 ****        -1.1283   1.3414   2.2564 C.ar           1 S1                 0.0000
     17 ****        -1.5487   2.4473   3.0320 C.ar           1 S1                 0.0000
     18 ****        -2.0187   3.6342   2.4119 C.ar           1 S1                 0.0000
     19 ****        -2.0770   3.7411   1.0024 C.ar           1 S1                 0.0000
     20 ****        -1.6530   2.6278   0.2568 C.ar           1 S1                 0.0000
     21 ****        -1.8565   3.0532  -3.1364 H              1 S1                 0.0000
     22 ****        -1.3517   4.3129  -2.0095 H              1 S1                 0.0000
     23 ****        -3.0117   3.7073  -1.9746 H              1 S1                 0.0000
     24 ****        -0.6120  -1.1533   1.0127 H              1 S1                 0.0000
     25 ****        -0.8142  -1.4162  -0.6926 H              1 S1                 0.0000
     26 ****         1.4765  -0.2378  -1.0510 H              1 S1                 0.0000
     27 ****         2.7525  -0.1812   0.7875 H              1 S1                 0.0000
     28 ****         1.5539  -2.7967   1.7215 H              1 S1                 0.0000
     29 ****         2.3185  -5.1278   1.3628 H              1 S1                 0.0000
     30 ****         2.8580  -5.9264  -0.9313 H              1 S1                 0.0000
     31 ****         2.6287  -4.3844  -2.8700 H              1 S1                 0.0000
     32 ****         1.8723  -2.0485  -2.5210 H              1 S1                 0.0000
     33 ****        -0.7666   0.4382   2.7245 H              1 S1                 0.0000
     34 ****        -1.5103   2.3878   4.1096 H              1 S1                 0.0000
     35 ****        -2.3345   4.4664   3.0234 H              1 S1                 0.0000
     36 ****        -2.4315   4.6413   0.5223 H              1 S1                 0.0000
     37 ****        -1.1042   1.2033  -3.3022 LP             1 S1                 0.0000
     38 ****        -0.5400  -0.2490  -2.5457 LP             1 S1                 0.0000
     39 ****         1.6422  -0.7609   1.7684 LP             1 S1                 0.0000
     40 ****         1.4664   0.7089   1.0788 LP             1 S1                 0.0000
@<TRIPOS>BOND
    1    1    2 1     
    2    1   21 1     
    3    1   22 1     
    4    1   23 1     
    5    2   20 1     
    6    2    3 am    
    7    3    4 2     
    8    3    5 am    
    9    5    6 1     
   10    5   15 1     
   11    6    7 1     
   12    6   24 1     
   13    6   25 1     
   14    7    8 1     
   15    7    9 1     
   16    7   26 1     
   17    8   27 1     
   18    9   14 ar    
   19    9   10 ar    
   20   10   11 ar    
   21   10   28 1     
   22   11   12 ar    
   23   11   29 1     
   24   12   13 ar    
   25   12   30 1     
   26   13   14 ar    
   27   13   31 1     
   28   14   32 1     
   29   15   20 ar    
   30   15   16 ar    
   31   16   17 ar    
   32   16   33 1     
   33   17   18 ar    
   34   17   34 1     
   35   18   19 ar    
   36   18   35 1     
   37   19   20 ar    
   38   19   36 1     
   39    4   37 1     
   40    4   38 1     
   41    8   39 1     
   42    8   40 1     
@<TRIPOS>SUBSTRUCTURE
      1 S1             1
@<TRIPOS>SET
LONE_PAIRS      STATIC     ATOMS    <user>   **** ""
4 37 38 39 40
DONOR_HYDROGENS      STATIC     ATOMS    <user>   **** ""
1 27
ATOM$BLUE        STATIC     ATOMS    COLORGROUP SYSTEM
4 37 38 39 40
ATOM$RED        STATIC     ATOMS    COLORGROUP SYSTEM
1 27
