#       Name:                AV-unprocessed.smi:2203
#       Creating user name   scv26
#       Creation time:       Fri Mar 27 12:15:21 2020


#       File generated by GOLD software.
#

@<TRIPOS>MOLECULE
AV-unprocessed.smi:2203
    53    54     1
SMALL
NO_CHARGES


@<TRIPOS>ATOM
      1 ****        -0.7180   2.3589  -0.9698 C.3            1 S1                 0.0000
      2 ****         0.4947   1.4805  -0.8521 C.2            1 S1                 0.0000
      3 ****         1.6697   2.0335  -0.6066 N.2            1 S1                 0.0000
      4 ****         2.5384   1.0021  -0.5653 N.pl3          1 S1                 0.0000
      5 ****         3.9479   1.2744  -0.3249 C.3            1 S1                 0.0000
      6 ****         4.8003   1.2527  -1.6125 C.3            1 S1                 0.0000
      7 ****         6.2769   1.5256  -1.2910 C.3            1 S1                 0.0000
      8 ****         4.2872   2.2239  -2.6905 C.3            1 S1                 0.0000
      9 ****         1.9032  -0.2096  -0.7704 C.2            1 S1                 0.0000
     10 ****         2.6323  -1.5153  -0.7669 C.3            1 S1                 0.0000
     11 ****         0.5748   0.0612  -0.9645 C.2            1 S1                 0.0000
     12 ****        -0.5504  -0.9056  -1.2385 C.3            1 S1                 0.0000
     13 ****        -1.1385  -1.4215   0.0756 C.2            1 S1                 0.0000
     14 ****        -0.9713  -2.5952   0.4060 O.2            1 S1                 0.0000
     15 ****        -1.8367  -0.5396   0.8076 N.am           1 S1                 0.0000
     16 ****        -2.5089  -0.8355   2.0667 C.3            1 S1                 0.0000
     17 ****        -3.8805  -1.4880   1.8294 C.3            1 S1                 0.0000
     18 ****        -4.6322  -1.8365   3.1112 C.3            1 S1                 0.0000
     19 ****        -6.0866  -1.8617   2.6679 C.3            1 S1                 0.0000
     20 ****        -6.0850  -1.1036   1.3364 C.3            1 S1                 0.0000
     21 ****        -4.7709  -0.5787   1.2022 O.3            1 S1                 0.0000
     22 ****        -1.2922   2.3558  -0.0433 H              1 S1                 0.0000
     23 ****        -1.3748   2.0178  -1.7696 H              1 S1                 0.0000
     24 ****        -0.4462   3.3923  -1.1882 H              1 S1                 0.0000
     25 ****         4.0383   2.2457   0.1644 H              1 S1                 0.0000
     26 ****         4.3224   0.5415   0.3900 H              1 S1                 0.0000
     27 ****         4.7449   0.2481  -2.0324 H              1 S1                 0.0000
     28 ****         6.4131   2.5235  -0.8729 H              1 S1                 0.0000
     29 ****         6.8949   1.4524  -2.1863 H              1 S1                 0.0000
     30 ****         6.6616   0.8061  -0.5677 H              1 S1                 0.0000
     31 ****         4.2720   3.2502  -2.3224 H              1 S1                 0.0000
     32 ****         3.2773   1.9700  -3.0130 H              1 S1                 0.0000
     33 ****         4.9220   2.1978  -3.5765 H              1 S1                 0.0000
     34 ****         1.9378  -2.3531  -0.7053 H              1 S1                 0.0000
     35 ****         3.3084  -1.5880   0.0848 H              1 S1                 0.0000
     36 ****         3.2179  -1.6335  -1.6786 H              1 S1                 0.0000
     37 ****        -1.3469  -0.4395  -1.8193 H              1 S1                 0.0000
     38 ****        -0.2073  -1.7532  -1.8329 H              1 S1                 0.0000
     39 ****        -1.9210   0.4038   0.4583 H              1 S1                 0.0000
     40 ****        -1.8811  -1.4846   2.6793 H              1 S1                 0.0000
     41 ****        -2.6261   0.0959   2.6214 H              1 S1                 0.0000
     42 ****        -3.7830  -2.3801   1.2074 H              1 S1                 0.0000
     43 ****        -4.3042  -2.7795   3.5495 H              1 S1                 0.0000
     44 ****        -4.4917  -1.0516   3.8557 H              1 S1                 0.0000
     45 ****        -6.4380  -2.8838   2.5233 H              1 S1                 0.0000
     46 ****        -6.7319  -1.3860   3.4070 H              1 S1                 0.0000
     47 ****        -6.2866  -1.7840   0.5079 H              1 S1                 0.0000
     48 ****        -6.8271  -0.3053   1.3086 H              1 S1                 0.0000
     49 ****         1.8710   3.0047  -0.4792 LP             1 S1                 0.0000
     50 ****        -0.4508  -3.2117  -0.1848 LP             1 S1                 0.0000
     51 ****        -1.3559  -2.9324   1.2653 LP             1 S1                 0.0000
     52 ****        -4.5378  -0.4859   0.2342 LP             1 S1                 0.0000
     53 ****        -4.7138   0.3156   1.6460 LP             1 S1                 0.0000
@<TRIPOS>BOND
    1    1    2 1     
    2    1   22 1     
    3    1   23 1     
    4    1   24 1     
    5    2   11 1     
    6    2    3 2     
    7    3    4 1     
    8    4    5 1     
    9    4    9 1     
   10    5    6 1     
   11    5   25 1     
   12    5   26 1     
   13    6    7 1     
   14    6    8 1     
   15    6   27 1     
   16    7   28 1     
   17    7   29 1     
   18    7   30 1     
   19    8   31 1     
   20    8   32 1     
   21    8   33 1     
   22    9   10 1     
   23    9   11 2     
   24   10   34 1     
   25   10   35 1     
   26   10   36 1     
   27   11   12 1     
   28   12   13 1     
   29   12   37 1     
   30   12   38 1     
   31   13   14 2     
   32   13   15 am    
   33   15   16 1     
   34   15   39 1     
   35   16   17 1     
   36   16   40 1     
   37   16   41 1     
   38   17   21 1     
   39   17   18 1     
   40   17   42 1     
   41   18   19 1     
   42   18   43 1     
   43   18   44 1     
   44   19   20 1     
   45   19   45 1     
   46   19   46 1     
   47   20   21 1     
   48   20   47 1     
   49   20   48 1     
   50    3   49 1     
   51   14   50 1     
   52   14   51 1     
   53   21   52 1     
   54   21   53 1     
@<TRIPOS>SUBSTRUCTURE
      1 S1             1
@<TRIPOS>SET
LONE_PAIRS      STATIC     ATOMS    <user>   **** ""
5 49 50 51 52 53
DONOR_HYDROGENS      STATIC     ATOMS    <user>   **** ""
1 39
ATOM$BLUE        STATIC     ATOMS    COLORGROUP SYSTEM
5 49 50 51 52 53
ATOM$RED        STATIC     ATOMS    COLORGROUP SYSTEM
1 39
