AV-unprocessed.smi:1701|AV-procd|sdf|6826|dock2
  -GOLD-   22720 8 03D 1   1.00000     0.00000
 Structure written by MMmdl.
 55 57  0  0  0  0  0  0  0  0  3 V2000
  152.1632  145.5567  159.6168 C   0  0  0  0  0  0  0  0  0  0  0  0
  151.4155  144.6604  158.6175 C   0  0  0  0  0  0  0  0  0  0  0  0
  152.1264  143.4197  158.3068 N   0  0  0  0  0  0  0  0  0  0  0  0
  153.3160  143.0606  159.0831 C   0  0  0  0  0  0  0  0  0  0  0  0
  153.0568  141.9457  160.1068 C   0  0  0  0  0  0  0  0  0  0  0  0
  151.5645  142.4852  157.4023 C   0  0  0  0  0  0  0  0  0  0  0  0
  151.8988  141.1074  157.3909 C   0  0  0  0  0  0  0  0  0  0  0  0
  151.2951  140.2386  156.4586 C   0  0  0  0  0  0  0  0  0  0  0  0
  150.3583  140.7521  155.5294 C   0  0  0  0  0  0  0  0  0  0  0  0
  149.6781  139.9628  154.5633 N   0  0  0  0  0  0  0  0  0  0  0  0
  148.4109  140.0842  154.1208 C   0  0  0  0  0  0  0  0  0  0  0  0
  147.5977  140.9012  154.5458 O   0  0  0  0  0  0  0  0  0  0  0  0
  148.0707  139.1976  153.1686 N   0  0  0  0  0  0  0  0  0  0  0  0
  146.7859  139.0585  152.4824 C   0  0  1  0  0  0  0  0  0  0  0  0
  146.8761  138.3422  151.1202 C   0  0  0  0  0  0  0  0  0  0  0  0
  145.6244  137.4445  151.0452 C   0  0  0  0  0  0  0  0  0  0  0  0
  144.8447  137.7612  152.2569 N   0  3  1  0  0  0  0  0  0  0  0  0
  143.9072  136.7274  152.7475 C   0  0  0  0  0  0  0  0  0  0  0  0
  143.1379  137.2764  153.9664 C   0  0  0  0  0  0  0  0  0  0  0  0
  144.0923  137.8113  155.0542 C   0  0  0  0  0  0  0  0  0  0  0  0
  145.1040  138.8127  154.4637 C   0  0  0  0  0  0  0  0  0  0  0  0
  145.8285  138.1663  153.2717 C   0  0  2  0  0  0  0  0  0  0  0  0
  150.0469  142.1245  155.5901 C   0  0  0  0  0  0  0  0  0  0  0  0
  150.6503  142.9194  156.4993 N   0  3  0  0  0  0  0  0  0  0  0  0
  151.5812  146.4524  159.8340 H   0  0  0  0  0  0  0  0  0  0  0  0
  153.1255  145.8827  159.2247 H   0  0  0  0  0  0  0  0  0  0  0  0
  152.3442  145.0460  160.5625 H   0  0  0  0  0  0  0  0  0  0  0  0
  150.4127  144.4361  158.9804 H   0  0  0  0  0  0  0  0  0  0  0  0
  151.2641  145.2182  157.6929 H   0  0  0  0  0  0  0  0  0  0  0  0
  154.1298  142.7757  158.4157 H   0  0  0  0  0  0  0  0  0  0  0  0
  153.6743  143.9468  159.6079 H   0  0  0  0  0  0  0  0  0  0  0  0
  153.9788  141.6816  160.6249 H   0  0  0  0  0  0  0  0  0  0  0  0
  152.6769  141.0421  159.6297 H   0  0  0  0  0  0  0  0  0  0  0  0
  152.3377  142.2547  160.8641 H   0  0  0  0  0  0  0  0  0  0  0  0
  152.6114  140.6905  158.0858 H   0  0  0  0  0  0  0  0  0  0  0  0
  151.5553  139.1917  156.4869 H   0  0  0  0  0  0  0  0  0  0  0  0
  150.2028  139.1840  154.1933 H   0  0  0  0  0  0  0  0  0  0  0  0
  148.7803  138.5261  152.9114 H   0  0  0  0  0  0  0  0  0  0  0  0
  146.3179  140.0361  152.3481 H   0  0  0  0  0  0  0  0  0  0  0  0
  146.9083  139.0610  150.3007 H   0  0  0  0  0  0  0  0  0  0  0  0
  147.7751  137.7276  151.0517 H   0  0  0  0  0  0  0  0  0  0  0  0
  145.0340  137.6255  150.1466 H   0  0  0  0  0  0  0  0  0  0  0  0
  145.9177  136.3934  151.0523 H   0  0  0  0  0  0  0  0  0  0  0  0
  143.2115  136.4569  151.9527 H   0  0  0  0  0  0  0  0  0  0  0  0
  144.4569  135.8241  153.0174 H   0  0  0  0  0  0  0  0  0  0  0  0
  142.4773  138.0816  153.6421 H   0  0  0  0  0  0  0  0  0  0  0  0
  142.4944  136.5009  154.3825 H   0  0  0  0  0  0  0  0  0  0  0  0
  143.5224  138.2817  155.8561 H   0  0  0  0  0  0  0  0  0  0  0  0
  144.6297  136.9764  155.5063 H   0  0  0  0  0  0  0  0  0  0  0  0
  144.5858  139.7182  154.1447 H   0  0  0  0  0  0  0  0  0  0  0  0
  145.8228  139.1142  155.2263 H   0  0  0  0  0  0  0  0  0  0  0  0
  146.3634  137.2756  153.6106 H   0  0  0  0  0  0  0  0  0  0  0  0
  149.3391  142.6145  154.9373 H   0  0  0  0  0  0  0  0  0  0  0  0
  144.2995  138.5839  152.0420 H   0  0  0  0  0  0  0  0  0  0  0  0
  150.4032  143.9090  156.5075 H   0  0  0  0  0  0  0  0  0  0  0  0
  1  2  1  0  0  0  0
  1 25  1  0  0  0  0
  1 26  1  0  0  0  0
  1 27  1  0  0  0  0
  2  3  1  0  0  0  0
  2 28  1  0  0  0  0
  2 29  1  0  0  0  0
  3  4  1  0  0  0  0
  3  6  1  0  0  0  0
  4  5  1  0  0  0  0
  4 30  1  0  0  0  0
  4 31  1  0  0  0  0
  5 32  1  0  0  0  0
  5 33  1  0  0  0  0
  5 34  1  0  0  0  0
  6 24  1  0  0  0  0
  6  7  2  0  0  0  0
  7  8  1  0  0  0  0
  7 35  1  0  0  0  0
  8  9  2  0  0  0  0
  8 36  1  0  0  0  0
  9 10  1  0  0  0  0
  9 23  1  0  0  0  0
 10 11  1  0  0  0  0
 10 37  1  0  0  0  0
 11 12  2  0  0  0  0
 11 13  1  0  0  0  0
 13 14  1  0  0  0  0
 13 38  1  0  0  0  0
 14 22  1  0  0  0  0
 14 15  1  0  0  0  0
 14 39  1  0  0  0  0
 15 16  1  0  0  0  0
 15 40  1  0  0  0  0
 15 41  1  0  0  0  0
 16 17  1  0  0  0  0
 16 42  1  0  0  0  0
 16 43  1  0  0  0  0
 17 22  1  0  0  0  0
 17 18  1  0  0  0  0
 17 54  1  0  0  0  0
 18 19  1  0  0  0  0
 18 44  1  0  0  0  0
 18 45  1  0  0  0  0
 19 20  1  0  0  0  0
 19 46  1  0  0  0  0
 19 47  1  0  0  0  0
 20 21  1  0  0  0  0
 20 48  1  0  0  0  0
 20 49  1  0  0  0  0
 21 22  1  0  0  0  0
 21 50  1  0  0  0  0
 21 51  1  0  0  0  0
 22 52  1  0  0  0  0
 23 24  2  0  0  0  0
 23 53  1  0  0  0  0
 24 55  1  0  0  0  0
M  CHG  1  17   1
M  CHG  1  24   1
M  END
> <s_m_source_file>
AV-unprocessed.smi

> <i_m_source_file_index>
1701

> <i_lp_mmshare_version>
43012

> <i_f3d_flags>
0

> <s_epik_input>
W0NIM11bQ0gyXU4oW0NIMl1bQ0gzXSljMVtjSF1bY0hdYyhbY0hdbjEpW05IXUMoPU8pW05IXVtDQEhdKFtDSDJdW0NIMl0yKVtDQEBIXShOMjMpW0NIMl1bQ0gyXVtDSDJdW0NIMl0z

> <s_epik_cmdline>
J2VwaWtfcHl0aG9uJywgJy1waCcsICc3LjAnLCAnLXRuJywgJzgnLCAnLW1hJywgJzIwMCcsICctbWV0YWxfYmluZGluZycsICctaW1hZScsICc8aW5maWxlLm1hZT4nLCAnLW9tYWUnLCAnPG91dGZpbGUubWFlPic=

> <r_lp_tautomer_probability>
0.999994

> <r_epik_Ionization_Penalty>
0.302862

> <r_epik_Ionization_Penalty_Charging>
0.302842

> <r_epik_Ionization_Penalty_Neutral>
1.95166e-05

> <r_epik_State_Penalty>
0.019791

> <r_epik_Charging_Adjusted_Penalty>
0.322633

> <i_epik_Tot_Q>
2

> <i_epik_Tot_abs_Q>
2

> <r_epik_Metal_State_Penalty>
0.0536763

> <b_epik_Metal_Only>
0

> <s_lp_Force_Field>
OPLS_2005

> <r_lp_Energy>
62.0902

> <b_lp_Chiralities_Consistent>
1

> <s_lp_Variant>
AV-unprocessed.smi:1701-6

> <Gold.Version>
5.8.1

> <Gold.Id.Protein>
6NUR|6NUR_protein|mol2

> <Gold.PLP.Fitness>
49.5738

> <Gold.PLP.PLP>
-41.8106

> <Gold.PLP.part.hbond>
-4.0000

> <Gold.PLP.part.metal>
0.0000

> <Gold.PLP.part.buried>
8.9934

> <Gold.PLP.part.nonpolar>
-47.0387

> <Gold.PLP.part.repulsive>
0.3768

> <Gold.PLP.ligand.clash>
0.0000

> <Gold.PLP.ligand.torsion>
0.9080

> <Gold.PLP.Chemscore.Hbond>
3.1345

> <Gold.PLP.Chemscore.CHOScore>
0.0000

> <Gold.PLP.Chemscore.Metal>
0.0000

> <Gold.Chemscore.Hbonds>
donor molecule, donor type, donor heavy atom, donor atom, acceptor molecule, acceptor atom, score
      L1  H    17    54       P1 10175  2.00
      L1  H    24    55       P1  8028  1.12

> <Gold.PLP.Chemscore.Internal.Correction>
0.1757

> <Gold.Rescore>
     Score         DG    S(hbond)    S(metal)    S(lipo)     H(rot)  DE(clash)    DE(int)     intcor
     16.29     -21.20       1.73        0.00     113.43       1.30       2.92       1.99       ----

> <Gold.Chemscore.Fitness>
16.2938

> <Gold.Chemscore.DG>
-21.2024

> <Gold.Chemscore.ZeroCoef>
-5.4800

> <Gold.Chemscore.Hbond>
1.7317

> <Gold.Chemscore.Metal>
0.0000

> <Gold.Chemscore.Lipo>
113.4318

> <Gold.Chemscore.Internal_Hbond>
0.0000

> <Gold.Chemscore.DEClash>
2.9195

> <Gold.Chemscore.DEInternal>
1.9891

> <Gold.Chemscore.Rot>
1.3020

> <Gold.Chemscore.Internal.Correction>
   9.000000E+99

> <Gold.Chemscore.Hbonds>
donor molecule, donor type, donor heavy atom, donor atom, acceptor molecule, acceptor atom, score
      L1  H    13    38       P1  7948  0.01
      L1  H    17    54       P1 10175  0.93
      L1  H    24    55       P1  8028  0.56

> <Gold.Chemscore.Hbond.Weighted>
-5.7839

> <Gold.Chemscore.Metal.Weighted>
-0.0000

> <Gold.Chemscore.Lipo.Weighted>
-13.2715

> <Gold.Chemscore.Internal_Hbond.Weighted>
0.0000

> <Gold.Chemscore.DEClash.Weighted>
2.9195

> <Gold.Chemscore.DEInternal.Weighted>
1.9891

> <Gold.Chemscore.Rot.Weighted>
3.3330

> <Gold.Chemscore.Internal.Correction.Weighted>
   9.000000E+99

> <Gold.Protein.RotatedTorsions>
[ 6907 6896 6895 6894 ] final    8.58 input  -60.11 | X-H torsion
[ 7974 7965 7964 7962 ] final  142.67 input  175.53 | X-H torsion
[ 8008 7997 7996 7995 ] final  152.41 input   59.86 | X-H torsion
[ 10167 10162 10161 10158 ] final -168.62 input  -65.29 | X-H torsion
[ 10718 10713 10712 10709 ] final   91.18 input   66.30 | X-H torsion
[ 10763 10752 10751 10750 ] final -117.76 input  -60.55 | X-H torsion
[ 11005 11000 10999 10996 ] final -127.69 input  -57.11 | X-H torsion

> <Gold.Protein.ActiveResidues>
 VAL166  LYS551  ARG553  GLY616  TRP617  ASP618  TYR619  PRO620  LYS621  CYS622 
 ASP623  PHE694  ASN695  SER759  ASP760  ASP761  ALA762  ILE779  LEU786  VAL792 
 PHE793  MET794  SER795  GLU796  ALA797  LYS798  CYS799  TRP800  GLU811  SER814 

> <Gold.Protein.RotatedAtoms>
  151.7083  135.0917  160.0262 H   0  0  0  0  0  0  0  0  0  0  0  0  # atno 6907 bound_to 6896
  152.3677  133.6374  159.6072 H   0  0  0  0  0  0  0  0  0  0  0  0  # atno 6908 bound_to 6896
  150.7650  133.9237  159.3447 H   0  0  0  0  0  0  0  0  0  0  0  0  # atno 6909 bound_to 6896
  144.8988  139.5453  143.5764 H   0  0  0  0  0  0  0  0  0  0  0  0  # atno 7974 bound_to 7965
  156.2630  140.2021  156.6330 H   0  0  0  0  0  0  0  0  0  0  0  0  # atno 8008 bound_to 7997
  154.6668  140.0554  157.0147 H   0  0  0  0  0  0  0  0  0  0  0  0  # atno 8009 bound_to 7997
  155.1195  140.3223  155.4504 H   0  0  0  0  0  0  0  0  0  0  0  0  # atno 8010 bound_to 7997
  139.5974  144.1083  152.1704 H   0  0  0  0  0  0  0  0  0  0  0  0  # atno 10167 bound_to 10162
  157.6960  131.0398  150.3690 H   0  0  0  0  0  0  0  0  0  0  0  0  # atno 10718 bound_to 10713
  154.8565  135.4298  154.2031 H   0  0  0  0  0  0  0  0  0  0  0  0  # atno 10763 bound_to 10752
  153.3073  135.6973  153.7153 H   0  0  0  0  0  0  0  0  0  0  0  0  # atno 10764 bound_to 10752
  153.6260  135.3493  155.3000 H   0  0  0  0  0  0  0  0  0  0  0  0  # atno 10765 bound_to 10752
  140.9578  134.0977  157.3998 H   0  0  0  0  0  0  0  0  0  0  0  0  # atno 11005 bound_to 11000
  146.3096  139.7700  142.9030 LP  0  0  0  0  0  0  0  0  0  0  0  0  # atno 17320 bound_to 7965
  145.3653  141.0333  143.3261 LP  0  0  0  0  0  0  0  0  0  0  0  0  # atno 17321 bound_to 7965
  140.0672  144.5809  150.7219 LP  0  0  0  0  0  0  0  0  0  0  0  0  # atno 17342 bound_to 10162
  140.7223  143.2600  151.4239 LP  0  0  0  0  0  0  0  0  0  0  0  0  # atno 17343 bound_to 10162
  156.4117  130.3935  149.6887 LP  0  0  0  0  0  0  0  0  0  0  0  0  # atno 17370 bound_to 10713
  156.4168  130.7749  151.2765 LP  0  0  0  0  0  0  0  0  0  0  0  0  # atno 17371 bound_to 10713
  139.8868  135.0084  156.6521 LP  0  0  0  0  0  0  0  0  0  0  0  0  # atno 17394 bound_to 11000
  140.7511  133.8897  155.8347 LP  0  0  0  0  0  0  0  0  0  0  0  0  # atno 17395 bound_to 11000

$$$$
