AV-unprocessed.smi:196|AV-procd|sdf|1530|dock4
  -GOLD-   2262019383D 1   1.00000     0.00000
 Structure written by MMmdl.
 47 50  0  0  0  0  0  0  0  0  1 V2000
  153.1570  138.5721  154.1297 C   0  0  0  0  0  0  0  0  0  0  0  0
  151.7415  138.4838  154.7236 C   0  0  2  0  0  0  0  0  0  0  0  0
  151.0011  139.6582  154.4226 O   0  0  0  0  0  0  0  0  0  0  0  0
  149.9053  139.7009  155.3182 C   0  0  0  0  0  0  0  0  0  0  0  0
  150.5488  139.3300  156.6481 C   0  0  0  0  0  0  0  0  0  0  0  0
  151.6313  138.3172  156.2632 C   0  0  2  0  0  0  0  0  0  0  0  0
  152.8332  138.6855  156.9194 O   0  0  0  0  0  0  0  0  0  0  0  0
  151.2582  136.8767  156.6957 C   0  0  0  0  0  0  0  0  0  0  0  0
  150.3632  136.8261  157.8422 N   0  0  0  0  0  0  0  0  0  0  0  0
  150.5755  137.3872  159.0811 C   0  0  0  0  0  0  0  0  0  0  0  0
  149.6105  137.2152  159.9420 N   0  0  0  0  0  0  0  0  0  0  0  0
  148.6673  136.4598  159.2538 C   0  0  0  0  0  0  0  0  0  0  0  0
  147.3873  135.9262  159.5835 C   0  0  0  0  0  0  0  0  0  0  0  0
  146.8002  136.0903  160.8003 N   0  0  0  0  0  0  0  0  0  0  0  0
  147.4635  135.5327  161.9747 C   0  0  0  0  0  0  0  0  0  0  0  0
  146.3447  135.0229  162.8822 C   0  0  2  0  0  0  0  0  0  0  0  0
  146.0854  133.7464  162.5938 F   0  0  0  0  0  0  0  0  0  0  0  0
  145.1526  135.8864  162.4857 C   0  0  0  0  0  0  0  0  0  0  0  0
  145.3408  136.1028  160.9752 C   0  0  1  0  0  0  0  0  0  0  0  0
  144.6377  137.3951  160.5136 C   0  0  0  0  0  0  0  0  0  0  0  0
  143.3120  137.4964  160.6566 N   0  0  0  0  0  0  0  0  0  0  0  0
  145.3026  138.3072  160.0268 O   0  0  0  0  0  0  0  0  0  0  0  0
  146.7340  135.2363  158.6111 N   0  0  0  0  0  0  0  0  0  0  0  0
  147.2905  135.0645  157.4089 C   0  0  0  0  0  0  0  0  0  0  0  0
  148.4717  135.4987  156.9675 N   0  0  0  0  0  0  0  0  0  0  0  0
  149.1295  136.2045  157.9310 C   0  0  0  0  0  0  0  0  0  0  0  0
  146.5896  135.0777  163.9432 H   0  0  0  0  0  0  0  0  0  0  0  0
  144.9057  135.2538  160.4448 H   0  0  0  0  0  0  0  0  0  0  0  0
  153.7398  137.6820  154.3677 H   0  0  0  0  0  0  0  0  0  0  0  0
  153.6971  139.4407  154.5071 H   0  0  0  0  0  0  0  0  0  0  0  0
  153.1153  138.6593  153.0439 H   0  0  0  0  0  0  0  0  0  0  0  0
  151.2119  137.6657  154.2337 H   0  0  0  0  0  0  0  0  0  0  0  0
  149.4352  140.6842  155.3361 H   0  0  0  0  0  0  0  0  0  0  0  0
  149.1570  138.9634  155.0238 H   0  0  0  0  0  0  0  0  0  0  0  0
  150.9903  140.2286  157.0830 H   0  0  0  0  0  0  0  0  0  0  0  0
  149.8245  138.9441  157.3663 H   0  0  0  0  0  0  0  0  0  0  0  0
  152.6222  138.9790  157.7925 H   0  0  0  0  0  0  0  0  0  0  0  0
  150.7870  136.3421  155.8697 H   0  0  0  0  0  0  0  0  0  0  0  0
  152.1599  136.3153  156.9447 H   0  0  0  0  0  0  0  0  0  0  0  0
  151.4696  137.9410  159.3269 H   0  0  0  0  0  0  0  0  0  0  0  0
  148.1664  134.7335  161.7329 H   0  0  0  0  0  0  0  0  0  0  0  0
  148.0179  136.3320  162.4678 H   0  0  0  0  0  0  0  0  0  0  0  0
  144.1971  135.4203  162.7292 H   0  0  0  0  0  0  0  0  0  0  0  0
  145.2046  136.8355  163.0226 H   0  0  0  0  0  0  0  0  0  0  0  0
  142.8360  138.3334  160.3534 H   0  0  0  0  0  0  0  0  0  0  0  0
  142.7913  136.7323  161.0617 H   0  0  0  0  0  0  0  0  0  0  0  0
  146.7044  134.4990  156.6995 H   0  0  0  0  0  0  0  0  0  0  0  0
  1  2  1  0  0  0  0
  1 29  1  0  0  0  0
  1 30  1  0  0  0  0
  1 31  1  0  0  0  0
  2  6  1  0  0  0  0
  2  3  1  0  0  0  0
  2 32  1  0  0  0  0
  3  4  1  0  0  0  0
  4  5  1  0  0  0  0
  4 33  1  0  0  0  0
  4 34  1  0  0  0  0
  5  6  1  0  0  0  0
  5 35  1  0  0  0  0
  5 36  1  0  0  0  0
  6  7  1  0  0  0  0
  6  8  1  0  0  0  0
  7 37  1  0  0  0  0
  8  9  1  0  0  0  0
  8 38  1  0  0  0  0
  8 39  1  0  0  0  0
  9 26  1  0  0  0  0
  9 10  1  0  0  0  0
 10 11  2  0  0  0  0
 10 40  1  0  0  0  0
 11 12  1  0  0  0  0
 12 26  2  0  0  0  0
 12 13  1  0  0  0  0
 13 14  1  0  0  0  0
 13 23  2  0  0  0  0
 14 19  1  0  0  0  0
 14 15  1  0  0  0  0
 15 16  1  0  0  0  0
 15 41  1  0  0  0  0
 15 42  1  0  0  0  0
 16 27  1  0  0  0  0
 16 17  1  0  0  0  0
 16 18  1  0  0  0  0
 18 19  1  0  0  0  0
 18 43  1  0  0  0  0
 18 44  1  0  0  0  0
 19 28  1  0  0  0  0
 19 20  1  0  0  0  0
 20 21  1  0  0  0  0
 20 22  2  0  0  0  0
 21 45  1  0  0  0  0
 21 46  1  0  0  0  0
 23 24  1  0  0  0  0
 24 25  2  0  0  0  0
 24 47  1  0  0  0  0
 25 26  1  0  0  0  0
M  END
> <s_m_source_file>
AV-unprocessed.smi

> <i_m_source_file_index>
196

> <i_lp_mmshare_version>
43012

> <i_f3d_flags>
0

> <s_epik_input>
W0NIMl0xW0NIMl1PW0NAQEhdKFtDSDNdKVtDQEBdMShbT0hdKVtDSDJdbihbY0hdbjIpYyhjMjMpbltjSF1uYzNONFtDSDJdW0NASF0oRilbQ0gyXVtDQEhdNEMoPU8pW05IMl0=

> <s_epik_cmdline>
J2VwaWtfcHl0aG9uJywgJy1waCcsICc3LjAnLCAnLXRuJywgJzgnLCAnLW1hJywgJzIwMCcsICctbWV0YWxfYmluZGluZycsICctaW1hZScsICc8aW5maWxlLm1hZT4nLCAnLW9tYWUnLCAnPG91dGZpbGUubWFlPic=

> <r_lp_tautomer_probability>
1

> <r_epik_Ionization_Penalty>
0.000857933

> <r_epik_Ionization_Penalty_Charging>
0

> <r_epik_Ionization_Penalty_Neutral>
0.000857933

> <r_epik_State_Penalty>
0.000462053

> <r_epik_Charging_Adjusted_Penalty>
0.000462053

> <i_epik_Tot_Q>
0

> <i_epik_Tot_abs_Q>
0

> <r_epik_Metal_State_Penalty>
-0

> <b_epik_Metal_Only>
0

> <s_lp_Force_Field>
OPLS_2005

> <r_lp_Energy>
46.3924

> <b_lp_Chiralities_Consistent>
1

> <s_lp_Variant>
AV-unprocessed.smi:196-3

> <Gold.Version>
5.8.1

> <Gold.Id.Protein>
6NUR|6NUR_protein|mol2

> <Gold.PLP.Fitness>
41.0015

> <Gold.PLP.PLP>
-35.3515

> <Gold.PLP.part.hbond>
-4.0000

> <Gold.PLP.part.metal>
0.0000

> <Gold.PLP.part.buried>
-6.3994

> <Gold.PLP.part.nonpolar>
-26.3644

> <Gold.PLP.part.repulsive>
0.1698

> <Gold.PLP.ligand.clash>
0.0000

> <Gold.PLP.ligand.torsion>
1.4587

> <Gold.PLP.Chemscore.Hbond>
2.7528

> <Gold.PLP.Chemscore.CHOScore>
0.0000

> <Gold.PLP.Chemscore.Metal>
0.0000

> <Gold.Chemscore.Hbonds>
donor molecule, donor type, donor heavy atom, donor atom, acceptor molecule, acceptor atom, score
      P1  H  6931  6943       L1    11  0.13
      P1  H  6934  6947       L1    22  0.43
      P1  H  7989  7998       L1     3  1.00
      P1  H  7997  8009       L1     7  0.54

> <Gold.PLP.Chemscore.Internal.Correction>
0.3090

> <Gold.Rescore>
     Score         DG    S(hbond)    S(metal)    S(lipo)     H(rot)  DE(clash)    DE(int)     intcor
     14.17     -15.86       2.71        0.00      68.24       2.60       0.23       1.46       ----

> <Gold.Chemscore.Fitness>
14.1671

> <Gold.Chemscore.DG>
-15.8573

> <Gold.Chemscore.ZeroCoef>
-5.4800

> <Gold.Chemscore.Hbond>
2.7068

> <Gold.Chemscore.Metal>
0.0000

> <Gold.Chemscore.Lipo>
68.2423

> <Gold.Chemscore.Internal_Hbond>
0.0000

> <Gold.Chemscore.DEClash>
0.2310

> <Gold.Chemscore.DEInternal>
1.4592

> <Gold.Chemscore.Rot>
2.5968

> <Gold.Chemscore.Internal.Correction>
   9.000000E+99

> <Gold.Chemscore.Hbonds>
donor molecule, donor type, donor heavy atom, donor atom, acceptor molecule, acceptor atom, score
      P1  H  6931  6943       L1    11  0.13
      P1  H  6934  6947       L1    22  0.42
      P1  H  7989  7998       L1     3  0.98
      P1  H  7997  8009       L1     7  0.05

> <Gold.Chemscore.Hbond.Weighted>
-9.0407

> <Gold.Chemscore.Metal.Weighted>
-0.0000

> <Gold.Chemscore.Lipo.Weighted>
-7.9843

> <Gold.Chemscore.Internal_Hbond.Weighted>
0.0000

> <Gold.Chemscore.DEClash.Weighted>
0.2310

> <Gold.Chemscore.DEInternal.Weighted>
1.4592

> <Gold.Chemscore.Rot.Weighted>
6.6477

> <Gold.Chemscore.Internal.Correction.Weighted>
   9.000000E+99

> <Gold.Protein.RotatedTorsions>
[ 6907 6896 6895 6894 ] final  -24.74 input  -60.11 | X-H torsion
[ 7974 7965 7964 7962 ] final   68.20 input  175.53 | X-H torsion
[ 8008 7997 7996 7995 ] final  172.45 input   59.86 | X-H torsion
[ 10167 10162 10161 10158 ] final  107.79 input  -65.29 | X-H torsion
[ 10718 10713 10712 10709 ] final  103.86 input   66.30 | X-H torsion
[ 10763 10752 10751 10750 ] final -129.62 input  -60.55 | X-H torsion
[ 11005 11000 10999 10996 ] final   65.58 input  -57.11 | X-H torsion

> <Gold.Protein.ActiveResidues>
 VAL166  LYS551  ARG553  GLY616  TRP617  ASP618  TYR619  PRO620  LYS621  CYS622 
 ASP623  PHE694  ASN695  SER759  ASP760  ASP761  ALA762  ILE779  LEU786  VAL792 
 PHE793  MET794  SER795  GLU796  ALA797  LYS798  CYS799  TRP800  GLU811  SER814 

> <Gold.Protein.RotatedAtoms>
  151.1851  135.0378  159.8808 H   0  0  0  0  0  0  0  0  0  0  0  0  # atno 6907 bound_to 6896
  152.5442  134.1018  159.8331 H   0  0  0  0  0  0  0  0  0  0  0  0  # atno 6908 bound_to 6896
  151.1140  133.5105  159.2637 H   0  0  0  0  0  0  0  0  0  0  0  0  # atno 6909 bound_to 6896
  145.8054  139.3004  143.1130 H   0  0  0  0  0  0  0  0  0  0  0  0  # atno 7974 bound_to 7965
  156.1173  140.1485  156.9254 H   0  0  0  0  0  0  0  0  0  0  0  0  # atno 8008 bound_to 7997
  154.4810  140.0879  156.7419 H   0  0  0  0  0  0  0  0  0  0  0  0  # atno 8009 bound_to 7997
  155.4490  140.3434  155.4301 H   0  0  0  0  0  0  0  0  0  0  0  0  # atno 8010 bound_to 7997
  139.6899  144.7109  151.1367 H   0  0  0  0  0  0  0  0  0  0  0  0  # atno 10167 bound_to 10162
  157.6759  131.0789  150.5619 H   0  0  0  0  0  0  0  0  0  0  0  0  # atno 10718 bound_to 10713
  154.8757  135.3889  154.3949 H   0  0  0  0  0  0  0  0  0  0  0  0  # atno 10763 bound_to 10752
  153.4680  135.7029  153.6015 H   0  0  0  0  0  0  0  0  0  0  0  0  # atno 10764 bound_to 10752
  153.4485  135.3839  155.2238 H   0  0  0  0  0  0  0  0  0  0  0  0  # atno 10765 bound_to 10752
  139.9885  134.6629  156.0132 H   0  0  0  0  0  0  0  0  0  0  0  0  # atno 11005 bound_to 11000
  145.9833  140.8664  143.0103 LP  0  0  0  0  0  0  0  0  0  0  0  0  # atno 17320 bound_to 7965
  144.6763  140.2112  143.7377 LP  0  0  0  0  0  0  0  0  0  0  0  0  # atno 17321 bound_to 7965
  140.7679  143.5575  150.9136 LP  0  0  0  0  0  0  0  0  0  0  0  0  # atno 17342 bound_to 10162
  139.9252  143.6559  152.3088 LP  0  0  0  0  0  0  0  0  0  0  0  0  # atno 17343 bound_to 10162
  156.5922  130.4332  149.5932 LP  0  0  0  0  0  0  0  0  0  0  0  0  # atno 17370 bound_to 10713
  156.2574  130.6943  151.1700 LP  0  0  0  0  0  0  0  0  0  0  0  0  # atno 17371 bound_to 10713
  141.1546  133.6544  156.4120 LP  0  0  0  0  0  0  0  0  0  0  0  0  # atno 17394 bound_to 11000
  140.4954  134.6536  157.5227 LP  0  0  0  0  0  0  0  0  0  0  0  0  # atno 17395 bound_to 11000

$$$$
