#       Name:                AV-unprocessed.smi:259
#       Creating user name   scv26
#       Creation time:       Thu Mar 26 21:13:55 2020


#       File generated by GOLD software.
#

@<TRIPOS>MOLECULE
AV-unprocessed.smi:259
    66    69     1
SMALL
NO_CHARGES


@<TRIPOS>ATOM
      1 ****        -7.0498   3.2704   1.4607 C.3            1 S1                 0.0000
      2 ****        -5.6370   2.9314   1.3875 N.am           1 S1                 0.0000
      3 ****        -5.0379   2.0227   2.1706 C.2            1 S1                 0.0000
      4 ****        -5.6388   1.3860   3.0359 O.2            1 S1                 0.0000
      5 ****        -3.5305   1.8177   1.9478 C.3            1 S1                 0.0000
      6 ****        -3.0539   0.3464   1.7981 C.3            1 S1                 0.0000
      7 ****        -3.2018  -0.2934   3.0539 O.3            1 S1                 0.0000
      8 ****        -3.8464  -0.4264   0.7108 C.3            1 S1                 0.0000
      9 ****        -3.2350  -1.8042   0.4073 C.3            1 S1                 0.0000
     10 ****        -1.7439  -1.6799   0.0707 C.3            1 S1                 0.0000
     11 ****        -1.0459  -0.9930   1.1488 N.3            1 S1                 0.0000
     12 ****         0.2966  -1.0956   1.0675 C.ar           1 S1                 0.0000
     13 ****         0.8948  -2.0126   1.8664 N.ar           1 S1                 0.0000
     14 ****         2.2226  -2.1608   1.8339 C.ar           1 S1                 0.0000
     15 ****         3.1175  -1.5101   1.0871 N.ar           1 S1                 0.0000
     16 ****         2.5150  -0.5948   0.2745 C.ar           1 S1                 0.0000
     17 ****         1.1199  -0.3250   0.1990 C.ar           1 S1                 0.0000
     18 ****         0.8797   0.6641  -0.7470 N.2            1 S1                 0.0000
     19 ****         2.0657   0.9668  -1.1998 C.2            1 S1                 0.0000
     20 ****         3.1052   0.2528  -0.6472 N.pl3          1 S1                 0.0000
     21 ****         4.5193   0.3818  -0.9642 C.3            1 S1                 0.0000
     22 ****         4.9466  -0.3838  -2.2303 C.3            1 S1                 0.0000
     23 ****         4.6603  -1.8851  -2.0211 C.3            1 S1                 0.0000
     24 ****         5.1078  -2.6777  -3.1028 O.3            1 S1                 0.0000
     25 ****         4.4843   0.2115  -3.5682 C.3            1 S1                 0.0000
     26 ****         5.8350   0.2728  -4.0771 O.3            1 S1                 0.0000
     27 ****         6.3433  -0.0258  -2.7580 C.3            1 S1                 0.0000
     28 ****        -1.5403   0.3432   1.4758 C.3            1 S1                 0.0000
     29 ****        -7.2951   4.0069   0.6957 H              1 S1                 0.0000
     30 ****        -7.2967   3.6948   2.4348 H              1 S1                 0.0000
     31 ****        -7.6708   2.3888   1.2969 H              1 S1                 0.0000
     32 ****        -5.0790   3.4202   0.7024 H              1 S1                 0.0000
     33 ****        -3.2404   2.3725   1.0539 H              1 S1                 0.0000
     34 ****        -3.0026   2.2958   2.7742 H              1 S1                 0.0000
     35 ****        -2.8625  -1.1727   2.9830 H              1 S1                 0.0000
     36 ****        -4.8894  -0.5525   1.0033 H              1 S1                 0.0000
     37 ****        -3.8564   0.1599  -0.2091 H              1 S1                 0.0000
     38 ****        -3.3613  -2.4613   1.2687 H              1 S1                 0.0000
     39 ****        -3.7662  -2.2749  -0.4203 H              1 S1                 0.0000
     40 ****        -1.3147  -2.6712  -0.0832 H              1 S1                 0.0000
     41 ****        -1.6125  -1.1247  -0.8591 H              1 S1                 0.0000
     42 ****         2.6256  -2.9075   2.5020 H              1 S1                 0.0000
     43 ****         2.2136   1.7240  -1.9559 H              1 S1                 0.0000
     44 ****         4.7361   1.4456  -1.0698 H              1 S1                 0.0000
     45 ****         5.0993   0.0490  -0.1026 H              1 S1                 0.0000
     46 ****         5.1425  -2.2491  -1.1133 H              1 S1                 0.0000
     47 ****         3.5922  -2.0714  -1.9095 H              1 S1                 0.0000
     48 ****         4.8962  -3.5808  -2.9218 H              1 S1                 0.0000
     49 ****         3.8438  -0.4482  -4.1548 H              1 S1                 0.0000
     50 ****         4.0440   1.2057  -3.4860 H              1 S1                 0.0000
     51 ****         6.7825   0.8549  -2.2867 H              1 S1                 0.0000
     52 ****         7.0525  -0.8542  -2.7579 H              1 S1                 0.0000
     53 ****        -1.3605   0.9972   0.6223 H              1 S1                 0.0000
     54 ****        -0.9715   0.7552   2.3114 H              1 S1                 0.0000
     55 ****        -6.6170   1.5366   3.1787 LP             1 S1                 0.0000
     56 ****        -5.1488   0.7181   3.5961 LP             1 S1                 0.0000
     57 ****        -4.1692  -0.3241   3.3054 LP             1 S1                 0.0000
     58 ****        -2.6919   0.2100   3.7515 LP             1 S1                 0.0000
     59 ****        -1.2978  -1.5120   1.9657 LP             1 S1                 0.0000
     60 ****         0.3430  -2.5779   2.4797 LP             1 S1                 0.0000
     61 ****         4.1036  -1.6728   1.1192 LP             1 S1                 0.0000
     62 ****        -0.0001   1.0544  -1.0185 LP             1 S1                 0.0000
     63 ****         6.0973  -2.5778  -3.2072 LP             1 S1                 0.0000
     64 ****         4.6528  -2.3871  -3.9445 LP             1 S1                 0.0000
     65 ****         6.1007   1.1725  -4.4233 LP             1 S1                 0.0000
     66 ****         6.0451  -0.4237  -4.7632 LP             1 S1                 0.0000
@<TRIPOS>BOND
    1    1    2 1     
    2    1   29 1     
    3    1   30 1     
    4    1   31 1     
    5    2    3 am    
    6    2   32 1     
    7    3    4 2     
    8    3    5 1     
    9    5    6 1     
   10    5   33 1     
   11    5   34 1     
   12    6   28 1     
   13    6    7 1     
   14    6    8 1     
   15    7   35 1     
   16    8    9 1     
   17    8   36 1     
   18    8   37 1     
   19    9   10 1     
   20    9   38 1     
   21    9   39 1     
   22   10   11 1     
   23   10   40 1     
   24   10   41 1     
   25   11   12 1     
   26   11   28 1     
   27   12   17 ar    
   28   12   13 ar    
   29   13   14 ar    
   30   14   15 ar    
   31   14   42 1     
   32   15   16 ar    
   33   16   20 1     
   34   16   17 ar    
   35   17   18 1     
   36   18   19 2     
   37   19   20 1     
   38   19   43 1     
   39   20   21 1     
   40   21   22 1     
   41   21   44 1     
   42   21   45 1     
   43   22   27 1     
   44   22   23 1     
   45   22   25 1     
   46   23   24 1     
   47   23   46 1     
   48   23   47 1     
   49   24   48 1     
   50   25   26 1     
   51   25   49 1     
   52   25   50 1     
   53   26   27 1     
   54   27   51 1     
   55   27   52 1     
   56   28   53 1     
   57   28   54 1     
   58    4   55 1     
   59    4   56 1     
   60    7   57 1     
   61    7   58 1     
   62   11   59 1     
   63   13   60 1     
   64   15   61 1     
   65   18   62 1     
   66   24   63 1     
   67   24   64 1     
   68   26   65 1     
   69   26   66 1     
@<TRIPOS>SUBSTRUCTURE
      1 S1             1
@<TRIPOS>SET
LONE_PAIRS      STATIC     ATOMS    <user>   **** ""
12 55 56 57 58 59 60 61 62 63 64 65 66
DONOR_HYDROGENS      STATIC     ATOMS    <user>   **** ""
3 32 35 48
ATOM$BLUE        STATIC     ATOMS    COLORGROUP SYSTEM
12 55 56 57 58 59 60 61 62 63 64 65 66
ATOM$RED        STATIC     ATOMS    COLORGROUP SYSTEM
3 32 35 48
