#       Name:                AV-unprocessed.smi:3330
#       Creating user name   scv26
#       Creation time:       Fri Mar 27 19:17:50 2020


#       File generated by GOLD software.
#

@<TRIPOS>MOLECULE
AV-unprocessed.smi:3330
    44    45     1
SMALL
NO_CHARGES


@<TRIPOS>ATOM
      1 ****        -1.4656  -0.6018   2.2332 C.3            1 S1                 0.0000
      2 ****        -0.9416  -0.4107   0.7980 C.3            1 S1                 0.0000
      3 ****         0.5371  -0.4743   0.8222 N.4            1 S1                 1.0000
      4 ****         1.2220   0.6660   0.1820 C.3            1 S1                 0.0000
      5 ****         2.7437   0.4613   0.1920 C.3            1 S1                 0.0000
      6 ****         3.4320   1.5793  -0.4578 N.am           1 S1                 0.0000
      7 ****         3.9059   2.6507   0.1850 C.2            1 S1                 0.0000
      8 ****         3.8603   2.8885   1.3920 O.2            1 S1                 0.0000
      9 ****         4.5190   3.5665  -0.8486 C.3            1 S1                 0.0000
     10 ****         4.2826   2.8447  -2.0787 N.pl3          1 S1                -1.0000
     11 ****         3.6404   1.6912  -1.7833 C.2            1 S1                 0.0000
     12 ****         3.2672   0.8301  -2.5795 O.2            1 S1                 0.0000
     13 ****        -1.5172  -1.4534  -0.1999 C.3            1 S1                 0.0000
     14 ****        -1.0921  -1.1945  -1.6579 C.3            1 S1                 0.0000
     15 ****        -2.9692  -1.5494  -0.1171 N.pl3          1 S1                 0.0000
     16 ****        -3.7356  -2.6474   0.2170 C.2            1 S1                 0.0000
     17 ****        -5.0451  -2.2652   0.1573 C.2            1 S1                 0.0000
     18 ****        -4.9814  -0.8987  -0.2325 C.2            1 S1                 0.0000
     19 ****        -3.7395  -0.4736  -0.3970 N.2            1 S1                 0.0000
     20 ****        -2.5449  -0.4614   2.2942 H              1 S1                 0.0000
     21 ****        -1.0127   0.1199   2.9140 H              1 S1                 0.0000
     22 ****        -1.2378  -1.6001   2.6083 H              1 S1                 0.0000
     23 ****        -1.2487   0.5869   0.4784 H              1 S1                 0.0000
     24 ****         0.8365  -0.5087   1.7860 H              1 S1                 0.0000
     25 ****         0.8668   0.7771  -0.8430 H              1 S1                 0.0000
     26 ****         0.9629   1.5829   0.7134 H              1 S1                 0.0000
     27 ****         3.0988   0.3472   1.2177 H              1 S1                 0.0000
     28 ****         2.9998  -0.4714  -0.3138 H              1 S1                 0.0000
     29 ****         4.0292   4.5402  -0.8191 H              1 S1                 0.0000
     30 ****         5.5776   3.7147  -0.6331 H              1 S1                 0.0000
     31 ****        -1.1279  -2.4329   0.0827 H              1 S1                 0.0000
     32 ****        -0.0128  -1.2825  -1.7824 H              1 S1                 0.0000
     33 ****        -1.3857  -0.1982  -1.9905 H              1 S1                 0.0000
     34 ****        -1.5514  -1.9175  -2.3329 H              1 S1                 0.0000
     35 ****        -3.2912  -3.5994   0.4677 H              1 S1                 0.0000
     36 ****        -5.9167  -2.8702   0.3591 H              1 S1                 0.0000
     37 ****        -5.7948  -0.2081  -0.4001 H              1 S1                 0.0000
     38 ****         0.8284  -1.3267   0.3656 H              1 S1                 0.0000
     39 ****         3.4280   2.2358   2.0143 LP             1 S1                 0.0000
     40 ****         4.2556   3.7343   1.7503 LP             1 S1                 0.0000
     41 ****         4.5490   3.1471  -2.9939 LP             1 S1                 0.0000
     42 ****         2.7924   0.0148  -2.2480 LP             1 S1                 0.0000
     43 ****         3.4388   0.9457  -3.5578 LP             1 S1                 0.0000
     44 ****        -3.4373   0.4403  -0.6681 LP             1 S1                 0.0000
@<TRIPOS>BOND
    1    1    2 1     
    2    1   20 1     
    3    1   21 1     
    4    1   22 1     
    5    2    3 1     
    6    2   13 1     
    7    2   23 1     
    8    3    4 1     
    9    3   24 1     
   10    3   38 1     
   11    4    5 1     
   12    4   25 1     
   13    4   26 1     
   14    5    6 1     
   15    5   27 1     
   16    5   28 1     
   17    6   11 am    
   18    6    7 am    
   19    7    8 2     
   20    7    9 1     
   21    9   10 1     
   22    9   29 1     
   23    9   30 1     
   24   10   11 1     
   25   11   12 2     
   26   13   14 1     
   27   13   15 1     
   28   13   31 1     
   29   14   32 1     
   30   14   33 1     
   31   14   34 1     
   32   15   19 1     
   33   15   16 1     
   34   16   17 2     
   35   16   35 1     
   36   17   18 1     
   37   17   36 1     
   38   18   19 2     
   39   18   37 1     
   40    8   39 1     
   41    8   40 1     
   42   10   41 1     
   43   12   42 1     
   44   12   43 1     
   45   19   44 1     
@<TRIPOS>SUBSTRUCTURE
      1 S1             1
@<TRIPOS>SET
LONE_PAIRS      STATIC     ATOMS    <user>   **** ""
6 39 40 41 42 43 44
DONOR_HYDROGENS      STATIC     ATOMS    <user>   **** ""
2 24 38
ATOM$BLUE        STATIC     ATOMS    COLORGROUP SYSTEM
6 39 40 41 42 43 44
ATOM$RED        STATIC     ATOMS    COLORGROUP SYSTEM
2 24 38
