#       Name:                AV-unprocessed.smi:2451
#       Creating user name   scv26
#       Creation time:       Fri Mar 27 13:30:57 2020


#       File generated by GOLD software.
#

@<TRIPOS>MOLECULE
AV-unprocessed.smi:2451
    42    43     1
SMALL
NO_CHARGES


@<TRIPOS>ATOM
      1 ****        -3.2013  -1.8458  -2.1457 C.3            1 S1                 0.0000
      2 ****        -2.6678  -1.1840  -0.8644 C.3            1 S1                 0.0000
      3 ****        -3.2056  -1.8778   0.4055 C.3            1 S1                 0.0000
      4 ****        -2.7521  -1.1544   1.6850 C.3            1 S1                 0.0000
      5 ****        -1.2254  -0.9873   1.7342 C.3            1 S1                 0.0000
      6 ****        -0.7110  -0.2964   0.4588 C.3            1 S1                 0.0000
      7 ****         0.7405  -0.1061   0.5272 N.3            1 S1                 0.0000
      8 ****         1.3689   1.4978   0.4667 S.o2           1 S1                 0.0000
      9 ****         0.8412   2.1359  -0.7494 O.2            1 S1                 0.0000
     10 ****         1.1304   2.1139   1.7809 O.2            1 S1                 0.0000
     11 ****         3.1752   1.2128   0.2467 C.3            1 S1                 0.0000
     12 ****         3.9016   2.5268   0.2915 C.2            1 S1                 0.0000
     13 ****         3.9377   3.5523  -0.6937 C.2            1 S1                 0.0000
     14 ****         4.7387   4.5050  -0.1329 C.2            1 S1                 0.0000
     15 ****         5.1671   4.1051   1.0909 O.3            1 S1                 0.0000
     16 ****         4.6286   2.8402   1.3524 N.2            1 S1                 0.0000
     17 ****        -1.1214  -1.0513  -0.8304 C.3            1 S1                 0.0000
     18 ****        -0.3891  -2.4030  -1.0018 C.3            1 S1                 0.0000
     19 ****        -2.9393  -2.9026  -2.1973 H              1 S1                 0.0000
     20 ****        -2.8066  -1.3559  -3.0361 H              1 S1                 0.0000
     21 ****        -4.2888  -1.7797  -2.1908 H              1 S1                 0.0000
     22 ****        -3.0692  -0.1692  -0.8641 H              1 S1                 0.0000
     23 ****        -4.2953  -1.9070   0.3777 H              1 S1                 0.0000
     24 ****        -2.8771  -2.9172   0.4351 H              1 S1                 0.0000
     25 ****        -3.2237  -0.1720   1.7307 H              1 S1                 0.0000
     26 ****        -3.0952  -1.7017   2.5633 H              1 S1                 0.0000
     27 ****        -0.9519  -0.4010   2.6122 H              1 S1                 0.0000
     28 ****        -0.7511  -1.9613   1.8567 H              1 S1                 0.0000
     29 ****        -1.1727   0.6918   0.4215 H              1 S1                 0.0000
     30 ****         1.1470  -0.6358   1.2980 H              1 S1                 0.0000
     31 ****         3.5152   0.5428   1.0368 H              1 S1                 0.0000
     32 ****         3.3313   0.7093  -0.7071 H              1 S1                 0.0000
     33 ****         3.4486   3.5851  -1.6559 H              1 S1                 0.0000
     34 ****         5.0819   5.4744  -0.4627 H              1 S1                 0.0000
     35 ****        -0.8286  -0.4279  -1.6767 H              1 S1                 0.0000
     36 ****        -0.6339  -3.1094  -0.2095 H              1 S1                 0.0000
     37 ****         0.6932  -2.2736  -1.0006 H              1 S1                 0.0000
     38 ****        -0.6387  -2.8741  -1.9519 H              1 S1                 0.0000
     39 ****         1.0376  -0.4737  -0.3540 LP             1 S1                 0.0000
     40 ****         4.8586   4.7544   1.7861 LP             1 S1                 0.0000
     41 ****         6.1658   4.0561   1.1003 LP             1 S1                 0.0000
     42 ****         4.7651   2.2860   2.1735 LP             1 S1                 0.0000
@<TRIPOS>BOND
    1    1    2 1     
    2    1   19 1     
    3    1   20 1     
    4    1   21 1     
    5    2   17 1     
    6    2    3 1     
    7    2   22 1     
    8    3    4 1     
    9    3   23 1     
   10    3   24 1     
   11    4    5 1     
   12    4   25 1     
   13    4   26 1     
   14    5    6 1     
   15    5   27 1     
   16    5   28 1     
   17    6    7 1     
   18    6   17 1     
   19    6   29 1     
   20    7    8 1     
   21    7   30 1     
   22    8    9 2     
   23    8   10 2     
   24    8   11 1     
   25   11   12 1     
   26   11   31 1     
   27   11   32 1     
   28   12   16 2     
   29   12   13 1     
   30   13   14 2     
   31   13   33 1     
   32   14   15 1     
   33   14   34 1     
   34   15   16 1     
   35   17   18 1     
   36   17   35 1     
   37   18   36 1     
   38   18   37 1     
   39   18   38 1     
   40    7   39 1     
   41   15   40 1     
   42   15   41 1     
   43   16   42 1     
@<TRIPOS>SUBSTRUCTURE
      1 S1             1
@<TRIPOS>SET
LONE_PAIRS      STATIC     ATOMS    <user>   **** ""
6 39 9 10 40 41 42
DONOR_HYDROGENS      STATIC     ATOMS    <user>   **** ""
1 30
ATOM$BLUE        STATIC     ATOMS    COLORGROUP SYSTEM
6 39 9 10 40 41 42
ATOM$RED        STATIC     ATOMS    COLORGROUP SYSTEM
1 30
