AV-unprocessed.smi:684|AV-procd|sdf|3332|dock9
  -GOLD-   22720 0303D 1   1.00000     0.00000
 Structure written by MMmdl.
 40 41  0  0  0  0  0  0  0  0  1 V2000
  151.8753  145.5379  159.7173 C   0  0  0  0  0  0  0  0  0  0  0  0
  152.7895  144.4392  159.1631 C   0  0  0  0  0  0  0  0  0  0  0  0
  152.0265  143.3628  158.5554 N   0  0  0  0  0  0  0  0  0  0  0  0
  151.2355  143.6415  157.4968 N   0  0  0  0  0  0  0  0  0  0  0  0
  150.6846  142.4773  157.1898 C   0  0  0  0  0  0  0  0  0  0  0  0
  149.7674  142.2382  156.1349 N   0  0  0  0  0  0  0  0  0  0  0  0
  149.7998  141.2459  155.2291 C   0  0  0  0  0  0  0  0  0  0  0  0
  150.6612  140.3676  155.1697 O   0  0  0  0  0  0  0  0  0  0  0  0
  148.7667  141.3326  154.3782 N   0  0  0  0  0  0  0  0  0  0  0  0
  148.4984  140.4178  153.2717 C   0  0  0  0  0  0  0  0  0  0  0  0
  147.0869  139.7988  153.3517 C   0  0  0  0  0  0  0  0  0  0  0  0
  146.8995  139.0468  154.6776 C   0  0  0  0  0  0  0  0  0  0  0  0
  146.7711  138.8753  152.1622 C   0  0  0  0  0  0  0  0  0  0  0  0
  151.1019  141.4189  158.0409 C   0  0  0  0  0  0  0  0  0  0  0  0
  151.9621  142.0258  158.9137 C   0  0  0  0  0  0  0  0  0  0  0  0
  152.7385  141.4592  160.0589 C   0  0  0  0  0  0  0  0  0  0  0  0
  154.2333  141.6460  160.1674 C   0  0  0  0  0  0  0  0  0  0  0  0
  153.6596  140.2802  159.8645 C   0  0  0  0  0  0  0  0  0  0  0  0
  152.4611  146.3368  160.1718 H   0  0  0  0  0  0  0  0  0  0  0  0
  151.2016  145.1445  160.4790 H   0  0  0  0  0  0  0  0  0  0  0  0
  151.2669  145.9793  158.9272 H   0  0  0  0  0  0  0  0  0  0  0  0
  153.4680  144.8552  158.4167 H   0  0  0  0  0  0  0  0  0  0  0  0
  153.4144  144.0304  159.9574 H   0  0  0  0  0  0  0  0  0  0  0  0
  149.0042  142.8942  156.0617 H   0  0  0  0  0  0  0  0  0  0  0  0
  148.1126  142.0910  154.5046 H   0  0  0  0  0  0  0  0  0  0  0  0
  148.6430  140.9106  152.3086 H   0  0  0  0  0  0  0  0  0  0  0  0
  149.2476  139.6270  153.3194 H   0  0  0  0  0  0  0  0  0  0  0  0
  146.3620  140.6140  153.3372 H   0  0  0  0  0  0  0  0  0  0  0  0
  147.5919  138.2082  154.7583 H   0  0  0  0  0  0  0  0  0  0  0  0
  145.8869  138.6521  154.7660 H   0  0  0  0  0  0  0  0  0  0  0  0
  147.0704  139.7034  155.5311 H   0  0  0  0  0  0  0  0  0  0  0  0
  147.4939  138.0618  152.0910 H   0  0  0  0  0  0  0  0  0  0  0  0
  146.7845  139.4171  151.2167 H   0  0  0  0  0  0  0  0  0  0  0  0
  145.7803  138.4313  152.2629 H   0  0  0  0  0  0  0  0  0  0  0  0
  150.8145  140.3783  158.0187 H   0  0  0  0  0  0  0  0  0  0  0  0
  152.1673  141.5051  160.9841 H   0  0  0  0  0  0  0  0  0  0  0  0
  154.7469  142.1609  159.3578 H   0  0  0  0  0  0  0  0  0  0  0  0
  154.6481  141.8083  161.1601 H   0  0  0  0  0  0  0  0  0  0  0  0
  153.6894  139.5326  160.6543 H   0  0  0  0  0  0  0  0  0  0  0  0
  153.7840  139.8971  158.8533 H   0  0  0  0  0  0  0  0  0  0  0  0
  1  2  1  0  0  0  0
  1 19  1  0  0  0  0
  1 20  1  0  0  0  0
  1 21  1  0  0  0  0
  2  3  1  0  0  0  0
  2 22  1  0  0  0  0
  2 23  1  0  0  0  0
  3 15  1  0  0  0  0
  3  4  1  0  0  0  0
  4  5  2  0  0  0  0
  5  6  1  0  0  0  0
  5 14  1  0  0  0  0
  6  7  1  0  0  0  0
  6 24  1  0  0  0  0
  7  8  2  0  0  0  0
  7  9  1  0  0  0  0
  9 10  1  0  0  0  0
  9 25  1  0  0  0  0
 10 11  1  0  0  0  0
 10 26  1  0  0  0  0
 10 27  1  0  0  0  0
 11 12  1  0  0  0  0
 11 13  1  0  0  0  0
 11 28  1  0  0  0  0
 12 29  1  0  0  0  0
 12 30  1  0  0  0  0
 12 31  1  0  0  0  0
 13 32  1  0  0  0  0
 13 33  1  0  0  0  0
 13 34  1  0  0  0  0
 14 15  2  0  0  0  0
 14 35  1  0  0  0  0
 15 16  1  0  0  0  0
 16 18  1  0  0  0  0
 16 17  1  0  0  0  0
 16 36  1  0  0  0  0
 17 18  1  0  0  0  0
 17 37  1  0  0  0  0
 17 38  1  0  0  0  0
 18 39  1  0  0  0  0
 18 40  1  0  0  0  0
M  END
> <s_m_source_file>
AV-unprocessed.smi

> <i_m_source_file_index>
684

> <i_lp_mmshare_version>
43012

> <i_f3d_flags>
0

> <s_epik_input>
W0NIMl0xW0NIMl1bQ0hdMWMyW2NIXWMobm4yW0NIMl1bQ0gzXSlbTkhdQyg9TylbTkhdW0NIMl1bQ0hdKFtDSDNdKVtDSDNd

> <s_epik_cmdline>
J2VwaWtfcHl0aG9uJywgJy1waCcsICc3LjAnLCAnLXRuJywgJzgnLCAnLW1hJywgJzIwMCcsICctbWV0YWxfYmluZGluZycsICctaW1hZScsICc8aW5maWxlLm1hZT4nLCAnLW9tYWUnLCAnPG91dGZpbGUubWFlPic=

> <r_lp_tautomer_probability>
1

> <r_epik_Ionization_Penalty>
4.15598e-05

> <r_epik_Ionization_Penalty_Charging>
0

> <r_epik_Ionization_Penalty_Neutral>
4.15598e-05

> <r_epik_State_Penalty>
-0

> <r_epik_Charging_Adjusted_Penalty>
0

> <i_epik_Tot_Q>
0

> <i_epik_Tot_abs_Q>
0

> <r_epik_Metal_State_Penalty>
-0

> <b_epik_Metal_Only>
0

> <s_lp_Force_Field>
OPLS_2005

> <r_lp_Energy>
10.212

> <b_lp_Chiralities_Consistent>
1

> <s_lp_Variant>
AV-unprocessed.smi:684-1

> <Gold.Version>
5.8.1

> <Gold.Id.Protein>
6NUR|6NUR_protein|mol2

> <Gold.PLP.Fitness>
43.0901

> <Gold.PLP.PLP>
-38.7934

> <Gold.PLP.part.hbond>
-2.0000

> <Gold.PLP.part.metal>
0.0000

> <Gold.PLP.part.buried>
0.3253

> <Gold.PLP.part.nonpolar>
-36.6417

> <Gold.PLP.part.repulsive>
0.5131

> <Gold.PLP.ligand.clash>
0.0000

> <Gold.PLP.ligand.torsion>
0.4860

> <Gold.PLP.Chemscore.Hbond>
1.7040

> <Gold.PLP.Chemscore.CHOScore>
0.0000

> <Gold.PLP.Chemscore.Metal>
0.0000

> <Gold.Chemscore.Hbonds>
donor molecule, donor type, donor heavy atom, donor atom, acceptor molecule, acceptor atom, score
      L1  H     6    24       P1  8028  0.69
      P1  H  7989  7998       L1     8  1.00

> <Gold.PLP.Chemscore.Internal.Correction>
0.1566

> <Gold.Rescore>
     Score         DG    S(hbond)    S(metal)    S(lipo)     H(rot)  DE(clash)    DE(int)     intcor
     15.62     -17.84       1.41        0.00      97.12       1.45       1.72       0.50       ----

> <Gold.Chemscore.Fitness>
15.6167

> <Gold.Chemscore.DG>
-17.8409

> <Gold.Chemscore.ZeroCoef>
-5.4800

> <Gold.Chemscore.Hbond>
1.4066

> <Gold.Chemscore.Metal>
0.0000

> <Gold.Chemscore.Lipo>
97.1163

> <Gold.Chemscore.Internal_Hbond>
0.0000

> <Gold.Chemscore.DEClash>
1.7214

> <Gold.Chemscore.DEInternal>
0.5028

> <Gold.Chemscore.Rot>
1.4452

> <Gold.Chemscore.Internal.Correction>
   9.000000E+99

> <Gold.Chemscore.Hbonds>
donor molecule, donor type, donor heavy atom, donor atom, acceptor molecule, acceptor atom, score
      L1  H     6    24       P1  8028  0.70
      P1  H  7989  7998       L1     8  0.28

> <Gold.Chemscore.Hbond.Weighted>
-4.6981

> <Gold.Chemscore.Metal.Weighted>
-0.0000

> <Gold.Chemscore.Lipo.Weighted>
-11.3626

> <Gold.Chemscore.Internal_Hbond.Weighted>
0.0000

> <Gold.Chemscore.DEClash.Weighted>
1.7214

> <Gold.Chemscore.DEInternal.Weighted>
0.5028

> <Gold.Chemscore.Rot.Weighted>
3.6998

> <Gold.Chemscore.Internal.Correction.Weighted>
   9.000000E+99

> <Gold.Protein.RotatedTorsions>
[ 6907 6896 6895 6894 ] final -121.19 input  -60.11 | X-H torsion
[ 7974 7965 7964 7962 ] final  100.86 input  175.53 | X-H torsion
[ 8008 7997 7996 7995 ] final  -86.75 input   59.86 | X-H torsion
[ 10167 10162 10161 10158 ] final  -54.98 input  -65.29 | X-H torsion
[ 10718 10713 10712 10709 ] final   80.66 input   66.30 | X-H torsion
[ 10763 10752 10751 10750 ] final   -6.00 input  -60.55 | X-H torsion
[ 11005 11000 10999 10996 ] final    3.32 input  -57.11 | X-H torsion

> <Gold.Protein.ActiveResidues>
 VAL166  LYS551  ARG553  GLY616  TRP617  ASP618  TYR619  PRO620  LYS621  CYS622 
 ASP623  PHE694  ASN695  SER759  ASP760  ASP761  ALA762  ILE779  LEU786  VAL792 
 PHE793  MET794  SER795  GLU796  ALA797  LYS798  CYS799  TRP800  GLU811  SER814 

> <Gold.Protein.RotatedAtoms>
  150.8461  133.7859  159.3042 H   0  0  0  0  0  0  0  0  0  0  0  0  # atno 6907 bound_to 6896
  151.5546  135.1065  159.9967 H   0  0  0  0  0  0  0  0  0  0  0  0  # atno 6908 bound_to 6896
  152.4514  133.7595  159.6795 H   0  0  0  0  0  0  0  0  0  0  0  0  # atno 6909 bound_to 6896
  145.3800  139.2381  143.3409 H   0  0  0  0  0  0  0  0  0  0  0  0  # atno 7974 bound_to 7965
  154.6555  140.0574  157.0003 H   0  0  0  0  0  0  0  0  0  0  0  0  # atno 8008 bound_to 7997
  155.1307  140.3256  155.4456 H   0  0  0  0  0  0  0  0  0  0  0  0  # atno 8009 bound_to 7997
  156.2595  140.1981  156.6426 H   0  0  0  0  0  0  0  0  0  0  0  0  # atno 8010 bound_to 7997
  140.6400  143.2503  151.5014 H   0  0  0  0  0  0  0  0  0  0  0  0  # atno 10167 bound_to 10162
  157.6812  130.9969  150.2111 H   0  0  0  0  0  0  0  0  0  0  0  0  # atno 10718 bound_to 10713
  153.4063  135.7006  153.6390 H   0  0  0  0  0  0  0  0  0  0  0  0  # atno 10763 bound_to 10752
  153.4902  135.3674  155.2488 H   0  0  0  0  0  0  0  0  0  0  0  0  # atno 10764 bound_to 10752
  154.8714  135.4087  154.3408 H   0  0  0  0  0  0  0  0  0  0  0  0  # atno 10765 bound_to 10752
  140.5944  133.9894  155.8103 H   0  0  0  0  0  0  0  0  0  0  0  0  # atno 11005 bound_to 11000
  146.2846  140.4465  142.8763 LP  0  0  0  0  0  0  0  0  0  0  0  0  # atno 17320 bound_to 7965
  144.8515  140.7008  143.6165 LP  0  0  0  0  0  0  0  0  0  0  0  0  # atno 17321 bound_to 7965
  139.5609  144.2158  152.1690 LP  0  0  0  0  0  0  0  0  0  0  0  0  # atno 17342 bound_to 10162
  140.1425  144.5189  150.6735 LP  0  0  0  0  0  0  0  0  0  0  0  0  # atno 17343 bound_to 10162
  156.2782  130.3730  149.7962 LP  0  0  0  0  0  0  0  0  0  0  0  0  # atno 17370 bound_to 10713
  156.5658  130.8403  151.3342 LP  0  0  0  0  0  0  0  0  0  0  0  0  # atno 17371 bound_to 10713
  141.0913  133.9912  157.3232 LP  0  0  0  0  0  0  0  0  0  0  0  0  # atno 17394 bound_to 11000
  139.9260  135.0201  156.8234 LP  0  0  0  0  0  0  0  0  0  0  0  0  # atno 17395 bound_to 11000

$$$$
