AV-unprocessed.smi:47|AV-procd|sdf|442|dock1
  -GOLD-   2262016313D 1   1.00000     0.00000
 Structure written by MMmdl.
 32 34  0  0  0  0  0  0  0  0  2 V2000
  146.5861  140.1993  152.5325 O   0  0  0  0  0  0  0  0  0  0  0  0
  147.0007  140.5316  153.8411 C   0  0  2  0  0  0  0  0  0  0  0  0
  146.9301  142.0482  154.0730 C   0  0  0  0  0  0  0  0  0  0  0  0
  148.1092  142.3744  154.8884 N   0  3  0  0  0  0  0  0  0  0  0  0
  149.1730  141.4520  154.4585 C   0  0  1  0  0  0  0  0  0  0  0  0
  150.1192  141.3596  155.6180 C   0  0  0  0  0  0  0  0  0  0  0  0
  150.9461  140.3422  155.8718 N   0  0  0  0  0  0  0  0  0  0  0  0
  151.6228  140.7009  157.0224 N   0  0  0  0  0  0  0  0  0  0  0  0
  151.1595  141.9084  157.3770 C   0  0  0  0  0  0  0  0  0  0  0  0
  151.6208  142.6538  158.5501 C   0  0  0  0  0  0  0  0  0  0  0  0
  151.3727  144.0420  158.6610 C   0  0  0  0  0  0  0  0  0  0  0  0
  151.8199  144.7597  159.7874 C   0  0  0  0  0  0  0  0  0  0  0  0
  152.5214  144.0986  160.8127 C   0  0  0  0  0  0  0  0  0  0  0  0
  152.7751  142.7181  160.7110 C   0  0  0  0  0  0  0  0  0  0  0  0
  152.3270  141.9990  159.5860 C   0  0  0  0  0  0  0  0  0  0  0  0
  150.2200  142.3456  156.5194 N   0  0  0  0  0  0  0  0  0  0  0  0
  148.4680  140.1415  154.0858 C   0  0  0  0  0  0  0  0  0  0  0  0
  146.3600  140.0158  154.5576 H   0  0  0  0  0  0  0  0  0  0  0  0
  149.6739  141.8776  153.5874 H   0  0  0  0  0  0  0  0  0  0  0  0
  149.7145  143.2192  156.5487 H   0  0  0  0  0  0  0  0  0  0  0  0
  145.6414  140.2220  152.4982 H   0  0  0  0  0  0  0  0  0  0  0  0
  147.0170  142.5894  153.1293 H   0  0  0  0  0  0  0  0  0  0  0  0
  146.0038  142.3604  154.5560 H   0  0  0  0  0  0  0  0  0  0  0  0
  148.3857  143.3405  154.7883 H   0  0  0  0  0  0  0  0  0  0  0  0
  150.8360  144.5706  157.8871 H   0  0  0  0  0  0  0  0  0  0  0  0
  151.6250  145.8194  159.8650 H   0  0  0  0  0  0  0  0  0  0  0  0
  152.8651  144.6494  161.6758 H   0  0  0  0  0  0  0  0  0  0  0  0
  153.3150  142.2094  161.4962 H   0  0  0  0  0  0  0  0  0  0  0  0
  152.5347  140.9406  159.5278 H   0  0  0  0  0  0  0  0  0  0  0  0
  148.5101  139.4309  154.9128 H   0  0  0  0  0  0  0  0  0  0  0  0
  148.9428  139.6629  153.2282 H   0  0  0  0  0  0  0  0  0  0  0  0
  147.8955  142.1762  155.8558 H   0  0  0  0  0  0  0  0  0  0  0  0
  1  2  1  0  0  0  0
  1 21  1  0  0  0  0
  2 18  1  0  0  0  0
  2 17  1  0  0  0  0
  2  3  1  0  0  0  0
  3  4  1  0  0  0  0
  3 22  1  0  0  0  0
  3 23  1  0  0  0  0
  4  5  1  0  0  0  0
  4 24  1  0  0  0  0
  4 32  1  0  0  0  0
  5 19  1  0  0  0  0
  5 17  1  0  0  0  0
  5  6  1  0  0  0  0
  6  7  2  0  0  0  0
  6 16  1  0  0  0  0
  7  8  1  0  0  0  0
  8  9  2  0  0  0  0
  9 16  1  0  0  0  0
  9 10  1  0  0  0  0
 10 15  1  0  0  0  0
 10 11  2  0  0  0  0
 11 12  1  0  0  0  0
 11 25  1  0  0  0  0
 12 13  2  0  0  0  0
 12 26  1  0  0  0  0
 13 14  1  0  0  0  0
 13 27  1  0  0  0  0
 14 15  2  0  0  0  0
 14 28  1  0  0  0  0
 15 29  1  0  0  0  0
 16 20  1  0  0  0  0
 17 30  1  0  0  0  0
 17 31  1  0  0  0  0
M  CHG  1   4   1
M  END
> <s_m_source_file>
AV-unprocessed.smi

> <i_m_source_file_index>
47

> <i_lp_mmshare_version>
43012

> <i_f3d_flags>
0

> <s_epik_input>
W09IXVtDQEhdMVtDSDJdW05IXVtDQEBIXShbQ0gyXTEpYzJuW25IXWMobjIpLWMzW2NIXVtjSF1bY0hdW2NIXVtjSF0z

> <s_epik_cmdline>
J2VwaWtfcHl0aG9uJywgJy1waCcsICc3LjAnLCAnLXRuJywgJzgnLCAnLW1hJywgJzIwMCcsICctbWV0YWxfYmluZGluZycsICctaW1hZScsICc8aW5maWxlLm1hZT4nLCAnLW9tYWUnLCAnPG91dGZpbGUubWFlPic=

> <r_lp_tautomer_probability>
0.0517155

> <r_epik_Ionization_Penalty>
2.45729

> <r_epik_Ionization_Penalty_Charging>
0.0688988

> <r_epik_Ionization_Penalty_Neutral>
2.3884

> <r_epik_State_Penalty>
2.69236

> <r_epik_Charging_Adjusted_Penalty>
2.76126

> <i_epik_Tot_Q>
1

> <i_epik_Tot_abs_Q>
1

> <r_epik_Metal_State_Penalty>
3.18974

> <b_epik_Metal_Only>
0

> <s_lp_Force_Field>
OPLS_2005

> <r_lp_Energy>
30.5678

> <b_lp_Chiralities_Consistent>
1

> <s_lp_Variant>
AV-unprocessed.smi:47-20

> <Gold.Version>
5.8.1

> <Gold.Id.Protein>
6NUR|6NUR_protein|mol2

> <Gold.PLP.Fitness>
50.5936

> <Gold.PLP.PLP>
-40.5687

> <Gold.PLP.part.hbond>
-3.2755

> <Gold.PLP.part.metal>
0.0000

> <Gold.PLP.part.buried>
-5.6476

> <Gold.PLP.part.nonpolar>
-31.1367

> <Gold.PLP.part.repulsive>
0.2408

> <Gold.PLP.ligand.clash>
0.0000

> <Gold.PLP.ligand.torsion>
0.7785

> <Gold.PLP.Chemscore.Hbond>
3.8560

> <Gold.PLP.Chemscore.CHOScore>
0.0000

> <Gold.PLP.Chemscore.Metal>
0.0000

> <Gold.Chemscore.Hbonds>
donor molecule, donor type, donor heavy atom, donor atom, acceptor molecule, acceptor atom, score
      L1  H     1    21       P1 10175  1.00
      L1  H     4    24       P1  8028  1.79
      L1  H    16    20       P1  8028  1.00

> <Gold.PLP.Chemscore.Internal.Correction>
0.0140

> <Gold.Rescore>
     Score         DG    S(hbond)    S(metal)    S(lipo)     H(rot)  DE(clash)    DE(int)     intcor
     21.20     -22.01       2.80        0.00      94.03       1.50       0.06       0.75       ----

> <Gold.Chemscore.Fitness>
21.1984

> <Gold.Chemscore.DG>
-22.0061

> <Gold.Chemscore.ZeroCoef>
-5.4800

> <Gold.Chemscore.Hbond>
2.8010

> <Gold.Chemscore.Metal>
0.0000

> <Gold.Chemscore.Lipo>
94.0328

> <Gold.Chemscore.Internal_Hbond>
0.0000

> <Gold.Chemscore.DEClash>
0.0589

> <Gold.Chemscore.DEInternal>
0.7488

> <Gold.Chemscore.Rot>
1.4966

> <Gold.Chemscore.Internal.Correction>
   9.000000E+99

> <Gold.Chemscore.Hbonds>
donor molecule, donor type, donor heavy atom, donor atom, acceptor molecule, acceptor atom, score
      L1  H     1    21       P1 10175  0.77
      L1  H     4    24       P1  8028  0.88
      L1  H    16    20       P1  8028  0.95

> <Gold.Chemscore.Hbond.Weighted>
-9.3555

> <Gold.Chemscore.Metal.Weighted>
-0.0000

> <Gold.Chemscore.Lipo.Weighted>
-11.0018

> <Gold.Chemscore.Internal_Hbond.Weighted>
0.0000

> <Gold.Chemscore.DEClash.Weighted>
0.0589

> <Gold.Chemscore.DEInternal.Weighted>
0.7488

> <Gold.Chemscore.Rot.Weighted>
3.8312

> <Gold.Chemscore.Internal.Correction.Weighted>
   9.000000E+99

> <Gold.Protein.RotatedTorsions>
[ 6907 6896 6895 6894 ] final   34.83 input  -60.11 | X-H torsion
[ 7974 7965 7964 7962 ] final   54.62 input  175.53 | X-H torsion
[ 8008 7997 7996 7995 ] final -128.32 input   59.86 | X-H torsion
[ 10167 10162 10161 10158 ] final    1.21 input  -65.29 | X-H torsion
[ 10718 10713 10712 10709 ] final  150.23 input   66.30 | X-H torsion
[ 10763 10752 10751 10750 ] final  -64.47 input  -60.55 | X-H torsion
[ 11005 11000 10999 10996 ] final -149.45 input  -57.11 | X-H torsion

> <Gold.Protein.ActiveResidues>
 VAL166  LYS551  ARG553  GLY616  TRP617  ASP618  TYR619  PRO620  LYS621  CYS622 
 ASP623  PHE694  ASN695  SER759  ASP760  ASP761  ALA762  ILE779  LEU786  VAL792 
 PHE793  MET794  SER795  GLU796  ALA797  LYS798  CYS799  TRP800  GLU811  SER814 

> <Gold.Protein.RotatedAtoms>
  152.1078  134.9296  160.0567 H   0  0  0  0  0  0  0  0  0  0  0  0  # atno 6907 bound_to 6896
  152.0485  133.4004  159.4375 H   0  0  0  0  0  0  0  0  0  0  0  0  # atno 6908 bound_to 6896
  150.6842  134.3255  159.4848 H   0  0  0  0  0  0  0  0  0  0  0  0  # atno 6909 bound_to 6896
  145.9590  139.4041  143.0260 H   0  0  0  0  0  0  0  0  0  0  0  0  # atno 7974 bound_to 7965
  155.2607  140.0436  157.2997 H   0  0  0  0  0  0  0  0  0  0  0  0  # atno 8008 bound_to 7997
  154.5713  140.2374  155.8157 H   0  0  0  0  0  0  0  0  0  0  0  0  # atno 8009 bound_to 7997
  156.2124  140.2995  155.9771 H   0  0  0  0  0  0  0  0  0  0  0  0  # atno 8010 bound_to 7997
  140.6693  143.7092  150.7891 H   0  0  0  0  0  0  0  0  0  0  0  0  # atno 10167 bound_to 10162
  157.2860  131.0844  151.1497 H   0  0  0  0  0  0  0  0  0  0  0  0  # atno 10718 bound_to 10713
  154.3306  135.6177  153.5549 H   0  0  0  0  0  0  0  0  0  0  0  0  # atno 10763 bound_to 10752
  152.9812  135.5746  154.4966 H   0  0  0  0  0  0  0  0  0  0  0  0  # atno 10764 bound_to 10752
  154.4651  135.2857  155.1661 H   0  0  0  0  0  0  0  0  0  0  0  0  # atno 10765 bound_to 10752
  140.7506  134.3410  157.5126 H   0  0  0  0  0  0  0  0  0  0  0  0  # atno 11005 bound_to 11000
  145.8066  140.9746  143.0970 LP  0  0  0  0  0  0  0  0  0  0  0  0  # atno 17320 bound_to 7965
  144.6811  139.9869  143.7484 LP  0  0  0  0  0  0  0  0  0  0  0  0  # atno 17321 bound_to 7965
  140.0775  143.5001  152.2548 LP  0  0  0  0  0  0  0  0  0  0  0  0  # atno 17342 bound_to 10162
  139.5955  144.7565  151.3297 LP  0  0  0  0  0  0  0  0  0  0  0  0  # atno 17343 bound_to 10162
  157.2912  130.6797  149.6115 LP  0  0  0  0  0  0  0  0  0  0  0  0  # atno 17370 bound_to 10713
  155.9665  130.4420  150.5364 LP  0  0  0  0  0  0  0  0  0  0  0  0  # atno 17371 bound_to 10713
  139.8788  134.9140  156.3096 LP  0  0  0  0  0  0  0  0  0  0  0  0  # atno 17394 bound_to 11000
  140.9754  133.7301  156.0594 LP  0  0  0  0  0  0  0  0  0  0  0  0  # atno 17395 bound_to 11000

$$$$
