AV-unprocessed.smi:1545|AV-procd|sdf|6214|dock3
  -GOLD-   22720 6383D 1   1.00000     0.00000
 Structure written by MMmdl.
 42 44  0  0  0  0  0  0  0  0  2 V2000
  150.5847  139.3358  154.0697 O   0  0  0  0  0  0  0  0  0  0  0  0
  149.5288  140.0957  154.6165 C   0  0  0  0  0  0  0  0  0  0  0  0
  150.0926  141.2980  155.3845 C   0  0  0  0  0  0  0  0  0  0  0  0
  150.5548  140.9187  156.7099 N   0  0  0  0  0  0  0  0  0  0  0  0
  150.8834  141.9210  157.6284 C   0  0  0  0  0  0  0  0  0  0  0  0
  150.6353  143.2504  157.4847 N   0  3  0  0  0  0  0  0  0  0  0  0
  151.1246  143.9134  158.6141 C   0  0  0  0  0  0  0  0  0  0  0  0
  151.1183  145.2643  158.9479 C   0  0  0  0  0  0  0  0  0  0  0  0
  151.7059  145.6150  160.1813 C   0  0  0  0  0  0  0  0  0  0  0  0
  152.2716  144.6414  161.0300 C   0  0  0  0  0  0  0  0  0  0  0  0
  152.2729  143.2737  160.6848 C   0  0  0  0  0  0  0  0  0  0  0  0
  151.6881  142.9326  159.4658 C   0  0  0  0  0  0  0  0  0  0  0  0
  151.5096  141.7061  158.8145 N   0  0  0  0  0  0  0  0  0  0  0  0
  151.9885  140.4670  159.4451 C   0  0  0  0  0  0  0  0  0  0  0  0
  153.5101  140.2694  159.2984 C   0  0  2  0  0  0  0  0  0  0  0  0
  153.7761  139.3609  158.2471 O   0  0  0  0  0  0  0  0  0  0  0  0
  154.1359  139.8271  160.6112 C   0  0  0  0  0  0  0  0  0  0  0  0
  154.9554  140.7094  161.3500 C   0  0  0  0  0  0  0  0  0  0  0  0
  155.5406  140.2888  162.5600 C   0  0  0  0  0  0  0  0  0  0  0  0
  155.3110  138.9843  163.0380 C   0  0  0  0  0  0  0  0  0  0  0  0
  154.4971  138.0999  162.3042 C   0  0  0  0  0  0  0  0  0  0  0  0
  154.2770  136.8446  162.7615 F   0  0  0  0  0  0  0  0  0  0  0  0
  153.9122  138.5196  161.0935 C   0  0  0  0  0  0  0  0  0  0  0  0
  150.2175  138.5778  153.6413 H   0  0  0  0  0  0  0  0  0  0  0  0
  148.8314  140.4030  153.8361 H   0  0  0  0  0  0  0  0  0  0  0  0
  148.9791  139.4490  155.3006 H   0  0  0  0  0  0  0  0  0  0  0  0
  150.9487  141.6955  154.8377 H   0  0  0  0  0  0  0  0  0  0  0  0
  149.3552  142.0994  155.4477 H   0  0  0  0  0  0  0  0  0  0  0  0
  150.8444  139.9658  156.8788 H   0  0  0  0  0  0  0  0  0  0  0  0
  150.6873  146.0135  158.3002 H   0  0  0  0  0  0  0  0  0  0  0  0
  151.7234  146.6526  160.4821 H   0  0  0  0  0  0  0  0  0  0  0  0
  152.7140  144.9499  161.9664 H   0  0  0  0  0  0  0  0  0  0  0  0
  152.7097  142.5365  161.3424 H   0  0  0  0  0  0  0  0  0  0  0  0
  151.6977  140.4800  160.4961 H   0  0  0  0  0  0  0  0  0  0  0  0
  151.4496  139.6346  158.9905 H   0  0  0  0  0  0  0  0  0  0  0  0
  153.9614  141.2191  159.0081 H   0  0  0  0  0  0  0  0  0  0  0  0
  154.1465  138.5742  158.6177 H   0  0  0  0  0  0  0  0  0  0  0  0
  155.1402  141.7111  160.9896 H   0  0  0  0  0  0  0  0  0  0  0  0
  156.1673  140.9668  163.1210 H   0  0  0  0  0  0  0  0  0  0  0  0
  155.7602  138.6618  163.9658 H   0  0  0  0  0  0  0  0  0  0  0  0
  153.2924  137.8320  160.5369 H   0  0  0  0  0  0  0  0  0  0  0  0
  150.1745  143.6655  156.6855 H   0  0  0  0  0  0  0  0  0  0  0  0
  1  2  1  0  0  0  0
  1 24  1  0  0  0  0
  2  3  1  0  0  0  0
  2 25  1  0  0  0  0
  2 26  1  0  0  0  0
  3  4  1  0  0  0  0
  3 27  1  0  0  0  0
  3 28  1  0  0  0  0
  4  5  1  0  0  0  0
  4 29  1  0  0  0  0
  5 13  1  0  0  0  0
  5  6  2  0  0  0  0
  6  7  1  0  0  0  0
  6 42  1  0  0  0  0
  7 12  2  0  0  0  0
  7  8  1  0  0  0  0
  8  9  2  0  0  0  0
  8 30  1  0  0  0  0
  9 10  1  0  0  0  0
  9 31  1  0  0  0  0
 10 11  2  0  0  0  0
 10 32  1  0  0  0  0
 11 12  1  0  0  0  0
 11 33  1  0  0  0  0
 12 13  1  0  0  0  0
 13 14  1  0  0  0  0
 14 15  1  0  0  0  0
 14 34  1  0  0  0  0
 14 35  1  0  0  0  0
 15 16  1  0  0  0  0
 15 17  1  0  0  0  0
 15 36  1  0  0  0  0
 16 37  1  0  0  0  0
 17 23  1  0  0  0  0
 17 18  2  0  0  0  0
 18 19  1  0  0  0  0
 18 38  1  0  0  0  0
 19 20  2  0  0  0  0
 19 39  1  0  0  0  0
 20 21  1  0  0  0  0
 20 40  1  0  0  0  0
 21 22  1  0  0  0  0
 21 23  2  0  0  0  0
 23 41  1  0  0  0  0
M  CHG  1   6   1
M  END
> <s_m_source_file>
AV-unprocessed.smi

> <i_m_source_file_index>
1545

> <i_lp_mmshare_version>
43012

> <i_f3d_flags>
0

> <s_epik_input>
W09IXVtDSDJdW0NIMl1bTkhdYyhuMSluKGMoYzEyKVtjSF1bY0hdW2NIXVtjSF0yKVtDSDJdW0NASF0oW09IXSljM1tjSF1bY0hdW2NIXWMoRilbY0hdMw==

> <s_epik_cmdline>
J2VwaWtfcHl0aG9uJywgJy1waCcsICc3LjAnLCAnLXRuJywgJzgnLCAnLW1hJywgJzIwMCcsICctbWV0YWxfYmluZGluZycsICctaW1hZScsICc8aW5maWxlLm1hZT4nLCAnLW9tYWUnLCAnPG91dGZpbGUubWFlPic=

> <r_epik_Ionization_Penalty>
0.0688114

> <r_epik_Ionization_Penalty_Charging>
0.0688055

> <r_epik_Ionization_Penalty_Neutral>
5.85933e-06

> <r_epik_State_Penalty>
0.0602293

> <r_epik_Charging_Adjusted_Penalty>
0.129035

> <i_epik_Tot_Q>
1

> <i_epik_Tot_abs_Q>
1

> <r_epik_Metal_State_Penalty>
2.77411

> <b_epik_Metal_Only>
0

> <s_lp_Force_Field>
OPLS_2005

> <r_lp_Energy>
22.2772

> <b_lp_Chiralities_Consistent>
1

> <s_lp_Variant>
AV-unprocessed.smi:1545-1

> <Gold.Version>
5.8.1

> <Gold.Id.Protein>
6NUR|6NUR_protein|mol2

> <Gold.PLP.Fitness>
61.0797

> <Gold.PLP.PLP>
-51.4313

> <Gold.PLP.part.hbond>
-4.0000

> <Gold.PLP.part.metal>
0.0000

> <Gold.PLP.part.buried>
-4.3164

> <Gold.PLP.part.nonpolar>
-42.0323

> <Gold.PLP.part.repulsive>
0.0512

> <Gold.PLP.ligand.clash>
0.0000

> <Gold.PLP.ligand.torsion>
1.1889

> <Gold.PLP.Chemscore.Hbond>
3.9920

> <Gold.PLP.Chemscore.CHOScore>
0.0000

> <Gold.PLP.Chemscore.Metal>
0.0000

> <Gold.Chemscore.Hbonds>
donor molecule, donor type, donor heavy atom, donor atom, acceptor molecule, acceptor atom, score
      L1  H     6    42       P1  8028  2.00
      P1  H  7989  7998       L1     1  0.80
      P1  H  7997  8008       L1    16  0.78

> <Gold.PLP.Chemscore.Internal.Correction>
0.0502

> <Gold.Rescore>
     Score         DG    S(hbond)    S(metal)    S(lipo)     H(rot)  DE(clash)    DE(int)     intcor
     19.29     -20.22       2.20        0.00     132.24       3.15       0.05       0.88       ----

> <Gold.Chemscore.Fitness>
19.2915

> <Gold.Chemscore.DG>
-20.2238

> <Gold.Chemscore.ZeroCoef>
-5.4800

> <Gold.Chemscore.Hbond>
2.1967

> <Gold.Chemscore.Metal>
0.0000

> <Gold.Chemscore.Lipo>
132.2396

> <Gold.Chemscore.Internal_Hbond>
0.0000

> <Gold.Chemscore.DEClash>
0.0482

> <Gold.Chemscore.DEInternal>
0.8841

> <Gold.Chemscore.Rot>
3.1505

> <Gold.Chemscore.Internal.Correction>
   9.000000E+99

> <Gold.Chemscore.Hbonds>
donor molecule, donor type, donor heavy atom, donor atom, acceptor molecule, acceptor atom, score
      L1  H     6    42       P1  8028  0.99
      P1  H  7989  7998       L1     1  0.12
      P1  H  7997  8008       L1    16  0.71

> <Gold.Chemscore.Hbond.Weighted>
-7.3369

> <Gold.Chemscore.Metal.Weighted>
-0.0000

> <Gold.Chemscore.Lipo.Weighted>
-15.4720

> <Gold.Chemscore.Internal_Hbond.Weighted>
0.0000

> <Gold.Chemscore.DEClash.Weighted>
0.0482

> <Gold.Chemscore.DEInternal.Weighted>
0.8841

> <Gold.Chemscore.Rot.Weighted>
8.0652

> <Gold.Chemscore.Internal.Correction.Weighted>
   9.000000E+99

> <Gold.Protein.RotatedTorsions>
[ 6907 6896 6895 6894 ] final  -33.43 input  -60.11 | X-H torsion
[ 7974 7965 7964 7962 ] final -156.51 input  175.53 | X-H torsion
[ 8008 7997 7996 7995 ] final  -66.97 input   59.86 | X-H torsion
[ 10167 10162 10161 10158 ] final -113.60 input  -65.29 | X-H torsion
[ 10718 10713 10712 10709 ] final   37.86 input   66.30 | X-H torsion
[ 10763 10752 10751 10750 ] final -162.26 input  -60.55 | X-H torsion
[ 11005 11000 10999 10996 ] final   44.11 input  -57.11 | X-H torsion

> <Gold.Protein.ActiveResidues>
 VAL166  LYS551  ARG553  GLY616  TRP617  ASP618  TYR619  PRO620  LYS621  CYS622 
 ASP623  PHE694  ASN695  SER759  ASP760  ASP761  ALA762  ILE779  LEU786  VAL792 
 PHE793  MET794  SER795  GLU796  ALA797  LYS798  CYS799  TRP800  GLU811  SER814 

> <Gold.Protein.RotatedAtoms>
  151.0658  134.9766  159.8283 H   0  0  0  0  0  0  0  0  0  0  0  0  # atno 6907 bound_to 6896
  152.5402  134.2361  159.8854 H   0  0  0  0  0  0  0  0  0  0  0  0  # atno 6908 bound_to 6896
  151.2383  133.4370  159.2640 H   0  0  0  0  0  0  0  0  0  0  0  0  # atno 6909 bound_to 6896
  144.7590  140.4099  143.5991 H   0  0  0  0  0  0  0  0  0  0  0  0  # atno 7974 bound_to 7965
  154.4769  140.0902  156.7283 H   0  0  0  0  0  0  0  0  0  0  0  0  # atno 8008 bound_to 7997
  155.4573  140.3459  155.4290 H   0  0  0  0  0  0  0  0  0  0  0  0  # atno 8009 bound_to 7997
  156.1130  140.1453  156.9300 H   0  0  0  0  0  0  0  0  0  0  0  0  # atno 8010 bound_to 7997
  140.1100  143.4536  152.1758 H   0  0  0  0  0  0  0  0  0  0  0  0  # atno 10167 bound_to 10162
  157.3520  130.7603  149.6985 H   0  0  0  0  0  0  0  0  0  0  0  0  # atno 10718 bound_to 10713
  154.7230  135.3030  154.9016 H   0  0  0  0  0  0  0  0  0  0  0  0  # atno 10763 bound_to 10752
  153.9882  135.6722  153.4757 H   0  0  0  0  0  0  0  0  0  0  0  0  # atno 10764 bound_to 10752
  153.0850  135.4988  154.8498 H   0  0  0  0  0  0  0  0  0  0  0  0  # atno 10765 bound_to 10752
  140.1582  134.4374  155.8335 H   0  0  0  0  0  0  0  0  0  0  0  0  # atno 11005 bound_to 11000
  145.6683  139.1594  143.2769 LP  0  0  0  0  0  0  0  0  0  0  0  0  # atno 17320 bound_to 7965
  146.1632  140.6757  142.9268 LP  0  0  0  0  0  0  0  0  0  0  0  0  # atno 17321 bound_to 7965
  139.5624  144.7414  151.4117 LP  0  0  0  0  0  0  0  0  0  0  0  0  # atno 17342 bound_to 10162
  140.6931  143.7815  150.7284 LP  0  0  0  0  0  0  0  0  0  0  0  0  # atno 17343 bound_to 10162
  155.9723  130.4138  150.4100 LP  0  0  0  0  0  0  0  0  0  0  0  0  # atno 17370 bound_to 10713
  157.2164  131.0472  151.2571 LP  0  0  0  0  0  0  0  0  0  0  0  0  # atno 17371 bound_to 10713
  141.2207  133.6902  156.7546 LP  0  0  0  0  0  0  0  0  0  0  0  0  # atno 17394 bound_to 11000
  140.2521  134.8532  157.3677 LP  0  0  0  0  0  0  0  0  0  0  0  0  # atno 17395 bound_to 11000

$$$$
