AV-unprocessed.smi:1007|AV-procd|sdf|4403|dock2
  -GOLD-   22720 2343D 1   1.00000     0.00000
 Structure written by MMmdl.
 57 59  0  0  0  0  0  0  0  0  3 V2000
  151.2064  132.4297  156.4748 C   0  0  0  0  0  0  0  0  0  0  0  0
  150.4934  132.9510  157.5854 O   0  0  0  0  0  0  0  0  0  0  0  0
  149.0832  132.9553  157.4164 C   0  0  0  0  0  0  0  0  0  0  0  0
  148.5731  134.3464  156.9948 C   0  0  0  0  0  0  0  0  0  0  0  0
  148.3567  134.5110  155.5541 N   0  0  0  0  0  0  0  0  0  0  0  0
  147.8012  135.8190  155.2089 C   0  0  0  0  0  0  0  0  0  0  0  0
  148.8155  136.9723  155.3569 C   0  0  0  0  0  0  0  0  0  0  0  0
  150.0258  136.7114  154.5350 N   0  3  0  0  0  0  0  0  0  0  0  0
  151.0001  137.8319  154.5949 C   0  0  0  0  0  0  0  0  0  0  0  0
  151.2130  138.3693  156.0244 C   0  0  1  0  0  0  0  0  0  0  0  0
  151.7710  137.3454  156.8260 O   0  0  0  0  0  0  0  0  0  0  0  0
  152.1501  139.5933  156.0465 C   0  0  0  0  0  0  0  0  0  0  0  0
  151.4727  140.8173  156.4947 N   0  0  0  0  0  0  0  0  0  0  0  0
  150.5127  141.5639  155.8834 C   0  0  0  0  0  0  0  0  0  0  0  0
  150.2208  142.6100  156.7054 N   0  3  0  0  0  0  0  0  0  0  0  0
  151.0029  142.5283  157.8597 C   0  0  0  0  0  0  0  0  0  0  0  0
  151.0687  143.3528  158.9766 C   0  0  0  0  0  0  0  0  0  0  0  0
  151.9791  142.9889  159.9945 C   0  0  0  0  0  0  0  0  0  0  0  0
  152.0781  143.8704  161.2281 C   0  0  0  0  0  0  0  0  0  0  0  0
  152.7862  141.8280  159.8717 C   0  0  0  0  0  0  0  0  0  0  0  0
  153.7593  141.4448  160.9738 C   0  0  0  0  0  0  0  0  0  0  0  0
  152.7064  141.0037  158.7264 C   0  0  0  0  0  0  0  0  0  0  0  0
  151.8051  141.3779  157.7327 C   0  0  0  0  0  0  0  0  0  0  0  0
  150.6113  135.3857  154.8722 C   0  0  0  0  0  0  0  0  0  0  0  0
  149.5461  134.2795  154.7314 C   0  0  0  0  0  0  0  0  0  0  0  0
  152.2736  132.4293  156.6965 H   0  0  0  0  0  0  0  0  0  0  0  0
  151.0558  133.0289  155.5772 H   0  0  0  0  0  0  0  0  0  0  0  0
  150.9103  131.4013  156.2635 H   0  0  0  0  0  0  0  0  0  0  0  0
  148.7866  132.1787  156.7109 H   0  0  0  0  0  0  0  0  0  0  0  0
  148.6404  132.6894  158.3766 H   0  0  0  0  0  0  0  0  0  0  0  0
  147.6246  134.5115  157.5073 H   0  0  0  0  0  0  0  0  0  0  0  0
  149.2469  135.1162  157.3670 H   0  0  0  0  0  0  0  0  0  0  0  0
  147.4468  135.7922  154.1775 H   0  0  0  0  0  0  0  0  0  0  0  0
  146.9196  136.0199  155.8187 H   0  0  0  0  0  0  0  0  0  0  0  0
  148.3477  137.9019  155.0306 H   0  0  0  0  0  0  0  0  0  0  0  0
  149.0971  137.1131  156.4013 H   0  0  0  0  0  0  0  0  0  0  0  0
  151.9625  137.4992  154.2028 H   0  0  0  0  0  0  0  0  0  0  0  0
  150.6631  138.6322  153.9340 H   0  0  0  0  0  0  0  0  0  0  0  0
  150.2597  138.6589  156.4639 H   0  0  0  0  0  0  0  0  0  0  0  0
  152.6674  137.2053  156.5601 H   0  0  0  0  0  0  0  0  0  0  0  0
  152.9924  139.4184  156.7175 H   0  0  0  0  0  0  0  0  0  0  0  0
  152.5750  139.7792  155.0592 H   0  0  0  0  0  0  0  0  0  0  0  0
  150.0666  141.3673  154.9191 H   0  0  0  0  0  0  0  0  0  0  0  0
  150.4511  144.2349  159.0638 H   0  0  0  0  0  0  0  0  0  0  0  0
  153.0863  144.2723  161.3307 H   0  0  0  0  0  0  0  0  0  0  0  0
  151.8377  143.3017  162.1265 H   0  0  0  0  0  0  0  0  0  0  0  0
  151.3878  144.7127  161.1734 H   0  0  0  0  0  0  0  0  0  0  0  0
  154.2897  140.5222  160.7355 H   0  0  0  0  0  0  0  0  0  0  0  0
  153.2315  141.2902  161.9154 H   0  0  0  0  0  0  0  0  0  0  0  0
  154.5029  142.2290  161.1175 H   0  0  0  0  0  0  0  0  0  0  0  0
  153.3212  140.1212  158.6327 H   0  0  0  0  0  0  0  0  0  0  0  0
  151.4382  135.1547  154.2025 H   0  0  0  0  0  0  0  0  0  0  0  0
  151.0245  135.4033  155.8814 H   0  0  0  0  0  0  0  0  0  0  0  0
  149.9847  133.3083  154.9572 H   0  0  0  0  0  0  0  0  0  0  0  0
  149.2428  134.2207  153.6851 H   0  0  0  0  0  0  0  0  0  0  0  0
  149.7083  136.6571  153.5773 H   0  0  0  0  0  0  0  0  0  0  0  0
  149.5381  143.3259  156.4914 H   0  0  0  0  0  0  0  0  0  0  0  0
  1  2  1  0  0  0  0
  1 26  1  0  0  0  0
  1 27  1  0  0  0  0
  1 28  1  0  0  0  0
  2  3  1  0  0  0  0
  3  4  1  0  0  0  0
  3 29  1  0  0  0  0
  3 30  1  0  0  0  0
  4  5  1  0  0  0  0
  4 31  1  0  0  0  0
  4 32  1  0  0  0  0
  5 25  1  0  0  0  0
  5  6  1  0  0  0  0
  6  7  1  0  0  0  0
  6 33  1  0  0  0  0
  6 34  1  0  0  0  0
  7  8  1  0  0  0  0
  7 35  1  0  0  0  0
  7 36  1  0  0  0  0
  8  9  1  0  0  0  0
  8 24  1  0  0  0  0
  8 56  1  0  0  0  0
  9 10  1  0  0  0  0
  9 37  1  0  0  0  0
  9 38  1  0  0  0  0
 10 11  1  0  0  0  0
 10 12  1  0  0  0  0
 10 39  1  0  0  0  0
 11 40  1  0  0  0  0
 12 13  1  0  0  0  0
 12 41  1  0  0  0  0
 12 42  1  0  0  0  0
 13 23  1  0  0  0  0
 13 14  1  0  0  0  0
 14 15  2  0  0  0  0
 14 43  1  0  0  0  0
 15 16  1  0  0  0  0
 15 57  1  0  0  0  0
 16 23  2  0  0  0  0
 16 17  1  0  0  0  0
 17 18  2  0  0  0  0
 17 44  1  0  0  0  0
 18 19  1  0  0  0  0
 18 20  1  0  0  0  0
 19 45  1  0  0  0  0
 19 46  1  0  0  0  0
 19 47  1  0  0  0  0
 20 21  1  0  0  0  0
 20 22  2  0  0  0  0
 21 48  1  0  0  0  0
 21 49  1  0  0  0  0
 21 50  1  0  0  0  0
 22 23  1  0  0  0  0
 22 51  1  0  0  0  0
 24 25  1  0  0  0  0
 24 52  1  0  0  0  0
 24 53  1  0  0  0  0
 25 54  1  0  0  0  0
 25 55  1  0  0  0  0
M  CHG  1   8   1
M  CHG  1  15   1
M  END
> <s_m_source_file>
AV-unprocessed.smi

> <i_m_source_file_index>
1007

> <i_lp_mmshare_version>
43012

> <i_f3d_flags>
0

> <s_epik_input>
W0NIM11PW0NIMl1bQ0gyXU4xW0NIMl1bQ0gyXU4oW0NIMl1bQ0gyXTEpW0NIMl1bQ0BIXShbT0hdKVtDSDJdbihbY0hdbjIpYyhjMjMpW2NIXWMoW0NIM10pYyhbY0hdMylbQ0gzXQ==

> <s_epik_cmdline>
J2VwaWtfcHl0aG9uJywgJy1waCcsICc3LjAnLCAnLXRuJywgJzgnLCAnLW1hJywgJzIwMCcsICctbWV0YWxfYmluZGluZycsICctaW1hZScsICc8aW5maWxlLm1hZT4nLCAnLW9tYWUnLCAnPG91dGZpbGUubWFlPic=

> <r_epik_Ionization_Penalty>
1.19231

> <r_epik_Ionization_Penalty_Charging>
1.17974

> <r_epik_Ionization_Penalty_Neutral>
0.0125676

> <r_epik_State_Penalty>
1.24499

> <r_epik_Charging_Adjusted_Penalty>
2.42472

> <i_epik_Tot_Q>
2

> <i_epik_Tot_abs_Q>
2

> <r_epik_Metal_State_Penalty>
5.24866

> <b_epik_Metal_Only>
0

> <s_lp_Force_Field>
OPLS_2005

> <r_lp_Energy>
41.9182

> <b_lp_Chiralities_Consistent>
1

> <s_lp_Variant>
AV-unprocessed.smi:1007-6

> <Gold.Version>
5.8.1

> <Gold.Id.Protein>
6NUR|6NUR_protein|mol2

> <Gold.PLP.Fitness>
57.2442

> <Gold.PLP.PLP>
-45.0234

> <Gold.PLP.part.hbond>
-3.0279

> <Gold.PLP.part.metal>
0.0000

> <Gold.PLP.part.buried>
-5.3627

> <Gold.PLP.part.nonpolar>
-35.6355

> <Gold.PLP.part.repulsive>
0.1385

> <Gold.PLP.ligand.clash>
0.0000

> <Gold.PLP.ligand.torsion>
1.5406

> <Gold.PLP.Chemscore.Hbond>
5.0000

> <Gold.PLP.Chemscore.CHOScore>
0.0000

> <Gold.PLP.Chemscore.Metal>
0.0000

> <Gold.Chemscore.Hbonds>
donor molecule, donor type, donor heavy atom, donor atom, acceptor molecule, acceptor atom, score
      L1  H     8    56       P1  7948  2.00
      L1  H    15    57       P1  8028  2.00
      P1  H  6896  6909       L1     2  1.00

> <Gold.PLP.Chemscore.Internal.Correction>
0.3019

> <Gold.Rescore>
     Score         DG    S(hbond)    S(metal)    S(lipo)     H(rot)  DE(clash)    DE(int)     intcor
     19.86     -22.38       2.93        0.00     118.78       2.64       0.02       2.50       ----

> <Gold.Chemscore.Fitness>
19.8637

> <Gold.Chemscore.DG>
-22.3805

> <Gold.Chemscore.ZeroCoef>
-5.4800

> <Gold.Chemscore.Hbond>
2.9251

> <Gold.Chemscore.Metal>
0.0000

> <Gold.Chemscore.Lipo>
118.7784

> <Gold.Chemscore.Internal_Hbond>
0.0000

> <Gold.Chemscore.DEClash>
0.0178

> <Gold.Chemscore.DEInternal>
2.4990

> <Gold.Chemscore.Rot>
2.6432

> <Gold.Chemscore.Internal.Correction>
   9.000000E+99

> <Gold.Chemscore.Hbonds>
donor molecule, donor type, donor heavy atom, donor atom, acceptor molecule, acceptor atom, score
      L1  H     8    56       P1  7948  0.55
      L1  H    15    57       P1  8028  0.99
      P1  H  6896  6909       L1     2  0.92

> <Gold.Chemscore.Hbond.Weighted>
-9.7699

> <Gold.Chemscore.Metal.Weighted>
-0.0000

> <Gold.Chemscore.Lipo.Weighted>
-13.8971

> <Gold.Chemscore.Internal_Hbond.Weighted>
0.0000

> <Gold.Chemscore.DEClash.Weighted>
0.0178

> <Gold.Chemscore.DEInternal.Weighted>
2.4990

> <Gold.Chemscore.Rot.Weighted>
6.7665

> <Gold.Chemscore.Internal.Correction.Weighted>
   9.000000E+99

> <Gold.Protein.RotatedTorsions>
[ 6907 6896 6895 6894 ] final  -24.46 input  -60.11 | X-H torsion
[ 7974 7965 7964 7962 ] final   75.90 input  175.53 | X-H torsion
[ 8008 7997 7996 7995 ] final  138.60 input   59.86 | X-H torsion
[ 10167 10162 10161 10158 ] final  -30.31 input  -65.29 | X-H torsion
[ 10718 10713 10712 10709 ] final  -78.17 input   66.30 | X-H torsion
[ 10763 10752 10751 10750 ] final  -53.01 input  -60.55 | X-H torsion
[ 11005 11000 10999 10996 ] final -153.10 input  -57.11 | X-H torsion

> <Gold.Protein.ActiveResidues>
 VAL166  LYS551  ARG553  GLY616  TRP617  ASP618  TYR619  PRO620  LYS621  CYS622 
 ASP623  PHE694  ASN695  SER759  ASP760  ASP761  ALA762  ILE779  LEU786  VAL792 
 PHE793  MET794  SER795  GLU796  ALA797  LYS798  CYS799  TRP800  GLU811  SER814 

> <Gold.Protein.RotatedAtoms>
  151.1893  135.0395  159.8825 H   0  0  0  0  0  0  0  0  0  0  0  0  # atno 6907 bound_to 6896
  152.5440  134.0974  159.8313 H   0  0  0  0  0  0  0  0  0  0  0  0  # atno 6908 bound_to 6896
  151.1101  133.5132  159.2638 H   0  0  0  0  0  0  0  0  0  0  0  0  # atno 6909 bound_to 6896
  145.7096  139.2610  143.1658 H   0  0  0  0  0  0  0  0  0  0  0  0  # atno 7974 bound_to 7965
  156.2996  140.2389  156.4100 H   0  0  0  0  0  0  0  0  0  0  0  0  # atno 8008 bound_to 7997
  154.8450  140.0426  157.1586 H   0  0  0  0  0  0  0  0  0  0  0  0  # atno 8009 bound_to 7997
  154.9061  140.2984  155.5295 H   0  0  0  0  0  0  0  0  0  0  0  0  # atno 8010 bound_to 7997
  140.7251  143.3859  151.1516 H   0  0  0  0  0  0  0  0  0  0  0  0  # atno 10167 bound_to 10162
  156.0125  130.4511  150.3456 H   0  0  0  0  0  0  0  0  0  0  0  0  # atno 10718 bound_to 10713
  154.1520  135.6488  153.4965 H   0  0  0  0  0  0  0  0  0  0  0  0  # atno 10763 bound_to 10752
  153.0135  135.5340  154.6799 H   0  0  0  0  0  0  0  0  0  0  0  0  # atno 10764 bound_to 10752
  154.6089  135.2951  155.0426 H   0  0  0  0  0  0  0  0  0  0  0  0  # atno 10765 bound_to 10752
  140.7118  134.3824  157.5196 H   0  0  0  0  0  0  0  0  0  0  0  0  # atno 11005 bound_to 11000
  146.0724  140.7854  142.9681 LP  0  0  0  0  0  0  0  0  0  0  0  0  # atno 17320 bound_to 7965
  144.6945  140.3363  143.7207 LP  0  0  0  0  0  0  0  0  0  0  0  0  # atno 17321 bound_to 7965
  139.7456  143.8857  152.3062 LP  0  0  0  0  0  0  0  0  0  0  0  0  # atno 17342 bound_to 10162
  139.8693  144.7076  150.9006 LP  0  0  0  0  0  0  0  0  0  0  0  0  # atno 17343 bound_to 10162
  157.1550  131.0330  151.2867 LP  0  0  0  0  0  0  0  0  0  0  0  0  # atno 17370 bound_to 10713
  157.4360  130.7517  149.7029 LP  0  0  0  0  0  0  0  0  0  0  0  0  # atno 17371 bound_to 10713
  139.8870  134.8895  156.2555 LP  0  0  0  0  0  0  0  0  0  0  0  0  # atno 17394 bound_to 11000
  141.0078  133.7113  156.1062 LP  0  0  0  0  0  0  0  0  0  0  0  0  # atno 17395 bound_to 11000

$$$$
