AV-unprocessed.smi:1963|AV-procd|sdf|7927|dock10
  -GOLD-   2272010 93D 1   1.00000     0.00000
 Structure written by MMmdl.
 47 48  0  0  0  0  0  0  0  0  1 V2000
  145.8359  134.8919  153.2835 C   0  0  0  0  0  0  0  0  0  0  0  0
  147.0248  134.4600  154.1346 C   0  0  0  0  0  0  0  0  0  0  0  0
  146.8778  134.2377  155.3360 O   0  0  0  0  0  0  0  0  0  0  0  0
  148.2003  134.3463  153.4967 N   0  0  0  0  0  0  0  0  0  0  0  0
  149.4652  133.9367  154.1113 C   0  0  1  0  0  0  0  0  0  0  0  0
  149.9390  135.0509  155.0656 C   0  0  0  0  0  0  0  0  0  0  0  0
  150.3052  134.7681  156.2073 O   0  0  0  0  0  0  0  0  0  0  0  0
  149.9549  136.2923  154.5458 N   0  0  0  0  0  0  0  0  0  0  0  0
  150.3573  137.5058  155.1649 C   0  0  0  0  0  0  0  0  0  0  0  0
  150.5914  137.4954  156.5533 C   0  0  0  0  0  0  0  0  0  0  0  0
  151.0029  138.6806  157.1914 C   0  0  0  0  0  0  0  0  0  0  0  0
  151.1800  139.8537  156.4208 C   0  0  0  0  0  0  0  0  0  0  0  0
  151.5855  141.0563  157.0399 N   0  0  0  0  0  0  0  0  0  0  0  0
  151.9944  140.9429  158.4380 C   0  0  0  0  0  0  0  0  0  0  0  0
  152.6958  142.2325  158.8981 C   0  0  0  0  0  0  0  0  0  0  0  0
  151.8524  143.3541  158.6576 O   0  0  0  0  0  0  0  0  0  0  0  0
  151.5604  143.5090  157.2730 C   0  0  0  0  0  0  0  0  0  0  0  0
  150.8144  142.2662  156.7589 C   0  0  0  0  0  0  0  0  0  0  0  0
  150.9784  139.8561  155.0800 N   0  0  0  0  0  0  0  0  0  0  0  0
  150.5816  138.7183  154.4717 C   0  0  0  0  0  0  0  0  0  0  0  0
  149.2344  132.6160  154.9048 C   0  0  0  0  0  0  0  0  0  0  0  0
  150.5119  132.0903  155.5927 C   0  0  0  0  0  0  0  0  0  0  0  0
  148.6526  131.5038  154.0099 C   0  0  0  0  0  0  0  0  0  0  0  0
  145.6618  134.1740  152.4815 H   0  0  0  0  0  0  0  0  0  0  0  0
  146.0214  135.8700  152.8389 H   0  0  0  0  0  0  0  0  0  0  0  0
  144.9296  134.9570  153.8866 H   0  0  0  0  0  0  0  0  0  0  0  0
  148.2217  134.5428  152.5065 H   0  0  0  0  0  0  0  0  0  0  0  0
  150.2134  133.7665  153.3338 H   0  0  0  0  0  0  0  0  0  0  0  0
  149.7096  136.3641  153.5690 H   0  0  0  0  0  0  0  0  0  0  0  0
  150.4547  136.5910  157.1281 H   0  0  0  0  0  0  0  0  0  0  0  0
  151.1907  138.6715  158.2546 H   0  0  0  0  0  0  0  0  0  0  0  0
  151.1090  140.7624  159.0491 H   0  0  0  0  0  0  0  0  0  0  0  0
  152.6655  140.0999  158.5967 H   0  0  0  0  0  0  0  0  0  0  0  0
  152.9177  142.1784  159.9640 H   0  0  0  0  0  0  0  0  0  0  0  0
  153.6481  142.3622  158.3811 H   0  0  0  0  0  0  0  0  0  0  0  0
  150.9451  144.3984  157.1371 H   0  0  0  0  0  0  0  0  0  0  0  0
  152.4818  143.6700  156.7112 H   0  0  0  0  0  0  0  0  0  0  0  0
  150.6442  142.3660  155.6861 H   0  0  0  0  0  0  0  0  0  0  0  0
  149.8381  142.1918  157.2397 H   0  0  0  0  0  0  0  0  0  0  0  0
  150.4649  138.7956  153.4020 H   0  0  0  0  0  0  0  0  0  0  0  0
  148.5015  132.8082  155.6906 H   0  0  0  0  0  0  0  0  0  0  0  0
  151.3126  131.9313  154.8698 H   0  0  0  0  0  0  0  0  0  0  0  0
  150.3250  131.1394  156.0924 H   0  0  0  0  0  0  0  0  0  0  0  0
  150.8813  132.7762  156.3552 H   0  0  0  0  0  0  0  0  0  0  0  0
  149.3190  131.2792  153.1764 H   0  0  0  0  0  0  0  0  0  0  0  0
  147.6818  131.7772  153.5956 H   0  0  0  0  0  0  0  0  0  0  0  0
  148.5066  130.5824  154.5742 H   0  0  0  0  0  0  0  0  0  0  0  0
  1  2  1  0  0  0  0
  1 24  1  0  0  0  0
  1 25  1  0  0  0  0
  1 26  1  0  0  0  0
  2  3  2  0  0  0  0
  2  4  1  0  0  0  0
  4  5  1  0  0  0  0
  4 27  1  0  0  0  0
  5  6  1  0  0  0  0
  5 21  1  0  0  0  0
  5 28  1  0  0  0  0
  6  7  2  0  0  0  0
  6  8  1  0  0  0  0
  8  9  1  0  0  0  0
  8 29  1  0  0  0  0
  9 20  1  0  0  0  0
  9 10  2  0  0  0  0
 10 11  1  0  0  0  0
 10 30  1  0  0  0  0
 11 12  2  0  0  0  0
 11 31  1  0  0  0  0
 12 13  1  0  0  0  0
 12 19  1  0  0  0  0
 13 18  1  0  0  0  0
 13 14  1  0  0  0  0
 14 15  1  0  0  0  0
 14 32  1  0  0  0  0
 14 33  1  0  0  0  0
 15 16  1  0  0  0  0
 15 34  1  0  0  0  0
 15 35  1  0  0  0  0
 16 17  1  0  0  0  0
 17 18  1  0  0  0  0
 17 36  1  0  0  0  0
 17 37  1  0  0  0  0
 18 38  1  0  0  0  0
 18 39  1  0  0  0  0
 19 20  2  0  0  0  0
 20 40  1  0  0  0  0
 21 22  1  0  0  0  0
 21 23  1  0  0  0  0
 21 41  1  0  0  0  0
 22 42  1  0  0  0  0
 22 43  1  0  0  0  0
 22 44  1  0  0  0  0
 23 45  1  0  0  0  0
 23 46  1  0  0  0  0
 23 47  1  0  0  0  0
M  END
> <s_m_source_file>
AV-unprocessed.smi

> <i_m_source_file_index>
1963

> <i_lp_mmshare_version>
43012

> <i_f3d_flags>
0

> <s_epik_input>
W0NIM11DKD1PKVtOSF1bQ0BASF0oW0NIXShbQ0gzXSlbQ0gzXSlDKD1PKVtOSF1jMVtjSF1bY0hdYyhuW2NIXTEpTjJbQ0gyXVtDSDJdT1tDSDJdW0NIMl0y

> <s_epik_cmdline>
J2VwaWtfcHl0aG9uJywgJy1waCcsICc3LjAnLCAnLXRuJywgJzgnLCAnLW1hJywgJzIwMCcsICctbWV0YWxfYmluZGluZycsICctaW1hZScsICc8aW5maWxlLm1hZT4nLCAnLW9tYWUnLCAnPG91dGZpbGUubWFlPic=

> <r_lp_tautomer_probability>
1

> <r_epik_Ionization_Penalty>
0.00051446

> <r_epik_Ionization_Penalty_Charging>
0

> <r_epik_Ionization_Penalty_Neutral>
0.00051446

> <r_epik_State_Penalty>
0.00031949

> <r_epik_Charging_Adjusted_Penalty>
0.00031949

> <i_epik_Tot_Q>
0

> <i_epik_Tot_abs_Q>
0

> <r_epik_Metal_State_Penalty>
-0

> <b_epik_Metal_Only>
0

> <s_lp_Force_Field>
OPLS_2005

> <r_lp_Energy>
25.5716

> <b_lp_Chiralities_Consistent>
1

> <s_lp_Variant>
AV-unprocessed.smi:1963-2

> <Gold.Version>
5.8.1

> <Gold.Id.Protein>
6NUR|6NUR_protein|mol2

> <Gold.PLP.Fitness>
41.8491

> <Gold.PLP.PLP>
-33.3548

> <Gold.PLP.part.hbond>
-3.2811

> <Gold.PLP.part.metal>
0.0000

> <Gold.PLP.part.buried>
-4.4652

> <Gold.PLP.part.nonpolar>
-25.7159

> <Gold.PLP.part.repulsive>
0.1733

> <Gold.PLP.ligand.clash>
0.0000

> <Gold.PLP.ligand.torsion>
0.5273

> <Gold.PLP.Chemscore.Hbond>
2.4104

> <Gold.PLP.Chemscore.CHOScore>
0.6457

> <Gold.PLP.Chemscore.Metal>
0.0000

> <Gold.Chemscore.Hbonds>
donor molecule, donor type, donor heavy atom, donor atom, acceptor molecule, acceptor atom, score
      L1  H     4    27       P1  7948  0.43
      L1  H     8    29       P1  7948  1.00
      P1  H  7989  7998       L1    19  1.00
      L1  C    20    40       P1  7957  0.61

> <Gold.PLP.Chemscore.Internal.Correction>
0.3803

> <Gold.Rescore>
     Score         DG    S(hbond)    S(metal)    S(lipo)     H(rot)  DE(clash)    DE(int)     intcor
      9.76     -14.20       1.29        0.00      75.61       1.74       0.01       4.43       ----

> <Gold.Chemscore.Fitness>
9.7603

> <Gold.Chemscore.DG>
-14.1984

> <Gold.Chemscore.ZeroCoef>
-5.4800

> <Gold.Chemscore.Hbond>
1.2947

> <Gold.Chemscore.Metal>
0.0000

> <Gold.Chemscore.Lipo>
75.6132

> <Gold.Chemscore.Internal_Hbond>
0.0000

> <Gold.Chemscore.DEClash>
0.0089

> <Gold.Chemscore.DEInternal>
4.4291

> <Gold.Chemscore.Rot>
1.7394

> <Gold.Chemscore.Internal.Correction>
   9.000000E+99

> <Gold.Chemscore.Hbonds>
donor molecule, donor type, donor heavy atom, donor atom, acceptor molecule, acceptor atom, score
      L1  H     4    27       P1  7948  0.11
      L1  H     8    29       P1  7948  0.40
      P1  H  7989  7998       L1    19  0.25

> <Gold.Chemscore.Hbond.Weighted>
-4.3244

> <Gold.Chemscore.Metal.Weighted>
-0.0000

> <Gold.Chemscore.Lipo.Weighted>
-8.8467

> <Gold.Chemscore.Internal_Hbond.Weighted>
0.0000

> <Gold.Chemscore.DEClash.Weighted>
0.0089

> <Gold.Chemscore.DEInternal.Weighted>
4.4291

> <Gold.Chemscore.Rot.Weighted>
4.4528

> <Gold.Chemscore.Internal.Correction.Weighted>
   9.000000E+99

> <Gold.Protein.RotatedTorsions>
[ 6907 6896 6895 6894 ] final  159.29 input  -60.11 | X-H torsion
[ 7974 7965 7964 7962 ] final -164.62 input  175.53 | X-H torsion
[ 8008 7997 7996 7995 ] final  126.65 input   59.86 | X-H torsion
[ 10167 10162 10161 10158 ] final   23.04 input  -65.29 | X-H torsion
[ 10718 10713 10712 10709 ] final   -9.89 input   66.30 | X-H torsion
[ 10763 10752 10751 10750 ] final -101.63 input  -60.55 | X-H torsion
[ 11005 11000 10999 10996 ] final  -87.20 input  -57.11 | X-H torsion

> <Gold.Protein.ActiveResidues>
 VAL166  LYS551  ARG553  GLY616  TRP617  ASP618  TYR619  PRO620  LYS621  CYS622 
 ASP623  PHE694  ASN695  SER759  ASP760  ASP761  ALA762  ILE779  LEU786  VAL792 
 PHE793  MET794  SER795  GLU796  ALA797  LYS798  CYS799  TRP800  GLU811  SER814 

> <Gold.Protein.RotatedAtoms>
  151.9878  133.3780  159.4132 H   0  0  0  0  0  0  0  0  0  0  0  0  # atno 6907 bound_to 6896
  150.6926  134.3969  159.5111 H   0  0  0  0  0  0  0  0  0  0  0  0  # atno 6908 bound_to 6896
  152.1698  134.8843  160.0586 H   0  0  0  0  0  0  0  0  0  0  0  0  # atno 6909 bound_to 6896
  144.7292  140.2933  143.6217 H   0  0  0  0  0  0  0  0  0  0  0  0  # atno 7974 bound_to 7965
  156.2870  140.2687  156.2145 H   0  0  0  0  0  0  0  0  0  0  0  0  # atno 8008 bound_to 7997
  155.0230  140.0386  157.2463 H   0  0  0  0  0  0  0  0  0  0  0  0  # atno 8009 bound_to 7997
  154.7419  140.2726  155.6371 H   0  0  0  0  0  0  0  0  0  0  0  0  # atno 8010 bound_to 7997
  140.5300  143.9857  150.6461 H   0  0  0  0  0  0  0  0  0  0  0  0  # atno 10167 bound_to 10162
  156.6815  130.5038  149.5970 H   0  0  0  0  0  0  0  0  0  0  0  0  # atno 10718 bound_to 10713
  154.7672  135.4891  153.9578 H   0  0  0  0  0  0  0  0  0  0  0  0  # atno 10763 bound_to 10752
  153.1323  135.6755  153.9167 H   0  0  0  0  0  0  0  0  0  0  0  0  # atno 10764 bound_to 10752
  153.8866  135.3126  155.3425 H   0  0  0  0  0  0  0  0  0  0  0  0  # atno 10765 bound_to 10752
  141.1620  133.7497  156.9272 H   0  0  0  0  0  0  0  0  0  0  0  0  # atno 11005 bound_to 11000
  145.7833  139.1899  143.2145 LP  0  0  0  0  0  0  0  0  0  0  0  0  # atno 17320 bound_to 7965
  146.0816  140.7757  142.9639 LP  0  0  0  0  0  0  0  0  0  0  0  0  # atno 17321 bound_to 7965
  140.3229  143.3125  152.0765 LP  0  0  0  0  0  0  0  0  0  0  0  0  # atno 17342 bound_to 10162
  139.4951  144.6561  151.6569 LP  0  0  0  0  0  0  0  0  0  0  0  0  # atno 17343 bound_to 10162
  156.1864  130.6532  151.1011 LP  0  0  0  0  0  0  0  0  0  0  0  0  # atno 17370 bound_to 10713
  157.7042  131.0763  150.6722 LP  0  0  0  0  0  0  0  0  0  0  0  0  # atno 17371 bound_to 10713
  140.1411  134.9293  157.2468 LP  0  0  0  0  0  0  0  0  0  0  0  0  # atno 17394 bound_to 11000
  140.2835  134.3322  155.7336 LP  0  0  0  0  0  0  0  0  0  0  0  0  # atno 17395 bound_to 11000

$$$$
