AV-unprocessed.smi:246|AV-procd|sdf|1886|dock1
  -GOLD-   2262020543D 1   1.00000     0.00000
 Structure written by MMmdl.
 57 60  0  0  0  0  0  0  0  0  1 V2000
  154.9763  139.6441  162.0720 C   0  0  0  0  0  0  0  0  0  0  0  0
  155.1536  140.0469  160.6019 C   0  0  0  0  0  0  0  0  0  0  0  0
  153.9836  140.6661  160.0871 O   0  0  0  0  0  0  0  0  0  0  0  0
  153.5200  141.7659  160.8565 C   0  0  0  0  0  0  0  0  0  0  0  0
  152.7683  142.7274  159.9324 C   0  0  0  0  0  0  0  0  0  0  0  0
  151.7227  142.0137  159.2909 O   0  0  0  0  0  0  0  0  0  0  0  0
  150.7361  142.8456  158.6963 C   0  0  1  0  0  0  0  0  0  0  0  0
  151.3569  143.7335  157.6120 C   0  0  0  0  0  0  0  0  0  0  0  0
  151.3620  142.8302  156.3823 C   0  0  0  0  0  0  0  0  0  0  0  0
  150.1644  142.0144  156.5196 N   0  0  0  0  0  0  0  0  0  0  0  0
  149.9219  140.9747  155.6787 C   0  0  0  0  0  0  0  0  0  0  0  0
  150.8771  140.0187  155.5262 N   0  0  0  0  0  0  0  0  0  0  0  0
  150.6750  138.9792  154.7123 C   0  0  0  0  0  0  0  0  0  0  0  0
  149.6080  138.7029  153.9617 N   0  0  0  0  0  0  0  0  0  0  0  0
  148.6474  139.6609  154.0985 C   0  0  0  0  0  0  0  0  0  0  0  0
  148.7233  140.8231  154.9197 C   0  0  0  0  0  0  0  0  0  0  0  0
  147.5617  141.5742  154.7716 N   0  0  0  0  0  0  0  0  0  0  0  0
  146.8406  140.8916  153.9259 C   0  0  0  0  0  0  0  0  0  0  0  0
  147.4092  139.7198  153.4825 N   0  0  0  0  0  0  0  0  0  0  0  0
  146.8282  138.7700  152.5467 C   0  0  0  0  0  0  0  0  0  0  0  0
  145.7954  137.8031  153.1712 C   0  0  1  0  0  0  0  0  0  0  0  0
  144.9678  138.4690  154.1053 O   0  0  0  0  0  0  0  0  0  0  0  0
  144.9368  137.0090  152.1598 C   0  0  1  0  0  0  0  0  0  0  0  0
  145.7120  136.1490  151.1570 C   0  0  0  0  0  0  0  0  0  0  0  0
  144.6699  135.1237  150.7697 C   0  0  0  0  0  0  0  0  0  0  0  0
  143.9655  134.8849  152.1017 C   0  0  0  0  0  0  0  0  0  0  0  0
  144.0012  136.1336  152.7854 O   0  0  0  0  0  0  0  0  0  0  0  0
  149.7709  141.9378  157.9211 C   0  0  0  0  0  0  0  0  0  0  0  0
  150.2046  143.4205  159.4569 H   0  0  0  0  0  0  0  0  0  0  0  0
  155.8480  139.0951  162.4281 H   0  0  0  0  0  0  0  0  0  0  0  0
  154.1044  139.0013  162.1968 H   0  0  0  0  0  0  0  0  0  0  0  0
  154.8489  140.5111  162.7194 H   0  0  0  0  0  0  0  0  0  0  0  0
  156.0282  140.6859  160.4700 H   0  0  0  0  0  0  0  0  0  0  0  0
  155.3353  139.1484  160.0116 H   0  0  0  0  0  0  0  0  0  0  0  0
  152.8730  141.4470  161.6741 H   0  0  0  0  0  0  0  0  0  0  0  0
  154.3762  142.2786  161.2969 H   0  0  0  0  0  0  0  0  0  0  0  0
  152.3328  143.5366  160.5201 H   0  0  0  0  0  0  0  0  0  0  0  0
  153.4550  143.1778  159.2149 H   0  0  0  0  0  0  0  0  0  0  0  0
  150.7076  144.5906  157.4292 H   0  0  0  0  0  0  0  0  0  0  0  0
  152.3475  144.1136  157.8609 H   0  0  0  0  0  0  0  0  0  0  0  0
  151.3534  143.4081  155.4575 H   0  0  0  0  0  0  0  0  0  0  0  0
  152.2465  142.1914  156.3847 H   0  0  0  0  0  0  0  0  0  0  0  0
  151.4840  138.2659  154.6561 H   0  0  0  0  0  0  0  0  0  0  0  0
  145.8608  141.2195  153.6104 H   0  0  0  0  0  0  0  0  0  0  0  0
  146.3650  139.3296  151.7332 H   0  0  0  0  0  0  0  0  0  0  0  0
  147.6421  138.2008  152.0958 H   0  0  0  0  0  0  0  0  0  0  0  0
  146.3614  137.0717  153.7493 H   0  0  0  0  0  0  0  0  0  0  0  0
  144.6433  139.2627  153.7078 H   0  0  0  0  0  0  0  0  0  0  0  0
  144.3394  137.7216  151.5887 H   0  0  0  0  0  0  0  0  0  0  0  0
  146.0866  136.7204  150.3074 H   0  0  0  0  0  0  0  0  0  0  0  0
  146.5577  135.6479  151.6293 H   0  0  0  0  0  0  0  0  0  0  0  0
  143.9744  135.5494  150.0453 H   0  0  0  0  0  0  0  0  0  0  0  0
  145.0970  134.2153  150.3438 H   0  0  0  0  0  0  0  0  0  0  0  0
  142.9438  134.5255  151.9779 H   0  0  0  0  0  0  0  0  0  0  0  0
  144.5135  134.1512  152.6943 H   0  0  0  0  0  0  0  0  0  0  0  0
  149.7952  140.9163  158.3028 H   0  0  0  0  0  0  0  0  0  0  0  0
  148.7496  142.3087  158.0118 H   0  0  0  0  0  0  0  0  0  0  0  0
  1  2  1  0  0  0  0
  1 30  1  0  0  0  0
  1 31  1  0  0  0  0
  1 32  1  0  0  0  0
  2  3  1  0  0  0  0
  2 33  1  0  0  0  0
  2 34  1  0  0  0  0
  3  4  1  0  0  0  0
  4  5  1  0  0  0  0
  4 35  1  0  0  0  0
  4 36  1  0  0  0  0
  5  6  1  0  0  0  0
  5 37  1  0  0  0  0
  5 38  1  0  0  0  0
  6  7  1  0  0  0  0
  7 29  1  0  0  0  0
  7 28  1  0  0  0  0
  7  8  1  0  0  0  0
  8  9  1  0  0  0  0
  8 39  1  0  0  0  0
  8 40  1  0  0  0  0
  9 10  1  0  0  0  0
  9 41  1  0  0  0  0
  9 42  1  0  0  0  0
 10 11  1  0  0  0  0
 10 28  1  0  0  0  0
 11 16  1  0  0  0  0
 11 12  2  0  0  0  0
 12 13  1  0  0  0  0
 13 14  2  0  0  0  0
 13 43  1  0  0  0  0
 14 15  1  0  0  0  0
 15 19  1  0  0  0  0
 15 16  2  0  0  0  0
 16 17  1  0  0  0  0
 17 18  2  0  0  0  0
 18 19  1  0  0  0  0
 18 44  1  0  0  0  0
 19 20  1  0  0  0  0
 20 21  1  0  0  0  0
 20 45  1  0  0  0  0
 20 46  1  0  0  0  0
 21 22  1  0  0  0  0
 21 23  1  0  0  0  0
 21 47  1  0  0  0  0
 22 48  1  0  0  0  0
 23 27  1  0  0  0  0
 23 24  1  0  0  0  0
 23 49  1  0  0  0  0
 24 25  1  0  0  0  0
 24 50  1  0  0  0  0
 24 51  1  0  0  0  0
 25 26  1  0  0  0  0
 25 52  1  0  0  0  0
 25 53  1  0  0  0  0
 26 27  1  0  0  0  0
 26 54  1  0  0  0  0
 26 55  1  0  0  0  0
 28 56  1  0  0  0  0
 28 57  1  0  0  0  0
M  END
> <s_m_source_file>
AV-unprocessed.smi

> <i_m_source_file_index>
246

> <i_lp_mmshare_version>
43012

> <i_f3d_flags>
0

> <s_epik_input>
W0NIM11bQ0gyXU9bQ0gyXVtDSDJdT1tDQEhdMVtDSDJdW0NIMl1OKFtDSDJdMSljKG5bY0hdbjIpYyhjMjMpbltjSF1uM1tDSDJdW0NASF0oW09IXSlbQ0BASF00W0NIMl1bQ0gyXVtDSDJdTzQ=

> <s_epik_cmdline>
J2VwaWtfcHl0aG9uJywgJy1waCcsICc3LjAnLCAnLXRuJywgJzgnLCAnLW1hJywgJzIwMCcsICctbWV0YWxfYmluZGluZycsICctaW1hZScsICc8aW5maWxlLm1hZT4nLCAnLW9tYWUnLCAnPG91dGZpbGUubWFlPic=

> <r_lp_tautomer_probability>
1

> <r_epik_Ionization_Penalty>
0.0024631

> <r_epik_Ionization_Penalty_Charging>
0

> <r_epik_Ionization_Penalty_Neutral>
0.0024631

> <r_epik_State_Penalty>
0.00162428

> <r_epik_Charging_Adjusted_Penalty>
0.00162428

> <i_epik_Tot_Q>
0

> <i_epik_Tot_abs_Q>
0

> <r_epik_Metal_State_Penalty>
-0

> <b_epik_Metal_Only>
0

> <s_lp_Force_Field>
OPLS_2005

> <r_lp_Energy>
53.5717

> <b_lp_Chiralities_Consistent>
1

> <s_lp_Variant>
AV-unprocessed.smi:246-7

> <Gold.Version>
5.8.1

> <Gold.Id.Protein>
6NUR|6NUR_protein|mol2

> <Gold.PLP.Fitness>
50.1898

> <Gold.PLP.PLP>
-47.1332

> <Gold.PLP.part.hbond>
-1.0319

> <Gold.PLP.part.metal>
0.0000

> <Gold.PLP.part.buried>
-4.4829

> <Gold.PLP.part.nonpolar>
-43.2214

> <Gold.PLP.part.repulsive>
0.6325

> <Gold.PLP.ligand.clash>
0.0000

> <Gold.PLP.ligand.torsion>
1.9273

> <Gold.PLP.Chemscore.Hbond>
1.0000

> <Gold.PLP.Chemscore.CHOScore>
0.9933

> <Gold.PLP.Chemscore.Metal>
0.0000

> <Gold.Chemscore.Hbonds>
donor molecule, donor type, donor heavy atom, donor atom, acceptor molecule, acceptor atom, score
      L1  H    22    48       P1 10175  1.00
      L1  C    18    44       P1 10175  0.94

> <Gold.PLP.Chemscore.Internal.Correction>
0.9314

> <Gold.Rescore>
     Score         DG    S(hbond)    S(metal)    S(lipo)     H(rot)  DE(clash)    DE(int)     intcor
      9.65     -14.36       0.98        0.00     115.73       3.10       1.99       2.72       ----

> <Gold.Chemscore.Fitness>
9.6529

> <Gold.Chemscore.DG>
-14.3601

> <Gold.Chemscore.ZeroCoef>
-5.4800

> <Gold.Chemscore.Hbond>
0.9826

> <Gold.Chemscore.Metal>
0.0000

> <Gold.Chemscore.Lipo>
115.7332

> <Gold.Chemscore.Internal_Hbond>
0.0000

> <Gold.Chemscore.DEClash>
1.9912

> <Gold.Chemscore.DEInternal>
2.7161

> <Gold.Chemscore.Rot>
3.1026

> <Gold.Chemscore.Internal.Correction>
   9.000000E+99

> <Gold.Chemscore.Hbonds>
donor molecule, donor type, donor heavy atom, donor atom, acceptor molecule, acceptor atom, score
      L1  H    22    48       P1 10175  0.97

> <Gold.Chemscore.Hbond.Weighted>
-3.2820

> <Gold.Chemscore.Metal.Weighted>
-0.0000

> <Gold.Chemscore.Lipo.Weighted>
-13.5408

> <Gold.Chemscore.Internal_Hbond.Weighted>
0.0000

> <Gold.Chemscore.DEClash.Weighted>
1.9912

> <Gold.Chemscore.DEInternal.Weighted>
2.7161

> <Gold.Chemscore.Rot.Weighted>
7.9426

> <Gold.Chemscore.Internal.Correction.Weighted>
   9.000000E+99

> <Gold.Protein.RotatedTorsions>
[ 6907 6896 6895 6894 ] final  -28.81 input  -60.11 | X-H torsion
[ 7974 7965 7964 7962 ] final  161.84 input  175.53 | X-H torsion
[ 8008 7997 7996 7995 ] final    6.13 input   59.86 | X-H torsion
[ 10167 10162 10161 10158 ] final  135.82 input  -65.29 | X-H torsion
[ 10718 10713 10712 10709 ] final   35.72 input   66.30 | X-H torsion
[ 10763 10752 10751 10750 ] final   86.56 input  -60.55 | X-H torsion
[ 11005 11000 10999 10996 ] final  -81.10 input  -57.11 | X-H torsion

> <Gold.Protein.ActiveResidues>
 VAL166  LYS551  ARG553  GLY616  TRP617  ASP618  TYR619  PRO620  LYS621  CYS622 
 ASP623  PHE694  ASN695  SER759  ASP760  ASP761  ALA762  ILE779  LEU786  VAL792 
 PHE793  MET794  SER795  GLU796  ALA797  LYS798  CYS799  TRP800  GLU811  SER814 

> <Gold.Protein.RotatedAtoms>
  151.1278  135.0114  159.8568 H   0  0  0  0  0  0  0  0  0  0  0  0  # atno 6907 bound_to 6896
  152.5450  134.1646  159.8582 H   0  0  0  0  0  0  0  0  0  0  0  0  # atno 6908 bound_to 6896
  151.1710  133.4739  159.2627 H   0  0  0  0  0  0  0  0  0  0  0  0  # atno 6909 bound_to 6896
  144.7665  139.7955  143.6313 H   0  0  0  0  0  0  0  0  0  0  0  0  # atno 7974 bound_to 7965
  154.7372  140.2742  155.6405 H   0  0  0  0  0  0  0  0  0  0  0  0  # atno 8008 bound_to 7997
  156.2864  140.2704  156.2014 H   0  0  0  0  0  0  0  0  0  0  0  0  # atno 8009 bound_to 7997
  155.0305  140.0371  157.2462 H   0  0  0  0  0  0  0  0  0  0  0  0  # atno 8010 bound_to 7997
  139.5203  144.6497  151.5338 H   0  0  0  0  0  0  0  0  0  0  0  0  # atno 10167 bound_to 10162
  157.3261  130.7473  149.6816 H   0  0  0  0  0  0  0  0  0  0  0  0  # atno 10718 bound_to 10713
  153.1583  135.4576  154.9735 H   0  0  0  0  0  0  0  0  0  0  0  0  # atno 10763 bound_to 10752
  154.7878  135.3210  154.7849 H   0  0  0  0  0  0  0  0  0  0  0  0  # atno 10764 bound_to 10752
  153.8343  135.6936  153.4865 H   0  0  0  0  0  0  0  0  0  0  0  0  # atno 10765 bound_to 10752
  141.1667  133.7180  156.8372 H   0  0  0  0  0  0  0  0  0  0  0  0  # atno 11005 bound_to 11000
  146.1778  139.4956  142.9886 LP  0  0  0  0  0  0  0  0  0  0  0  0  # atno 17320 bound_to 7965
  145.6453  141.0275  143.1790 LP  0  0  0  0  0  0  0  0  0  0  0  0  # atno 17321 bound_to 7965
  140.6297  143.9101  150.6594 LP  0  0  0  0  0  0  0  0  0  0  0  0  # atno 17342 bound_to 10162
  140.2401  143.3670  152.1494 LP  0  0  0  0  0  0  0  0  0  0  0  0  # atno 17343 bound_to 10162
  155.9690  130.4209  150.4444 LP  0  0  0  0  0  0  0  0  0  0  0  0  # atno 17370 bound_to 10713
  157.2467  131.0537  151.2404 LP  0  0  0  0  0  0  0  0  0  0  0  0  # atno 17371 bound_to 10713
  140.2009  134.8897  157.3168 LP  0  0  0  0  0  0  0  0  0  0  0  0  # atno 17394 bound_to 11000
  140.2188  134.4048  155.7576 LP  0  0  0  0  0  0  0  0  0  0  0  0  # atno 17395 bound_to 11000

$$$$
