#       Name:                AV-unprocessed.smi:221
#       Creating user name   scv26
#       Creation time:       Thu Mar 26 20:15:30 2020


#       File generated by GOLD software.
#

@<TRIPOS>MOLECULE
AV-unprocessed.smi:221
    60    63     1
SMALL
NO_CHARGES


@<TRIPOS>ATOM
      1 ****        -1.7349   2.8686   2.7493 N.am           1 S1                 0.0000
      2 ****        -1.0849   3.9775   2.3816 C.2            1 S1                 0.0000
      3 ****        -0.5435   4.7076   3.2088 O.2            1 S1                 0.0000
      4 ****        -1.0115   4.3364   0.8858 C.3            1 S1                 0.0000
      5 ****        -1.6998   5.6776   0.5873 C.3            1 S1                 0.0000
      6 ****        -2.0468   5.5554  -0.8892 C.3            1 S1                 0.0000
      7 ****        -3.0153   6.3920  -1.2609 F              1 S1                 0.0000
      8 ****        -2.4530   4.0900  -1.0155 C.3            1 S1                 0.0000
      9 ****        -1.6816   3.3742  -0.0024 N.3            1 S1                 0.0000
     10 ****        -0.9152   2.3667  -0.4793 C.ar           1 S1                 0.0000
     11 ****         0.1527   2.6393  -1.2750 N.ar           1 S1                 0.0000
     12 ****         0.9041   1.6393  -1.7471 C.ar           1 S1                 0.0000
     13 ****         0.7640   0.3255  -1.5535 N.ar           1 S1                 0.0000
     14 ****        -0.3114   0.0538  -0.7595 C.ar           1 S1                 0.0000
     15 ****        -1.1986   1.0072  -0.1882 C.ar           1 S1                 0.0000
     16 ****        -2.1798   0.3632   0.5550 N.2            1 S1                 0.0000
     17 ****        -1.8862  -0.9031   0.4336 C.2            1 S1                 0.0000
     18 ****        -0.7749  -1.1774  -0.3322 N.pl3          1 S1                 0.0000
     19 ****        -0.2223  -2.4861  -0.6322 C.3            1 S1                 0.0000
     20 ****         1.1078  -2.7940   0.1066 C.3            1 S1                 0.0000
     21 ****         0.9644  -2.6913   1.6469 C.3            1 S1                 0.0000
     22 ****         0.9544  -1.3499   2.0906 O.3            1 S1                 0.0000
     23 ****         1.6473  -4.1875  -0.3098 C.3            1 S1                 0.0000
     24 ****         1.8886  -4.3619  -1.8004 C.3            1 S1                 0.0000
     25 ****         2.8152  -5.5704  -1.8391 C.3            1 S1                 0.0000
     26 ****         3.6201  -5.4644  -0.6719 O.3            1 S1                 0.0000
     27 ****         3.0408  -4.5311   0.2353 C.3            1 S1                 0.0000
     28 ****         0.0435   4.4255   0.6207 H              1 S1                 0.0000
     29 ****        -1.1695   5.7630  -1.5034 H              1 S1                 0.0000
     30 ****        -1.7889   2.6189   3.7259 H              1 S1                 0.0000
     31 ****        -2.1672   2.2829   2.0488 H              1 S1                 0.0000
     32 ****        -2.6141   5.7858   1.1742 H              1 S1                 0.0000
     33 ****        -1.0615   6.5366   0.7967 H              1 S1                 0.0000
     34 ****        -3.5098   3.9658  -0.7753 H              1 S1                 0.0000
     35 ****        -2.3052   3.7189  -2.0315 H              1 S1                 0.0000
     36 ****         1.7371   1.9338  -2.3682 H              1 S1                 0.0000
     37 ****        -2.4720  -1.6766   0.9086 H              1 S1                 0.0000
     38 ****        -0.9699  -3.2415  -0.3867 H              1 S1                 0.0000
     39 ****        -0.0836  -2.5313  -1.7122 H              1 S1                 0.0000
     40 ****         1.8486  -2.0576  -0.2095 H              1 S1                 0.0000
     41 ****         0.0598  -3.1965   1.9865 H              1 S1                 0.0000
     42 ****         1.7990  -3.1715   2.1553 H              1 S1                 0.0000
     43 ****         0.8959  -1.3452   3.0339 H              1 S1                 0.0000
     44 ****         0.9473  -4.9590   0.0160 H              1 S1                 0.0000
     45 ****         0.9744  -4.5268  -2.3710 H              1 S1                 0.0000
     46 ****         2.3959  -3.4876  -2.2110 H              1 S1                 0.0000
     47 ****         2.2377  -6.4940  -1.7813 H              1 S1                 0.0000
     48 ****         3.4223  -5.6054  -2.7440 H              1 S1                 0.0000
     49 ****         3.6767  -3.6451   0.2625 H              1 S1                 0.0000
     50 ****         3.0032  -4.9492   1.2414 H              1 S1                 0.0000
     51 ****        -0.5834   4.4773   4.1811 LP             1 S1                 0.0000
     52 ****        -0.0630   5.5320   2.9096 LP             1 S1                 0.0000
     53 ****        -2.3198   2.8583   0.5690 LP             1 S1                 0.0000
     54 ****         0.3759   3.5861  -1.5068 LP             1 S1                 0.0000
     55 ****         1.3696  -0.3698  -1.9408 LP             1 S1                 0.0000
     56 ****        -2.9356   0.7742   1.0647 LP             1 S1                 0.0000
     57 ****         0.1667  -0.8722   1.7017 LP             1 S1                 0.0000
     58 ****         1.7964  -0.8935   1.8029 LP             1 S1                 0.0000
     59 ****         4.5354  -5.1533  -0.9278 LP             1 S1                 0.0000
     60 ****         3.6835  -6.3596  -0.2308 LP             1 S1                 0.0000
@<TRIPOS>BOND
    1    1    2 am    
    2    1   30 1     
    3    1   31 1     
    4    2    3 2     
    5    2    4 1     
    6    4   28 1     
    7    4    9 1     
    8    4    5 1     
    9    5    6 1     
   10    5   32 1     
   11    5   33 1     
   12    6   29 1     
   13    6    7 1     
   14    6    8 1     
   15    8    9 1     
   16    8   34 1     
   17    8   35 1     
   18    9   10 1     
   19   10   15 ar    
   20   10   11 ar    
   21   11   12 ar    
   22   12   13 ar    
   23   12   36 1     
   24   13   14 ar    
   25   14   18 1     
   26   14   15 ar    
   27   15   16 1     
   28   16   17 2     
   29   17   18 1     
   30   17   37 1     
   31   18   19 1     
   32   19   20 1     
   33   19   38 1     
   34   19   39 1     
   35   20   21 1     
   36   20   23 1     
   37   20   40 1     
   38   21   22 1     
   39   21   41 1     
   40   21   42 1     
   41   22   43 1     
   42   23   27 1     
   43   23   24 1     
   44   23   44 1     
   45   24   25 1     
   46   24   45 1     
   47   24   46 1     
   48   25   26 1     
   49   25   47 1     
   50   25   48 1     
   51   26   27 1     
   52   27   49 1     
   53   27   50 1     
   54    3   51 1     
   55    3   52 1     
   56    9   53 1     
   57   11   54 1     
   58   13   55 1     
   59   16   56 1     
   60   22   57 1     
   61   22   58 1     
   62   26   59 1     
   63   26   60 1     
@<TRIPOS>SUBSTRUCTURE
      1 S1             1
@<TRIPOS>SET
LONE_PAIRS      STATIC     ATOMS    <user>   **** ""
10 51 52 53 54 55 56 57 58 59 60
DONOR_HYDROGENS      STATIC     ATOMS    <user>   **** ""
3 30 31 43
ATOM$BLUE        STATIC     ATOMS    COLORGROUP SYSTEM
10 51 52 53 54 55 56 57 58 59 60
ATOM$RED        STATIC     ATOMS    COLORGROUP SYSTEM
3 30 31 43
