AV-unprocessed.smi:2520|AV-procd|sdf|9907|dock10
  -GOLD-   2272013543D 1   1.00000     0.00000
 Structure written by MMmdl.
 41 44  0  0  0  0  0  0  0  0  1 V2000
  149.5908  136.1159  158.2892 O   0  0  0  0  0  0  0  0  0  0  0  0
  148.7452  137.0056  158.2169 C   0  0  0  0  0  0  0  0  0  0  0  0
  147.8724  137.2193  159.2242 N   0  0  0  0  0  0  0  0  0  0  0  0
  147.7050  136.5652  160.4799 C   0  0  0  0  0  0  0  0  0  0  0  0
  147.8520  135.1620  160.4400 C   0  0  0  0  0  0  0  0  0  0  0  0
  147.6957  134.4375  161.6339 C   0  0  0  0  0  0  0  0  0  0  0  0
  147.3976  135.1690  162.7960 C   0  0  0  0  0  0  0  0  0  0  0  0
  147.2606  136.5123  162.7903 N   0  0  0  0  0  0  0  0  0  0  0  0
  147.4109  137.1936  161.6495 N   0  0  0  0  0  0  0  0  0  0  0  0
  148.6327  137.8146  157.1524 N   0  0  0  0  0  0  0  0  0  0  0  0
  149.4290  137.7148  155.9359 C   0  0  2  0  0  0  0  0  0  0  0  0
  150.8806  138.1401  156.1545 C   0  0  1  0  0  0  0  0  0  0  0  0
  152.1858  137.4276  156.1427 C   0  0  0  0  0  0  0  0  0  0  0  0
  152.9715  138.4328  155.2597 C   0  0  0  0  0  0  0  0  0  0  0  0
  151.9838  139.3426  154.7179 O   0  0  0  0  0  0  0  0  0  0  0  0
  150.7902  138.5856  154.7088 C   0  0  2  0  0  0  0  0  0  0  0  0
  149.3311  138.9859  155.0087 C   0  0  0  0  0  0  0  0  0  0  0  0
  148.3365  138.9095  153.8421 C   0  0  0  0  0  0  0  0  0  0  0  0
  147.5861  140.2400  153.7553 C   0  0  0  0  0  0  0  0  0  0  0  0
  147.6992  140.8357  155.1508 C   0  0  0  0  0  0  0  0  0  0  0  0
  149.0733  140.3759  155.6278 C   0  0  0  0  0  0  0  0  0  0  0  0
  147.2544  138.0044  159.0794 H   0  0  0  0  0  0  0  0  0  0  0  0
  148.0802  134.6491  159.5170 H   0  0  0  0  0  0  0  0  0  0  0  0
  147.7998  133.3630  161.6580 H   0  0  0  0  0  0  0  0  0  0  0  0
  147.2655  134.6701  163.7446 H   0  0  0  0  0  0  0  0  0  0  0  0
  147.9151  138.5255  157.1718 H   0  0  0  0  0  0  0  0  0  0  0  0
  149.3295  136.7606  155.4098 H   0  0  0  0  0  0  0  0  0  0  0  0
  150.9304  138.9834  156.8502 H   0  0  0  0  0  0  0  0  0  0  0  0
  152.6173  137.3154  157.1375 H   0  0  0  0  0  0  0  0  0  0  0  0
  152.1094  136.4456  155.6739 H   0  0  0  0  0  0  0  0  0  0  0  0
  153.7043  138.9960  155.8382 H   0  0  0  0  0  0  0  0  0  0  0  0
  153.4979  137.9171  154.4557 H   0  0  0  0  0  0  0  0  0  0  0  0
  150.8567  137.7660  153.9841 H   0  0  0  0  0  0  0  0  0  0  0  0
  148.8303  138.6866  152.8958 H   0  0  0  0  0  0  0  0  0  0  0  0
  147.6207  138.1050  154.0118 H   0  0  0  0  0  0  0  0  0  0  0  0
  148.0863  140.8939  153.0399 H   0  0  0  0  0  0  0  0  0  0  0  0
  146.5522  140.1203  153.4300 H   0  0  0  0  0  0  0  0  0  0  0  0
  147.5876  141.9202  155.1596 H   0  0  0  0  0  0  0  0  0  0  0  0
  146.9275  140.4119  155.7947 H   0  0  0  0  0  0  0  0  0  0  0  0
  149.1245  140.3876  156.7167 H   0  0  0  0  0  0  0  0  0  0  0  0
  149.8272  141.0809  155.2755 H   0  0  0  0  0  0  0  0  0  0  0  0
  1  2  2  0  0  0  0
  2  3  1  0  0  0  0
  2 10  1  0  0  0  0
  3  4  1  0  0  0  0
  3 22  1  0  0  0  0
  4  9  1  0  0  0  0
  4  5  2  0  0  0  0
  5  6  1  0  0  0  0
  5 23  1  0  0  0  0
  6  7  2  0  0  0  0
  6 24  1  0  0  0  0
  7  8  1  0  0  0  0
  7 25  1  0  0  0  0
  8  9  2  0  0  0  0
 10 11  1  0  0  0  0
 10 26  1  0  0  0  0
 11 17  1  0  0  0  0
 11 12  1  0  0  0  0
 11 27  1  0  0  0  0
 12 16  1  0  0  0  0
 12 13  1  0  0  0  0
 12 28  1  0  0  0  0
 13 14  1  0  0  0  0
 13 29  1  0  0  0  0
 13 30  1  0  0  0  0
 14 15  1  0  0  0  0
 14 31  1  0  0  0  0
 14 32  1  0  0  0  0
 15 16  1  0  0  0  0
 16 17  1  0  0  0  0
 16 33  1  0  0  0  0
 17 21  1  0  0  0  0
 17 18  1  0  0  0  0
 18 19  1  0  0  0  0
 18 34  1  0  0  0  0
 18 35  1  0  0  0  0
 19 20  1  0  0  0  0
 19 36  1  0  0  0  0
 19 37  1  0  0  0  0
 20 21  1  0  0  0  0
 20 38  1  0  0  0  0
 20 39  1  0  0  0  0
 21 40  1  0  0  0  0
 21 41  1  0  0  0  0
M  END
> <s_m_source_file>
AV-unprocessed.smi

> <i_m_source_file_index>
2520

> <i_lp_mmshare_version>
43012

> <i_f3d_flags>
0

> <s_epik_input>
bjFuW2NIXVtjSF1bY0hdYzFbTkhdQyg9TylbTkhdW0NAQEhdMltDQEBIXShbQ0gyXVtDSDJdTzMpW0NASF0zQzI0W0NIMl1bQ0gyXVtDSDJdW0NIMl00

> <s_epik_cmdline>
J2VwaWtfcHl0aG9uJywgJy1waCcsICc3LjAnLCAnLXRuJywgJzgnLCAnLW1hJywgJzIwMCcsICctbWV0YWxfYmluZGluZycsICctaW1hZScsICc8aW5maWxlLm1hZT4nLCAnLW9tYWUnLCAnPG91dGZpbGUubWFlPic=

> <r_lp_tautomer_probability>
1

> <r_epik_Ionization_Penalty>
0.00552561

> <r_epik_Ionization_Penalty_Charging>
0

> <r_epik_Ionization_Penalty_Neutral>
0.00552561

> <r_epik_State_Penalty>
-0

> <r_epik_Charging_Adjusted_Penalty>
0

> <i_epik_Tot_Q>
0

> <i_epik_Tot_abs_Q>
0

> <r_epik_Metal_State_Penalty>
-0

> <b_epik_Metal_Only>
0

> <s_lp_Force_Field>
OPLS_2005

> <r_lp_Energy>
83.7492

> <b_lp_Chiralities_Consistent>
1

> <s_lp_Variant>
AV-unprocessed.smi:2520-1

> <Gold.Version>
5.8.1

> <Gold.Id.Protein>
6NUR|6NUR_protein|mol2

> <Gold.PLP.Fitness>
39.3447

> <Gold.PLP.PLP>
-30.5540

> <Gold.PLP.part.hbond>
-3.4293

> <Gold.PLP.part.metal>
0.0000

> <Gold.PLP.part.buried>
-5.1122

> <Gold.PLP.part.nonpolar>
-22.7514

> <Gold.PLP.part.repulsive>
0.2437

> <Gold.PLP.ligand.clash>
0.0000

> <Gold.PLP.ligand.torsion>
0.4459

> <Gold.PLP.Chemscore.Hbond>
3.1339

> <Gold.PLP.Chemscore.CHOScore>
0.0000

> <Gold.PLP.Chemscore.Metal>
0.0000

> <Gold.Chemscore.Hbonds>
donor molecule, donor type, donor heavy atom, donor atom, acceptor molecule, acceptor atom, score
      P1  H  6896  6908       L1     1  0.49
      P1  H  6931  6943       L1     9  0.91
      P1  H  6934  6947       L1     9  0.79
      P1  H  7989  7998       L1    15  0.93

> <Gold.PLP.Chemscore.Internal.Correction>
0.2809

> <Gold.Rescore>
     Score         DG    S(hbond)    S(metal)    S(lipo)     H(rot)  DE(clash)    DE(int)     intcor
     16.92     -18.86       2.11        0.00      76.13       1.00       0.28       1.67       ----

> <Gold.Chemscore.Fitness>
16.9199

> <Gold.Chemscore.DG>
-18.8647

> <Gold.Chemscore.ZeroCoef>
-5.4800

> <Gold.Chemscore.Hbond>
2.1069

> <Gold.Chemscore.Metal>
0.0000

> <Gold.Chemscore.Lipo>
76.1338

> <Gold.Chemscore.Internal_Hbond>
0.0000

> <Gold.Chemscore.DEClash>
0.2760

> <Gold.Chemscore.DEInternal>
1.6687

> <Gold.Chemscore.Rot>
1.0000

> <Gold.Chemscore.Internal.Correction>
   9.000000E+99

> <Gold.Chemscore.Hbonds>
donor molecule, donor type, donor heavy atom, donor atom, acceptor molecule, acceptor atom, score
      P1  H  6896  6908       L1     1  0.47
      P1  H  6931  6943       L1     9  0.13
      P1  H  6934  6947       L1     9  0.18
      P1  H  7989  7998       L1    15  0.49

> <Gold.Chemscore.Hbond.Weighted>
-7.0370

> <Gold.Chemscore.Metal.Weighted>
-0.0000

> <Gold.Chemscore.Lipo.Weighted>
-8.9077

> <Gold.Chemscore.Internal_Hbond.Weighted>
0.0000

> <Gold.Chemscore.DEClash.Weighted>
0.2760

> <Gold.Chemscore.DEInternal.Weighted>
1.6687

> <Gold.Chemscore.Rot.Weighted>
2.5600

> <Gold.Chemscore.Internal.Correction.Weighted>
   9.000000E+99

> <Gold.Protein.RotatedTorsions>
[ 6907 6896 6895 6894 ] final  177.99 input  -60.11 | X-H torsion
[ 7974 7965 7964 7962 ] final   57.21 input  175.53 | X-H torsion
[ 8008 7997 7996 7995 ] final  168.79 input   59.86 | X-H torsion
[ 10167 10162 10161 10158 ] final   71.72 input  -65.29 | X-H torsion
[ 10718 10713 10712 10709 ] final -134.62 input   66.30 | X-H torsion
[ 10763 10752 10751 10750 ] final  134.99 input  -60.55 | X-H torsion
[ 11005 11000 10999 10996 ] final  -28.55 input  -57.11 | X-H torsion

> <Gold.Protein.ActiveResidues>
 VAL166  LYS551  ARG553  GLY616  TRP617  ASP618  TYR619  PRO620  LYS621  CYS622 
 ASP623  PHE694  ASN695  SER759  ASP760  ASP761  ALA762  ILE779  LEU786  VAL792 
 PHE793  MET794  SER795  GLU796  ALA797  LYS798  CYS799  TRP800  GLU811  SER814 

> <Gold.Protein.RotatedAtoms>
  151.6951  133.3311  159.3252 H   0  0  0  0  0  0  0  0  0  0  0  0  # atno 6907 bound_to 6896
  150.7761  134.6664  159.6377 H   0  0  0  0  0  0  0  0  0  0  0  0  # atno 6908 bound_to 6896
  152.3803  134.6603  160.0197 H   0  0  0  0  0  0  0  0  0  0  0  0  # atno 6909 bound_to 6896
  145.9315  139.3811  143.0418 H   0  0  0  0  0  0  0  0  0  0  0  0  # atno 7974 bound_to 7965
  156.1515  140.1581  156.8762 H   0  0  0  0  0  0  0  0  0  0  0  0  # atno 8008 bound_to 7997
  154.5075  140.0809  156.7961 H   0  0  0  0  0  0  0  0  0  0  0  0  # atno 8009 bound_to 7997
  155.3886  140.3409  155.4252 H   0  0  0  0  0  0  0  0  0  0  0  0  # atno 8010 bound_to 7997
  140.0431  144.5373  150.7419 H   0  0  0  0  0  0  0  0  0  0  0  0  # atno 10167 bound_to 10162
  156.2574  130.7189  151.1111 H   0  0  0  0  0  0  0  0  0  0  0  0  # atno 10718 bound_to 10713
  153.8326  135.3101  155.3420 H   0  0  0  0  0  0  0  0  0  0  0  0  # atno 10763 bound_to 10752
  154.7966  135.4751  154.0180 H   0  0  0  0  0  0  0  0  0  0  0  0  # atno 10764 bound_to 10752
  153.1624  135.6863  153.8814 H   0  0  0  0  0  0  0  0  0  0  0  0  # atno 10765 bound_to 10752
  140.9218  133.7394  156.0812 H   0  0  0  0  0  0  0  0  0  0  0  0  # atno 11005 bound_to 11000
  145.8420  140.9575  143.0794 LP  0  0  0  0  0  0  0  0  0  0  0  0  # atno 17320 bound_to 7965
  144.6765  140.0296  143.7483 LP  0  0  0  0  0  0  0  0  0  0  0  0  # atno 17321 bound_to 7965
  140.7251  143.2628  151.4148 LP  0  0  0  0  0  0  0  0  0  0  0  0  # atno 17342 bound_to 10162
  139.6001  144.1314  152.2188 LP  0  0  0  0  0  0  0  0  0  0  0  0  # atno 17343 bound_to 10162
  157.7238  131.0664  150.6023 LP  0  0  0  0  0  0  0  0  0  0  0  0  # atno 17370 bound_to 10713
  156.6108  130.4379  149.5860 LP  0  0  0  0  0  0  0  0  0  0  0  0  # atno 17371 bound_to 10713
  140.7977  134.3544  157.5448 LP  0  0  0  0  0  0  0  0  0  0  0  0  # atno 17394 bound_to 11000
  139.8777  134.9179  156.3189 LP  0  0  0  0  0  0  0  0  0  0  0  0  # atno 17395 bound_to 11000

$$$$
