AV-unprocessed.smi:1269|AV-procd|sdf|5328|dock1
  -GOLD-   22720 4453D 1   1.00000     0.00000
 Structure written by MMmdl.
 43 44  0  0  0  0  0  0  0  0  1 V2000
  152.1232  140.7739  158.3416 C   0  0  0  0  0  0  0  0  0  0  0  0
  151.6165  140.9578  157.0241 O   0  0  0  0  0  0  0  0  0  0  0  0
  151.1290  139.8566  156.3503 C   0  0  0  0  0  0  0  0  0  0  0  0
  150.8434  138.6888  157.0847 C   0  0  0  0  0  0  0  0  0  0  0  0
  150.3454  137.5632  156.4019 C   0  0  0  0  0  0  0  0  0  0  0  0
  150.1387  137.6380  155.0098 C   0  0  0  0  0  0  0  0  0  0  0  0
  149.6511  136.4797  154.3461 N   0  0  0  0  0  0  0  0  0  0  0  0
  149.3618  135.2745  154.8664 C   0  0  0  0  0  0  0  0  0  0  0  0
  149.5047  134.9547  156.0461 O   0  0  0  0  0  0  0  0  0  0  0  0
  148.9107  134.4363  153.9215 N   0  0  0  0  0  0  0  0  0  0  0  0
  148.5061  133.0489  154.1388 C   0  0  1  0  0  0  0  0  0  0  0  0
  147.5563  133.0237  155.3466 C   0  0  0  0  0  0  0  0  0  0  0  0
  147.9112  132.4843  152.8244 C   0  0  0  0  0  0  0  0  0  0  0  0
  146.5679  132.9472  152.4635 N   0  0  0  0  0  0  0  0  0  0  0  0
  145.8686  131.9435  151.6650 C   0  0  0  0  0  0  0  0  0  0  0  0
  144.4514  132.3978  151.2751 C   0  0  0  0  0  0  0  0  0  0  0  0
  144.5241  133.6294  150.5655 O   0  0  0  0  0  0  0  0  0  0  0  0
  145.1669  134.6545  151.3151 C   0  0  0  0  0  0  0  0  0  0  0  0
  146.5839  134.1983  151.7046 C   0  0  0  0  0  0  0  0  0  0  0  0
  150.4677  138.8528  154.3598 C   0  0  0  0  0  0  0  0  0  0  0  0
  150.9473  139.9353  155.0090 N   0  0  0  0  0  0  0  0  0  0  0  0
  152.4660  141.7316  158.7330 H   0  0  0  0  0  0  0  0  0  0  0  0
  152.9729  140.0897  158.3500 H   0  0  0  0  0  0  0  0  0  0  0  0
  151.3535  140.3973  159.0169 H   0  0  0  0  0  0  0  0  0  0  0  0
  151.0043  138.6569  158.1521 H   0  0  0  0  0  0  0  0  0  0  0  0
  150.1226  136.6558  156.9442 H   0  0  0  0  0  0  0  0  0  0  0  0
  149.5578  136.5635  153.3445 H   0  0  0  0  0  0  0  0  0  0  0  0
  148.8345  134.7852  152.9773 H   0  0  0  0  0  0  0  0  0  0  0  0
  149.3934  132.4697  154.4015 H   0  0  0  0  0  0  0  0  0  0  0  0
  147.4400  132.0160  155.7422 H   0  0  0  0  0  0  0  0  0  0  0  0
  146.5706  133.4138  155.0913 H   0  0  0  0  0  0  0  0  0  0  0  0
  147.9493  133.6264  156.1663 H   0  0  0  0  0  0  0  0  0  0  0  0
  148.6011  132.6442  151.9943 H   0  0  0  0  0  0  0  0  0  0  0  0
  147.8696  131.4011  152.9498 H   0  0  0  0  0  0  0  0  0  0  0  0
  146.4396  131.7243  150.7610 H   0  0  0  0  0  0  0  0  0  0  0  0
  145.7987  131.0091  152.2233 H   0  0  0  0  0  0  0  0  0  0  0  0
  143.9732  131.6497  150.6428 H   0  0  0  0  0  0  0  0  0  0  0  0
  143.8264  132.5165  152.1615 H   0  0  0  0  0  0  0  0  0  0  0  0
  145.2134  135.5607  150.7112 H   0  0  0  0  0  0  0  0  0  0  0  0
  144.5789  134.8901  152.2034 H   0  0  0  0  0  0  0  0  0  0  0  0
  147.0555  134.9951  152.2713 H   0  0  0  0  0  0  0  0  0  0  0  0
  147.1786  134.0733  150.7985 H   0  0  0  0  0  0  0  0  0  0  0  0
  150.3731  138.9759  153.2925 H   0  0  0  0  0  0  0  0  0  0  0  0
  1  2  1  0  0  0  0
  1 22  1  0  0  0  0
  1 23  1  0  0  0  0
  1 24  1  0  0  0  0
  2  3  1  0  0  0  0
  3 21  1  0  0  0  0
  3  4  2  0  0  0  0
  4  5  1  0  0  0  0
  4 25  1  0  0  0  0
  5  6  2  0  0  0  0
  5 26  1  0  0  0  0
  6  7  1  0  0  0  0
  6 20  1  0  0  0  0
  7  8  1  0  0  0  0
  7 27  1  0  0  0  0
  8  9  2  0  0  0  0
  8 10  1  0  0  0  0
 10 11  1  0  0  0  0
 10 28  1  0  0  0  0
 11 12  1  0  0  0  0
 11 13  1  0  0  0  0
 11 29  1  0  0  0  0
 12 30  1  0  0  0  0
 12 31  1  0  0  0  0
 12 32  1  0  0  0  0
 13 14  1  0  0  0  0
 13 33  1  0  0  0  0
 13 34  1  0  0  0  0
 14 19  1  0  0  0  0
 14 15  1  0  0  0  0
 15 16  1  0  0  0  0
 15 35  1  0  0  0  0
 15 36  1  0  0  0  0
 16 17  1  0  0  0  0
 16 37  1  0  0  0  0
 16 38  1  0  0  0  0
 17 18  1  0  0  0  0
 18 19  1  0  0  0  0
 18 39  1  0  0  0  0
 18 40  1  0  0  0  0
 19 41  1  0  0  0  0
 19 42  1  0  0  0  0
 20 21  2  0  0  0  0
 20 43  1  0  0  0  0
M  END
> <s_m_source_file>
AV-unprocessed.smi

> <i_m_source_file_index>
1269

> <i_lp_mmshare_version>
43012

> <i_f3d_flags>
0

> <s_epik_input>
W0NIM11PYzFbY0hdW2NIXWMoW2NIXW4xKVtOSF1DKD1PKVtOSF1bQ0BIXShbQ0gzXSlbQ0gyXU4yW0NIMl1bQ0gyXU9bQ0gyXVtDSDJdMg==

> <s_epik_cmdline>
J2VwaWtfcHl0aG9uJywgJy1waCcsICc3LjAnLCAnLXRuJywgJzgnLCAnLW1hJywgJzIwMCcsICctbWV0YWxfYmluZGluZycsICctaW1hZScsICc8aW5maWxlLm1hZT4nLCAnLW9tYWUnLCAnPG91dGZpbGUubWFlPic=

> <r_lp_tautomer_probability>
1

> <r_epik_Ionization_Penalty>
0.266086

> <r_epik_Ionization_Penalty_Charging>
0

> <r_epik_Ionization_Penalty_Neutral>
0.266086

> <r_epik_State_Penalty>
0.257924

> <r_epik_Charging_Adjusted_Penalty>
0.257924

> <i_epik_Tot_Q>
0

> <i_epik_Tot_abs_Q>
0

> <r_epik_Metal_State_Penalty>
0.25792

> <b_epik_Metal_Only>
0

> <s_lp_Force_Field>
OPLS_2005

> <r_lp_Energy>
29.6845

> <b_lp_Chiralities_Consistent>
1

> <s_lp_Variant>
AV-unprocessed.smi:1269-2

> <Gold.Version>
5.8.1

> <Gold.Id.Protein>
6NUR|6NUR_protein|mol2

> <Gold.PLP.Fitness>
38.2647

> <Gold.PLP.PLP>
-27.6533

> <Gold.PLP.part.hbond>
-3.0000

> <Gold.PLP.part.metal>
0.0000

> <Gold.PLP.part.buried>
-4.4569

> <Gold.PLP.part.nonpolar>
-20.5864

> <Gold.PLP.part.repulsive>
0.3716

> <Gold.PLP.ligand.clash>
0.0000

> <Gold.PLP.ligand.torsion>
0.6926

> <Gold.PLP.Chemscore.Hbond>
2.9600

> <Gold.PLP.Chemscore.CHOScore>
1.0000

> <Gold.PLP.Chemscore.Metal>
0.0000

> <Gold.Chemscore.Hbonds>
donor molecule, donor type, donor heavy atom, donor atom, acceptor molecule, acceptor atom, score
      L1  H     7    27       P1  7948  1.00
      L1  H    10    28       P1  7948  0.77
      P1  H  7989  7998       L1    21  0.90
      L1  C    20    43       P1  7957  1.00

> <Gold.PLP.Chemscore.Internal.Correction>
0.1166

> <Gold.Rescore>
     Score         DG    S(hbond)    S(metal)    S(lipo)     H(rot)  DE(clash)    DE(int)     intcor
     11.93     -15.28       2.22        0.00      58.02       1.72       0.01       3.34       ----

> <Gold.Chemscore.Fitness>
11.9305

> <Gold.Chemscore.DG>
-15.2822

> <Gold.Chemscore.ZeroCoef>
-5.4800

> <Gold.Chemscore.Hbond>
2.2198

> <Gold.Chemscore.Metal>
0.0000

> <Gold.Chemscore.Lipo>
58.0206

> <Gold.Chemscore.Internal_Hbond>
0.0000

> <Gold.Chemscore.DEClash>
0.0119

> <Gold.Chemscore.DEInternal>
3.3397

> <Gold.Chemscore.Rot>
1.7189

> <Gold.Chemscore.Internal.Correction>
   9.000000E+99

> <Gold.Chemscore.Hbonds>
donor molecule, donor type, donor heavy atom, donor atom, acceptor molecule, acceptor atom, score
      L1  H     7    27       P1  7948  0.59
      L1  H    10    28       P1  7948  0.11
      P1  H  7989  7998       L1    21  0.18

> <Gold.Chemscore.Hbond.Weighted>
-7.4142

> <Gold.Chemscore.Metal.Weighted>
-0.0000

> <Gold.Chemscore.Lipo.Weighted>
-6.7884

> <Gold.Chemscore.Internal_Hbond.Weighted>
0.0000

> <Gold.Chemscore.DEClash.Weighted>
0.0119

> <Gold.Chemscore.DEInternal.Weighted>
3.3397

> <Gold.Chemscore.Rot.Weighted>
4.4004

> <Gold.Chemscore.Internal.Correction.Weighted>
   9.000000E+99

> <Gold.Protein.RotatedTorsions>
[ 6907 6896 6895 6894 ] final  -56.15 input  -60.11 | X-H torsion
[ 7974 7965 7964 7962 ] final   -3.17 input  175.53 | X-H torsion
[ 8008 7997 7996 7995 ] final   29.92 input   59.86 | X-H torsion
[ 10167 10162 10161 10158 ] final   80.29 input  -65.29 | X-H torsion
[ 10718 10713 10712 10709 ] final   96.04 input   66.30 | X-H torsion
[ 10763 10752 10751 10750 ] final -179.51 input  -60.55 | X-H torsion
[ 11005 11000 10999 10996 ] final -174.36 input  -57.11 | X-H torsion

> <Gold.Protein.ActiveResidues>
 VAL166  LYS551  ARG553  GLY616  TRP617  ASP618  TYR619  PRO620  LYS621  CYS622 
 ASP623  PHE694  ASN695  SER759  ASP760  ASP761  ALA762  ILE779  LEU786  VAL792 
 PHE793  MET794  SER795  GLU796  ALA797  LYS798  CYS799  TRP800  GLU811  SER814 

> <Gold.Protein.RotatedAtoms>
  150.8191  134.7389  159.6756 H   0  0  0  0  0  0  0  0  0  0  0  0  # atno 6907 bound_to 6896
  152.4308  134.5778  159.9949 H   0  0  0  0  0  0  0  0  0  0  0  0  # atno 6908 bound_to 6896
  151.5966  133.3323  159.3075 H   0  0  0  0  0  0  0  0  0  0  0  0  # atno 6909 bound_to 6896
  146.2394  140.1680  142.8332 H   0  0  0  0  0  0  0  0  0  0  0  0  # atno 7974 bound_to 7965
  155.0822  140.3211  155.4598 H   0  0  0  0  0  0  0  0  0  0  0  0  # atno 8008 bound_to 7997
  156.2764  140.2093  156.5896 H   0  0  0  0  0  0  0  0  0  0  0  0  # atno 8009 bound_to 7997
  154.6969  140.0511  157.0407 H   0  0  0  0  0  0  0  0  0  0  0  0  # atno 8010 bound_to 7997
  139.9513  144.6024  150.8158 H   0  0  0  0  0  0  0  0  0  0  0  0  # atno 10167 bound_to 10162
  157.6932  131.0565  150.4430 H   0  0  0  0  0  0  0  0  0  0  0  0  # atno 10718 bound_to 10713
  154.5341  135.2801  155.1154 H   0  0  0  0  0  0  0  0  0  0  0  0  # atno 10763 bound_to 10752
  154.2662  135.6312  153.5297 H   0  0  0  0  0  0  0  0  0  0  0  0  # atno 10764 bound_to 10752
  152.9963  135.5617  154.5863 H   0  0  0  0  0  0  0  0  0  0  0  0  # atno 10765 bound_to 10752
  140.4753  134.6126  157.4898 H   0  0  0  0  0  0  0  0  0  0  0  0  # atno 11005 bound_to 11000
  145.0035  140.8652  143.5267 LP  0  0  0  0  0  0  0  0  0  0  0  0  # atno 17320 bound_to 7965
  145.1703  139.2408  143.5345 LP  0  0  0  0  0  0  0  0  0  0  0  0  # atno 17321 bound_to 7965
  140.7582  143.3102  151.2864 LP  0  0  0  0  0  0  0  0  0  0  0  0  # atno 17342 bound_to 10162
  139.6626  144.0162  152.2702 LP  0  0  0  0  0  0  0  0  0  0  0  0  # atno 17343 bound_to 10162
  156.4787  130.4069  149.6474 LP  0  0  0  0  0  0  0  0  0  0  0  0  # atno 17370 bound_to 10713
  156.3528  130.7441  151.2402 LP  0  0  0  0  0  0  0  0  0  0  0  0  # atno 17371 bound_to 10713
  139.9859  134.7062  155.9774 LP  0  0  0  0  0  0  0  0  0  0  0  0  # atno 17394 bound_to 11000
  141.1557  133.6543  156.4154 LP  0  0  0  0  0  0  0  0  0  0  0  0  # atno 17395 bound_to 11000

$$$$
