AV-unprocessed.smi:798|AV-procd|sdf|3784|dock2
  -GOLD-   22720 1223D 1   1.00000     0.00000
 Structure written by MMmdl.
 33 35  0  0  0  0  0  0  0  0  2 V2000
  150.4959  136.6629  159.2056 O   0  0  0  0  0  0  0  0  0  0  0  0
  149.5009  136.9938  158.5566 C   0  0  0  0  0  0  0  0  0  0  0  0
  148.2172  136.9530  158.9812 N   0  5  0  0  0  0  0  0  0  0  0  0
  147.9296  136.4705  160.2012 C   0  0  0  0  0  0  0  0  0  0  0  0
  147.7316  137.2684  161.2630 N   0  0  0  0  0  0  0  0  0  0  0  0
  147.4426  136.5675  162.4262 N   0  0  0  0  0  0  0  0  0  0  0  0
  147.4225  135.2526  162.2087 C   0  0  0  0  0  0  0  0  0  0  0  0
  147.7504  134.7513  160.5634 S   0  0  0  0  0  0  0  0  0  0  0  0
  149.6400  137.4356  157.2988 N   0  0  0  0  0  0  0  0  0  0  0  0
  150.9035  137.5612  156.5733 C   0  0  1  0  0  0  0  0  0  0  0  0
  150.7275  137.9858  155.0919 C   0  0  1  0  0  0  0  0  0  0  0  0
  149.8266  139.2329  154.9643 C   0  0  0  0  0  0  0  0  0  0  0  0
  150.7093  140.3461  155.5583 C   0  0  0  0  0  0  0  0  0  0  0  0
  152.0109  139.5986  155.9096 C   0  0  2  0  0  0  0  0  0  0  0  0
  152.0935  138.5814  154.7773 C   0  0  0  0  0  0  0  0  0  0  0  0
  151.7749  138.7082  157.1521 C   0  0  2  0  0  0  0  0  0  0  0  0
  153.0903  138.2198  157.7900 C   0  0  0  0  0  0  0  0  0  0  0  0
  153.8598  139.3180  158.2316 O   0  0  0  0  0  0  0  0  0  0  0  0
  147.2098  134.5739  163.0209 H   0  0  0  0  0  0  0  0  0  0  0  0
  148.8011  137.7013  156.8045 H   0  0  0  0  0  0  0  0  0  0  0  0
  151.4433  136.6135  156.6215 H   0  0  0  0  0  0  0  0  0  0  0  0
  150.4281  137.1666  154.4374 H   0  0  0  0  0  0  0  0  0  0  0  0
  149.6115  139.4402  153.9152 H   0  0  0  0  0  0  0  0  0  0  0  0
  148.8694  139.1354  155.4767 H   0  0  0  0  0  0  0  0  0  0  0  0
  150.8945  141.1237  154.8162 H   0  0  0  0  0  0  0  0  0  0  0  0
  150.2533  140.8185  156.4290 H   0  0  0  0  0  0  0  0  0  0  0  0
  152.8737  140.2596  155.9976 H   0  0  0  0  0  0  0  0  0  0  0  0
  152.9113  137.8675  154.8842 H   0  0  0  0  0  0  0  0  0  0  0  0
  152.1502  139.0384  153.7876 H   0  0  0  0  0  0  0  0  0  0  0  0
  151.2292  139.2827  157.9030 H   0  0  0  0  0  0  0  0  0  0  0  0
  152.9043  137.5511  158.6304 H   0  0  0  0  0  0  0  0  0  0  0  0
  153.6791  137.6634  157.0605 H   0  0  0  0  0  0  0  0  0  0  0  0
  153.7157  139.4341  159.1580 H   0  0  0  0  0  0  0  0  0  0  0  0
  1  2  2  0  0  0  0
  2  3  1  0  0  0  0
  2  9  1  0  0  0  0
  3  4  1  0  0  0  0
  4  8  1  0  0  0  0
  4  5  2  0  0  0  0
  5  6  1  0  0  0  0
  6  7  2  0  0  0  0
  7  8  1  0  0  0  0
  7 19  1  0  0  0  0
  9 10  1  0  0  0  0
  9 20  1  0  0  0  0
 10 16  1  0  0  0  0
 10 11  1  0  0  0  0
 10 21  1  0  0  0  0
 11 15  1  0  0  0  0
 11 12  1  0  0  0  0
 11 22  1  0  0  0  0
 12 13  1  0  0  0  0
 12 23  1  0  0  0  0
 12 24  1  0  0  0  0
 13 14  1  0  0  0  0
 13 25  1  0  0  0  0
 13 26  1  0  0  0  0
 14 15  1  0  0  0  0
 14 16  1  0  0  0  0
 14 27  1  0  0  0  0
 15 28  1  0  0  0  0
 15 29  1  0  0  0  0
 16 17  1  0  0  0  0
 16 30  1  0  0  0  0
 17 18  1  0  0  0  0
 17 31  1  0  0  0  0
 17 32  1  0  0  0  0
 18 33  1  0  0  0  0
M  CHG  1   3  -1
M  END
> <s_m_source_file>
AV-unprocessed.smi

> <i_m_source_file_index>
798

> <i_lp_mmshare_version>
43012

> <i_f3d_flags>
0

> <s_epik_input>
W0NIMl0xW0NIMl1bQ0BASF0oW0NIMl0yKVtDQEBIXShbQ0gyXVtPSF0pW0NAQEhdKFtDQEhdMTIpW05IXUMoPU8pW05IXWMzbm5bY0hdczM=

> <s_epik_cmdline>
J2VwaWtfcHl0aG9uJywgJy1waCcsICc3LjAnLCAnLXRuJywgJzgnLCAnLW1hJywgJzIwMCcsICctbWV0YWxfYmluZGluZycsICctaW1hZScsICc8aW5maWxlLm1hZT4nLCAnLW9tYWUnLCAnPG91dGZpbGUubWFlPic=

> <r_lp_tautomer_probability>
1

> <r_epik_Ionization_Penalty>
4.53732

> <r_epik_Ionization_Penalty_Charging>
4.48632

> <r_epik_Ionization_Penalty_Neutral>
0.0510007

> <r_epik_State_Penalty>
4.48602

> <r_epik_Charging_Adjusted_Penalty>
8.97234

> <i_epik_Tot_Q>
-1

> <i_epik_Tot_abs_Q>
1

> <r_epik_Metal_State_Penalty>
0.812492

> <b_epik_Metal_Only>
1

> <s_lp_Force_Field>
OPLS_2005

> <r_lp_Energy>
46.8423

> <b_lp_Chiralities_Consistent>
1

> <s_lp_Variant>
AV-unprocessed.smi:798-16

> <Gold.Version>
5.8.1

> <Gold.Id.Protein>
6NUR|6NUR_protein|mol2

> <Gold.PLP.Fitness>
38.9982

> <Gold.PLP.PLP>
-29.3380

> <Gold.PLP.part.hbond>
-4.0000

> <Gold.PLP.part.metal>
0.0000

> <Gold.PLP.part.buried>
-4.5688

> <Gold.PLP.part.nonpolar>
-20.8591

> <Gold.PLP.part.repulsive>
0.0183

> <Gold.PLP.ligand.clash>
0.0000

> <Gold.PLP.ligand.torsion>
0.7994

> <Gold.PLP.Chemscore.Hbond>
3.7440

> <Gold.PLP.Chemscore.CHOScore>
0.0000

> <Gold.PLP.Chemscore.Metal>
0.0000

> <Gold.Chemscore.Hbonds>
donor molecule, donor type, donor heavy atom, donor atom, acceptor molecule, acceptor atom, score
      P1  H  6896  6907       L1     1  1.00
      P1  H  6931  6943       L1     5  0.84
      P1  H  6934  6947       L1     5  0.80
      P1  H  7997  8008       L1    18  1.00

> <Gold.PLP.Chemscore.Internal.Correction>
0.0270

> <Gold.Rescore>
     Score         DG    S(hbond)    S(metal)    S(lipo)     H(rot)  DE(clash)    DE(int)     intcor
     17.29     -18.15       3.09        0.00      61.98       1.92       0.05       0.81       ----

> <Gold.Chemscore.Fitness>
17.2931

> <Gold.Chemscore.DG>
-18.1499

> <Gold.Chemscore.ZeroCoef>
-5.4800

> <Gold.Chemscore.Hbond>
3.0942

> <Gold.Chemscore.Metal>
0.0000

> <Gold.Chemscore.Lipo>
61.9831

> <Gold.Chemscore.Internal_Hbond>
0.0000

> <Gold.Chemscore.DEClash>
0.0515

> <Gold.Chemscore.DEInternal>
0.8052

> <Gold.Chemscore.Rot>
1.9207

> <Gold.Chemscore.Internal.Correction>
   9.000000E+99

> <Gold.Chemscore.Hbonds>
donor molecule, donor type, donor heavy atom, donor atom, acceptor molecule, acceptor atom, score
      P1  H  6896  6907       L1     1  0.99
      P1  H  6931  6943       L1     5  0.16
      P1  H  6934  6947       L1     5  0.76
      P1  H  7997  8008       L1    18  0.79

> <Gold.Chemscore.Hbond.Weighted>
-10.3347

> <Gold.Chemscore.Metal.Weighted>
-0.0000

> <Gold.Chemscore.Lipo.Weighted>
-7.2520

> <Gold.Chemscore.Internal_Hbond.Weighted>
0.0000

> <Gold.Chemscore.DEClash.Weighted>
0.0515

> <Gold.Chemscore.DEInternal.Weighted>
0.8052

> <Gold.Chemscore.Rot.Weighted>
4.9169

> <Gold.Chemscore.Internal.Correction.Weighted>
   9.000000E+99

> <Gold.Protein.RotatedTorsions>
[ 6907 6896 6895 6894 ] final  -41.27 input  -60.11 | X-H torsion
[ 7974 7965 7964 7962 ] final -126.17 input  175.53 | X-H torsion
[ 8008 7997 7996 7995 ] final  -87.07 input   59.86 | X-H torsion
[ 10167 10162 10161 10158 ] final  154.42 input  -65.29 | X-H torsion
[ 10718 10713 10712 10709 ] final  102.98 input   66.30 | X-H torsion
[ 10763 10752 10751 10750 ] final   -8.51 input  -60.55 | X-H torsion
[ 11005 11000 10999 10996 ] final  -62.70 input  -57.11 | X-H torsion

> <Gold.Protein.ActiveResidues>
 VAL166  LYS551  ARG553  GLY616  TRP617  ASP618  TYR619  PRO620  LYS621  CYS622 
 ASP623  PHE694  ASN695  SER759  ASP760  ASP761  ALA762  ILE779  LEU786  VAL792 
 PHE793  MET794  SER795  GLU796  ALA797  LYS798  CYS799  TRP800  GLU811  SER814 

> <Gold.Protein.RotatedAtoms>
  150.9687  134.9063  159.7774 H   0  0  0  0  0  0  0  0  0  0  0  0  # atno 6907 bound_to 6896
  152.5182  134.3571  159.9282 H   0  0  0  0  0  0  0  0  0  0  0  0  # atno 6908 bound_to 6896
  151.3581  133.3859  159.2721 H   0  0  0  0  0  0  0  0  0  0  0  0  # atno 6909 bound_to 6896
  144.9900  140.7723  143.4560 H   0  0  0  0  0  0  0  0  0  0  0  0  # atno 7974 bound_to 7965
  154.6590  140.0570  157.0041 H   0  0  0  0  0  0  0  0  0  0  0  0  # atno 8008 bound_to 7997
  155.1256  140.3251  155.4468 H   0  0  0  0  0  0  0  0  0  0  0  0  # atno 8009 bound_to 7997
  156.2610  140.1990  156.6377 H   0  0  0  0  0  0  0  0  0  0  0  0  # atno 8010 bound_to 7997
  139.4823  144.5188  151.7909 H   0  0  0  0  0  0  0  0  0  0  0  0  # atno 10167 bound_to 10162
  157.6786  131.0767  150.5486 H   0  0  0  0  0  0  0  0  0  0  0  0  # atno 10718 bound_to 10713
  153.4415  135.7014  153.6166 H   0  0  0  0  0  0  0  0  0  0  0  0  # atno 10763 bound_to 10752
  153.4538  135.3752  155.2299 H   0  0  0  0  0  0  0  0  0  0  0  0  # atno 10764 bound_to 10752
  154.8727  135.4003  154.3815 H   0  0  0  0  0  0  0  0  0  0  0  0  # atno 10765 bound_to 10752
  141.1368  133.6643  156.5568 H   0  0  0  0  0  0  0  0  0  0  0  0  # atno 11005 bound_to 11000
  145.2299  139.2120  143.5048 LP  0  0  0  0  0  0  0  0  0  0  0  0  # atno 17320 bound_to 7965
  146.3429  140.2174  142.8591 LP  0  0  0  0  0  0  0  0  0  0  0  0  # atno 17321 bound_to 7965
  140.4699  144.1601  150.5916 LP  0  0  0  0  0  0  0  0  0  0  0  0  # atno 17342 bound_to 10162
  140.4393  143.2533  151.9494 LP  0  0  0  0  0  0  0  0  0  0  0  0  # atno 17343 bound_to 10162
  156.5791  130.4300  149.5985 LP  0  0  0  0  0  0  0  0  0  0  0  0  # atno 17370 bound_to 10713
  156.2676  130.6998  151.1786 LP  0  0  0  0  0  0  0  0  0  0  0  0  # atno 17371 bound_to 10713
  140.4020  134.7348  157.4785 LP  0  0  0  0  0  0  0  0  0  0  0  0  # atno 17394 bound_to 11000
  140.0489  134.6159  155.8886 LP  0  0  0  0  0  0  0  0  0  0  0  0  # atno 17395 bound_to 11000

$$$$
