AV-unprocessed.smi:268|AV-procd|sdf|2041|dock5
  -GOLD-   2262021263D 1   1.00000     0.00000
 Structure written by MMmdl.
 50 53  0  0  0  0  0  0  0  0  1 V2000
  153.4375  141.3056  160.1974 C   0  0  0  0  0  0  0  0  0  0  0  0
  152.4958  141.8548  159.1176 C   0  0  0  0  0  0  0  0  0  0  0  0
  151.5701  140.8803  158.6551 O   0  0  0  0  0  0  0  0  0  0  0  0
  150.4555  141.4089  157.9508 C   0  0  2  0  0  0  0  0  0  0  0  0
  149.4988  140.3528  157.3782 C   0  0  0  0  0  0  0  0  0  0  0  0
  149.4417  141.2013  156.0958 C   0  0  2  0  0  0  0  0  0  0  0  0
  149.4651  140.4204  154.8565 N   0  0  0  0  0  0  0  0  0  0  0  0
  148.2123  140.3013  154.1172 C   0  0  0  0  0  0  0  0  0  0  0  0
  150.2140  139.2868  154.8230 C   0  0  0  0  0  0  0  0  0  0  0  0
  151.4856  139.3235  154.3404 N   0  0  0  0  0  0  0  0  0  0  0  0
  152.2318  138.2158  154.3147 C   0  0  0  0  0  0  0  0  0  0  0  0
  151.9110  136.9846  154.7160 N   0  0  0  0  0  0  0  0  0  0  0  0
  150.6379  136.9397  155.2026 C   0  0  0  0  0  0  0  0  0  0  0  0
  149.7311  138.0331  155.2948 C   0  0  0  0  0  0  0  0  0  0  0  0
  148.5269  137.6018  155.8387 N   0  0  0  0  0  0  0  0  0  0  0  0
  148.7120  136.3285  156.0569 C   0  0  0  0  0  0  0  0  0  0  0  0
  149.9490  135.8446  155.6948 N   0  0  0  0  0  0  0  0  0  0  0  0
  150.4223  134.4744  155.8193 C   0  0  0  0  0  0  0  0  0  0  0  0
  149.4669  133.4283  155.2152 C   0  0  0  0  0  0  0  0  0  0  0  0
  149.2630  133.7492  153.7202 C   0  0  0  0  0  0  0  0  0  0  0  0
  148.3234  134.7847  153.5117 O   0  0  0  0  0  0  0  0  0  0  0  0
  149.8083  131.9708  155.5574 C   0  0  0  0  0  0  0  0  0  0  0  0
  148.4816  131.7165  156.0694 O   0  0  0  0  0  0  0  0  0  0  0  0
  148.1935  133.1313  156.0202 C   0  0  0  0  0  0  0  0  0  0  0  0
  150.8186  141.7495  156.4994 C   0  0  0  0  0  0  0  0  0  0  0  0
  154.2070  142.0372  160.4442 H   0  0  0  0  0  0  0  0  0  0  0  0
  153.9373  140.3988  159.8567 H   0  0  0  0  0  0  0  0  0  0  0  0
  152.9046  141.0735  161.1186 H   0  0  0  0  0  0  0  0  0  0  0  0
  151.9761  142.7475  159.4689 H   0  0  0  0  0  0  0  0  0  0  0  0
  153.0928  142.1654  158.2600 H   0  0  0  0  0  0  0  0  0  0  0  0
  149.9481  142.2388  158.4474 H   0  0  0  0  0  0  0  0  0  0  0  0
  149.9747  139.3800  157.2385 H   0  0  0  0  0  0  0  0  0  0  0  0
  148.5480  140.2658  157.9044 H   0  0  0  0  0  0  0  0  0  0  0  0
  148.6653  141.9675  156.1358 H   0  0  0  0  0  0  0  0  0  0  0  0
  148.3443  140.6615  153.0967 H   0  0  0  0  0  0  0  0  0  0  0  0
  147.4225  140.8935  154.5800 H   0  0  0  0  0  0  0  0  0  0  0  0
  147.8635  139.2680  154.0744 H   0  0  0  0  0  0  0  0  0  0  0  0
  153.2285  138.3330  153.9154 H   0  0  0  0  0  0  0  0  0  0  0  0
  147.9435  135.7042  156.4882 H   0  0  0  0  0  0  0  0  0  0  0  0
  151.4064  134.4050  155.3543 H   0  0  0  0  0  0  0  0  0  0  0  0
  150.5849  134.2773  156.8796 H   0  0  0  0  0  0  0  0  0  0  0  0
  150.1961  134.0662  153.2542 H   0  0  0  0  0  0  0  0  0  0  0  0
  148.9208  132.8676  153.1773 H   0  0  0  0  0  0  0  0  0  0  0  0
  148.6875  135.4015  152.8951 H   0  0  0  0  0  0  0  0  0  0  0  0
  150.0525  131.3493  154.6953 H   0  0  0  0  0  0  0  0  0  0  0  0
  150.5668  131.8639  156.3343 H   0  0  0  0  0  0  0  0  0  0  0  0
  148.1834  133.5709  157.0181 H   0  0  0  0  0  0  0  0  0  0  0  0
  147.2667  133.3529  155.4901 H   0  0  0  0  0  0  0  0  0  0  0  0
  150.9605  142.8127  156.3042 H   0  0  0  0  0  0  0  0  0  0  0  0
  151.6523  141.1553  156.1196 H   0  0  0  0  0  0  0  0  0  0  0  0
  1  2  1  0  0  0  0
  1 26  1  0  0  0  0
  1 27  1  0  0  0  0
  1 28  1  0  0  0  0
  2  3  1  0  0  0  0
  2 29  1  0  0  0  0
  2 30  1  0  0  0  0
  3  4  1  0  0  0  0
  4 25  1  0  0  0  0
  4  5  1  0  0  0  0
  4 31  1  0  0  0  0
  5  6  1  0  0  0  0
  5 32  1  0  0  0  0
  5 33  1  0  0  0  0
  6  7  1  0  0  0  0
  6 25  1  0  0  0  0
  6 34  1  0  0  0  0
  7  8  1  0  0  0  0
  7  9  1  0  0  0  0
  8 35  1  0  0  0  0
  8 36  1  0  0  0  0
  8 37  1  0  0  0  0
  9 14  1  0  0  0  0
  9 10  2  0  0  0  0
 10 11  1  0  0  0  0
 11 12  2  0  0  0  0
 11 38  1  0  0  0  0
 12 13  1  0  0  0  0
 13 17  1  0  0  0  0
 13 14  2  0  0  0  0
 14 15  1  0  0  0  0
 15 16  2  0  0  0  0
 16 17  1  0  0  0  0
 16 39  1  0  0  0  0
 17 18  1  0  0  0  0
 18 19  1  0  0  0  0
 18 40  1  0  0  0  0
 18 41  1  0  0  0  0
 19 24  1  0  0  0  0
 19 20  1  0  0  0  0
 19 22  1  0  0  0  0
 20 21  1  0  0  0  0
 20 42  1  0  0  0  0
 20 43  1  0  0  0  0
 21 44  1  0  0  0  0
 22 23  1  0  0  0  0
 22 45  1  0  0  0  0
 22 46  1  0  0  0  0
 23 24  1  0  0  0  0
 24 47  1  0  0  0  0
 24 48  1  0  0  0  0
 25 49  1  0  0  0  0
 25 50  1  0  0  0  0
M  END
> <s_m_source_file>
AV-unprocessed.smi

> <i_m_source_file_index>
268

> <i_lp_mmshare_version>
43012

> <i_f3d_flags>
0

> <s_epik_input>
W0NIM11bQ0gyXU9bQ0BASF0xW0NIMl1bQ0BIXShbQ0gyXTEpTihbQ0gzXSljKG5bY0hdbjIpYyhjMjMpbltjSF1uM1tDSDJdQzQoW0NIMl1bT0hdKVtDSDJdT1tDSDJdNA==

> <s_epik_cmdline>
J2VwaWtfcHl0aG9uJywgJy1waCcsICc3LjAnLCAnLXRuJywgJzgnLCAnLW1hJywgJzIwMCcsICctbWV0YWxfYmluZGluZycsICctaW1hZScsICc8aW5maWxlLm1hZT4nLCAnLW9tYWUnLCAnPG91dGZpbGUubWFlPic=

> <r_lp_tautomer_probability>
1

> <r_epik_Ionization_Penalty>
0.00205824

> <r_epik_Ionization_Penalty_Charging>
0

> <r_epik_Ionization_Penalty_Neutral>
0.00205824

> <r_epik_State_Penalty>
0.00125218

> <r_epik_Charging_Adjusted_Penalty>
0.00125218

> <i_epik_Tot_Q>
0

> <i_epik_Tot_abs_Q>
0

> <r_epik_Metal_State_Penalty>
-0

> <b_epik_Metal_Only>
0

> <s_lp_Force_Field>
OPLS_2005

> <r_lp_Energy>
41.5967

> <b_lp_Chiralities_Consistent>
1

> <s_lp_Variant>
AV-unprocessed.smi:268-2

> <Gold.Version>
5.8.1

> <Gold.Id.Protein>
6NUR|6NUR_protein|mol2

> <Gold.PLP.Fitness>
43.7086

> <Gold.PLP.PLP>
-36.5857

> <Gold.PLP.part.hbond>
-2.8591

> <Gold.PLP.part.metal>
0.0000

> <Gold.PLP.part.buried>
-5.0976

> <Gold.PLP.part.nonpolar>
-29.1707

> <Gold.PLP.part.repulsive>
0.3493

> <Gold.PLP.ligand.clash>
0.0000

> <Gold.PLP.ligand.torsion>
1.5715

> <Gold.PLP.Chemscore.Hbond>
2.9600

> <Gold.PLP.Chemscore.CHOScore>
0.0000

> <Gold.PLP.Chemscore.Metal>
0.0000

> <Gold.Chemscore.Hbonds>
donor molecule, donor type, donor heavy atom, donor atom, acceptor molecule, acceptor atom, score
      L1  H    21    44       P1  7948  0.49
      P1  H  7989  7998       L1    10  1.00
      P1  H 10752 10765       L1    12  1.00

> <Gold.PLP.Chemscore.Internal.Correction>
1.3860

> <Gold.Rescore>
     Score         DG    S(hbond)    S(metal)    S(lipo)     H(rot)  DE(clash)    DE(int)     intcor
     13.53     -15.23       2.86        0.00      70.81       3.15       0.06       1.64       ----

> <Gold.Chemscore.Fitness>
13.5252

> <Gold.Chemscore.DG>
-15.2262

> <Gold.Chemscore.ZeroCoef>
-5.4800

> <Gold.Chemscore.Hbond>
2.8552

> <Gold.Chemscore.Metal>
0.0000

> <Gold.Chemscore.Lipo>
70.8093

> <Gold.Chemscore.Internal_Hbond>
0.0000

> <Gold.Chemscore.DEClash>
0.0595

> <Gold.Chemscore.DEInternal>
1.6416

> <Gold.Chemscore.Rot>
3.1542

> <Gold.Chemscore.Internal.Correction>
   9.000000E+99

> <Gold.Chemscore.Hbonds>
donor molecule, donor type, donor heavy atom, donor atom, acceptor molecule, acceptor atom, score
      L1  H    21    44       P1  7948  0.37
      P1  H  7989  7998       L1    10  0.60
      P1  H 10752 10765       L1    12  0.95

> <Gold.Chemscore.Hbond.Weighted>
-9.5363

> <Gold.Chemscore.Metal.Weighted>
-0.0000

> <Gold.Chemscore.Lipo.Weighted>
-8.2847

> <Gold.Chemscore.Internal_Hbond.Weighted>
0.0000

> <Gold.Chemscore.DEClash.Weighted>
0.0595

> <Gold.Chemscore.DEInternal.Weighted>
1.6416

> <Gold.Chemscore.Rot.Weighted>
8.0748

> <Gold.Chemscore.Internal.Correction.Weighted>
   9.000000E+99

> <Gold.Protein.RotatedTorsions>
[ 6907 6896 6895 6894 ] final  -93.78 input  -60.11 | X-H torsion
[ 7974 7965 7964 7962 ] final  -76.23 input  175.53 | X-H torsion
[ 8008 7997 7996 7995 ] final   -7.82 input   59.86 | X-H torsion
[ 10167 10162 10161 10158 ] final -116.29 input  -65.29 | X-H torsion
[ 10718 10713 10712 10709 ] final -143.12 input   66.30 | X-H torsion
[ 10763 10752 10751 10750 ] final  175.42 input  -60.55 | X-H torsion
[ 11005 11000 10999 10996 ] final   70.55 input  -57.11 | X-H torsion

> <Gold.Protein.ActiveResidues>
 VAL166  LYS551  ARG553  GLY616  TRP617  ASP618  TYR619  PRO620  LYS621  CYS622 
 ASP623  PHE694  ASN695  SER759  ASP760  ASP761  ALA762  ILE779  LEU786  VAL792 
 PHE793  MET794  SER795  GLU796  ALA797  LYS798  CYS799  TRP800  GLU811  SER814 

> <Gold.Protein.RotatedAtoms>
  150.6929  134.1914  159.4286 H   0  0  0  0  0  0  0  0  0  0  0  0  # atno 6907 bound_to 6896
  151.9884  134.9989  160.0570 H   0  0  0  0  0  0  0  0  0  0  0  0  # atno 6908 bound_to 6896
  152.1690  133.4596  159.4936 H   0  0  0  0  0  0  0  0  0  0  0  0  # atno 6909 bound_to 6896
  145.6155  140.9376  143.1166 H   0  0  0  0  0  0  0  0  0  0  0  0  # atno 7974 bound_to 7965
  154.5801  140.2397  155.8066 H   0  0  0  0  0  0  0  0  0  0  0  0  # atno 8008 bound_to 7997
  156.2173  140.3008  155.9825 H   0  0  0  0  0  0  0  0  0  0  0  0  # atno 8009 bound_to 7997
  155.2556  140.0412  157.2982 H   0  0  0  0  0  0  0  0  0  0  0  0  # atno 8010 bound_to 7997
  140.0808  143.4789  152.1926 H   0  0  0  0  0  0  0  0  0  0  0  0  # atno 10167 bound_to 10162
  156.3541  130.7704  151.1861 H   0  0  0  0  0  0  0  0  0  0  0  0  # atno 10718 bound_to 10713
  154.4673  135.2770  155.1668 H   0  0  0  0  0  0  0  0  0  0  0  0  # atno 10763 bound_to 10752
  154.3431  135.6166  153.5610 H   0  0  0  0  0  0  0  0  0  0  0  0  # atno 10764 bound_to 10752
  152.9860  135.5793  154.5048 H   0  0  0  0  0  0  0  0  0  0  0  0  # atno 10765 bound_to 10752
  139.9591  134.7092  156.0685 H   0  0  0  0  0  0  0  0  0  0  0  0  # atno 11005 bound_to 11000
  144.7252  139.7899  143.7367 LP  0  0  0  0  0  0  0  0  0  0  0  0  # atno 17320 bound_to 7965
  146.1471  139.4543  143.0072 LP  0  0  0  0  0  0  0  0  0  0  0  0  # atno 17321 bound_to 7965
  139.5780  144.7497  151.3713 LP  0  0  0  0  0  0  0  0  0  0  0  0  # atno 17342 bound_to 10162
  140.7078  143.7468  150.7513 LP  0  0  0  0  0  0  0  0  0  0  0  0  # atno 17343 bound_to 10162
  157.7465  131.0419  150.4668 LP  0  0  0  0  0  0  0  0  0  0  0  0  # atno 17370 bound_to 10713
  156.4868  130.4086  149.6429 LP  0  0  0  0  0  0  0  0  0  0  0  0  # atno 17371 bound_to 10713
  141.1267  133.6597  156.3354 LP  0  0  0  0  0  0  0  0  0  0  0  0  # atno 17394 bound_to 11000
  140.5540  134.5999  157.5415 LP  0  0  0  0  0  0  0  0  0  0  0  0  # atno 17395 bound_to 11000

$$$$
