AV-unprocessed.smi:2061|AV-procd|sdf|8380|dock6
  -GOLD-   2272011 53D 1   1.00000     0.00000
 Structure written by MMmdl.
 45 46  0  0  0  0  0  0  0  0  3 V2000
  152.5557  140.4750  156.0579 C   0  0  0  0  0  0  0  0  0  0  0  0
  152.6084  139.0698  155.5632 C   0  0  0  0  0  0  0  0  0  0  0  0
  151.7375  138.0213  155.6538 C   0  0  0  0  0  0  0  0  0  0  0  0
  152.4091  136.9802  154.9566 C   0  0  0  0  0  0  0  0  0  0  0  0
  151.9517  135.7313  154.7764 N   0  5  0  0  0  0  0  0  0  0  0  0
  150.7988  135.3380  155.3639 C   0  0  0  0  0  0  0  0  0  0  0  0
  150.6196  135.1425  156.5684 O   0  0  0  0  0  0  0  0  0  0  0  0
  149.7905  135.1503  154.5005 N   0  0  0  0  0  0  0  0  0  0  0  0
  148.4456  134.6996  154.8476 C   0  0  0  0  0  0  0  0  0  0  0  0
  147.9812  133.4727  154.0160 C   0  0  2  0  0  0  0  0  0  0  0  0
  149.1690  132.5043  153.7927 C   0  0  0  0  0  0  0  0  0  0  0  0
  147.3291  133.9146  152.7394 N   0  3  1  0  0  0  0  0  0  0  0  0
  146.8240  132.8143  151.8717 C   0  0  0  0  0  0  0  0  0  0  0  0
  146.1991  133.3629  150.5745 C   0  0  1  0  0  0  0  0  0  0  0  0
  145.5906  132.2507  149.7128 C   0  0  0  0  0  0  0  0  0  0  0  0
  145.1654  134.2822  150.8985 O   0  0  0  0  0  0  0  0  0  0  0  0
  145.6524  135.3992  151.6289 C   0  0  1  0  0  0  0  0  0  0  0  0
  144.4892  136.3763  151.8345 C   0  0  0  0  0  0  0  0  0  0  0  0
  146.2389  134.9035  152.9634 C   0  0  0  0  0  0  0  0  0  0  0  0
  153.5921  137.3574  154.5010 N   0  0  0  0  0  0  0  0  0  0  0  0
  153.7246  138.6987  154.8797 O   0  0  0  0  0  0  0  0  0  0  0  0
  152.7640  140.5147  157.1269 H   0  0  0  0  0  0  0  0  0  0  0  0
  151.5695  140.9072  155.8882 H   0  0  0  0  0  0  0  0  0  0  0  0
  153.2890  141.0991  155.5466 H   0  0  0  0  0  0  0  0  0  0  0  0
  150.7718  138.0025  156.1364 H   0  0  0  0  0  0  0  0  0  0  0  0
  149.9780  135.3270  153.5243 H   0  0  0  0  0  0  0  0  0  0  0  0
  148.4323  134.5046  155.9188 H   0  0  0  0  0  0  0  0  0  0  0  0
  147.7630  135.5340  154.6852 H   0  0  0  0  0  0  0  0  0  0  0  0
  147.2317  132.9224  154.5868 H   0  0  0  0  0  0  0  0  0  0  0  0
  149.6515  132.2307  154.7307 H   0  0  0  0  0  0  0  0  0  0  0  0
  149.9313  132.9492  153.1521 H   0  0  0  0  0  0  0  0  0  0  0  0
  148.8511  131.5625  153.3458 H   0  0  0  0  0  0  0  0  0  0  0  0
  147.6350  132.1469  151.5825 H   0  0  0  0  0  0  0  0  0  0  0  0
  146.0927  132.2228  152.4255 H   0  0  0  0  0  0  0  0  0  0  0  0
  146.9636  133.8753  149.9872 H   0  0  0  0  0  0  0  0  0  0  0  0
  146.3464  131.5208  149.4216 H   0  0  0  0  0  0  0  0  0  0  0  0
  145.1546  132.6591  148.8006 H   0  0  0  0  0  0  0  0  0  0  0  0
  144.8029  131.7209  150.2495 H   0  0  0  0  0  0  0  0  0  0  0  0
  146.4278  135.9024  151.0485 H   0  0  0  0  0  0  0  0  0  0  0  0
  144.8117  137.2620  152.3824 H   0  0  0  0  0  0  0  0  0  0  0  0
  143.6778  135.9121  152.3960 H   0  0  0  0  0  0  0  0  0  0  0  0
  144.0847  136.7076  150.8779 H   0  0  0  0  0  0  0  0  0  0  0  0
  145.4545  134.4457  153.5686 H   0  0  0  0  0  0  0  0  0  0  0  0
  146.5984  135.7674  153.5184 H   0  0  0  0  0  0  0  0  0  0  0  0
  148.0464  134.3825  152.2043 H   0  0  0  0  0  0  0  0  0  0  0  0
  1  2  1  0  0  0  0
  1 22  1  0  0  0  0
  1 23  1  0  0  0  0
  1 24  1  0  0  0  0
  2 21  1  0  0  0  0
  2  3  2  0  0  0  0
  3  4  1  0  0  0  0
  3 25  1  0  0  0  0
  4  5  1  0  0  0  0
  4 20  2  0  0  0  0
  5  6  1  0  0  0  0
  6  7  2  0  0  0  0
  6  8  1  0  0  0  0
  8  9  1  0  0  0  0
  8 26  1  0  0  0  0
  9 10  1  0  0  0  0
  9 27  1  0  0  0  0
  9 28  1  0  0  0  0
 10 11  1  0  0  0  0
 10 12  1  0  0  0  0
 10 29  1  0  0  0  0
 11 30  1  0  0  0  0
 11 31  1  0  0  0  0
 11 32  1  0  0  0  0
 12 19  1  0  0  0  0
 12 13  1  0  0  0  0
 12 45  1  0  0  0  0
 13 14  1  0  0  0  0
 13 33  1  0  0  0  0
 13 34  1  0  0  0  0
 14 15  1  0  0  0  0
 14 16  1  0  0  0  0
 14 35  1  0  0  0  0
 15 36  1  0  0  0  0
 15 37  1  0  0  0  0
 15 38  1  0  0  0  0
 16 17  1  0  0  0  0
 17 18  1  0  0  0  0
 17 19  1  0  0  0  0
 17 39  1  0  0  0  0
 18 40  1  0  0  0  0
 18 41  1  0  0  0  0
 18 42  1  0  0  0  0
 19 43  1  0  0  0  0
 19 44  1  0  0  0  0
 20 21  1  0  0  0  0
M  CHG  1   5  -1
M  CHG  1  12   1
M  END
> <s_m_source_file>
AV-unprocessed.smi

> <i_m_source_file_index>
2061

> <i_lp_mmshare_version>
43012

> <i_f3d_flags>
0

> <s_epik_input>
W0NIM11jMVtjSF1jKG5vMSlbTkhdQyg9TylbTkhdW0NIMl1bQ0BIXShbQ0gzXSlOMltDSDJdW0NAQEhdKFtDSDNdKU9bQ0BASF0oW0NIM10pW0NIMl0y

> <s_epik_cmdline>
J2VwaWtfcHl0aG9uJywgJy1waCcsICc3LjAnLCAnLXRuJywgJzgnLCAnLW1hJywgJzIwMCcsICctbWV0YWxfYmluZGluZycsICctaW1hZScsICc8aW5maWxlLm1hZT4nLCAnLW9tYWUnLCAnPG91dGZpbGUubWFlPic=

> <r_epik_Ionization_Penalty>
6.73511

> <r_epik_Ionization_Penalty_Charging>
6.73502

> <r_epik_Ionization_Penalty_Neutral>
9.50841e-05

> <r_epik_State_Penalty>
6.93549

> <r_epik_Charging_Adjusted_Penalty>
13.6705

> <i_epik_Tot_Q>
0

> <i_epik_Tot_abs_Q>
2

> <r_epik_Metal_State_Penalty>
2.87211

> <b_epik_Metal_Only>
1

> <s_lp_Force_Field>
OPLS_2005

> <r_lp_Energy>
7.84015

> <b_lp_Chiralities_Consistent>
1

> <s_lp_Variant>
AV-unprocessed.smi:2061-21

> <Gold.Version>
5.8.1

> <Gold.Id.Protein>
6NUR|6NUR_protein|mol2

> <Gold.PLP.Fitness>
53.2294

> <Gold.PLP.PLP>
-36.7289

> <Gold.PLP.part.hbond>
-4.9745

> <Gold.PLP.part.metal>
0.0000

> <Gold.PLP.part.buried>
-5.6888

> <Gold.PLP.part.nonpolar>
-27.0136

> <Gold.PLP.part.repulsive>
0.3690

> <Gold.PLP.ligand.clash>
0.0000

> <Gold.PLP.ligand.torsion>
0.9924

> <Gold.PLP.Chemscore.Hbond>
6.1150

> <Gold.PLP.Chemscore.CHOScore>
0.0000

> <Gold.PLP.Chemscore.Metal>
0.0000

> <Gold.Chemscore.Hbonds>
donor molecule, donor type, donor heavy atom, donor atom, acceptor molecule, acceptor atom, score
      L1  H     8    26       P1  7948  0.16
      L1  H    12    45       P1  7948  1.54
      P1  H  7997  8010       L1    21  0.04

> <Gold.PLP.Chemscore.Internal.Correction>
0.1401

> <Gold.Rescore>
     Score         DG    S(hbond)    S(metal)    S(lipo)     H(rot)  DE(clash)    DE(int)     intcor
     18.17     -19.19       3.12        0.00      62.18       1.56       0.00       1.02       ----

> <Gold.Chemscore.Fitness>
18.1699

> <Gold.Chemscore.DG>
-19.1897

> <Gold.Chemscore.ZeroCoef>
-5.4800

> <Gold.Chemscore.Hbond>
3.1185

> <Gold.Chemscore.Metal>
0.0000

> <Gold.Chemscore.Lipo>
62.1786

> <Gold.Chemscore.Internal_Hbond>
0.0000

> <Gold.Chemscore.DEClash>
0.0047

> <Gold.Chemscore.DEInternal>
1.0151

> <Gold.Chemscore.Rot>
1.5550

> <Gold.Chemscore.Internal.Correction>
   9.000000E+99

> <Gold.Chemscore.Hbonds>
donor molecule, donor type, donor heavy atom, donor atom, acceptor molecule, acceptor atom, score
      L1  H    12    45       P1  7948  0.12

> <Gold.Chemscore.Hbond.Weighted>
-10.4157

> <Gold.Chemscore.Metal.Weighted>
-0.0000

> <Gold.Chemscore.Lipo.Weighted>
-7.2749

> <Gold.Chemscore.Internal_Hbond.Weighted>
0.0000

> <Gold.Chemscore.DEClash.Weighted>
0.0047

> <Gold.Chemscore.DEInternal.Weighted>
1.0151

> <Gold.Chemscore.Rot.Weighted>
3.9809

> <Gold.Chemscore.Internal.Correction.Weighted>
   9.000000E+99

> <Gold.Protein.RotatedTorsions>
[ 6907 6896 6895 6894 ] final   30.15 input  -60.11 | X-H torsion
[ 7974 7965 7964 7962 ] final -132.01 input  175.53 | X-H torsion
[ 8008 7997 7996 7995 ] final  101.98 input   59.86 | X-H torsion
[ 10167 10162 10161 10158 ] final  111.71 input  -65.29 | X-H torsion
[ 10718 10713 10712 10709 ] final  -15.14 input   66.30 | X-H torsion
[ 10763 10752 10751 10750 ] final   59.78 input  -60.55 | X-H torsion
[ 11005 11000 10999 10996 ] final -111.69 input  -57.11 | X-H torsion

> <Gold.Protein.ActiveResidues>
 VAL166  LYS551  ARG553  GLY616  TRP617  ASP618  TYR619  PRO620  LYS621  CYS622 
 ASP623  PHE694  ASN695  SER759  ASP760  ASP761  ALA762  ILE779  LEU786  VAL792 
 PHE793  MET794  SER795  GLU796  ALA797  LYS798  CYS799  TRP800  GLU811  SER814 

> <Gold.Protein.RotatedAtoms>
  152.0418  134.9707  160.0573 H   0  0  0  0  0  0  0  0  0  0  0  0  # atno 6907 bound_to 6896
  152.1143  133.4313  159.4653 H   0  0  0  0  0  0  0  0  0  0  0  0  # atno 6908 bound_to 6896
  150.6845  134.2530  159.4562 H   0  0  0  0  0  0  0  0  0  0  0  0  # atno 6909 bound_to 6896
  144.9325  140.7145  143.4897 H   0  0  0  0  0  0  0  0  0  0  0  0  # atno 7974 bound_to 7965
  156.1350  140.3188  155.8407 H   0  0  0  0  0  0  0  0  0  0  0  0  # atno 8008 bound_to 7997
  155.4261  140.0515  157.3039 H   0  0  0  0  0  0  0  0  0  0  0  0  # atno 8009 bound_to 7997
  154.4930  140.2099  155.9520 H   0  0  0  0  0  0  0  0  0  0  0  0  # atno 8010 bound_to 7997
  139.6590  144.7129  151.1901 H   0  0  0  0  0  0  0  0  0  0  0  0  # atno 10167 bound_to 10162
  156.6060  130.4837  149.6220 H   0  0  0  0  0  0  0  0  0  0  0  0  # atno 10718 bound_to 10713
  152.9903  135.5559  154.5767 H   0  0  0  0  0  0  0  0  0  0  0  0  # atno 10763 bound_to 10752
  154.5157  135.2805  155.1307 H   0  0  0  0  0  0  0  0  0  0  0  0  # atno 10764 bound_to 10752
  154.2681  135.6368  153.5352 H   0  0  0  0  0  0  0  0  0  0  0  0  # atno 10765 bound_to 10752
  141.0719  133.9365  157.2467 H   0  0  0  0  0  0  0  0  0  0  0  0  # atno 11005 bound_to 11000
  145.3118  139.1816  143.4634 LP  0  0  0  0  0  0  0  0  0  0  0  0  # atno 17320 bound_to 7965
  146.3253  140.3124  142.8627 LP  0  0  0  0  0  0  0  0  0  0  0  0  # atno 17321 bound_to 7965
  140.7572  143.6025  150.8686 LP  0  0  0  0  0  0  0  0  0  0  0  0  # atno 17342 bound_to 10162
  139.9680  143.6088  152.2982 LP  0  0  0  0  0  0  0  0  0  0  0  0  # atno 17343 bound_to 10162
  156.2429  130.6862  151.1573 LP  0  0  0  0  0  0  0  0  0  0  0  0  # atno 17370 bound_to 10713
  157.7267  131.0644  150.5898 LP  0  0  0  0  0  0  0  0  0  0  0  0  # atno 17371 bound_to 10713
  139.9532  135.0171  156.9055 LP  0  0  0  0  0  0  0  0  0  0  0  0  # atno 17394 bound_to 11000
  140.5654  134.0494  155.7412 LP  0  0  0  0  0  0  0  0  0  0  0  0  # atno 17395 bound_to 11000

$$$$
