AV-unprocessed.smi:1306|AV-procd|sdf|5434|dock10
  -GOLD-   22720 4593D 1   1.00000     0.00000
 Structure written by MMmdl.
 39 40  0  0  0  0  0  0  0  0  1 V2000
  152.7172  139.8572  156.1273 O   0  0  0  0  0  0  0  0  0  0  0  0
  151.8603  139.0294  156.4412 C   0  0  0  0  0  0  0  0  0  0  0  0
  151.4214  137.9353  155.4571 C   0  0  0  0  0  0  0  0  0  0  0  0
  150.0515  138.1214  154.9566 N   0  0  0  0  0  0  0  0  0  0  0  0
  149.1118  137.1099  155.0971 C   0  0  0  0  0  0  0  0  0  0  0  0
  147.8321  137.2160  154.6676 C   0  0  0  0  0  0  0  0  0  0  0  0
  147.3701  138.4376  154.0176 C   0  0  0  0  0  0  0  0  0  0  0  0
  146.2326  138.6284  153.5931 O   0  0  0  0  0  0  0  0  0  0  0  0
  148.3436  139.4329  153.8971 N   0  0  0  0  0  0  0  0  0  0  0  0
  149.6636  139.3311  154.3398 C   0  0  0  0  0  0  0  0  0  0  0  0
  150.4412  140.2726  154.1884 O   0  0  0  0  0  0  0  0  0  0  0  0
  151.2467  139.0262  157.6340 N   0  0  0  0  0  0  0  0  0  0  0  0
  151.5213  139.9567  158.7238 C   0  0  0  0  0  0  0  0  0  0  0  0
  153.0256  140.2323  158.8813 C   0  0  0  0  0  0  0  0  0  0  0  0
  153.3708  141.3692  160.2547 S   0  0  0  0  0  0  0  0  0  0  0  0
  152.2718  142.7482  159.8214 C   0  0  0  0  0  0  0  0  0  0  0  0
  152.7571  143.5168  158.5902 C   0  0  0  0  0  0  0  0  0  0  0  0
  152.1658  144.9271  158.7224 C   0  0  0  0  0  0  0  0  0  0  0  0
  151.6850  145.0647  160.1750 C   0  0  0  0  0  0  0  0  0  0  0  0
  152.1935  143.8212  160.9076 C   0  0  0  0  0  0  0  0  0  0  0  0
  148.0687  140.2980  153.4553 H   0  0  0  0  0  0  0  0  0  0  0  0
  152.1231  137.8915  154.6214 H   0  0  0  0  0  0  0  0  0  0  0  0
  151.5122  136.9709  155.9590 H   0  0  0  0  0  0  0  0  0  0  0  0
  149.4086  136.1879  155.5766 H   0  0  0  0  0  0  0  0  0  0  0  0
  147.1464  136.3927  154.8066 H   0  0  0  0  0  0  0  0  0  0  0  0
  150.5534  138.3132  157.8086 H   0  0  0  0  0  0  0  0  0  0  0  0
  150.9848  140.8917  158.5548 H   0  0  0  0  0  0  0  0  0  0  0  0
  151.1213  139.5360  159.6465 H   0  0  0  0  0  0  0  0  0  0  0  0
  153.5714  139.3017  159.0398 H   0  0  0  0  0  0  0  0  0  0  0  0
  153.4124  140.6721  157.9620 H   0  0  0  0  0  0  0  0  0  0  0  0
  151.2723  142.3578  159.6237 H   0  0  0  0  0  0  0  0  0  0  0  0
  153.8462  143.5839  158.5996 H   0  0  0  0  0  0  0  0  0  0  0  0
  152.4682  143.0298  157.6584 H   0  0  0  0  0  0  0  0  0  0  0  0
  152.9144  145.6816  158.4784 H   0  0  0  0  0  0  0  0  0  0  0  0
  151.3305  145.0644  158.0350 H   0  0  0  0  0  0  0  0  0  0  0  0
  152.0360  145.9852  160.6427 H   0  0  0  0  0  0  0  0  0  0  0  0
  150.5945  145.0820  160.1970 H   0  0  0  0  0  0  0  0  0  0  0  0
  151.5463  143.5365  161.7375 H   0  0  0  0  0  0  0  0  0  0  0  0
  153.1877  144.0169  161.3120 H   0  0  0  0  0  0  0  0  0  0  0  0
  1  2  2  0  0  0  0
  2  3  1  0  0  0  0
  2 12  1  0  0  0  0
  3  4  1  0  0  0  0
  3 22  1  0  0  0  0
  3 23  1  0  0  0  0
  4 10  1  0  0  0  0
  4  5  1  0  0  0  0
  5  6  2  0  0  0  0
  5 24  1  0  0  0  0
  6  7  1  0  0  0  0
  6 25  1  0  0  0  0
  7  8  2  0  0  0  0
  7  9  1  0  0  0  0
  9 21  1  0  0  0  0
  9 10  1  0  0  0  0
 10 11  2  0  0  0  0
 12 13  1  0  0  0  0
 12 26  1  0  0  0  0
 13 14  1  0  0  0  0
 13 27  1  0  0  0  0
 13 28  1  0  0  0  0
 14 15  1  0  0  0  0
 14 29  1  0  0  0  0
 14 30  1  0  0  0  0
 15 16  1  0  0  0  0
 16 20  1  0  0  0  0
 16 17  1  0  0  0  0
 16 31  1  0  0  0  0
 17 18  1  0  0  0  0
 17 32  1  0  0  0  0
 17 33  1  0  0  0  0
 18 19  1  0  0  0  0
 18 34  1  0  0  0  0
 18 35  1  0  0  0  0
 19 20  1  0  0  0  0
 19 36  1  0  0  0  0
 19 37  1  0  0  0  0
 20 38  1  0  0  0  0
 20 39  1  0  0  0  0
M  END
> <s_m_source_file>
AV-unprocessed.smi

> <i_m_source_file_index>
1306

> <i_lp_mmshare_version>
43012

> <i_f3d_flags>
0

> <s_epik_input>
Tz1jMVtuSF1jKD1PKVtjSF1bY0hdbjFbQ0gyXUMoPU8pW05IXVtDSDJdW0NIMl1TW0NIXTJbQ0gyXVtDSDJdW0NIMl1bQ0gyXTI=

> <s_epik_cmdline>
J2VwaWtfcHl0aG9uJywgJy1waCcsICc3LjAnLCAnLXRuJywgJzgnLCAnLW1hJywgJzIwMCcsICctbWV0YWxfYmluZGluZycsICctaW1hZScsICc8aW5maWxlLm1hZT4nLCAnLW9tYWUnLCAnPG91dGZpbGUubWFlPic=

> <r_lp_tautomer_probability>
0.999537

> <r_epik_Ionization_Penalty>
0.00337646

> <r_epik_Ionization_Penalty_Charging>
0.00337644

> <r_epik_Ionization_Penalty_Neutral>
2.37506e-08

> <r_epik_State_Penalty>
0.00238979

> <r_epik_Charging_Adjusted_Penalty>
0.00576623

> <i_epik_Tot_Q>
0

> <i_epik_Tot_abs_Q>
0

> <r_epik_Metal_State_Penalty>
0.366399

> <b_epik_Metal_Only>
0

> <s_lp_Force_Field>
OPLS_2005

> <r_lp_Energy>
19.0409

> <b_lp_Chiralities_Consistent>
1

> <s_lp_Variant>
AV-unprocessed.smi:1306-1

> <Gold.Version>
5.8.1

> <Gold.Id.Protein>
6NUR|6NUR_protein|mol2

> <Gold.PLP.Fitness>
44.6302

> <Gold.PLP.PLP>
-39.2172

> <Gold.PLP.part.hbond>
-2.3799

> <Gold.PLP.part.metal>
0.0000

> <Gold.PLP.part.buried>
-3.8492

> <Gold.PLP.part.nonpolar>
-33.5379

> <Gold.PLP.part.repulsive>
0.4017

> <Gold.PLP.ligand.clash>
0.0000

> <Gold.PLP.ligand.torsion>
0.2943

> <Gold.PLP.Chemscore.Hbond>
1.9913

> <Gold.PLP.Chemscore.CHOScore>
0.0000

> <Gold.PLP.Chemscore.Metal>
0.0000

> <Gold.Chemscore.Hbonds>
donor molecule, donor type, donor heavy atom, donor atom, acceptor molecule, acceptor atom, score
      P1  H  7989  7998       L1    11  0.91
      P1  H  7997  8008       L1     1  1.00

> <Gold.PLP.Chemscore.Internal.Correction>
0.0278

> <Gold.Rescore>
     Score         DG    S(hbond)    S(metal)    S(lipo)     H(rot)  DE(clash)    DE(int)     intcor
     15.43     -16.99       1.99        0.00      95.20       2.45       0.03       1.53       ----

> <Gold.Chemscore.Fitness>
15.4307

> <Gold.Chemscore.DG>
-16.9913

> <Gold.Chemscore.ZeroCoef>
-5.4800

> <Gold.Chemscore.Hbond>
1.9872

> <Gold.Chemscore.Metal>
0.0000

> <Gold.Chemscore.Lipo>
95.1977

> <Gold.Chemscore.Internal_Hbond>
0.0000

> <Gold.Chemscore.DEClash>
0.0323

> <Gold.Chemscore.DEInternal>
1.5284

> <Gold.Chemscore.Rot>
2.4469

> <Gold.Chemscore.Internal.Correction>
   9.000000E+99

> <Gold.Chemscore.Hbonds>
donor molecule, donor type, donor heavy atom, donor atom, acceptor molecule, acceptor atom, score
      P1  H  7989  7998       L1    11  0.84
      P1  H  7997  8008       L1     1  0.98

> <Gold.Chemscore.Hbond.Weighted>
-6.6372

> <Gold.Chemscore.Metal.Weighted>
-0.0000

> <Gold.Chemscore.Lipo.Weighted>
-11.1381

> <Gold.Chemscore.Internal_Hbond.Weighted>
0.0000

> <Gold.Chemscore.DEClash.Weighted>
0.0323

> <Gold.Chemscore.DEInternal.Weighted>
1.5284

> <Gold.Chemscore.Rot.Weighted>
6.2640

> <Gold.Chemscore.Internal.Correction.Weighted>
   9.000000E+99

> <Gold.Protein.RotatedTorsions>
[ 6907 6896 6895 6894 ] final  145.29 input  -60.11 | X-H torsion
[ 7974 7965 7964 7962 ] final  -21.17 input  175.53 | X-H torsion
[ 8008 7997 7996 7995 ] final  -55.23 input   59.86 | X-H torsion
[ 10167 10162 10161 10158 ] final  -49.61 input  -65.29 | X-H torsion
[ 10718 10713 10712 10709 ] final   84.73 input   66.30 | X-H torsion
[ 10763 10752 10751 10750 ] final  161.32 input  -60.55 | X-H torsion
[ 11005 11000 10999 10996 ] final  -74.96 input  -57.11 | X-H torsion

> <Gold.Protein.ActiveResidues>
 VAL166  LYS551  ARG553  GLY616  TRP617  ASP618  TYR619  PRO620  LYS621  CYS622 
 ASP623  PHE694  ASN695  SER759  ASP760  ASP761  ALA762  ILE779  LEU786  VAL792 
 PHE793  MET794  SER795  GLU796  ALA797  LYS798  CYS799  TRP800  GLU811  SER814 

> <Gold.Protein.RotatedAtoms>
  152.1828  133.4719  159.4966 H   0  0  0  0  0  0  0  0  0  0  0  0  # atno 6907 bound_to 6896
  150.6937  134.1811  159.4258 H   0  0  0  0  0  0  0  0  0  0  0  0  # atno 6908 bound_to 6896
  151.9723  135.0070  160.0604 H   0  0  0  0  0  0  0  0  0  0  0  0  # atno 6909 bound_to 6896
  146.1748  140.4304  142.8518 H   0  0  0  0  0  0  0  0  0  0  0  0  # atno 7974 bound_to 7965
  154.4188  140.1158  156.5443 H   0  0  0  0  0  0  0  0  0  0  0  0  # atno 8008 bound_to 7997
  155.6476  140.3496  155.4717 H   0  0  0  0  0  0  0  0  0  0  0  0  # atno 8009 bound_to 7997
  155.9819  140.1162  157.0708 H   0  0  0  0  0  0  0  0  0  0  0  0  # atno 8010 bound_to 7997
  140.6677  143.2691  151.4240 H   0  0  0  0  0  0  0  0  0  0  0  0  # atno 10167 bound_to 10162
  157.6903  131.0145  150.2716 H   0  0  0  0  0  0  0  0  0  0  0  0  # atno 10718 bound_to 10713
  154.2611  135.2768  155.2777 H   0  0  0  0  0  0  0  0  0  0  0  0  # atno 10763 bound_to 10752
  154.5383  135.5710  153.6821 H   0  0  0  0  0  0  0  0  0  0  0  0  # atno 10764 bound_to 10752
  152.9962  135.6244  154.2762 H   0  0  0  0  0  0  0  0  0  0  0  0  # atno 10765 bound_to 10752
  141.1640  133.6930  156.7444 H   0  0  0  0  0  0  0  0  0  0  0  0  # atno 11005 bound_to 11000
  144.8218  140.6563  143.6348 LP  0  0  0  0  0  0  0  0  0  0  0  0  # atno 17320 bound_to 7965
  145.4242  139.1559  143.4057 LP  0  0  0  0  0  0  0  0  0  0  0  0  # atno 17321 bound_to 7965
  139.5932  144.1454  152.2113 LP  0  0  0  0  0  0  0  0  0  0  0  0  # atno 17342 bound_to 10162
  140.0815  144.5697  150.7119 LP  0  0  0  0  0  0  0  0  0  0  0  0  # atno 17343 bound_to 10162
  156.3278  130.3795  149.7518 LP  0  0  0  0  0  0  0  0  0  0  0  0  # atno 17370 bound_to 10713
  156.5067  130.8153  151.3153 LP  0  0  0  0  0  0  0  0  0  0  0  0  # atno 17371 bound_to 10713
  140.2650  134.8437  157.3794 LP  0  0  0  0  0  0  0  0  0  0  0  0  # atno 17394 bound_to 11000
  140.1575  134.4771  155.7918 LP  0  0  0  0  0  0  0  0  0  0  0  0  # atno 17395 bound_to 11000

$$$$
