#       Name:                AV-unprocessed.smi:2975
#       Creating user name   scv26
#       Creation time:       Fri Mar 27 16:27:14 2020


#       File generated by GOLD software.
#

@<TRIPOS>MOLECULE
AV-unprocessed.smi:2975
    44    46     1
SMALL
NO_CHARGES


@<TRIPOS>ATOM
      1 ****        -0.9859   2.9688   2.7273 C.3            1 S1                 0.0000
      2 ****        -1.2213   2.4569   1.3002 C.3            1 S1                 0.0000
      3 ****        -2.0394   3.3925   0.6265 O.3            1 S1                 0.0000
      4 ****        -1.8090   1.0716   1.2925 C.2            1 S1                 0.0000
      5 ****        -3.1222   0.8551   1.3975 N.2            1 S1                 0.0000
      6 ****        -3.2117  -0.5220   1.3569 C.ar           1 S1                 0.0000
      7 ****        -4.3399  -1.3711   1.4135 C.ar           1 S1                 0.0000
      8 ****        -4.1830  -2.7711   1.3489 C.ar           1 S1                 0.0000
      9 ****        -2.8989  -3.3405   1.2278 C.ar           1 S1                 0.0000
     10 ****        -1.7616  -2.5122   1.1717 C.ar           1 S1                 0.0000
     11 ****        -1.9238  -1.1154   1.2365 C.ar           1 S1                 0.0000
     12 ****        -1.0378  -0.0432   1.2095 N.pl3          1 S1                 0.0000
     13 ****         0.4099  -0.1353   1.1047 C.3            1 S1                 0.0000
     14 ****         0.8702  -0.1176  -0.3578 C.3            1 S1                 0.0000
     15 ****         2.2896  -0.1544  -0.3849 O.3            1 S1                 0.0000
     16 ****         2.9201  -0.1344  -1.6109 C.ar           1 S1                 0.0000
     17 ****         2.2391  -0.1213  -2.8553 C.ar           1 S1                 0.0000
     18 ****         2.9619  -0.1018  -4.0639 C.ar           1 S1                 0.0000
     19 ****         4.3688  -0.0950  -4.0463 C.ar           1 S1                 0.0000
     20 ****         5.0531  -0.1081  -2.8170 C.ar           1 S1                 0.0000
     21 ****         4.3316  -0.1281  -1.6077 C.ar           1 S1                 0.0000
     22 ****         5.0025  -0.1401  -0.4309 F              1 S1                 0.0000
     23 ****        -0.3156   2.3060   3.2751 H              1 S1                 0.0000
     24 ****        -1.9209   3.0304   3.2855 H              1 S1                 0.0000
     25 ****        -0.5350   3.9616   2.7213 H              1 S1                 0.0000
     26 ****        -0.2731   2.4495   0.7642 H              1 S1                 0.0000
     27 ****        -2.1446   3.1075  -0.2682 H              1 S1                 0.0000
     28 ****        -5.3277  -0.9443   1.5050 H              1 S1                 0.0000
     29 ****        -5.0523  -3.4108   1.3918 H              1 S1                 0.0000
     30 ****        -2.7877  -4.4138   1.1778 H              1 S1                 0.0000
     31 ****        -0.7769  -2.9455   1.0784 H              1 S1                 0.0000
     32 ****         0.8675   0.6792   1.6663 H              1 S1                 0.0000
     33 ****         0.7372  -1.0565   1.5881 H              1 S1                 0.0000
     34 ****         0.4580  -0.9814  -0.8822 H              1 S1                 0.0000
     35 ****         0.5090   0.7860  -0.8514 H              1 S1                 0.0000
     36 ****         1.1613  -0.1269  -2.9105 H              1 S1                 0.0000
     37 ****         2.4344  -0.0925  -5.0064 H              1 S1                 0.0000
     38 ****         4.9219  -0.0800  -4.9739 H              1 S1                 0.0000
     39 ****         6.1332  -0.1028  -2.8006 H              1 S1                 0.0000
     40 ****        -1.6071   4.2941   0.6451 LP             1 S1                 0.0000
     41 ****        -2.9332   3.4422   1.0723 LP             1 S1                 0.0000
     42 ****        -3.8594   1.5253   1.4842 LP             1 S1                 0.0000
     43 ****         2.5731  -0.9930   0.0803 LP             1 S1                 0.0000
     44 ****         2.6163   0.6387   0.1292 LP             1 S1                 0.0000
@<TRIPOS>BOND
    1    1    2 1     
    2    1   23 1     
    3    1   24 1     
    4    1   25 1     
    5    2    3 1     
    6    2    4 1     
    7    2   26 1     
    8    3   27 1     
    9    4   12 1     
   10    4    5 2     
   11    5    6 1     
   12    6   11 ar    
   13    6    7 ar    
   14    7    8 ar    
   15    7   28 1     
   16    8    9 ar    
   17    8   29 1     
   18    9   10 ar    
   19    9   30 1     
   20   10   11 ar    
   21   10   31 1     
   22   11   12 1     
   23   12   13 1     
   24   13   14 1     
   25   13   32 1     
   26   13   33 1     
   27   14   15 1     
   28   14   34 1     
   29   14   35 1     
   30   15   16 1     
   31   16   21 ar    
   32   16   17 ar    
   33   17   18 ar    
   34   17   36 1     
   35   18   19 ar    
   36   18   37 1     
   37   19   20 ar    
   38   19   38 1     
   39   20   21 ar    
   40   20   39 1     
   41   21   22 1     
   42    3   40 1     
   43    3   41 1     
   44    5   42 1     
   45   15   43 1     
   46   15   44 1     
@<TRIPOS>SUBSTRUCTURE
      1 S1             1
@<TRIPOS>SET
LONE_PAIRS      STATIC     ATOMS    <user>   **** ""
5 40 41 42 43 44
DONOR_HYDROGENS      STATIC     ATOMS    <user>   **** ""
1 27
ATOM$BLUE        STATIC     ATOMS    COLORGROUP SYSTEM
5 40 41 42 43 44
ATOM$RED        STATIC     ATOMS    COLORGROUP SYSTEM
1 27
