AV-unprocessed.smi:2270|AV-procd|sdf|9154|dock3
  -GOLD-   2272012363D 1   1.00000     0.00000
 Structure written by MMmdl.
 53 54  0  0  0  0  0  0  0  0  2 V2000
  147.9398  132.5475  160.4373 C   0  0  0  0  0  0  0  0  0  0  0  0
  147.7652  133.9247  161.0421 C   0  0  0  0  0  0  0  0  0  0  0  0
  147.2040  134.0871  162.3234 C   0  0  0  0  0  0  0  0  0  0  0  0
  147.0755  135.3926  162.8294 C   0  0  0  0  0  0  0  0  0  0  0  0
  147.5031  136.4751  162.0370 C   0  0  0  0  0  0  0  0  0  0  0  0
  148.0405  136.2242  160.7484 C   0  0  0  0  0  0  0  0  0  0  0  0
  148.5068  137.2944  159.9400 N   0  0  0  0  0  0  0  0  0  0  0  0
  149.5932  137.3257  159.1485 C   0  0  0  0  0  0  0  0  0  0  0  0
  150.3872  136.3974  158.9950 O   0  0  0  0  0  0  0  0  0  0  0  0
  149.7182  138.5152  158.5433 N   0  0  0  0  0  0  0  0  0  0  0  0
  150.7681  138.8705  157.5963 C   0  0  0  0  0  0  0  0  0  0  0  0
  150.2059  139.3410  156.2196 C   0  0  2  0  0  0  0  0  0  0  0  0
  150.8601  138.6039  154.9987 C   0  0  0  0  0  0  0  0  0  0  0  0
  150.6232  137.0825  155.0034 C   0  0  0  0  0  0  0  0  0  0  0  0
  152.3504  138.9349  154.7954 C   0  0  0  0  0  0  0  0  0  0  0  0
  150.3251  140.8069  156.0245 N   0  0  0  0  0  0  0  0  0  0  0  0
  149.7644  141.3112  154.7577 C   0  0  0  0  0  0  0  0  0  0  0  0
  148.2199  141.3286  154.7571 C   0  0  0  0  0  0  0  0  0  0  0  0
  147.7093  142.1487  155.8784 N   0  3  0  0  0  0  0  0  0  0  0  0
  146.2339  142.2360  155.8997 C   0  0  0  0  0  0  0  0  0  0  0  0
  148.2771  141.6764  157.1605 C   0  0  0  0  0  0  0  0  0  0  0  0
  149.8186  141.6870  157.0888 C   0  0  0  0  0  0  0  0  0  0  0  0
  148.1785  134.9618  160.2813 N   0  0  0  0  0  0  0  0  0  0  0  0
  147.6014  131.7691  161.1218 H   0  0  0  0  0  0  0  0  0  0  0  0
  148.9896  132.3646  160.2062 H   0  0  0  0  0  0  0  0  0  0  0  0
  147.3642  132.4630  159.5153 H   0  0  0  0  0  0  0  0  0  0  0  0
  146.8846  133.2364  162.9075 H   0  0  0  0  0  0  0  0  0  0  0  0
  146.6601  135.5620  163.8117 H   0  0  0  0  0  0  0  0  0  0  0  0
  147.4241  137.4763  162.4331 H   0  0  0  0  0  0  0  0  0  0  0  0
  148.0106  138.1661  160.0512 H   0  0  0  0  0  0  0  0  0  0  0  0
  149.0213  139.2202  158.7345 H   0  0  0  0  0  0  0  0  0  0  0  0
  151.3286  139.6647  158.0868 H   0  0  0  0  0  0  0  0  0  0  0  0
  151.4651  138.0428  157.4551 H   0  0  0  0  0  0  0  0  0  0  0  0
  149.1435  139.1015  156.2282 H   0  0  0  0  0  0  0  0  0  0  0  0
  150.3771  138.9317  154.0824 H   0  0  0  0  0  0  0  0  0  0  0  0
  151.1974  136.5689  155.7723 H   0  0  0  0  0  0  0  0  0  0  0  0
  150.9169  136.6462  154.0483 H   0  0  0  0  0  0  0  0  0  0  0  0
  149.5696  136.8472  155.1557 H   0  0  0  0  0  0  0  0  0  0  0  0
  152.9741  138.5251  155.5895 H   0  0  0  0  0  0  0  0  0  0  0  0
  152.5137  140.0124  154.7632 H   0  0  0  0  0  0  0  0  0  0  0  0
  152.7151  138.5218  153.8545 H   0  0  0  0  0  0  0  0  0  0  0  0
  150.1315  142.3268  154.6033 H   0  0  0  0  0  0  0  0  0  0  0  0
  150.1158  140.7482  153.8965 H   0  0  0  0  0  0  0  0  0  0  0  0
  147.8661  141.7541  153.8173 H   0  0  0  0  0  0  0  0  0  0  0  0
  147.8114  140.3192  154.8122 H   0  0  0  0  0  0  0  0  0  0  0  0
  145.7849  141.2544  156.0579 H   0  0  0  0  0  0  0  0  0  0  0  0
  145.8595  142.6355  154.9567 H   0  0  0  0  0  0  0  0  0  0  0  0
  145.8996  142.8987  156.6984 H   0  0  0  0  0  0  0  0  0  0  0  0
  147.9468  142.3358  157.9638 H   0  0  0  0  0  0  0  0  0  0  0  0
  147.8961  140.6809  157.3914 H   0  0  0  0  0  0  0  0  0  0  0  0
  150.2594  141.4388  158.0535 H   0  0  0  0  0  0  0  0  0  0  0  0
  150.1575  142.7036  156.8834 H   0  0  0  0  0  0  0  0  0  0  0  0
  148.0568  143.0863  155.7357 H   0  0  0  0  0  0  0  0  0  0  0  0
  1  2  1  0  0  0  0
  1 24  1  0  0  0  0
  1 25  1  0  0  0  0
  1 26  1  0  0  0  0
  2 23  1  0  0  0  0
  2  3  2  0  0  0  0
  3  4  1  0  0  0  0
  3 27  1  0  0  0  0
  4  5  2  0  0  0  0
  4 28  1  0  0  0  0
  5  6  1  0  0  0  0
  5 29  1  0  0  0  0
  6  7  1  0  0  0  0
  6 23  2  0  0  0  0
  7  8  1  0  0  0  0
  7 30  1  0  0  0  0
  8  9  2  0  0  0  0
  8 10  1  0  0  0  0
 10 11  1  0  0  0  0
 10 31  1  0  0  0  0
 11 12  1  0  0  0  0
 11 32  1  0  0  0  0
 11 33  1  0  0  0  0
 12 13  1  0  0  0  0
 12 16  1  0  0  0  0
 12 34  1  0  0  0  0
 13 14  1  0  0  0  0
 13 15  1  0  0  0  0
 13 35  1  0  0  0  0
 14 36  1  0  0  0  0
 14 37  1  0  0  0  0
 14 38  1  0  0  0  0
 15 39  1  0  0  0  0
 15 40  1  0  0  0  0
 15 41  1  0  0  0  0
 16 22  1  0  0  0  0
 16 17  1  0  0  0  0
 17 18  1  0  0  0  0
 17 42  1  0  0  0  0
 17 43  1  0  0  0  0
 18 19  1  0  0  0  0
 18 44  1  0  0  0  0
 18 45  1  0  0  0  0
 19 20  1  0  0  0  0
 19 21  1  0  0  0  0
 19 53  1  0  0  0  0
 20 46  1  0  0  0  0
 20 47  1  0  0  0  0
 20 48  1  0  0  0  0
 21 22  1  0  0  0  0
 21 49  1  0  0  0  0
 21 50  1  0  0  0  0
 22 51  1  0  0  0  0
 22 52  1  0  0  0  0
M  CHG  1  19   1
M  END
> <s_m_source_file>
AV-unprocessed.smi

> <i_m_source_file_index>
2270

> <i_lp_mmshare_version>
43012

> <i_f3d_flags>
0

> <s_epik_input>
W0NIM11jMVtjSF1bY0hdW2NIXWMobjEpW05IXUMoPU8pW05IXVtDSDJdW0NASF0oW0NIXShbQ0gzXSlbQ0gzXSlOMltDSDJdW0NIMl1OKFtDSDNdKVtDSDJdW0NIMl0y

> <s_epik_cmdline>
J2VwaWtfcHl0aG9uJywgJy1waCcsICc3LjAnLCAnLXRuJywgJzgnLCAnLW1hJywgJzIwMCcsICctbWV0YWxfYmluZGluZycsICctaW1hZScsICc8aW5maWxlLm1hZT4nLCAnLW9tYWUnLCAnPG91dGZpbGUubWFlPic=

> <r_epik_Ionization_Penalty>
0.0278292

> <r_epik_Ionization_Penalty_Charging>
0.0272987

> <r_epik_Ionization_Penalty_Neutral>
0.000530468

> <r_epik_State_Penalty>
0.0776825

> <r_epik_Charging_Adjusted_Penalty>
0.104981

> <i_epik_Tot_Q>
1

> <i_epik_Tot_abs_Q>
1

> <r_epik_Metal_State_Penalty>
0.0776809

> <b_epik_Metal_Only>
0

> <s_lp_Force_Field>
OPLS_2005

> <r_lp_Energy>
34.9975

> <b_lp_Chiralities_Consistent>
1

> <s_lp_Variant>
AV-unprocessed.smi:2270-1

> <Gold.Version>
5.8.1

> <Gold.Id.Protein>
6NUR|6NUR_protein|mol2

> <Gold.PLP.Fitness>
46.8622

> <Gold.PLP.PLP>
-39.5765

> <Gold.PLP.part.hbond>
-2.0000

> <Gold.PLP.part.metal>
0.0000

> <Gold.PLP.part.buried>
-5.4351

> <Gold.PLP.part.nonpolar>
-33.3617

> <Gold.PLP.part.repulsive>
1.1765

> <Gold.PLP.ligand.clash>
0.0000

> <Gold.PLP.ligand.torsion>
1.0267

> <Gold.PLP.Chemscore.Hbond>
3.0000

> <Gold.PLP.Chemscore.CHOScore>
0.0000

> <Gold.PLP.Chemscore.Metal>
0.0000

> <Gold.Chemscore.Hbonds>
donor molecule, donor type, donor heavy atom, donor atom, acceptor molecule, acceptor atom, score
      L1  H    19    53       P1  8028  2.00
      P1  H  6896  6909       L1     9  1.00

> <Gold.PLP.Chemscore.Internal.Correction>
0.3392

> <Gold.Rescore>
     Score         DG    S(hbond)    S(metal)    S(lipo)     H(rot)  DE(clash)    DE(int)     intcor
     15.44     -18.53       1.89        0.00      92.87       1.61       0.83       2.27       ----

> <Gold.Chemscore.Fitness>
15.4357

> <Gold.Chemscore.DG>
-18.5338

> <Gold.Chemscore.ZeroCoef>
-5.4800

> <Gold.Chemscore.Hbond>
1.8869

> <Gold.Chemscore.Metal>
0.0000

> <Gold.Chemscore.Lipo>
92.8670

> <Gold.Chemscore.Internal_Hbond>
0.0000

> <Gold.Chemscore.DEClash>
0.8297

> <Gold.Chemscore.DEInternal>
2.2684

> <Gold.Chemscore.Rot>
1.6070

> <Gold.Chemscore.Internal.Correction>
   9.000000E+99

> <Gold.Chemscore.Hbonds>
donor molecule, donor type, donor heavy atom, donor atom, acceptor molecule, acceptor atom, score
      L1  H    19    53       P1  8028  0.74
      P1  H  6896  6909       L1     9  0.98

> <Gold.Chemscore.Hbond.Weighted>
-6.3023

> <Gold.Chemscore.Metal.Weighted>
-0.0000

> <Gold.Chemscore.Lipo.Weighted>
-10.8654

> <Gold.Chemscore.Internal_Hbond.Weighted>
0.0000

> <Gold.Chemscore.DEClash.Weighted>
0.8297

> <Gold.Chemscore.DEInternal.Weighted>
2.2684

> <Gold.Chemscore.Rot.Weighted>
4.1140

> <Gold.Chemscore.Internal.Correction.Weighted>
   9.000000E+99

> <Gold.Protein.RotatedTorsions>
[ 6907 6896 6895 6894 ] final   70.15 input  -60.11 | X-H torsion
[ 7974 7965 7964 7962 ] final -103.57 input  175.53 | X-H torsion
[ 8008 7997 7996 7995 ] final   -7.56 input   59.86 | X-H torsion
[ 10167 10162 10161 10158 ] final -176.06 input  -65.29 | X-H torsion
[ 10718 10713 10712 10709 ] final   40.00 input   66.30 | X-H torsion
[ 10763 10752 10751 10750 ] final -128.63 input  -60.55 | X-H torsion
[ 11005 11000 10999 10996 ] final -108.54 input  -57.11 | X-H torsion

> <Gold.Protein.ActiveResidues>
 VAL166  LYS551  ARG553  GLY616  TRP617  ASP618  TYR619  PRO620  LYS621  CYS622 
 ASP623  PHE694  ASN695  SER759  ASP760  ASP761  ALA762  ILE779  LEU786  VAL792 
 PHE793  MET794  SER795  GLU796  ALA797  LYS798  CYS799  TRP800  GLU811  SER814 

> <Gold.Protein.RotatedAtoms>
  152.4732  134.4910  159.9695 H   0  0  0  0  0  0  0  0  0  0  0  0  # atno 6907 bound_to 6896
  151.4932  133.3514  159.2864 H   0  0  0  0  0  0  0  0  0  0  0  0  # atno 6908 bound_to 6896
  150.8754  134.8163  159.7247 H   0  0  0  0  0  0  0  0  0  0  0  0  # atno 6909 bound_to 6896
  145.2542  140.9248  143.3077 H   0  0  0  0  0  0  0  0  0  0  0  0  # atno 7974 bound_to 7965
  154.5826  140.2404  155.8032 H   0  0  0  0  0  0  0  0  0  0  0  0  # atno 8008 bound_to 7997
  156.2190  140.3003  155.9864 H   0  0  0  0  0  0  0  0  0  0  0  0  # atno 8009 bound_to 7997
  155.2514  140.0411  157.2977 H   0  0  0  0  0  0  0  0  0  0  0  0  # atno 8010 bound_to 7997
  139.5549  144.2015  152.1141 H   0  0  0  0  0  0  0  0  0  0  0  0  # atno 10167 bound_to 10162
  157.3770  130.7733  149.7163 H   0  0  0  0  0  0  0  0  0  0  0  0  # atno 10718 bound_to 10713
  154.8756  135.3922  154.3788 H   0  0  0  0  0  0  0  0  0  0  0  0  # atno 10763 bound_to 10752
  153.4538  135.7028  153.6098 H   0  0  0  0  0  0  0  0  0  0  0  0  # atno 10764 bound_to 10752
  153.4626  135.3808  155.2315 H   0  0  0  0  0  0  0  0  0  0  0  0  # atno 10765 bound_to 10752
  141.0896  133.9078  157.2106 H   0  0  0  0  0  0  0  0  0  0  0  0  # atno 11005 bound_to 11000
  144.9475  139.4119  143.6418 LP  0  0  0  0  0  0  0  0  0  0  0  0  # atno 17320 bound_to 7965
  146.3294  139.8466  142.8880 LP  0  0  0  0  0  0  0  0  0  0  0  0  # atno 17321 bound_to 7965
  140.1518  144.5108  150.6683 LP  0  0  0  0  0  0  0  0  0  0  0  0  # atno 17342 bound_to 10162
  140.6819  143.2331  151.5361 LP  0  0  0  0  0  0  0  0  0  0  0  0  # atno 17343 bound_to 10162
  155.9767  130.4072  150.3758 LP  0  0  0  0  0  0  0  0  0  0  0  0  # atno 17370 bound_to 10713
  157.1857  131.0403  151.2726 LP  0  0  0  0  0  0  0  0  0  0  0  0  # atno 17371 bound_to 10713
  139.9720  135.0125  156.9535 LP  0  0  0  0  0  0  0  0  0  0  0  0  # atno 17394 bound_to 11000
  140.5283  134.0839  155.7309 LP  0  0  0  0  0  0  0  0  0  0  0  0  # atno 17395 bound_to 11000

$$$$
