#       Name:                AV-unprocessed.smi:363
#       Creating user name   scv26
#       Creation time:       Thu Mar 26 22:36:14 2020


#       File generated by GOLD software.
#

@<TRIPOS>MOLECULE
AV-unprocessed.smi:363
    45    46     1
SMALL
NO_CHARGES


@<TRIPOS>ATOM
      1 ****        -4.8329  -1.0918   0.9732 C.3            1 S1                 0.0000
      2 ****        -3.3247  -0.8825   0.9138 C.2            1 S1                 0.0000
      3 ****        -2.8318   0.4727   0.8321 C.2            1 S1                 0.0000
      4 ****        -1.5180   0.7293   0.7293 C.2            1 S1                 0.0000
      5 ****        -1.0122   2.1645   0.6268 C.3            1 S1                 0.0000
      6 ****        -0.5736  -0.3342   0.7207 N.am           1 S1                 0.0000
      7 ****         0.8718  -0.0272   0.6067 C.3            1 S1                 0.0000
      8 ****         1.3293   0.0934  -0.8663 C.3            1 S1                 0.0000
      9 ****         1.5587  -1.2004  -1.3881 O.3            1 S1                 0.0000
     10 ****         2.5795   0.9525  -0.9829 C.ar           1 S1                 0.0000
     11 ****         2.5050   2.2327  -1.5728 C.ar           1 S1                 0.0000
     12 ****         3.6585   3.0340  -1.6793 C.ar           1 S1                 0.0000
     13 ****         4.8933   2.5608  -1.1950 C.ar           1 S1                 0.0000
     14 ****         6.3061   3.5425  -1.3270 Cl             1 S1                 0.0000
     15 ****         4.9733   1.2858  -0.6026 C.ar           1 S1                 0.0000
     16 ****         3.8200   0.4844  -0.4960 C.ar           1 S1                 0.0000
     17 ****        -0.9543  -1.6477   0.8296 C.2            1 S1                 0.0000
     18 ****        -0.1031  -2.5412   0.8845 O.2            1 S1                 0.0000
     19 ****        -2.4204  -1.8985   0.8972 C.2            1 S1                 0.0000
     20 ****        -2.8459  -3.3096   0.9762 C.2            1 S1                 0.0000
     21 ****        -2.2636  -4.1303   0.0912 N.am           1 S1                 0.0000
     22 ****        -3.7242  -3.7374   1.7236 O.2            1 S1                 0.0000
     23 ****        -5.3673  -0.1633   0.7712 H              1 S1                 0.0000
     24 ****        -5.1323  -1.4384   1.9626 H              1 S1                 0.0000
     25 ****        -5.1588  -1.8220   0.2318 H              1 S1                 0.0000
     26 ****        -3.5348   1.2932   0.8433 H              1 S1                 0.0000
     27 ****        -1.8339   2.8473   0.4084 H              1 S1                 0.0000
     28 ****        -0.2811   2.2933  -0.1693 H              1 S1                 0.0000
     29 ****        -0.5680   2.4806   1.5711 H              1 S1                 0.0000
     30 ****         1.0834   0.9020   1.1336 H              1 S1                 0.0000
     31 ****         1.5021  -0.7400   1.1418 H              1 S1                 0.0000
     32 ****         0.5411   0.5480  -1.4673 H              1 S1                 0.0000
     33 ****         1.7731  -1.1196  -2.3049 H              1 S1                 0.0000
     34 ****         1.5630   2.6069  -1.9465 H              1 S1                 0.0000
     35 ****         3.5943   4.0120  -2.1332 H              1 S1                 0.0000
     36 ****         5.9185   0.9205  -0.2287 H              1 S1                 0.0000
     37 ****         3.8904  -0.4915  -0.0381 H              1 S1                 0.0000
     38 ****        -2.5133  -5.1085   0.0698 H              1 S1                 0.0000
     39 ****        -1.5879  -3.7630  -0.5632 H              1 S1                 0.0000
     40 ****         0.7354  -1.7580  -1.2819 LP             1 S1                 0.0000
     41 ****         2.3181  -1.6311  -0.9006 LP             1 S1                 0.0000
     42 ****         0.8688  -2.3086   0.8496 LP             1 S1                 0.0000
     43 ****        -0.3860  -3.4970   0.9638 LP             1 S1                 0.0000
     44 ****        -4.2071  -3.1123   2.3368 LP             1 S1                 0.0000
     45 ****        -3.9554  -4.7103   1.7180 LP             1 S1                 0.0000
@<TRIPOS>BOND
    1    1    2 1     
    2    1   23 1     
    3    1   24 1     
    4    1   25 1     
    5    2   19 2     
    6    2    3 1     
    7    3    4 2     
    8    3   26 1     
    9    4    5 1     
   10    4    6 1     
   11    5   27 1     
   12    5   28 1     
   13    5   29 1     
   14    6    7 1     
   15    6   17 am    
   16    7    8 1     
   17    7   30 1     
   18    7   31 1     
   19    8    9 1     
   20    8   10 1     
   21    8   32 1     
   22    9   33 1     
   23   10   16 ar    
   24   10   11 ar    
   25   11   12 ar    
   26   11   34 1     
   27   12   13 ar    
   28   12   35 1     
   29   13   14 1     
   30   13   15 ar    
   31   15   16 ar    
   32   15   36 1     
   33   16   37 1     
   34   17   18 2     
   35   17   19 1     
   36   19   20 1     
   37   20   21 am    
   38   20   22 2     
   39   21   38 1     
   40   21   39 1     
   41    9   40 1     
   42    9   41 1     
   43   18   42 1     
   44   18   43 1     
   45   22   44 1     
   46   22   45 1     
@<TRIPOS>SUBSTRUCTURE
      1 S1             1
@<TRIPOS>SET
LONE_PAIRS      STATIC     ATOMS    <user>   **** ""
6 40 41 42 43 44 45
DONOR_HYDROGENS      STATIC     ATOMS    <user>   **** ""
3 33 38 39
ATOM$BLUE        STATIC     ATOMS    COLORGROUP SYSTEM
6 40 41 42 43 44 45
ATOM$RED        STATIC     ATOMS    COLORGROUP SYSTEM
3 33 38 39
