#       Name:                AV-unprocessed.smi:2789
#       Creating user name   scv26
#       Creation time:       Fri Mar 27 15:19:42 2020


#       File generated by GOLD software.
#

@<TRIPOS>MOLECULE
AV-unprocessed.smi:2789
    40    41     1
SMALL
NO_CHARGES


@<TRIPOS>ATOM
      1 ****        -3.3378  -0.9181  -3.0324 C.3            1 S1                 0.0000
      2 ****        -2.9528  -0.1223  -1.9228 O.3            1 S1                 0.0000
      3 ****        -2.3406  -0.8594  -0.8731 C.3            1 S1                 0.0000
      4 ****        -3.3559  -1.7044  -0.0918 C.3            1 S1                 0.0000
      5 ****        -2.7901  -1.7672   1.3221 C.3            1 S1                 0.0000
      6 ****        -2.2031  -0.3742   1.5432 C.3            1 S1                 0.0000
      7 ****        -1.7173   0.1041   0.1601 C.3            1 S1                 0.0000
      8 ****        -0.2590   0.0778   0.0752 N.am           1 S1                 0.0000
      9 ****         0.5572   1.0374   0.5333 C.2            1 S1                 0.0000
     10 ****         0.1560   2.0574   1.0941 O.2            1 S1                 0.0000
     11 ****         1.8450   0.7290   0.3014 N.am           1 S1                 0.0000
     12 ****         2.9593   1.4447   0.6095 C.2            1 S1                 0.0000
     13 ****         3.0563   2.6739   1.2029 C.2            1 S1                 0.0000
     14 ****         4.4644   2.8824   1.2512 C.2            1 S1                 0.0000
     15 ****         5.1574   1.8751   0.7354 N.2            1 S1                 0.0000
     16 ****         4.2273   0.9809   0.3345 N.pl3          1 S1                 0.0000
     17 ****         4.6370  -0.2638  -0.2862 C.3            1 S1                 0.0000
     18 ****        -3.7757  -0.2817  -3.8014 H              1 S1                 0.0000
     19 ****        -4.0828  -1.6640  -2.7541 H              1 S1                 0.0000
     20 ****        -2.4783  -1.4276  -3.4696 H              1 S1                 0.0000
     21 ****        -1.5666  -1.5157  -1.2771 H              1 S1                 0.0000
     22 ****        -4.3222  -1.1985  -0.0698 H              1 S1                 0.0000
     23 ****        -3.5069  -2.6923  -0.5276 H              1 S1                 0.0000
     24 ****        -3.5429  -2.0291   2.0660 H              1 S1                 0.0000
     25 ****        -1.9967  -2.5144   1.3694 H              1 S1                 0.0000
     26 ****        -2.9903   0.2939   1.8952 H              1 S1                 0.0000
     27 ****        -1.4225  -0.3751   2.3052 H              1 S1                 0.0000
     28 ****        -2.0753   1.1209  -0.0147 H              1 S1                 0.0000
     29 ****         0.1544  -0.7271  -0.3719 H              1 S1                 0.0000
     30 ****         2.0143  -0.1519  -0.1614 H              1 S1                 0.0000
     31 ****         2.2705   3.3280   1.5493 H              1 S1                 0.0000
     32 ****         5.0021   3.7329   1.6437 H              1 S1                 0.0000
     33 ****         4.3414  -1.1016   0.3454 H              1 S1                 0.0000
     34 ****         5.7189  -0.2879  -0.4229 H              1 S1                 0.0000
     35 ****         4.1568  -0.3636  -1.2600 H              1 S1                 0.0000
     36 ****        -3.7688   0.3267  -1.5586 LP             1 S1                 0.0000
     37 ****        -2.3054   0.5702  -2.2410 LP             1 S1                 0.0000
     38 ****        -0.8245   2.2020   1.2274 LP             1 S1                 0.0000
     39 ****         0.8106   2.7413   1.4163 LP             1 S1                 0.0000
     40 ****         6.1513   1.7953   0.6599 LP             1 S1                 0.0000
@<TRIPOS>BOND
    1    1    2 1     
    2    1   18 1     
    3    1   19 1     
    4    1   20 1     
    5    2    3 1     
    6    3    7 1     
    7    3    4 1     
    8    3   21 1     
    9    4    5 1     
   10    4   22 1     
   11    4   23 1     
   12    5    6 1     
   13    5   24 1     
   14    5   25 1     
   15    6    7 1     
   16    6   26 1     
   17    6   27 1     
   18    7    8 1     
   19    7   28 1     
   20    8    9 am    
   21    8   29 1     
   22    9   10 2     
   23    9   11 am    
   24   11   12 1     
   25   11   30 1     
   26   12   16 1     
   27   12   13 2     
   28   13   14 1     
   29   13   31 1     
   30   14   15 2     
   31   14   32 1     
   32   15   16 1     
   33   16   17 1     
   34   17   33 1     
   35   17   34 1     
   36   17   35 1     
   37    2   36 1     
   38    2   37 1     
   39   10   38 1     
   40   10   39 1     
   41   15   40 1     
@<TRIPOS>SUBSTRUCTURE
      1 S1             1
@<TRIPOS>SET
LONE_PAIRS      STATIC     ATOMS    <user>   **** ""
5 36 37 38 39 40
DONOR_HYDROGENS      STATIC     ATOMS    <user>   **** ""
2 29 30
ATOM$BLUE        STATIC     ATOMS    COLORGROUP SYSTEM
5 36 37 38 39 40
ATOM$RED        STATIC     ATOMS    COLORGROUP SYSTEM
2 29 30
