AV-unprocessed.smi:349|AV-procd|sdf|2396|dock7
  -GOLD-   2262022323D 1   1.00000     0.00000
 Structure written by MMmdl.
 43 44  0  0  0  0  0  0  0  0  1 V2000
  152.0681  142.9675  161.6625 C   0  0  0  0  0  0  0  0  0  0  0  0
  152.7307  142.4786  160.3647 C   0  0  0  0  0  0  0  0  0  0  0  0
  152.3481  143.2916  159.1078 C   0  0  2  0  0  0  0  0  0  0  0  0
  152.1728  144.7812  159.4487 C   0  0  0  0  0  0  0  0  0  0  0  0
  151.0755  142.7484  158.4409 C   0  0  0  0  0  0  0  0  0  0  0  0
  149.9999  142.7791  159.0400 O   0  0  0  0  0  0  0  0  0  0  0  0
  151.2151  142.2433  157.2052 N   0  0  0  0  0  0  0  0  0  0  0  0
  150.1394  141.6418  156.4240 C   0  0  0  0  0  0  0  0  0  0  0  0
  150.5652  140.4090  155.6238 C   0  0  0  0  0  0  0  0  0  0  0  0
  151.8909  139.9281  155.7247 C   0  0  0  0  0  0  0  0  0  0  0  0
  152.2814  138.8085  154.9691 C   0  0  0  0  0  0  0  0  0  0  0  0
  151.3289  138.2104  154.1262 C   0  0  0  0  0  0  0  0  0  0  0  0
  150.0633  138.6604  154.0081 N   0  0  0  0  0  0  0  0  0  0  0  0
  149.6801  139.7379  154.7364 C   0  0  0  0  0  0  0  0  0  0  0  0
  148.3458  140.1600  154.6008 N   0  0  0  0  0  0  0  0  0  0  0  0
  148.2308  141.5272  154.1094 C   0  0  0  0  0  0  0  0  0  0  0  0
  146.7631  141.8416  153.7729 C   0  0  0  0  0  0  0  0  0  0  0  0
  145.9459  141.6007  154.9156 O   0  0  0  0  0  0  0  0  0  0  0  0
  146.0109  140.2435  155.3460 C   0  0  0  0  0  0  0  0  0  0  0  0
  147.4591  139.8937  155.7286 C   0  0  0  0  0  0  0  0  0  0  0  0
  152.3138  142.3062  162.4935 H   0  0  0  0  0  0  0  0  0  0  0  0
  150.9823  142.9901  161.5664 H   0  0  0  0  0  0  0  0  0  0  0  0
  152.4032  143.9687  161.9341 H   0  0  0  0  0  0  0  0  0  0  0  0
  153.8141  142.4750  160.4929 H   0  0  0  0  0  0  0  0  0  0  0  0
  152.4477  141.4370  160.2092 H   0  0  0  0  0  0  0  0  0  0  0  0
  153.1696  143.2143  158.3932 H   0  0  0  0  0  0  0  0  0  0  0  0
  151.8854  145.3598  158.5697 H   0  0  0  0  0  0  0  0  0  0  0  0
  153.1028  145.2060  159.8274 H   0  0  0  0  0  0  0  0  0  0  0  0
  151.4077  144.9316  160.2116 H   0  0  0  0  0  0  0  0  0  0  0  0
  152.1327  142.2605  156.7841 H   0  0  0  0  0  0  0  0  0  0  0  0
  149.3027  141.4318  157.0901 H   0  0  0  0  0  0  0  0  0  0  0  0
  149.7797  142.3899  155.7176 H   0  0  0  0  0  0  0  0  0  0  0  0
  152.6089  140.4105  156.3712 H   0  0  0  0  0  0  0  0  0  0  0  0
  153.2871  138.4204  155.0322 H   0  0  0  0  0  0  0  0  0  0  0  0
  151.5897  137.3489  153.5292 H   0  0  0  0  0  0  0  0  0  0  0  0
  148.5951  142.2161  154.8728 H   0  0  0  0  0  0  0  0  0  0  0  0
  148.8547  141.6697  153.2270 H   0  0  0  0  0  0  0  0  0  0  0  0
  146.6607  142.8853  153.4759 H   0  0  0  0  0  0  0  0  0  0  0  0
  146.4197  141.2357  152.9328 H   0  0  0  0  0  0  0  0  0  0  0  0
  145.3521  140.1100  156.2040 H   0  0  0  0  0  0  0  0  0  0  0  0
  145.6461  139.5832  154.5574 H   0  0  0  0  0  0  0  0  0  0  0  0
  147.5303  138.8438  156.0150 H   0  0  0  0  0  0  0  0  0  0  0  0
  147.7640  140.4887  156.5905 H   0  0  0  0  0  0  0  0  0  0  0  0
  1  2  1  0  0  0  0
  1 21  1  0  0  0  0
  1 22  1  0  0  0  0
  1 23  1  0  0  0  0
  2  3  1  0  0  0  0
  2 24  1  0  0  0  0
  2 25  1  0  0  0  0
  3  4  1  0  0  0  0
  3  5  1  0  0  0  0
  3 26  1  0  0  0  0
  4 27  1  0  0  0  0
  4 28  1  0  0  0  0
  4 29  1  0  0  0  0
  5  6  2  0  0  0  0
  5  7  1  0  0  0  0
  7  8  1  0  0  0  0
  7 30  1  0  0  0  0
  8  9  1  0  0  0  0
  8 31  1  0  0  0  0
  8 32  1  0  0  0  0
  9 14  1  0  0  0  0
  9 10  2  0  0  0  0
 10 11  1  0  0  0  0
 10 33  1  0  0  0  0
 11 12  2  0  0  0  0
 11 34  1  0  0  0  0
 12 13  1  0  0  0  0
 12 35  1  0  0  0  0
 13 14  2  0  0  0  0
 14 15  1  0  0  0  0
 15 20  1  0  0  0  0
 15 16  1  0  0  0  0
 16 17  1  0  0  0  0
 16 36  1  0  0  0  0
 16 37  1  0  0  0  0
 17 18  1  0  0  0  0
 17 38  1  0  0  0  0
 17 39  1  0  0  0  0
 18 19  1  0  0  0  0
 19 20  1  0  0  0  0
 19 40  1  0  0  0  0
 19 41  1  0  0  0  0
 20 42  1  0  0  0  0
 20 43  1  0  0  0  0
M  END
> <s_m_source_file>
AV-unprocessed.smi

> <i_m_source_file_index>
349

> <i_lp_mmshare_version>
43012

> <i_f3d_flags>
0

> <s_epik_input>
W0NIM11bQ0gyXVtDQEhdKFtDSDNdKUMoPU8pW05IXVtDSDJdYzFbY0hdW2NIXVtjSF1uYzFOMltDSDJdW0NIMl1PW0NIMl1bQ0gyXTI=

> <s_epik_cmdline>
J2VwaWtfcHl0aG9uJywgJy1waCcsICc3LjAnLCAnLXRuJywgJzgnLCAnLW1hJywgJzIwMCcsICctbWV0YWxfYmluZGluZycsICctaW1hZScsICc8aW5maWxlLm1hZT4nLCAnLW9tYWUnLCAnPG91dGZpbGUubWFlPic=

> <r_lp_tautomer_probability>
1

> <r_epik_Ionization_Penalty>
0.00513869

> <r_epik_Ionization_Penalty_Charging>
0

> <r_epik_Ionization_Penalty_Neutral>
0.00513869

> <r_epik_State_Penalty>
0.00374265

> <r_epik_Charging_Adjusted_Penalty>
0.00374265

> <i_epik_Tot_Q>
0

> <i_epik_Tot_abs_Q>
0

> <r_epik_Metal_State_Penalty>
-0

> <b_epik_Metal_Only>
0

> <s_lp_Force_Field>
OPLS_2005

> <r_lp_Energy>
18.1158

> <b_lp_Chiralities_Consistent>
1

> <s_lp_Variant>
AV-unprocessed.smi:349-1

> <Gold.Version>
5.8.1

> <Gold.Id.Protein>
6NUR|6NUR_protein|mol2

> <Gold.PLP.Fitness>
46.3667

> <Gold.PLP.PLP>
-44.3819

> <Gold.PLP.part.hbond>
-0.2605

> <Gold.PLP.part.metal>
0.0000

> <Gold.PLP.part.buried>
-5.2660

> <Gold.PLP.part.nonpolar>
-38.9197

> <Gold.PLP.part.repulsive>
0.6298

> <Gold.PLP.ligand.clash>
0.0000

> <Gold.PLP.ligand.torsion>
0.6051

> <Gold.PLP.Chemscore.Hbond>
0.0000

> <Gold.PLP.Chemscore.CHOScore>
1.0000

> <Gold.PLP.Chemscore.Metal>
0.0000

> <Gold.Chemscore.Hbonds>
donor molecule, donor type, donor heavy atom, donor atom, acceptor molecule, acceptor atom, score
      L1  C    12    35       P1  7949  1.00

> <Gold.PLP.Chemscore.Internal.Correction>
0.1951

> <Gold.Rescore>
     Score         DG    S(hbond)    S(metal)    S(lipo)     H(rot)  DE(clash)    DE(int)     intcor
     13.30     -14.09       0.00        0.00     109.47       1.64       0.28       0.51       ----

> <Gold.Chemscore.Fitness>
13.2962

> <Gold.Chemscore.DG>
-14.0879

> <Gold.Chemscore.ZeroCoef>
-5.4800

> <Gold.Chemscore.Hbond>
0.0000

> <Gold.Chemscore.Metal>
0.0000

> <Gold.Chemscore.Lipo>
109.4702

> <Gold.Chemscore.Internal_Hbond>
0.0000

> <Gold.Chemscore.DEClash>
0.2829

> <Gold.Chemscore.DEInternal>
0.5088

> <Gold.Chemscore.Rot>
1.6407

> <Gold.Chemscore.Internal.Correction>
   9.000000E+99

> <Gold.Chemscore.Hbond.Weighted>
-0.0000

> <Gold.Chemscore.Metal.Weighted>
-0.0000

> <Gold.Chemscore.Lipo.Weighted>
-12.8080

> <Gold.Chemscore.Internal_Hbond.Weighted>
0.0000

> <Gold.Chemscore.DEClash.Weighted>
0.2829

> <Gold.Chemscore.DEInternal.Weighted>
0.5088

> <Gold.Chemscore.Rot.Weighted>
4.2001

> <Gold.Chemscore.Internal.Correction.Weighted>
   9.000000E+99

> <Gold.Protein.RotatedTorsions>
[ 6907 6896 6895 6894 ] final  -57.46 input  -60.11 | X-H torsion
[ 7974 7965 7964 7962 ] final   35.31 input  175.53 | X-H torsion
[ 8008 7997 7996 7995 ] final -117.94 input   59.86 | X-H torsion
[ 10167 10162 10161 10158 ] final  152.67 input  -65.29 | X-H torsion
[ 10718 10713 10712 10709 ] final -142.26 input   66.30 | X-H torsion
[ 10763 10752 10751 10750 ] final  100.09 input  -60.55 | X-H torsion
[ 11005 11000 10999 10996 ] final -163.85 input  -57.11 | X-H torsion

> <Gold.Protein.ActiveResidues>
 VAL166  LYS551  ARG553  GLY616  TRP617  ASP618  TYR619  PRO620  LYS621  CYS622 
 ASP623  PHE694  ASN695  SER759  ASP760  ASP761  ALA762  ILE779  LEU786  VAL792 
 PHE793  MET794  SER795  GLU796  ALA797  LYS798  CYS799  TRP800  GLU811  SER814 

> <Gold.Protein.RotatedAtoms>
  150.8084  134.7224  159.6665 H   0  0  0  0  0  0  0  0  0  0  0  0  # atno 6907 bound_to 6896
  152.4204  134.5962  159.9997 H   0  0  0  0  0  0  0  0  0  0  0  0  # atno 6908 bound_to 6896
  151.6179  133.3304  159.3117 H   0  0  0  0  0  0  0  0  0  0  0  0  # atno 6909 bound_to 6896
  146.1292  139.6159  142.9238 H   0  0  0  0  0  0  0  0  0  0  0  0  # atno 7974 bound_to 7965
  155.0918  140.0395  157.2671 H   0  0  0  0  0  0  0  0  0  0  0  0  # atno 8008 bound_to 7997
  154.6826  140.2636  155.6868 H   0  0  0  0  0  0  0  0  0  0  0  0  # atno 8009 bound_to 7997
  156.2700  140.2775  156.1376 H   0  0  0  0  0  0  0  0  0  0  0  0  # atno 8010 bound_to 7997
  139.4831  144.5338  151.7679 H   0  0  0  0  0  0  0  0  0  0  0  0  # atno 10167 bound_to 10162
  156.3438  130.7652  151.1793 H   0  0  0  0  0  0  0  0  0  0  0  0  # atno 10718 bound_to 10713
  153.3095  135.4091  155.1324 H   0  0  0  0  0  0  0  0  0  0  0  0  # atno 10763 bound_to 10752
  154.8572  135.3561  154.5742 H   0  0  0  0  0  0  0  0  0  0  0  0  # atno 10764 bound_to 10752
  153.6170  135.7066  153.5383 H   0  0  0  0  0  0  0  0  0  0  0  0  # atno 10765 bound_to 10752
  140.5935  134.5020  157.5196 H   0  0  0  0  0  0  0  0  0  0  0  0  # atno 11005 bound_to 11000
  145.5298  141.0427  143.2389 LP  0  0  0  0  0  0  0  0  0  0  0  0  # atno 17320 bound_to 7965
  144.7673  139.6815  143.7209 LP  0  0  0  0  0  0  0  0  0  0  0  0  # atno 17321 bound_to 7965
  140.4868  144.1369  150.5942 LP  0  0  0  0  0  0  0  0  0  0  0  0  # atno 17342 bound_to 10162
  140.4216  143.2609  151.9708 LP  0  0  0  0  0  0  0  0  0  0  0  0  # atno 17343 bound_to 10162
  157.7451  131.0447  150.4805 LP  0  0  0  0  0  0  0  0  0  0  0  0  # atno 17370 bound_to 10713
  156.4990  130.4112  149.6364 LP  0  0  0  0  0  0  0  0  0  0  0  0  # atno 17371 bound_to 10713
  139.9263  134.8049  156.1058 LP  0  0  0  0  0  0  0  0  0  0  0  0  # atno 17394 bound_to 11000
  141.0919  133.6711  156.2560 LP  0  0  0  0  0  0  0  0  0  0  0  0  # atno 17395 bound_to 11000

$$$$
