AV-unprocessed.smi:2474|AV-procd|sdf|9754|dock1
  -GOLD-   2272013393D 1   1.00000     0.00000
 Structure written by MMmdl.
 40 41  0  0  0  0  0  0  0  0  1 V2000
  144.0954  144.5802  155.4089 C   0  0  0  0  0  0  0  0  0  0  0  0
  145.0438  143.6108  154.7897 C   0  0  0  0  0  0  0  0  0  0  0  0
  145.5897  143.6566  153.5309 C   0  0  0  0  0  0  0  0  0  0  0  0
  146.4631  142.6027  153.2557 N   0  0  0  0  0  0  0  0  0  0  0  0
  146.5871  141.7584  154.2839 C   0  0  0  0  0  0  0  0  0  0  0  0
  147.5205  140.5842  154.2908 C   0  0  1  0  0  0  0  0  0  0  0  0
  147.1344  139.5335  153.2397 C   0  0  0  0  0  0  0  0  0  0  0  0
  149.0105  140.9896  154.2197 C   0  0  0  0  0  0  0  0  0  0  0  0
  149.3619  141.9633  155.2518 N   0  0  0  0  0  0  0  0  0  0  0  0
  150.2415  141.7593  156.2427 C   0  0  0  0  0  0  0  0  0  0  0  0
  150.7740  140.6761  156.4844 O   0  0  0  0  0  0  0  0  0  0  0  0
  150.5190  142.8939  156.8987 N   0  0  0  0  0  0  0  0  0  0  0  0
  151.5621  143.0403  157.9090 C   0  0  1  0  0  0  0  0  0  0  0  0
  151.4081  144.3967  158.6314 C   0  0  0  0  0  0  0  0  0  0  0  0
  152.5044  144.6387  159.6800 C   0  0  0  0  0  0  0  0  0  0  0  0
  152.4992  143.5756  160.7871 C   0  0  0  0  0  0  0  0  0  0  0  0
  152.8261  141.9242  160.1132 S   0  0  0  0  0  0  0  0  0  0  0  0
  151.4869  141.8590  158.8915 C   0  0  0  0  0  0  0  0  0  0  0  0
  145.6049  142.2155  155.6723 S   0  0  0  0  0  0  0  0  0  0  0  0
  143.8753  145.4033  154.7285 H   0  0  0  0  0  0  0  0  0  0  0  0
  144.5163  145.0026  156.3215 H   0  0  0  0  0  0  0  0  0  0  0  0
  143.1545  144.0920  155.6630 H   0  0  0  0  0  0  0  0  0  0  0  0
  145.4195  144.4053  152.7714 H   0  0  0  0  0  0  0  0  0  0  0  0
  147.3828  140.0999  155.2586 H   0  0  0  0  0  0  0  0  0  0  0  0
  146.1063  139.1984  153.3790 H   0  0  0  0  0  0  0  0  0  0  0  0
  147.7795  138.6572  153.3059 H   0  0  0  0  0  0  0  0  0  0  0  0
  147.2210  139.9333  152.2290 H   0  0  0  0  0  0  0  0  0  0  0  0
  149.6401  140.1105  154.3595 H   0  0  0  0  0  0  0  0  0  0  0  0
  149.2485  141.3782  153.2279 H   0  0  0  0  0  0  0  0  0  0  0  0
  148.9767  142.8905  155.1465 H   0  0  0  0  0  0  0  0  0  0  0  0
  150.0283  143.7331  156.6270 H   0  0  0  0  0  0  0  0  0  0  0  0
  152.5348  143.0081  157.4140 H   0  0  0  0  0  0  0  0  0  0  0  0
  151.4395  145.2086  157.9034 H   0  0  0  0  0  0  0  0  0  0  0  0
  150.4282  144.4557  159.1070 H   0  0  0  0  0  0  0  0  0  0  0  0
  153.4808  144.6627  159.1946 H   0  0  0  0  0  0  0  0  0  0  0  0
  152.3611  145.6232  160.1261 H   0  0  0  0  0  0  0  0  0  0  0  0
  153.2597  143.8046  161.5337 H   0  0  0  0  0  0  0  0  0  0  0  0
  151.5377  143.5662  161.3016 H   0  0  0  0  0  0  0  0  0  0  0  0
  150.5308  141.8561  159.4165 H   0  0  0  0  0  0  0  0  0  0  0  0
  151.5605  140.9123  158.3554 H   0  0  0  0  0  0  0  0  0  0  0  0
  1  2  1  0  0  0  0
  1 20  1  0  0  0  0
  1 21  1  0  0  0  0
  1 22  1  0  0  0  0
  2 19  1  0  0  0  0
  2  3  2  0  0  0  0
  3  4  1  0  0  0  0
  3 23  1  0  0  0  0
  4  5  2  0  0  0  0
  5  6  1  0  0  0  0
  5 19  1  0  0  0  0
  6  7  1  0  0  0  0
  6  8  1  0  0  0  0
  6 24  1  0  0  0  0
  7 25  1  0  0  0  0
  7 26  1  0  0  0  0
  7 27  1  0  0  0  0
  8  9  1  0  0  0  0
  8 28  1  0  0  0  0
  8 29  1  0  0  0  0
  9 10  1  0  0  0  0
  9 30  1  0  0  0  0
 10 11  2  0  0  0  0
 10 12  1  0  0  0  0
 12 13  1  0  0  0  0
 12 31  1  0  0  0  0
 13 18  1  0  0  0  0
 13 14  1  0  0  0  0
 13 32  1  0  0  0  0
 14 15  1  0  0  0  0
 14 33  1  0  0  0  0
 14 34  1  0  0  0  0
 15 16  1  0  0  0  0
 15 35  1  0  0  0  0
 15 36  1  0  0  0  0
 16 17  1  0  0  0  0
 16 37  1  0  0  0  0
 16 38  1  0  0  0  0
 17 18  1  0  0  0  0
 18 39  1  0  0  0  0
 18 40  1  0  0  0  0
M  END
> <s_m_source_file>
AV-unprocessed.smi

> <i_m_source_file_index>
2474

> <i_lp_mmshare_version>
43012

> <i_f3d_flags>
0

> <s_epik_input>
W0NIM11jMVtjSF1uYyhzMSlbQ0BIXShbQ0gzXSlbQ0gyXVtOSF1DKD1PKVtOSF1bQ0BASF0yW0NIMl1bQ0gyXVtDSDJdU1tDSDJdMg==

> <s_epik_cmdline>
J2VwaWtfcHl0aG9uJywgJy1waCcsICc3LjAnLCAnLXRuJywgJzgnLCAnLW1hJywgJzIwMCcsICctbWV0YWxfYmluZGluZycsICctaW1hZScsICc8aW5maWxlLm1hZT4nLCAnLW9tYWUnLCAnPG91dGZpbGUubWFlPic=

> <r_epik_Ionization_Penalty>
0.000644338

> <r_epik_Ionization_Penalty_Charging>
0

> <r_epik_Ionization_Penalty_Neutral>
0.000644338

> <r_epik_State_Penalty>
0.000374131

> <r_epik_Charging_Adjusted_Penalty>
0.000374131

> <i_epik_Tot_Q>
0

> <i_epik_Tot_abs_Q>
0

> <r_epik_Metal_State_Penalty>
-0

> <b_epik_Metal_Only>
0

> <s_lp_Force_Field>
OPLS_2005

> <r_lp_Energy>
-6.83814

> <b_lp_Chiralities_Consistent>
1

> <s_lp_Variant>
AV-unprocessed.smi:2474-4

> <Gold.Version>
5.8.1

> <Gold.Id.Protein>
6NUR|6NUR_protein|mol2

> <Gold.PLP.Fitness>
47.7544

> <Gold.PLP.PLP>
-42.0025

> <Gold.PLP.part.hbond>
-2.0000

> <Gold.PLP.part.metal>
0.0000

> <Gold.PLP.part.buried>
-3.1998

> <Gold.PLP.part.nonpolar>
-36.0898

> <Gold.PLP.part.repulsive>
0.4659

> <Gold.PLP.ligand.clash>
0.0000

> <Gold.PLP.ligand.torsion>
0.2073

> <Gold.PLP.Chemscore.Hbond>
2.0000

> <Gold.PLP.Chemscore.CHOScore>
0.0000

> <Gold.PLP.Chemscore.Metal>
0.0000

> <Gold.Chemscore.Hbonds>
donor molecule, donor type, donor heavy atom, donor atom, acceptor molecule, acceptor atom, score
      L1  H     9    30       P1  8028  1.00
      L1  H    12    31       P1  8028  1.00

> <Gold.PLP.Chemscore.Internal.Correction>
0.1665

> <Gold.Rescore>
     Score         DG    S(hbond)    S(metal)    S(lipo)     H(rot)  DE(clash)    DE(int)     intcor
     19.14     -20.66       1.92        0.00     106.82       1.46       0.01       1.51       ----

> <Gold.Chemscore.Fitness>
19.1377

> <Gold.Chemscore.DG>
-20.6628

> <Gold.Chemscore.ZeroCoef>
-5.4800

> <Gold.Chemscore.Hbond>
1.9240

> <Gold.Chemscore.Metal>
0.0000

> <Gold.Chemscore.Lipo>
106.8226

> <Gold.Chemscore.Internal_Hbond>
0.0000

> <Gold.Chemscore.DEClash>
0.0121

> <Gold.Chemscore.DEInternal>
1.5130

> <Gold.Chemscore.Rot>
1.4616

> <Gold.Chemscore.Internal.Correction>
   9.000000E+99

> <Gold.Chemscore.Hbonds>
donor molecule, donor type, donor heavy atom, donor atom, acceptor molecule, acceptor atom, score
      L1  H     9    30       P1  8028  0.96
      L1  H    12    31       P1  8028  0.99

> <Gold.Chemscore.Hbond.Weighted>
-6.4261

> <Gold.Chemscore.Metal.Weighted>
-0.0000

> <Gold.Chemscore.Lipo.Weighted>
-12.4982

> <Gold.Chemscore.Internal_Hbond.Weighted>
0.0000

> <Gold.Chemscore.DEClash.Weighted>
0.0121

> <Gold.Chemscore.DEInternal.Weighted>
1.5130

> <Gold.Chemscore.Rot.Weighted>
3.7416

> <Gold.Chemscore.Internal.Correction.Weighted>
   9.000000E+99

> <Gold.Protein.RotatedTorsions>
[ 6907 6896 6895 6894 ] final  -77.69 input  -60.11 | X-H torsion
[ 7974 7965 7964 7962 ] final   86.71 input  175.53 | X-H torsion
[ 8008 7997 7996 7995 ] final  -77.36 input   59.86 | X-H torsion
[ 10167 10162 10161 10158 ] final -168.67 input  -65.29 | X-H torsion
[ 10718 10713 10712 10709 ] final  -75.10 input   66.30 | X-H torsion
[ 10763 10752 10751 10750 ] final  123.28 input  -60.55 | X-H torsion
[ 11005 11000 10999 10996 ] final  141.97 input  -57.11 | X-H torsion

> <Gold.Protein.ActiveResidues>
 VAL166  LYS551  ARG553  GLY616  TRP617  ASP618  TYR619  PRO620  LYS621  CYS622 
 ASP623  PHE694  ASN695  SER759  ASP760  ASP761  ALA762  ILE779  LEU786  VAL792 
 PHE793  MET794  SER795  GLU796  ALA797  LYS798  CYS799  TRP800  GLU811  SER814 

> <Gold.Protein.RotatedAtoms>
  150.6992  134.4385  159.5280 H   0  0  0  0  0  0  0  0  0  0  0  0  # atno 6907 bound_to 6896
  152.2099  134.8508  160.0507 H   0  0  0  0  0  0  0  0  0  0  0  0  # atno 6908 bound_to 6896
  151.9397  133.3599  159.3997 H   0  0  0  0  0  0  0  0  0  0  0  0  # atno 6909 bound_to 6896
  145.5686  139.2311  143.2419 H   0  0  0  0  0  0  0  0  0  0  0  0  # atno 7974 bound_to 7965
  154.5589  140.0712  156.8787 H   0  0  0  0  0  0  0  0  0  0  0  0  # atno 8008 bound_to 7997
  155.2850  140.3374  155.4238 H   0  0  0  0  0  0  0  0  0  0  0  0  # atno 8009 bound_to 7997
  156.2025  140.1727  156.7854 H   0  0  0  0  0  0  0  0  0  0  0  0  # atno 8010 bound_to 7997
  139.5970  144.1091  152.1700 H   0  0  0  0  0  0  0  0  0  0  0  0  # atno 10167 bound_to 10162
  156.0219  130.4433  150.2992 H   0  0  0  0  0  0  0  0  0  0  0  0  # atno 10718 bound_to 10713
  153.6431  135.3376  155.3077 H   0  0  0  0  0  0  0  0  0  0  0  0  # atno 10763 bound_to 10752
  154.8555  135.4323  154.1984 H   0  0  0  0  0  0  0  0  0  0  0  0  # atno 10764 bound_to 10752
  153.2908  135.7017  153.7369 H   0  0  0  0  0  0  0  0  0  0  0  0  # atno 10765 bound_to 10752
  140.0441  134.9289  157.0898 H   0  0  0  0  0  0  0  0  0  0  0  0  # atno 11005 bound_to 11000
  146.1800  140.6512  142.9193 LP  0  0  0  0  0  0  0  0  0  0  0  0  # atno 17320 bound_to 7965
  144.7448  140.5039  143.6843 LP  0  0  0  0  0  0  0  0  0  0  0  0  # atno 17321 bound_to 7965
  140.0678  144.5804  150.7214 LP  0  0  0  0  0  0  0  0  0  0  0  0  # atno 17342 bound_to 10162
  140.7220  143.2598  151.4247 LP  0  0  0  0  0  0  0  0  0  0  0  0  # atno 17343 bound_to 10162
  157.1095  131.0217  151.3053 LP  0  0  0  0  0  0  0  0  0  0  0  0  # atno 17370 bound_to 10713
  157.4716  130.7712  149.7328 LP  0  0  0  0  0  0  0  0  0  0  0  0  # atno 17371 bound_to 10713
  140.4021  134.2071  155.7163 LP  0  0  0  0  0  0  0  0  0  0  0  0  # atno 17394 bound_to 11000
  141.1898  133.8230  157.0942 LP  0  0  0  0  0  0  0  0  0  0  0  0  # atno 17395 bound_to 11000

$$$$
