AV-unprocessed.smi:249|AV-procd|sdf|1925|dock10
  -GOLD-   2262021 33D 1   1.00000     0.00000
 Structure written by MMmdl.
 64 67  0  0  0  0  0  0  0  0  2 V2000
  147.3147  129.4051  153.3426 C   0  0  0  0  0  0  0  0  0  0  0  0
  148.7422  129.9792  153.3961 C   0  0  0  0  0  0  0  0  0  0  0  0
  148.8899  131.1784  154.2685 N   0  3  1  0  0  0  0  0  0  0  0  0
  149.8962  130.9713  155.3450 C   0  0  0  0  0  0  0  0  0  0  0  0
  149.8420  132.0963  156.3874 C   0  0  0  0  0  0  0  0  0  0  0  0
  150.0462  133.4636  155.7081 C   0  0  2  0  0  0  0  0  0  0  0  0
  150.1137  134.5918  156.6484 N   0  0  0  0  0  0  0  0  0  0  0  0
  149.0584  134.7028  157.6498 C   0  0  0  0  0  0  0  0  0  0  0  0
  150.6807  135.7836  156.3205 C   0  0  0  0  0  0  0  0  0  0  0  0
  151.0422  136.0425  155.0365 N   0  0  0  0  0  0  0  0  0  0  0  0
  151.5788  137.2208  154.7067 C   0  0  0  0  0  0  0  0  0  0  0  0
  151.8329  138.2694  155.4904 N   0  0  0  0  0  0  0  0  0  0  0  0
  151.4674  138.0215  156.7802 C   0  0  0  0  0  0  0  0  0  0  0  0
  150.8931  136.8172  157.2770 C   0  0  0  0  0  0  0  0  0  0  0  0
  150.6729  136.9296  158.6449 N   0  0  0  0  0  0  0  0  0  0  0  0
  151.0860  138.1321  158.9382 C   0  0  0  0  0  0  0  0  0  0  0  0
  151.5584  138.8656  157.8732 N   0  0  0  0  0  0  0  0  0  0  0  0
  152.0828  140.2193  157.9161 C   0  0  0  0  0  0  0  0  0  0  0  0
  151.0114  141.3416  157.8174 C   0  0  2  0  0  0  0  0  0  0  0  0
  150.3825  141.3170  156.4031 C   0  0  0  0  0  0  0  0  0  0  0  0
  149.3175  142.2396  156.2966 O   0  0  0  0  0  0  0  0  0  0  0  0
  151.5691  142.7540  158.1685 C   0  0  1  0  0  0  0  0  0  0  0  0
  150.5226  143.7755  158.5906 C   0  0  0  0  0  0  0  0  0  0  0  0
  151.3626  144.8336  159.2897 C   0  0  0  0  0  0  0  0  0  0  0  0
  152.3473  144.0928  159.9920 O   0  0  0  0  0  0  0  0  0  0  0  0
  152.5167  142.8175  159.3798 C   0  0  0  0  0  0  0  0  0  0  0  0
  149.0203  133.6494  154.5715 C   0  0  0  0  0  0  0  0  0  0  0  0
  149.0740  132.4845  153.5603 C   0  0  2  0  0  0  0  0  0  0  0  0
  148.0253  132.7193  152.4549 C   0  0  0  0  0  0  0  0  0  0  0  0
  147.2789  128.5428  152.6767 H   0  0  0  0  0  0  0  0  0  0  0  0
  146.5971  130.1326  152.9645 H   0  0  0  0  0  0  0  0  0  0  0  0
  146.9719  129.0689  154.3208 H   0  0  0  0  0  0  0  0  0  0  0  0
  149.4395  129.2051  153.7148 H   0  0  0  0  0  0  0  0  0  0  0  0
  149.0588  130.2420  152.3860 H   0  0  0  0  0  0  0  0  0  0  0  0
  149.7158  130.0174  155.8419 H   0  0  0  0  0  0  0  0  0  0  0  0
  150.8968  130.9195  154.9146 H   0  0  0  0  0  0  0  0  0  0  0  0
  148.8856  132.0515  156.9068 H   0  0  0  0  0  0  0  0  0  0  0  0
  150.6109  131.9287  157.1420 H   0  0  0  0  0  0  0  0  0  0  0  0
  151.0263  133.4359  155.2294 H   0  0  0  0  0  0  0  0  0  0  0  0
  149.4842  134.7597  158.6517 H   0  0  0  0  0  0  0  0  0  0  0  0
  148.3959  133.8369  157.6243 H   0  0  0  0  0  0  0  0  0  0  0  0
  148.4491  135.5923  157.4824 H   0  0  0  0  0  0  0  0  0  0  0  0
  151.8382  137.3425  153.6655 H   0  0  0  0  0  0  0  0  0  0  0  0
  151.0459  138.5230  159.9447 H   0  0  0  0  0  0  0  0  0  0  0  0
  152.6590  140.3385  158.8346 H   0  0  0  0  0  0  0  0  0  0  0  0
  152.7992  140.3010  157.0983 H   0  0  0  0  0  0  0  0  0  0  0  0
  150.2098  141.1205  158.5231 H   0  0  0  0  0  0  0  0  0  0  0  0
  151.1055  141.5959  155.6381 H   0  0  0  0  0  0  0  0  0  0  0  0
  150.0227  140.3180  156.1554 H   0  0  0  0  0  0  0  0  0  0  0  0
  149.5990  142.9632  155.7577 H   0  0  0  0  0  0  0  0  0  0  0  0
  152.0913  143.1561  157.2988 H   0  0  0  0  0  0  0  0  0  0  0  0
  149.9601  144.1896  157.7534 H   0  0  0  0  0  0  0  0  0  0  0  0
  149.8172  143.3330  159.2958 H   0  0  0  0  0  0  0  0  0  0  0  0
  151.8559  145.4753  158.5582 H   0  0  0  0  0  0  0  0  0  0  0  0
  150.7778  145.4639  159.9600 H   0  0  0  0  0  0  0  0  0  0  0  0
  152.2669  142.0565  160.1199 H   0  0  0  0  0  0  0  0  0  0  0  0
  153.5589  142.6822  159.0936 H   0  0  0  0  0  0  0  0  0  0  0  0
  148.0065  133.7217  154.9640 H   0  0  0  0  0  0  0  0  0  0  0  0
  149.2174  134.5917  154.0582 H   0  0  0  0  0  0  0  0  0  0  0  0
  150.0619  132.4869  153.0973 H   0  0  0  0  0  0  0  0  0  0  0  0
  148.1343  133.7143  152.0225 H   0  0  0  0  0  0  0  0  0  0  0  0
  147.0102  132.6409  152.8458 H   0  0  0  0  0  0  0  0  0  0  0  0
  148.1273  132.0118  151.6325 H   0  0  0  0  0  0  0  0  0  0  0  0
  148.0042  131.2587  154.7476 H   0  0  0  0  0  0  0  0  0  0  0  0
  1  2  1  0  0  0  0
  1 30  1  0  0  0  0
  1 31  1  0  0  0  0
  1 32  1  0  0  0  0
  2  3  1  0  0  0  0
  2 33  1  0  0  0  0
  2 34  1  0  0  0  0
  3 28  1  0  0  0  0
  3  4  1  0  0  0  0
  3 64  1  0  0  0  0
  4  5  1  0  0  0  0
  4 35  1  0  0  0  0
  4 36  1  0  0  0  0
  5  6  1  0  0  0  0
  5 37  1  0  0  0  0
  5 38  1  0  0  0  0
  6  7  1  0  0  0  0
  6 27  1  0  0  0  0
  6 39  1  0  0  0  0
  7  8  1  0  0  0  0
  7  9  1  0  0  0  0
  8 40  1  0  0  0  0
  8 41  1  0  0  0  0
  8 42  1  0  0  0  0
  9 14  1  0  0  0  0
  9 10  2  0  0  0  0
 10 11  1  0  0  0  0
 11 12  2  0  0  0  0
 11 43  1  0  0  0  0
 12 13  1  0  0  0  0
 13 17  1  0  0  0  0
 13 14  2  0  0  0  0
 14 15  1  0  0  0  0
 15 16  2  0  0  0  0
 16 17  1  0  0  0  0
 16 44  1  0  0  0  0
 17 18  1  0  0  0  0
 18 19  1  0  0  0  0
 18 45  1  0  0  0  0
 18 46  1  0  0  0  0
 19 20  1  0  0  0  0
 19 22  1  0  0  0  0
 19 47  1  0  0  0  0
 20 21  1  0  0  0  0
 20 48  1  0  0  0  0
 20 49  1  0  0  0  0
 21 50  1  0  0  0  0
 22 26  1  0  0  0  0
 22 23  1  0  0  0  0
 22 51  1  0  0  0  0
 23 24  1  0  0  0  0
 23 52  1  0  0  0  0
 23 53  1  0  0  0  0
 24 25  1  0  0  0  0
 24 54  1  0  0  0  0
 24 55  1  0  0  0  0
 25 26  1  0  0  0  0
 26 56  1  0  0  0  0
 26 57  1  0  0  0  0
 27 28  1  0  0  0  0
 27 58  1  0  0  0  0
 27 59  1  0  0  0  0
 28 29  1  0  0  0  0
 28 60  1  0  0  0  0
 29 61  1  0  0  0  0
 29 62  1  0  0  0  0
 29 63  1  0  0  0  0
M  CHG  1   3   1
M  END
> <s_m_source_file>
AV-unprocessed.smi

> <i_m_source_file_index>
249

> <i_lp_mmshare_version>
43012

> <i_f3d_flags>
0

> <s_epik_input>
W0NIM11bQ0gyXU4xW0NIMl1bQ0gyXVtDQEhdKFtDSDJdW0NASF0xW0NIM10pTihbQ0gzXSljKG5bY0hdbjIpYyhjMjMpbltjSF1uM1tDSDJdW0NASF0oW0NIMl1bT0hdKVtDQEBIXTRbQ0gyXVtDSDJdT1tDSDJdNA==

> <s_epik_cmdline>
J2VwaWtfcHl0aG9uJywgJy1waCcsICc3LjAnLCAnLXRuJywgJzgnLCAnLW1hJywgJzIwMCcsICctbWV0YWxfYmluZGluZycsICctaW1hZScsICc8aW5maWxlLm1hZT4nLCAnLW9tYWUnLCAnPG91dGZpbGUubWFlPic=

> <r_lp_tautomer_probability>
1

> <r_epik_Ionization_Penalty>
0.00294688

> <r_epik_Ionization_Penalty_Charging>
0.00169971

> <r_epik_Ionization_Penalty_Neutral>
0.00124717

> <r_epik_State_Penalty>
-0

> <r_epik_Charging_Adjusted_Penalty>
0.00169971

> <i_epik_Tot_Q>
1

> <i_epik_Tot_abs_Q>
1

> <r_epik_Metal_State_Penalty>
-0

> <b_epik_Metal_Only>
0

> <s_lp_Force_Field>
OPLS_2005

> <r_lp_Energy>
53.7488

> <b_lp_Chiralities_Consistent>
1

> <s_lp_Variant>
AV-unprocessed.smi:249-28

> <Gold.Version>
5.8.1

> <Gold.Id.Protein>
6NUR|6NUR_protein|mol2

> <Gold.PLP.Fitness>
50.1739

> <Gold.PLP.PLP>
-45.5196

> <Gold.PLP.part.hbond>
-2.3228

> <Gold.PLP.part.metal>
0.0000

> <Gold.PLP.part.buried>
-5.7507

> <Gold.PLP.part.nonpolar>
-39.1818

> <Gold.PLP.part.repulsive>
0.2162

> <Gold.PLP.ligand.clash>
0.0000

> <Gold.PLP.ligand.torsion>
2.1036

> <Gold.PLP.Chemscore.Hbond>
1.5978

> <Gold.PLP.Chemscore.CHOScore>
0.9984

> <Gold.PLP.Chemscore.Metal>
0.0000

> <Gold.Chemscore.Hbonds>
donor molecule, donor type, donor heavy atom, donor atom, acceptor molecule, acceptor atom, score
      L1  H    21    50       P1  8028  0.58
      P1  H  6896  6908       L1    15  0.46
      L1  C    11    43       P1  7949  0.71

> <Gold.PLP.Chemscore.Internal.Correction>
1.0729

> <Gold.Rescore>
     Score         DG    S(hbond)    S(metal)    S(lipo)     H(rot)  DE(clash)    DE(int)     intcor
     13.51     -17.04       1.78        0.00     106.11       2.65       0.05       3.48       ----

> <Gold.Chemscore.Fitness>
13.5074

> <Gold.Chemscore.DG>
-17.0418

> <Gold.Chemscore.ZeroCoef>
-5.4800

> <Gold.Chemscore.Hbond>
1.7769

> <Gold.Chemscore.Metal>
0.0000

> <Gold.Chemscore.Lipo>
106.1105

> <Gold.Chemscore.Internal_Hbond>
0.0000

> <Gold.Chemscore.DEClash>
0.0540

> <Gold.Chemscore.DEInternal>
3.4805

> <Gold.Chemscore.Rot>
2.6515

> <Gold.Chemscore.Internal.Correction>
   9.000000E+99

> <Gold.Chemscore.Hbonds>
donor molecule, donor type, donor heavy atom, donor atom, acceptor molecule, acceptor atom, score
      L1  H    21    50       P1  8028  0.58
      P1  H  6896  6908       L1    15  0.40

> <Gold.Chemscore.Hbond.Weighted>
-5.9349

> <Gold.Chemscore.Metal.Weighted>
-0.0000

> <Gold.Chemscore.Lipo.Weighted>
-12.4149

> <Gold.Chemscore.Internal_Hbond.Weighted>
0.0000

> <Gold.Chemscore.DEClash.Weighted>
0.0540

> <Gold.Chemscore.DEInternal.Weighted>
3.4805

> <Gold.Chemscore.Rot.Weighted>
6.7880

> <Gold.Chemscore.Internal.Correction.Weighted>
   9.000000E+99

> <Gold.Protein.RotatedTorsions>
[ 6907 6896 6895 6894 ] final -147.45 input  -60.11 | X-H torsion
[ 7974 7965 7964 7962 ] final  -56.98 input  175.53 | X-H torsion
[ 8008 7997 7996 7995 ] final   52.59 input   59.86 | X-H torsion
[ 10167 10162 10161 10158 ] final   37.64 input  -65.29 | X-H torsion
[ 10718 10713 10712 10709 ] final   39.18 input   66.30 | X-H torsion
[ 10763 10752 10751 10750 ] final  -63.28 input  -60.55 | X-H torsion
[ 11005 11000 10999 10996 ] final  -51.20 input  -57.11 | X-H torsion

> <Gold.Protein.ActiveResidues>
 VAL166  LYS551  ARG553  GLY616  TRP617  ASP618  TYR619  PRO620  LYS621  CYS622 
 ASP623  PHE694  ASN695  SER759  ASP760  ASP761  ALA762  ILE779  LEU786  VAL792 
 PHE793  MET794  SER795  GLU796  ALA797  LYS798  CYS799  TRP800  GLU811  SER814 

> <Gold.Protein.RotatedAtoms>
  151.1558  133.4877  159.2594 H   0  0  0  0  0  0  0  0  0  0  0  0  # atno 6907 bound_to 6896
  151.1506  135.0225  159.8676 H   0  0  0  0  0  0  0  0  0  0  0  0  # atno 6908 bound_to 6896
  152.5463  134.1442  159.8545 H   0  0  0  0  0  0  0  0  0  0  0  0  # atno 6909 bound_to 6896
  145.8564  140.8316  142.9959 H   0  0  0  0  0  0  0  0  0  0  0  0  # atno 7974 bound_to 7965
  155.4544  140.3459  155.4305 H   0  0  0  0  0  0  0  0  0  0  0  0  # atno 8008 bound_to 7997
  156.1200  140.1484  156.9247 H   0  0  0  0  0  0  0  0  0  0  0  0  # atno 8009 bound_to 7997
  154.4817  140.0868  156.7371 H   0  0  0  0  0  0  0  0  0  0  0  0  # atno 8010 bound_to 7997
  140.4013  144.1719  150.6134 H   0  0  0  0  0  0  0  0  0  0  0  0  # atno 10167 bound_to 10162
  157.3675  130.7683  149.7094 H   0  0  0  0  0  0  0  0  0  0  0  0  # atno 10718 bound_to 10713
  154.3126  135.6212  153.5472 H   0  0  0  0  0  0  0  0  0  0  0  0  # atno 10763 bound_to 10752
  152.9828  135.5705  154.5160 H   0  0  0  0  0  0  0  0  0  0  0  0  # atno 10764 bound_to 10752
  154.4813  135.2863  155.1545 H   0  0  0  0  0  0  0  0  0  0  0  0  # atno 10765 bound_to 10752
  141.0858  133.6643  156.3842 H   0  0  0  0  0  0  0  0  0  0  0  0  # atno 11005 bound_to 11000
  144.6727  140.1030  143.7459 LP  0  0  0  0  0  0  0  0  0  0  0  0  # atno 17320 bound_to 7965
  145.9299  139.2599  143.1331 LP  0  0  0  0  0  0  0  0  0  0  0  0  # atno 17321 bound_to 7965
  140.4736  143.2404  151.9054 LP  0  0  0  0  0  0  0  0  0  0  0  0  # atno 17342 bound_to 10162
  139.4784  144.5343  151.8621 LP  0  0  0  0  0  0  0  0  0  0  0  0  # atno 17343 bound_to 10162
  155.9749  130.4096  150.3889 LP  0  0  0  0  0  0  0  0  0  0  0  0  # atno 17370 bound_to 10713
  157.1975  131.0430  151.2668 LP  0  0  0  0  0  0  0  0  0  0  0  0  # atno 17371 bound_to 10713
  140.5367  134.6160  157.5367 LP  0  0  0  0  0  0  0  0  0  0  0  0  # atno 17394 bound_to 11000
  139.9676  134.7347  156.0107 LP  0  0  0  0  0  0  0  0  0  0  0  0  # atno 17395 bound_to 11000

$$$$
