#       Name:                AV-unprocessed.smi:878
#       Creating user name   scv26
#       Creation time:       Fri Mar 27 01:52:34 2020


#       File generated by GOLD software.
#

@<TRIPOS>MOLECULE
AV-unprocessed.smi:878
    39    40     1
SMALL
NO_CHARGES


@<TRIPOS>ATOM
      1 ****        -5.8657   0.6529  -1.8542 C.3            1 S1                 0.0000
      2 ****        -5.1335   1.6185  -0.5050 S.3            1 S1                 0.0000
      3 ****        -3.3893   1.3176  -0.4946 C.ar           1 S1                 0.0000
      4 ****        -2.8140   0.2795  -1.2575 C.ar           1 S1                 0.0000
      5 ****        -1.4220   0.0646  -1.2240 C.ar           1 S1                 0.0000
      6 ****        -0.5861   0.8874  -0.4281 C.ar           1 S1                 0.0000
      7 ****         0.7817   0.7500  -0.3402 O.3            1 S1                 0.0000
      8 ****         1.3964  -0.3443  -1.0065 C.3            1 S1                 0.0000
      9 ****         2.9082  -0.3285  -0.7288 C.3            1 S1                 0.0000
     10 ****         3.2077  -0.6228   0.6800 N.am           1 S1                 0.0000
     11 ****         3.3131  -1.9746   1.0483 C.2            1 S1                 0.0000
     12 ****         3.5777  -2.3534   2.3137 C.2            1 S1                 0.0000
     13 ****         3.6985  -4.0242   2.7372 Cl             1 S1                 0.0000
     14 ****         3.7567  -1.3079   3.3191 C.2            1 S1                 0.0000
     15 ****         4.0025  -1.6185   4.4838 O.2            1 S1                 0.0000
     16 ****         3.6401  -0.0102   2.9115 N.pl3          1 S1                -1.0000
     17 ****         3.3687   0.3554   1.6205 C.2            1 S1                 0.0000
     18 ****         3.2654   1.5341   1.2804 O.2            1 S1                 0.0000
     19 ****        -1.1727   1.9217   0.3284 C.ar           1 S1                 0.0000
     20 ****        -2.5638   2.1355   0.2999 C.ar           1 S1                 0.0000
     21 ****        -6.9321   0.8659  -1.9277 H              1 S1                 0.0000
     22 ****        -5.7432  -0.4152  -1.6751 H              1 S1                 0.0000
     23 ****        -5.3976   0.9090  -2.8048 H              1 S1                 0.0000
     24 ****        -3.4231  -0.3646  -1.8718 H              1 S1                 0.0000
     25 ****        -1.0185  -0.7387  -1.8213 H              1 S1                 0.0000
     26 ****         0.9640  -1.2899  -0.6748 H              1 S1                 0.0000
     27 ****         1.2313  -0.2586  -2.0813 H              1 S1                 0.0000
     28 ****         3.3946  -1.0745  -1.3589 H              1 S1                 0.0000
     29 ****         3.3371   0.6247  -1.0413 H              1 S1                 0.0000
     30 ****         3.1619  -2.6793   0.2435 H              1 S1                 0.0000
     31 ****        -0.5481   2.5560   0.9404 H              1 S1                 0.0000
     32 ****        -2.9947   2.9314   0.8894 H              1 S1                 0.0000
     33 ****         1.0088   0.6702   0.6304 LP             1 S1                 0.0000
     34 ****         1.1869   1.5862  -0.7097 LP             1 S1                 0.0000
     35 ****         4.0789  -2.5824   4.7387 LP             1 S1                 0.0000
     36 ****         4.1258  -0.9070   5.1756 LP             1 S1                 0.0000
     37 ****         3.7593   0.7122   3.5926 LP             1 S1                 0.0000
     38 ****         3.0664   1.7641   0.3277 LP             1 S1                 0.0000
     39 ****         3.3804   2.2616   1.9568 LP             1 S1                 0.0000
@<TRIPOS>BOND
    1    1    2 1     
    2    1   21 1     
    3    1   22 1     
    4    1   23 1     
    5    2    3 1     
    6    3   20 ar    
    7    3    4 ar    
    8    4    5 ar    
    9    4   24 1     
   10    5    6 ar    
   11    5   25 1     
   12    6    7 1     
   13    6   19 ar    
   14    7    8 1     
   15    8    9 1     
   16    8   26 1     
   17    8   27 1     
   18    9   10 1     
   19    9   28 1     
   20    9   29 1     
   21   10   17 am    
   22   10   11 1     
   23   11   12 2     
   24   11   30 1     
   25   12   13 1     
   26   12   14 1     
   27   14   15 2     
   28   14   16 1     
   29   16   17 1     
   30   17   18 2     
   31   19   20 ar    
   32   19   31 1     
   33   20   32 1     
   34    7   33 1     
   35    7   34 1     
   36   15   35 1     
   37   15   36 1     
   38   16   37 1     
   39   18   38 1     
   40   18   39 1     
@<TRIPOS>SUBSTRUCTURE
      1 S1             1
@<TRIPOS>SET
LONE_PAIRS      STATIC     ATOMS    <user>   **** ""
7 33 34 35 36 37 38 39
ATOM$BLUE        STATIC     ATOMS    COLORGROUP SYSTEM
7 33 34 35 36 37 38 39
