#       Name:                AV-unprocessed.smi:2588
#       Creating user name   scv26
#       Creation time:       Fri Mar 27 14:16:11 2020


#       File generated by GOLD software.
#

@<TRIPOS>MOLECULE
AV-unprocessed.smi:2588
    45    46     1
SMALL
NO_CHARGES


@<TRIPOS>ATOM
      1 ****        -4.6433   0.9877   1.6634 C.3            1 S1                 0.0000
      2 ****        -4.0050   0.2475   0.4688 C.3            1 S1                 0.0000
      3 ****        -4.7579  -1.0848   0.2652 C.3            1 S1                 0.0000
      4 ****        -2.5260   0.0602   0.6396 N.4            1 S1                 1.0000
      5 ****        -1.7889   1.3477   0.8079 C.3            1 S1                 0.0000
      6 ****        -0.2915   1.1296   1.0818 C.3            1 S1                 0.0000
      7 ****         0.3623   0.3073  -0.0341 C.3            1 S1                 0.0000
      8 ****         1.7681   0.0685   0.2782 N.am           1 S1                 0.0000
      9 ****         2.7168  -0.2379  -0.6202 C.2            1 S1                 0.0000
     10 ****         2.4855  -0.3729  -1.8226 O.2            1 S1                 0.0000
     11 ****         4.1317  -0.4411  -0.0611 C.3            1 S1                 0.0000
     12 ****         5.1808  -0.2895  -1.0707 N.am           1 S1                 0.0000
     13 ****         5.7934  -1.4115  -1.5353 N.2            1 S1                 0.0000
     14 ****         6.6851  -1.1307  -2.4120 C.2            1 S1                 0.0000
     15 ****         6.8966   0.5843  -2.7881 S.3            1 S1                 0.0000
     16 ****         5.6106   0.9253  -1.5978 C.2            1 S1                 0.0000
     17 ****         5.2143   2.0585  -1.3314 O.2            1 S1                 0.0000
     18 ****        -0.4041  -1.0147  -0.1832 C.3            1 S1                 0.0000
     19 ****        -1.9010  -0.7681  -0.4341 C.3            1 S1                 0.0000
     20 ****        -5.7305   1.0026   1.5800 H              1 S1                 0.0000
     21 ****        -4.3366   2.0312   1.7204 H              1 S1                 0.0000
     22 ****        -4.3949   0.5049   2.6093 H              1 S1                 0.0000
     23 ****        -4.1652   0.8547  -0.4237 H              1 S1                 0.0000
     24 ****        -5.8376  -0.9314   0.2747 H              1 S1                 0.0000
     25 ****        -4.5228  -1.8011   1.0532 H              1 S1                 0.0000
     26 ****        -4.5318  -1.5447  -0.6964 H              1 S1                 0.0000
     27 ****        -1.9206   1.9621  -0.0843 H              1 S1                 0.0000
     28 ****        -2.1846   1.9173   1.6464 H              1 S1                 0.0000
     29 ****         0.2076   2.0950   1.1750 H              1 S1                 0.0000
     30 ****        -0.1680   0.6237   2.0408 H              1 S1                 0.0000
     31 ****         0.2944   0.8722  -0.9663 H              1 S1                 0.0000
     32 ****         2.0438   0.1538   1.2460 H              1 S1                 0.0000
     33 ****         4.3105   0.2749   0.7428 H              1 S1                 0.0000
     34 ****         4.1861  -1.4322   0.3921 H              1 S1                 0.0000
     35 ****         7.3166  -1.8455  -2.9393 H              1 S1                 0.0000
     36 ****         0.0092  -1.5994  -1.0060 H              1 S1                 0.0000
     37 ****        -0.2810  -1.6196   0.7166 H              1 S1                 0.0000
     38 ****        -2.3726  -1.7471  -0.4959 H              1 S1                 0.0000
     39 ****        -2.0449  -0.2813  -1.4000 H              1 S1                 0.0000
     40 ****        -2.4033  -0.4546   1.5000 H              1 S1                 0.0000
     41 ****         1.5551  -0.2536  -2.1693 LP             1 S1                 0.0000
     42 ****         3.2281  -0.6019  -2.4520 LP             1 S1                 0.0000
     43 ****         5.5754  -2.3389  -1.2311 LP             1 S1                 0.0000
     44 ****         4.4895   2.1885  -0.6548 LP             1 S1                 0.0000
     45 ****         5.6168   2.8500  -1.7913 LP             1 S1                 0.0000
@<TRIPOS>BOND
    1    1    2 1     
    2    1   20 1     
    3    1   21 1     
    4    1   22 1     
    5    2    3 1     
    6    2    4 1     
    7    2   23 1     
    8    3   24 1     
    9    3   25 1     
   10    3   26 1     
   11    4   19 1     
   12    4    5 1     
   13    4   40 1     
   14    5    6 1     
   15    5   27 1     
   16    5   28 1     
   17    6    7 1     
   18    6   29 1     
   19    6   30 1     
   20    7    8 1     
   21    7   18 1     
   22    7   31 1     
   23    8    9 am    
   24    8   32 1     
   25    9   10 2     
   26    9   11 1     
   27   11   12 1     
   28   11   33 1     
   29   11   34 1     
   30   12   16 am    
   31   12   13 1     
   32   13   14 2     
   33   14   15 1     
   34   14   35 1     
   35   15   16 1     
   36   16   17 2     
   37   18   19 1     
   38   18   36 1     
   39   18   37 1     
   40   19   38 1     
   41   19   39 1     
   42   10   41 1     
   43   10   42 1     
   44   13   43 1     
   45   17   44 1     
   46   17   45 1     
@<TRIPOS>SUBSTRUCTURE
      1 S1             1
@<TRIPOS>SET
LONE_PAIRS      STATIC     ATOMS    <user>   **** ""
5 41 42 43 44 45
DONOR_HYDROGENS      STATIC     ATOMS    <user>   **** ""
2 40 32
ATOM$BLUE        STATIC     ATOMS    COLORGROUP SYSTEM
5 41 42 43 44 45
ATOM$RED        STATIC     ATOMS    COLORGROUP SYSTEM
2 40 32
