AV-unprocessed.smi:674|AV-procd|sdf|3301|dock3
  -GOLD-   22720 0263D 1   1.00000     0.00000
 Structure written by MMmdl.
 47 48  0  0  0  0  0  0  0  0  1 V2000
  146.1870  130.0471  152.0159 C   0  0  0  0  0  0  0  0  0  0  0  0
  145.0312  130.7813  151.3266 C   0  0  0  0  0  0  0  0  0  0  0  0
  145.2141  132.2724  151.3588 C   0  0  0  0  0  0  0  0  0  0  0  0
  146.2561  133.0125  151.9890 C   0  0  0  0  0  0  0  0  0  0  0  0
  145.9168  134.3087  151.7122 C   0  0  0  0  0  0  0  0  0  0  0  0
  146.5520  135.4523  152.0828 N   0  0  0  0  0  0  0  0  0  0  0  0
  146.0409  136.5406  152.6848 C   0  0  0  0  0  0  0  0  0  0  0  0
  144.8731  136.6736  153.0514 O   0  0  0  0  0  0  0  0  0  0  0  0
  146.9763  137.4852  152.8504 N   0  0  0  0  0  0  0  0  0  0  0  0
  146.7346  138.7809  153.4757 C   0  0  2  0  0  0  0  0  0  0  0  0
  147.1218  139.9520  152.5760 C   0  0  0  0  0  0  0  0  0  0  0  0
  147.5903  140.6649  153.8579 C   0  0  2  0  0  0  0  0  0  0  0  0
  146.6002  141.6082  154.5593 C   0  0  0  0  0  0  0  0  0  0  0  0
  148.8467  141.3208  153.6805 O   0  0  0  0  0  0  0  0  0  0  0  0
  149.5792  141.6092  154.8648 C   0  0  0  0  0  0  0  0  0  0  0  0
  147.8376  139.2434  154.4611 C   0  0  0  0  0  0  0  0  0  0  0  0
  147.5230  139.0580  155.9489 C   0  0  0  0  0  0  0  0  0  0  0  0
  149.2463  138.6515  154.2528 C   0  0  0  0  0  0  0  0  0  0  0  0
  144.7543  134.3152  150.9709 N   0  0  0  0  0  0  0  0  0  0  0  0
  143.9888  135.4253  150.4371 C   0  0  0  0  0  0  0  0  0  0  0  0
  144.3257  133.0536  150.7541 N   0  0  0  0  0  0  0  0  0  0  0  0
  146.0375  128.9679  151.9816 H   0  0  0  0  0  0  0  0  0  0  0  0
  146.2702  130.3378  153.0637 H   0  0  0  0  0  0  0  0  0  0  0  0
  147.1383  130.2678  151.5306 H   0  0  0  0  0  0  0  0  0  0  0  0
  144.9525  130.4403  150.2939 H   0  0  0  0  0  0  0  0  0  0  0  0
  144.0903  130.5094  151.8065 H   0  0  0  0  0  0  0  0  0  0  0  0
  147.0969  132.6349  152.5510 H   0  0  0  0  0  0  0  0  0  0  0  0
  147.5381  135.4843  151.8702 H   0  0  0  0  0  0  0  0  0  0  0  0
  147.9144  137.2982  152.5281 H   0  0  0  0  0  0  0  0  0  0  0  0
  145.7253  138.8978  153.8778 H   0  0  0  0  0  0  0  0  0  0  0  0
  147.9310  139.7229  151.8798 H   0  0  0  0  0  0  0  0  0  0  0  0
  146.2824  140.4282  152.0688 H   0  0  0  0  0  0  0  0  0  0  0  0
  145.6786  141.0969  154.8369 H   0  0  0  0  0  0  0  0  0  0  0  0
  146.3065  142.4393  153.9188 H   0  0  0  0  0  0  0  0  0  0  0  0
  147.0282  142.0265  155.4704 H   0  0  0  0  0  0  0  0  0  0  0  0
  150.4615  142.1934  154.6043 H   0  0  0  0  0  0  0  0  0  0  0  0
  149.9267  140.7028  155.3598 H   0  0  0  0  0  0  0  0  0  0  0  0
  148.9950  142.1951  155.5747 H   0  0  0  0  0  0  0  0  0  0  0  0
  148.1801  139.6638  156.5735 H   0  0  0  0  0  0  0  0  0  0  0  0
  147.6413  138.0184  156.2566 H   0  0  0  0  0  0  0  0  0  0  0  0
  146.4974  139.3376  156.1882 H   0  0  0  0  0  0  0  0  0  0  0  0
  149.9891  139.1682  154.8615 H   0  0  0  0  0  0  0  0  0  0  0  0
  149.5780  138.7244  153.2170 H   0  0  0  0  0  0  0  0  0  0  0  0
  149.2843  137.5964  154.5256 H   0  0  0  0  0  0  0  0  0  0  0  0
  144.5020  136.3702  150.6155 H   0  0  0  0  0  0  0  0  0  0  0  0
  143.0100  135.4587  150.9164 H   0  0  0  0  0  0  0  0  0  0  0  0
  143.8552  135.2967  149.3627 H   0  0  0  0  0  0  0  0  0  0  0  0
  1  2  1  0  0  0  0
  1 22  1  0  0  0  0
  1 23  1  0  0  0  0
  1 24  1  0  0  0  0
  2  3  1  0  0  0  0
  2 25  1  0  0  0  0
  2 26  1  0  0  0  0
  3 21  2  0  0  0  0
  3  4  1  0  0  0  0
  4  5  2  0  0  0  0
  4 27  1  0  0  0  0
  5  6  1  0  0  0  0
  5 19  1  0  0  0  0
  6  7  1  0  0  0  0
  6 28  1  0  0  0  0
  7  8  2  0  0  0  0
  7  9  1  0  0  0  0
  9 10  1  0  0  0  0
  9 29  1  0  0  0  0
 10 16  1  0  0  0  0
 10 11  1  0  0  0  0
 10 30  1  0  0  0  0
 11 12  1  0  0  0  0
 11 31  1  0  0  0  0
 11 32  1  0  0  0  0
 12 13  1  0  0  0  0
 12 14  1  0  0  0  0
 12 16  1  0  0  0  0
 13 33  1  0  0  0  0
 13 34  1  0  0  0  0
 13 35  1  0  0  0  0
 14 15  1  0  0  0  0
 15 36  1  0  0  0  0
 15 37  1  0  0  0  0
 15 38  1  0  0  0  0
 16 17  1  0  0  0  0
 16 18  1  0  0  0  0
 17 39  1  0  0  0  0
 17 40  1  0  0  0  0
 17 41  1  0  0  0  0
 18 42  1  0  0  0  0
 18 43  1  0  0  0  0
 18 44  1  0  0  0  0
 19 20  1  0  0  0  0
 19 21  1  0  0  0  0
 20 45  1  0  0  0  0
 20 46  1  0  0  0  0
 20 47  1  0  0  0  0
M  END
> <s_m_source_file>
AV-unprocessed.smi

> <i_m_source_file_index>
674

> <i_lp_mmshare_version>
43012

> <i_f3d_flags>
0

> <s_epik_input>
W0NIM11bQ0gyXWMxW2NIXWMobihuMSlbQ0gzXSlbTkhdQyg9TylbTkhdW0NAQEhdKEMyKFtDSDNdKVtDSDNdKVtDSDJdW0NAQF0yKFtDSDNdKU9bQ0gzXQ==

> <s_epik_cmdline>
J2VwaWtfcHl0aG9uJywgJy1waCcsICc3LjAnLCAnLXRuJywgJzgnLCAnLW1hJywgJzIwMCcsICctbWV0YWxfYmluZGluZycsICctaW1hZScsICc8aW5maWxlLm1hZT4nLCAnLW9tYWUnLCAnPG91dGZpbGUubWFlPic=

> <r_lp_tautomer_probability>
1

> <r_epik_Ionization_Penalty>
0.000101626

> <r_epik_Ionization_Penalty_Charging>
0

> <r_epik_Ionization_Penalty_Neutral>
0.000101626

> <r_epik_State_Penalty>
-0

> <r_epik_Charging_Adjusted_Penalty>
0

> <i_epik_Tot_Q>
0

> <i_epik_Tot_abs_Q>
0

> <r_epik_Metal_State_Penalty>
-0

> <b_epik_Metal_Only>
0

> <s_lp_Force_Field>
OPLS_2005

> <r_lp_Energy>
22.7641

> <b_lp_Chiralities_Consistent>
1

> <s_lp_Variant>
AV-unprocessed.smi:674-3

> <Gold.Version>
5.8.1

> <Gold.Id.Protein>
6NUR|6NUR_protein|mol2

> <Gold.PLP.Fitness>
39.6614

> <Gold.PLP.PLP>
-32.3634

> <Gold.PLP.part.hbond>
-2.9364

> <Gold.PLP.part.metal>
0.0000

> <Gold.PLP.part.buried>
-1.9173

> <Gold.PLP.part.nonpolar>
-30.3301

> <Gold.PLP.part.repulsive>
1.8115

> <Gold.PLP.ligand.clash>
0.0000

> <Gold.PLP.ligand.torsion>
0.7030

> <Gold.PLP.Chemscore.Hbond>
2.7760

> <Gold.PLP.Chemscore.CHOScore>
0.0000

> <Gold.PLP.Chemscore.Metal>
0.0000

> <Gold.Chemscore.Hbonds>
donor molecule, donor type, donor heavy atom, donor atom, acceptor molecule, acceptor atom, score
      L1  H     6    28       P1  7948  1.00
      L1  H     9    29       P1  7948  0.96
      P1  H  8011  8017       L1    14  0.85

> <Gold.PLP.Chemscore.Internal.Correction>
0.3760

> <Gold.Rescore>
     Score         DG    S(hbond)    S(metal)    S(lipo)     H(rot)  DE(clash)    DE(int)     intcor
     15.76     -19.54       2.39        0.00      81.91       1.37       1.95       1.82       ----

> <Gold.Chemscore.Fitness>
15.7638

> <Gold.Chemscore.DG>
-19.5375

> <Gold.Chemscore.ZeroCoef>
-5.4800

> <Gold.Chemscore.Hbond>
2.3863

> <Gold.Chemscore.Metal>
0.0000

> <Gold.Chemscore.Lipo>
81.9096

> <Gold.Chemscore.Internal_Hbond>
0.0000

> <Gold.Chemscore.DEClash>
1.9507

> <Gold.Chemscore.DEInternal>
1.8230

> <Gold.Chemscore.Rot>
1.3658

> <Gold.Chemscore.Internal.Correction>
   9.000000E+99

> <Gold.Chemscore.Hbonds>
donor molecule, donor type, donor heavy atom, donor atom, acceptor molecule, acceptor atom, score
      L1  H     6    28       P1  7948  0.92
      L1  H     9    29       P1  7948  0.91
      P1  H  8011  8017       L1    14  0.28

> <Gold.Chemscore.Hbond.Weighted>
-7.9704

> <Gold.Chemscore.Metal.Weighted>
-0.0000

> <Gold.Chemscore.Lipo.Weighted>
-9.5834

> <Gold.Chemscore.Internal_Hbond.Weighted>
0.0000

> <Gold.Chemscore.DEClash.Weighted>
1.9507

> <Gold.Chemscore.DEInternal.Weighted>
1.8230

> <Gold.Chemscore.Rot.Weighted>
3.4963

> <Gold.Chemscore.Internal.Correction.Weighted>
   9.000000E+99

> <Gold.Protein.RotatedTorsions>
[ 6907 6896 6895 6894 ] final  -68.12 input  -60.11 | X-H torsion
[ 7974 7965 7964 7962 ] final  141.93 input  175.53 | X-H torsion
[ 8008 7997 7996 7995 ] final   95.37 input   59.86 | X-H torsion
[ 10167 10162 10161 10158 ] final -156.87 input  -65.29 | X-H torsion
[ 10718 10713 10712 10709 ] final  169.42 input   66.30 | X-H torsion
[ 10763 10752 10751 10750 ] final  174.98 input  -60.55 | X-H torsion
[ 11005 11000 10999 10996 ] final -169.50 input  -57.11 | X-H torsion

> <Gold.Protein.ActiveResidues>
 VAL166  LYS551  ARG553  GLY616  TRP617  ASP618  TYR619  PRO620  LYS621  CYS622 
 ASP623  PHE694  ASN695  SER759  ASP760  ASP761  ALA762  ILE779  LEU786  VAL792 
 PHE793  MET794  SER795  GLU796  ALA797  LYS798  CYS799  TRP800  GLU811  SER814 

> <Gold.Protein.RotatedAtoms>
  150.7373  134.5784  159.5925 H   0  0  0  0  0  0  0  0  0  0  0  0  # atno 6907 bound_to 6896
  152.3204  134.7384  160.0324 H   0  0  0  0  0  0  0  0  0  0  0  0  # atno 6908 bound_to 6896
  151.7901  133.3323  159.3533 H   0  0  0  0  0  0  0  0  0  0  0  0  # atno 6909 bound_to 6896
  144.9052  139.5368  143.5735 H   0  0  0  0  0  0  0  0  0  0  0  0  # atno 7974 bound_to 7965
  156.0681  140.3287  155.7543 H   0  0  0  0  0  0  0  0  0  0  0  0  # atno 8008 bound_to 7997
  155.5348  140.0596  157.2899 H   0  0  0  0  0  0  0  0  0  0  0  0  # atno 8009 bound_to 7997
  154.4516  140.1921  156.0520 H   0  0  0  0  0  0  0  0  0  0  0  0  # atno 8010 bound_to 7997
  139.6816  143.9572  152.2339 H   0  0  0  0  0  0  0  0  0  0  0  0  # atno 10167 bound_to 10162
  157.0229  131.0237  151.2769 H   0  0  0  0  0  0  0  0  0  0  0  0  # atno 10718 bound_to 10713
  154.4614  135.2768  155.1710 H   0  0  0  0  0  0  0  0  0  0  0  0  # atno 10763 bound_to 10752
  154.3496  135.6153  153.5640 H   0  0  0  0  0  0  0  0  0  0  0  0  # atno 10764 bound_to 10752
  152.9855  135.5808  154.4977 H   0  0  0  0  0  0  0  0  0  0  0  0  # atno 10765 bound_to 10752
  140.5300  134.5625  157.5072 H   0  0  0  0  0  0  0  0  0  0  0  0  # atno 11005 bound_to 11000
  146.3130  139.7814  142.9005 LP  0  0  0  0  0  0  0  0  0  0  0  0  # atno 17320 bound_to 7965
  145.3548  141.0314  143.3318 LP  0  0  0  0  0  0  0  0  0  0  0  0  # atno 17321 bound_to 7965
  139.9363  144.6709  150.8311 LP  0  0  0  0  0  0  0  0  0  0  0  0  # atno 17342 bound_to 10162
  140.7654  143.3274  151.2485 LP  0  0  0  0  0  0  0  0  0  0  0  0  # atno 17343 bound_to 10162
  157.5236  130.8013  149.7836 LP  0  0  0  0  0  0  0  0  0  0  0  0  # atno 17370 bound_to 10713
  156.0096  130.3839  150.2311 LP  0  0  0  0  0  0  0  0  0  0  0  0  # atno 17371 bound_to 10713
  139.9559  134.7536  156.0343 LP  0  0  0  0  0  0  0  0  0  0  0  0  # atno 17394 bound_to 11000
  141.1286  133.6592  156.3404 LP  0  0  0  0  0  0  0  0  0  0  0  0  # atno 17395 bound_to 11000

$$$$
