#       Name:                AV-unprocessed.smi:1794
#       Creating user name   scv26
#       Creation time:       Fri Mar 27 08:47:49 2020


#       File generated by GOLD software.
#

@<TRIPOS>MOLECULE
AV-unprocessed.smi:1794
    61    63     1
SMALL
NO_CHARGES


@<TRIPOS>ATOM
      1 ****        -2.2224  -1.7422  -0.5046 C.3            1 S1                 0.0000
      2 ****        -1.7828  -0.8787  -1.7141 C.3            1 S1                 0.0000
      3 ****        -2.4106   0.5201  -1.4913 C.3            1 S1                 0.0000
      4 ****        -0.2295  -0.7541  -1.7613 C.3            1 S1                 0.0000
      5 ****         0.3388  -0.1436  -0.5596 N.am           1 S1                 0.0000
      6 ****         0.9015  -0.8051   0.4620 C.2            1 S1                 0.0000
      7 ****         1.0253  -2.0286   0.4854 O.2            1 S1                 0.0000
      8 ****         1.2857   0.0470   1.4280 N.am           1 S1                 0.0000
      9 ****         1.8657  -0.2018   2.7087 C.ar           1 S1                 0.0000
     10 ****         2.1563  -1.5034   3.1923 C.ar           1 S1                 0.0000
     11 ****         2.6851  -1.6593   4.4852 C.ar           1 S1                 0.0000
     12 ****         2.9028  -0.5087   5.2595 C.ar           1 S1                 0.0000
     13 ****         2.6372   0.7354   4.8164 N.ar           1 S1                 0.0000
     14 ****         2.1397   0.9031   3.5667 C.ar           1 S1                 0.0000
     15 ****         1.9020   2.2320   3.1475 N.3            1 S1                 0.0000
     16 ****         1.8020   3.3100   4.1267 C.3            1 S1                 0.0000
     17 ****         1.9985   4.5939   3.3254 C.3            1 S1                 0.0000
     18 ****         3.0151   4.1662   2.2720 C.3            1 S1                 0.0000
     19 ****         2.6436   2.7081   1.9834 C.3            1 S1                 0.0000
     20 ****        -2.3248  -1.4847  -2.9838 N.4            1 S1                 1.0000
     21 ****        -2.1363  -0.6782  -4.2231 C.3            1 S1                 0.0000
     22 ****        -2.8965  -1.3113  -5.4005 C.3            1 S1                 0.0000
     23 ****        -2.4499  -2.6450  -5.5978 O.3            1 S1                 0.0000
     24 ****        -2.7006  -3.4556  -4.4587 C.3            1 S1                 0.0000
     25 ****        -1.9339  -2.8990  -3.2473 C.3            1 S1                 0.0000
     26 ****        -2.0445  -1.2334   0.4433 H              1 S1                 0.0000
     27 ****        -1.6776  -2.6843  -0.4484 H              1 S1                 0.0000
     28 ****        -3.2880  -1.9711  -0.5450 H              1 S1                 0.0000
     29 ****        -2.1972   0.9037  -0.4929 H              1 S1                 0.0000
     30 ****        -3.4959   0.4901  -1.5955 H              1 S1                 0.0000
     31 ****        -2.0255   1.2644  -2.1879 H              1 S1                 0.0000
     32 ****         0.2373  -1.7239  -1.9358 H              1 S1                 0.0000
     33 ****         0.0761  -0.1242  -2.5959 H              1 S1                 0.0000
     34 ****         0.2827   0.8624  -0.4946 H              1 S1                 0.0000
     35 ****         1.1144   1.0229   1.2346 H              1 S1                 0.0000
     36 ****         1.9827  -2.3949   2.6136 H              1 S1                 0.0000
     37 ****         2.9113  -2.6404   4.8758 H              1 S1                 0.0000
     38 ****         3.3016  -0.5880   6.2600 H              1 S1                 0.0000
     39 ****         0.8377   3.2939   4.6351 H              1 S1                 0.0000
     40 ****         2.5874   3.2325   4.8793 H              1 S1                 0.0000
     41 ****         1.0626   4.8832   2.8455 H              1 S1                 0.0000
     42 ****         2.3409   5.4290   3.9371 H              1 S1                 0.0000
     43 ****         2.9963   4.7933   1.3804 H              1 S1                 0.0000
     44 ****         4.0197   4.2117   2.6945 H              1 S1                 0.0000
     45 ****         3.5292   2.1038   1.7818 H              1 S1                 0.0000
     46 ****         1.9939   2.6568   1.1095 H              1 S1                 0.0000
     47 ****        -2.5043   0.3384  -4.1006 H              1 S1                 0.0000
     48 ****        -1.0776  -0.6105  -4.4733 H              1 S1                 0.0000
     49 ****        -3.9733  -1.2959  -5.2229 H              1 S1                 0.0000
     50 ****        -2.7171  -0.7417  -6.3126 H              1 S1                 0.0000
     51 ****        -3.7719  -3.5010  -4.2557 H              1 S1                 0.0000
     52 ****        -2.3748  -4.4737  -4.6728 H              1 S1                 0.0000
     53 ****        -0.8630  -2.9671  -3.4389 H              1 S1                 0.0000
     54 ****        -2.1499  -3.5414  -2.3961 H              1 S1                 0.0000
     55 ****        -3.3243  -1.5131  -2.8409 H              1 S1                 0.0000
     56 ****         0.6983  -2.5790  -0.2828 LP             1 S1                 0.0000
     57 ****         1.4529  -2.4729   1.2727 LP             1 S1                 0.0000
     58 ****         2.8053   1.5273   5.4035 LP             1 S1                 0.0000
     59 ****         0.9572   2.0385   2.8831 LP             1 S1                 0.0000
     60 ****        -1.4664  -2.6343  -5.7781 LP             1 S1                 0.0000
     61 ****        -2.9288  -3.0343  -6.3846 LP             1 S1                 0.0000
@<TRIPOS>BOND
    1    1    2 1     
    2    1   26 1     
    3    1   27 1     
    4    1   28 1     
    5    2    3 1     
    6    2    4 1     
    7    2   20 1     
    8    3   29 1     
    9    3   30 1     
   10    3   31 1     
   11    4    5 1     
   12    4   32 1     
   13    4   33 1     
   14    5    6 am    
   15    5   34 1     
   16    6    7 2     
   17    6    8 am    
   18    8    9 1     
   19    8   35 1     
   20    9   14 ar    
   21    9   10 ar    
   22   10   11 ar    
   23   10   36 1     
   24   11   12 ar    
   25   11   37 1     
   26   12   13 ar    
   27   12   38 1     
   28   13   14 ar    
   29   14   15 1     
   30   15   19 1     
   31   15   16 1     
   32   16   17 1     
   33   16   39 1     
   34   16   40 1     
   35   17   18 1     
   36   17   41 1     
   37   17   42 1     
   38   18   19 1     
   39   18   43 1     
   40   18   44 1     
   41   19   45 1     
   42   19   46 1     
   43   20   25 1     
   44   20   21 1     
   45   20   55 1     
   46   21   22 1     
   47   21   47 1     
   48   21   48 1     
   49   22   23 1     
   50   22   49 1     
   51   22   50 1     
   52   23   24 1     
   53   24   25 1     
   54   24   51 1     
   55   24   52 1     
   56   25   53 1     
   57   25   54 1     
   58    7   56 1     
   59    7   57 1     
   60   13   58 1     
   61   15   59 1     
   62   23   60 1     
   63   23   61 1     
@<TRIPOS>SUBSTRUCTURE
      1 S1             1
@<TRIPOS>SET
LONE_PAIRS      STATIC     ATOMS    <user>   **** ""
6 56 57 58 59 60 61
DONOR_HYDROGENS      STATIC     ATOMS    <user>   **** ""
3 34 35 55
ATOM$BLUE        STATIC     ATOMS    COLORGROUP SYSTEM
6 56 57 58 59 60 61
ATOM$RED        STATIC     ATOMS    COLORGROUP SYSTEM
3 34 35 55
