AV-unprocessed.smi:965|AV-procd|sdf|4282|dock6
  -GOLD-   22720 2193D 1   1.00000     0.00000
 Structure written by MMmdl.
 29 30  0  0  0  0  0  0  0  0  2 V2000
  155.5028  139.8664  162.3057 C   0  0  0  0  0  0  0  0  0  0  0  0
  155.2602  139.3969  160.8676 C   0  0  0  0  0  0  0  0  0  0  0  0
  154.2433  140.2273  160.1586 C   0  0  0  0  0  0  0  0  0  0  0  0
  153.6010  141.2912  160.6345 N   0  0  0  0  0  0  0  0  0  0  0  0
  152.7732  141.5862  159.5931 C   0  0  0  0  0  0  0  0  0  0  0  0
  151.8134  142.7360  159.6145 C   0  0  1  0  0  0  0  0  0  0  0  0
  152.4868  144.0468  160.0636 C   0  0  0  0  0  0  0  0  0  0  0  0
  151.4710  145.1997  160.0602 C   0  0  0  0  0  0  0  0  0  0  0  0
  150.7782  145.3184  158.6922 C   0  0  0  0  0  0  0  0  0  0  0  0
  150.1333  144.0402  158.3192 N   0  3  0  0  0  0  0  0  0  0  0  0
  151.0823  142.9059  158.2674 C   0  0  0  0  0  0  0  0  0  0  0  0
  152.8618  140.7832  158.5395 N   0  0  0  0  0  0  0  0  0  0  0  0
  153.8425  139.8558  158.9192 O   0  0  0  0  0  0  0  0  0  0  0  0
  156.2468  139.2407  162.7989 H   0  0  0  0  0  0  0  0  0  0  0  0
  154.5859  139.8207  162.8940 H   0  0  0  0  0  0  0  0  0  0  0  0
  155.8648  140.8948  162.3274 H   0  0  0  0  0  0  0  0  0  0  0  0
  156.1933  139.4270  160.3040 H   0  0  0  0  0  0  0  0  0  0  0  0
  154.9268  138.3586  160.8668 H   0  0  0  0  0  0  0  0  0  0  0  0
  151.0504  142.5030  160.3602 H   0  0  0  0  0  0  0  0  0  0  0  0
  152.9166  143.9307  161.0594 H   0  0  0  0  0  0  0  0  0  0  0  0
  153.3123  144.2907  159.3934 H   0  0  0  0  0  0  0  0  0  0  0  0
  150.7234  145.0321  160.8368 H   0  0  0  0  0  0  0  0  0  0  0  0
  151.9699  146.1368  160.3087 H   0  0  0  0  0  0  0  0  0  0  0  0
  150.0228  146.1042  158.7177 H   0  0  0  0  0  0  0  0  0  0  0  0
  151.5004  145.5949  157.9229 H   0  0  0  0  0  0  0  0  0  0  0  0
  149.4185  143.8310  159.0014 H   0  0  0  0  0  0  0  0  0  0  0  0
  151.7972  143.0815  157.4621 H   0  0  0  0  0  0  0  0  0  0  0  0
  150.5332  141.9984  158.0146 H   0  0  0  0  0  0  0  0  0  0  0  0
  149.6981  144.1442  157.4135 H   0  0  0  0  0  0  0  0  0  0  0  0
  1  2  1  0  0  0  0
  1 14  1  0  0  0  0
  1 15  1  0  0  0  0
  1 16  1  0  0  0  0
  2  3  1  0  0  0  0
  2 17  1  0  0  0  0
  2 18  1  0  0  0  0
  3 13  1  0  0  0  0
  3  4  2  0  0  0  0
  4  5  1  0  0  0  0
  5  6  1  0  0  0  0
  5 12  2  0  0  0  0
  6 11  1  0  0  0  0
  6  7  1  0  0  0  0
  6 19  1  0  0  0  0
  7  8  1  0  0  0  0
  7 20  1  0  0  0  0
  7 21  1  0  0  0  0
  8  9  1  0  0  0  0
  8 22  1  0  0  0  0
  8 23  1  0  0  0  0
  9 10  1  0  0  0  0
  9 24  1  0  0  0  0
  9 25  1  0  0  0  0
 10 11  1  0  0  0  0
 10 26  1  0  0  0  0
 10 29  1  0  0  0  0
 11 27  1  0  0  0  0
 11 28  1  0  0  0  0
 12 13  1  0  0  0  0
M  CHG  1  10   1
M  END
> <s_m_source_file>
AV-unprocessed.smi

> <i_m_source_file_index>
965

> <i_lp_mmshare_version>
43012

> <i_f3d_flags>
0

> <s_epik_input>
W0NIM11bQ0gyXWMxbmMobm8xKVtDQEBIXTJbQ0gyXVtDSDJdW0NIMl1bTkhdW0NIMl0y

> <s_epik_cmdline>
J2VwaWtfcHl0aG9uJywgJy1waCcsICc3LjAnLCAnLXRuJywgJzgnLCAnLW1hJywgJzIwMCcsICctbWV0YWxfYmluZGluZycsICctaW1hZScsICc8aW5maWxlLm1hZT4nLCAnLW9tYWUnLCAnPG91dGZpbGUubWFlPic=

> <r_lp_tautomer_probability>
1

> <r_epik_Ionization_Penalty>
0.000532935

> <r_epik_Ionization_Penalty_Charging>
0.000532935

> <r_epik_Ionization_Penalty_Neutral>
3.47051e-13

> <r_epik_State_Penalty>
0.000332992

> <r_epik_Charging_Adjusted_Penalty>
0.000865928

> <i_epik_Tot_Q>
1

> <i_epik_Tot_abs_Q>
1

> <r_epik_Metal_State_Penalty>
-0

> <b_epik_Metal_Only>
0

> <s_lp_Force_Field>
OPLS_2005

> <r_lp_Energy>
5.49554

> <b_lp_Chiralities_Consistent>
1

> <s_lp_Variant>
AV-unprocessed.smi:965-2

> <Gold.Version>
5.8.1

> <Gold.Id.Protein>
6NUR|6NUR_protein|mol2

> <Gold.PLP.Fitness>
35.4930

> <Gold.PLP.PLP>
-26.9194

> <Gold.PLP.part.hbond>
-3.2786

> <Gold.PLP.part.metal>
0.0000

> <Gold.PLP.part.buried>
-2.4031

> <Gold.PLP.part.nonpolar>
-21.3686

> <Gold.PLP.part.repulsive>
0.0687

> <Gold.PLP.ligand.clash>
0.0000

> <Gold.PLP.ligand.torsion>
0.1521

> <Gold.PLP.Chemscore.Hbond>
2.9424

> <Gold.PLP.Chemscore.CHOScore>
0.0000

> <Gold.PLP.Chemscore.Metal>
0.0000

> <Gold.Chemscore.Hbonds>
donor molecule, donor type, donor heavy atom, donor atom, acceptor molecule, acceptor atom, score
      L1  H    10    29       P1  8028  2.00
      P1  H  7997  8010       L1    13  0.89

> <Gold.PLP.Chemscore.Internal.Correction>
0.0506

> <Gold.Rescore>
     Score         DG    S(hbond)    S(metal)    S(lipo)     H(rot)  DE(clash)    DE(int)     intcor
     13.19     -13.33       0.91        0.00      68.37       1.24       0.07       0.08       ----

> <Gold.Chemscore.Fitness>
13.1872

> <Gold.Chemscore.DG>
-13.3328

> <Gold.Chemscore.ZeroCoef>
-5.4800

> <Gold.Chemscore.Hbond>
0.9060

> <Gold.Chemscore.Metal>
0.0000

> <Gold.Chemscore.Lipo>
68.3686

> <Gold.Chemscore.Internal_Hbond>
0.0000

> <Gold.Chemscore.DEClash>
0.0665

> <Gold.Chemscore.DEInternal>
0.0791

> <Gold.Chemscore.Rot>
1.2392

> <Gold.Chemscore.Internal.Correction>
   9.000000E+99

> <Gold.Chemscore.Hbonds>
donor molecule, donor type, donor heavy atom, donor atom, acceptor molecule, acceptor atom, score
      L1  H    10    29       P1  8028  0.34
      P1  H  7997  8010       L1    13  0.16

> <Gold.Chemscore.Hbond.Weighted>
-3.0260

> <Gold.Chemscore.Metal.Weighted>
-0.0000

> <Gold.Chemscore.Lipo.Weighted>
-7.9991

> <Gold.Chemscore.Internal_Hbond.Weighted>
0.0000

> <Gold.Chemscore.DEClash.Weighted>
0.0665

> <Gold.Chemscore.DEInternal.Weighted>
0.0791

> <Gold.Chemscore.Rot.Weighted>
3.1723

> <Gold.Chemscore.Internal.Correction.Weighted>
   9.000000E+99

> <Gold.Protein.RotatedTorsions>
[ 6907 6896 6895 6894 ] final  -49.39 input  -60.11 | X-H torsion
[ 7974 7965 7964 7962 ] final -127.35 input  175.53 | X-H torsion
[ 8008 7997 7996 7995 ] final    2.99 input   59.86 | X-H torsion
[ 10167 10162 10161 10158 ] final   96.86 input  -65.29 | X-H torsion
[ 10718 10713 10712 10709 ] final  -82.71 input   66.30 | X-H torsion
[ 10763 10752 10751 10750 ] final   11.50 input  -60.55 | X-H torsion
[ 11005 11000 10999 10996 ] final   34.81 input  -57.11 | X-H torsion

> <Gold.Protein.ActiveResidues>
 VAL166  LYS551  ARG553  GLY616  TRP617  ASP618  TYR619  PRO620  LYS621  CYS622 
 ASP623  PHE694  ASN695  SER759  ASP760  ASP761  ALA762  ILE779  LEU786  VAL792 
 PHE793  MET794  SER795  GLU796  ALA797  LYS798  CYS799  TRP800  GLU811  SER814 

> <Gold.Protein.RotatedAtoms>
  150.8810  134.8201  159.7224 H   0  0  0  0  0  0  0  0  0  0  0  0  # atno 6907 bound_to 6896
  152.4778  134.4796  159.9671 H   0  0  0  0  0  0  0  0  0  0  0  0  # atno 6908 bound_to 6896
  151.4871  133.3494  159.2883 H   0  0  0  0  0  0  0  0  0  0  0  0  # atno 6909 bound_to 6896
  144.9780  140.7612  143.4630 H   0  0  0  0  0  0  0  0  0  0  0  0  # atno 7974 bound_to 7965
  154.6982  140.2667  155.6745 H   0  0  0  0  0  0  0  0  0  0  0  0  # atno 8008 bound_to 7997
  156.2756  140.2777  156.1508 H   0  0  0  0  0  0  0  0  0  0  0  0  # atno 8009 bound_to 7997
  155.0801  140.0372  157.2626 H   0  0  0  0  0  0  0  0  0  0  0  0  # atno 8010 bound_to 7997
  139.7854  144.6872  150.9964 H   0  0  0  0  0  0  0  0  0  0  0  0  # atno 10167 bound_to 10162
  156.0029  130.4643  150.4146 H   0  0  0  0  0  0  0  0  0  0  0  0  # atno 10718 bound_to 10713
  153.1920  135.6843  153.8341 H   0  0  0  0  0  0  0  0  0  0  0  0  # atno 10763 bound_to 10752
  153.7637  135.3206  155.3342 H   0  0  0  0  0  0  0  0  0  0  0  0  # atno 10764 bound_to 10752
  154.8122  135.4709  154.0647 H   0  0  0  0  0  0  0  0  0  0  0  0  # atno 10765 bound_to 10752
  140.2490  134.3325  155.7897 H   0  0  0  0  0  0  0  0  0  0  0  0  # atno 11005 bound_to 11000
  145.2462  139.2051  143.4966 LP  0  0  0  0  0  0  0  0  0  0  0  0  # atno 17320 bound_to 7965
  146.3400  140.2366  142.8594 LP  0  0  0  0  0  0  0  0  0  0  0  0  # atno 17321 bound_to 7965
  140.7819  143.4437  151.0513 LP  0  0  0  0  0  0  0  0  0  0  0  0  # atno 17342 bound_to 10162
  139.8116  143.7943  152.3171 LP  0  0  0  0  0  0  0  0  0  0  0  0  # atno 17343 bound_to 10162
  157.2207  131.0481  151.2548 LP  0  0  0  0  0  0  0  0  0  0  0  0  # atno 17370 bound_to 10713
  157.3803  130.7228  149.6626 LP  0  0  0  0  0  0  0  0  0  0  0  0  # atno 17371 bound_to 10713
  141.2203  133.7342  156.9007 LP  0  0  0  0  0  0  0  0  0  0  0  0  # atno 17394 bound_to 11000
  140.1577  134.9187  157.2674 LP  0  0  0  0  0  0  0  0  0  0  0  0  # atno 17395 bound_to 11000

$$$$
