AV-unprocessed.smi:196|AV-procd|sdf|1528|dock6
  -GOLD-   2262019373D 1   1.00000     0.00000
 Structure written by MMmdl.
 47 50  0  0  0  0  0  0  0  0  1 V2000
  142.5528  134.5266  152.5582 C   0  0  0  0  0  0  0  0  0  0  0  0
  143.6934  134.3813  151.5387 C   0  0  2  0  0  0  0  0  0  0  0  0
  144.4123  133.1920  151.8529 O   0  0  0  0  0  0  0  0  0  0  0  0
  145.7539  133.3488  151.4275 C   0  0  0  0  0  0  0  0  0  0  0  0
  146.0552  134.7838  151.8304 C   0  0  0  0  0  0  0  0  0  0  0  0
  144.7557  135.5166  151.5028 C   0  0  1  0  0  0  0  0  0  0  0  0
  144.8491  135.9790  150.1657 O   0  0  0  0  0  0  0  0  0  0  0  0
  144.4894  136.7386  152.4211 C   0  0  0  0  0  0  0  0  0  0  0  0
  145.6926  137.4877  152.7489 N   0  0  0  0  0  0  0  0  0  0  0  0
  146.3367  138.4053  151.9511 C   0  0  0  0  0  0  0  0  0  0  0  0
  147.3971  138.9526  152.4785 N   0  0  0  0  0  0  0  0  0  0  0  0
  147.5030  138.3589  153.7317 C   0  0  0  0  0  0  0  0  0  0  0  0
  148.4103  138.4911  154.8233 C   0  0  0  0  0  0  0  0  0  0  0  0
  149.4769  139.3351  154.8133 N   0  0  0  0  0  0  0  0  0  0  0  0
  150.8260  138.7861  154.7418 C   0  0  0  0  0  0  0  0  0  0  0  0
  151.7010  139.7361  155.5594 C   0  0  2  0  0  0  0  0  0  0  0  0
  151.7503  139.3163  156.8248 F   0  0  0  0  0  0  0  0  0  0  0  0
  150.9429  141.0581  155.4915 C   0  0  0  0  0  0  0  0  0  0  0  0
  149.4645  140.6351  155.4919 C   0  0  1  0  0  0  0  0  0  0  0  0
  148.5879  141.6725  154.7722 C   0  0  0  0  0  0  0  0  0  0  0  0
  147.6419  142.2696  155.5005 N   0  0  0  0  0  0  0  0  0  0  0  0
  148.7675  141.9417  153.5854 O   0  0  0  0  0  0  0  0  0  0  0  0
  148.1707  137.7303  155.9246 N   0  0  0  0  0  0  0  0  0  0  0  0
  147.1300  136.8937  155.9595 C   0  0  0  0  0  0  0  0  0  0  0  0
  146.2114  136.6662  155.0197 N   0  0  0  0  0  0  0  0  0  0  0  0
  146.4365  137.4327  153.9147 C   0  0  0  0  0  0  0  0  0  0  0  0
  152.7261  139.8021  155.1937 H   0  0  0  0  0  0  0  0  0  0  0  0
  149.1292  140.5014  156.5222 H   0  0  0  0  0  0  0  0  0  0  0  0
  141.9534  135.4158  152.3630 H   0  0  0  0  0  0  0  0  0  0  0  0
  142.9316  134.5857  153.5786 H   0  0  0  0  0  0  0  0  0  0  0  0
  141.8838  133.6672  152.5090 H   0  0  0  0  0  0  0  0  0  0  0  0
  143.2529  134.2427  150.5493 H   0  0  0  0  0  0  0  0  0  0  0  0
  146.4162  132.6271  151.9059 H   0  0  0  0  0  0  0  0  0  0  0  0
  145.8193  133.2198  150.3461 H   0  0  0  0  0  0  0  0  0  0  0  0
  146.2414  134.8111  152.9046 H   0  0  0  0  0  0  0  0  0  0  0  0
  146.9336  135.1952  151.3309 H   0  0  0  0  0  0  0  0  0  0  0  0
  144.4074  136.8123  150.1041 H   0  0  0  0  0  0  0  0  0  0  0  0
  143.7809  137.4220  151.9518 H   0  0  0  0  0  0  0  0  0  0  0  0
  144.0356  136.4191  153.3596 H   0  0  0  0  0  0  0  0  0  0  0  0
  145.9897  138.6640  150.9615 H   0  0  0  0  0  0  0  0  0  0  0  0
  150.8920  137.7644  155.1191 H   0  0  0  0  0  0  0  0  0  0  0  0
  151.1401  138.7836  153.6973 H   0  0  0  0  0  0  0  0  0  0  0  0
  151.1895  141.7257  156.3178 H   0  0  0  0  0  0  0  0  0  0  0  0
  151.2027  141.5707  154.5633 H   0  0  0  0  0  0  0  0  0  0  0  0
  147.0437  142.9647  155.0784 H   0  0  0  0  0  0  0  0  0  0  0  0
  147.5341  142.0280  156.4749 H   0  0  0  0  0  0  0  0  0  0  0  0
  147.0180  136.3257  156.8711 H   0  0  0  0  0  0  0  0  0  0  0  0
  1  2  1  0  0  0  0
  1 29  1  0  0  0  0
  1 30  1  0  0  0  0
  1 31  1  0  0  0  0
  2  6  1  0  0  0  0
  2  3  1  0  0  0  0
  2 32  1  0  0  0  0
  3  4  1  0  0  0  0
  4  5  1  0  0  0  0
  4 33  1  0  0  0  0
  4 34  1  0  0  0  0
  5  6  1  0  0  0  0
  5 35  1  0  0  0  0
  5 36  1  0  0  0  0
  6  7  1  0  0  0  0
  6  8  1  0  0  0  0
  7 37  1  0  0  0  0
  8  9  1  0  0  0  0
  8 38  1  0  0  0  0
  8 39  1  0  0  0  0
  9 26  1  0  0  0  0
  9 10  1  0  0  0  0
 10 11  2  0  0  0  0
 10 40  1  0  0  0  0
 11 12  1  0  0  0  0
 12 26  2  0  0  0  0
 12 13  1  0  0  0  0
 13 14  1  0  0  0  0
 13 23  2  0  0  0  0
 14 19  1  0  0  0  0
 14 15  1  0  0  0  0
 15 16  1  0  0  0  0
 15 41  1  0  0  0  0
 15 42  1  0  0  0  0
 16 27  1  0  0  0  0
 16 17  1  0  0  0  0
 16 18  1  0  0  0  0
 18 19  1  0  0  0  0
 18 43  1  0  0  0  0
 18 44  1  0  0  0  0
 19 28  1  0  0  0  0
 19 20  1  0  0  0  0
 20 21  1  0  0  0  0
 20 22  2  0  0  0  0
 21 45  1  0  0  0  0
 21 46  1  0  0  0  0
 23 24  1  0  0  0  0
 24 25  2  0  0  0  0
 24 47  1  0  0  0  0
 25 26  1  0  0  0  0
M  END
> <s_m_source_file>
AV-unprocessed.smi

> <i_m_source_file_index>
196

> <i_lp_mmshare_version>
43012

> <i_f3d_flags>
0

> <s_epik_input>
W0NIMl0xW0NIMl1PW0NAQEhdKFtDSDNdKVtDQEBdMShbT0hdKVtDSDJdbihbY0hdbjIpYyhjMjMpbltjSF1uYzNONFtDSDJdW0NASF0oRilbQ0gyXVtDQEhdNEMoPU8pW05IMl0=

> <s_epik_cmdline>
J2VwaWtfcHl0aG9uJywgJy1waCcsICc3LjAnLCAnLXRuJywgJzgnLCAnLW1hJywgJzIwMCcsICctbWV0YWxfYmluZGluZycsICctaW1hZScsICc8aW5maWxlLm1hZT4nLCAnLW9tYWUnLCAnPG91dGZpbGUubWFlPic=

> <r_lp_tautomer_probability>
1

> <r_epik_Ionization_Penalty>
0.000857933

> <r_epik_Ionization_Penalty_Charging>
0

> <r_epik_Ionization_Penalty_Neutral>
0.000857933

> <r_epik_State_Penalty>
0.000462053

> <r_epik_Charging_Adjusted_Penalty>
0.000462053

> <i_epik_Tot_Q>
0

> <i_epik_Tot_abs_Q>
0

> <r_epik_Metal_State_Penalty>
-0

> <b_epik_Metal_Only>
0

> <s_lp_Force_Field>
OPLS_2005

> <r_lp_Energy>
42.3005

> <b_lp_Chiralities_Consistent>
1

> <s_lp_Variant>
AV-unprocessed.smi:196-1

> <Gold.Version>
5.8.1

> <Gold.Id.Protein>
6NUR|6NUR_protein|mol2

> <Gold.PLP.Fitness>
39.3852

> <Gold.PLP.PLP>
-35.6309

> <Gold.PLP.part.hbond>
-3.6921

> <Gold.PLP.part.metal>
0.0000

> <Gold.PLP.part.buried>
-4.6808

> <Gold.PLP.part.nonpolar>
-30.5604

> <Gold.PLP.part.repulsive>
2.7092

> <Gold.PLP.ligand.clash>
0.0000

> <Gold.PLP.ligand.torsion>
2.0184

> <Gold.PLP.Chemscore.Hbond>
1.5120

> <Gold.PLP.Chemscore.CHOScore>
1.0000

> <Gold.PLP.Chemscore.Metal>
0.0000

> <Gold.Chemscore.Hbonds>
donor molecule, donor type, donor heavy atom, donor atom, acceptor molecule, acceptor atom, score
      L1  H     7    37       P1 10171  1.00
      P1  H  8011  8017       L1    22  0.51
      L1  C    10    40       P1 10171  1.00

> <Gold.PLP.Chemscore.Internal.Correction>
0.2550

> <Gold.Rescore>
     Score         DG    S(hbond)    S(metal)    S(lipo)     H(rot)  DE(clash)    DE(int)     intcor
      8.64     -10.62       1.55        0.00      56.44       2.60       0.02       1.96       ----

> <Gold.Chemscore.Fitness>
8.6407

> <Gold.Chemscore.DG>
-10.6221

> <Gold.Chemscore.ZeroCoef>
-5.4800

> <Gold.Chemscore.Hbond>
1.5526

> <Gold.Chemscore.Metal>
0.0000

> <Gold.Chemscore.Lipo>
56.4447

> <Gold.Chemscore.Internal_Hbond>
0.0000

> <Gold.Chemscore.DEClash>
0.0183

> <Gold.Chemscore.DEInternal>
1.9631

> <Gold.Chemscore.Rot>
2.5968

> <Gold.Chemscore.Internal.Correction>
   9.000000E+99

> <Gold.Chemscore.Hbonds>
donor molecule, donor type, donor heavy atom, donor atom, acceptor molecule, acceptor atom, score
      L1  H     7    37       P1 10171  1.00
      P1  H  8011  8017       L1    22  0.52

> <Gold.Chemscore.Hbond.Weighted>
-5.1858

> <Gold.Chemscore.Metal.Weighted>
-0.0000

> <Gold.Chemscore.Lipo.Weighted>
-6.6040

> <Gold.Chemscore.Internal_Hbond.Weighted>
0.0000

> <Gold.Chemscore.DEClash.Weighted>
0.0183

> <Gold.Chemscore.DEInternal.Weighted>
1.9631

> <Gold.Chemscore.Rot.Weighted>
6.6477

> <Gold.Chemscore.Internal.Correction.Weighted>
   9.000000E+99

> <Gold.Protein.RotatedTorsions>
[ 6907 6896 6895 6894 ] final -109.56 input  -60.11 | X-H torsion
[ 7974 7965 7964 7962 ] final   81.85 input  175.53 | X-H torsion
[ 8008 7997 7996 7995 ] final  -19.91 input   59.86 | X-H torsion
[ 10167 10162 10161 10158 ] final -161.42 input  -65.29 | X-H torsion
[ 10718 10713 10712 10709 ] final -151.61 input   66.30 | X-H torsion
[ 10763 10752 10751 10750 ] final  -98.21 input  -60.55 | X-H torsion
[ 11005 11000 10999 10996 ] final  172.17 input  -57.11 | X-H torsion

> <Gold.Protein.ActiveResidues>
 VAL166  LYS551  ARG553  GLY616  TRP617  ASP618  TYR619  PRO620  LYS621  CYS622 
 ASP623  PHE694  ASN695  SER759  ASP760  ASP761  ALA762  ILE779  LEU786  VAL792 
 PHE793  MET794  SER795  GLU796  ALA797  LYS798  CYS799  TRP800  GLU811  SER814 

> <Gold.Protein.RotatedAtoms>
  150.7569  133.9512  159.3485 H   0  0  0  0  0  0  0  0  0  0  0  0  # atno 6907 bound_to 6896
  151.7429  135.0848  160.0328 H   0  0  0  0  0  0  0  0  0  0  0  0  # atno 6908 bound_to 6896
  152.3516  133.6150  159.5985 H   0  0  0  0  0  0  0  0  0  0  0  0  # atno 6909 bound_to 6896
  145.6328  139.2408  143.2075 H   0  0  0  0  0  0  0  0  0  0  0  0  # atno 7974 bound_to 7965
  154.4805  140.2076  155.9776 H   0  0  0  0  0  0  0  0  0  0  0  0  # atno 8008 bound_to 7997
  156.1157  140.3222  155.8105 H   0  0  0  0  0  0  0  0  0  0  0  0  # atno 8009 bound_to 7997
  155.4557  140.0520  157.2987 H   0  0  0  0  0  0  0  0  0  0  0  0  # atno 8010 bound_to 7997
  139.6466  144.0161  152.2131 H   0  0  0  0  0  0  0  0  0  0  0  0  # atno 10167 bound_to 10162
  156.4615  130.8215  151.2446 H   0  0  0  0  0  0  0  0  0  0  0  0  # atno 10718 bound_to 10713
  154.7395  135.5018  153.9098 H   0  0  0  0  0  0  0  0  0  0  0  0  # atno 10763 bound_to 10752
  153.1028  135.6689  153.9649 H   0  0  0  0  0  0  0  0  0  0  0  0  # atno 10764 bound_to 10752
  153.9430  135.3065  155.3421 H   0  0  0  0  0  0  0  0  0  0  0  0  # atno 10765 bound_to 10752
  140.3269  134.7390  157.4105 H   0  0  0  0  0  0  0  0  0  0  0  0  # atno 11005 bound_to 11000
  146.1343  140.7143  142.9397 LP  0  0  0  0  0  0  0  0  0  0  0  0  # atno 17320 bound_to 7965
  144.7187  140.4300  143.7024 LP  0  0  0  0  0  0  0  0  0  0  0  0  # atno 17321 bound_to 7965
  139.9864  144.6392  150.7854 LP  0  0  0  0  0  0  0  0  0  0  0  0  # atno 17342 bound_to 10162
  140.7517  143.2978  151.3159 LP  0  0  0  0  0  0  0  0  0  0  0  0  # atno 17343 bound_to 10162
  157.7497  131.0106  150.3311 LP  0  0  0  0  0  0  0  0  0  0  0  0  # atno 17370 bound_to 10713
  156.3712  130.3864  149.7174 LP  0  0  0  0  0  0  0  0  0  0  0  0  # atno 17371 bound_to 10713
  140.0894  134.5622  155.8459 LP  0  0  0  0  0  0  0  0  0  0  0  0  # atno 17394 bound_to 11000
  141.2073  133.6663  156.6297 LP  0  0  0  0  0  0  0  0  0  0  0  0  # atno 17395 bound_to 11000

$$$$
