#       Name:                AV-unprocessed.smi:37
#       Creating user name   scv26
#       Creation time:       Thu Mar 26 16:11:54 2020


#       File generated by GOLD software.
#

@<TRIPOS>MOLECULE
AV-unprocessed.smi:37
    54    55     1
SMALL
NO_CHARGES


@<TRIPOS>ATOM
      1 ****        -5.5173   3.2141   0.3849 C.3            1 S1                 0.0000
      2 ****        -4.0163   2.8923   0.4415 C.3            1 S1                 0.0000
      3 ****        -3.6854   1.4470   0.0626 C.2            1 S1                 0.0000
      4 ****        -4.5546   0.6281  -0.2421 O.2            1 S1                 0.0000
      5 ****        -2.3660   1.2054   0.1075 O.3            1 S1                 0.0000
      6 ****        -1.8796  -0.0865  -0.2167 C.3            1 S1                 0.0000
      7 ****        -0.3555  -0.1167  -0.0529 C.3            1 S1                 0.0000
      8 ****         0.2638   0.5940  -1.1263 O.3            1 S1                 0.0000
      9 ****         1.3907  -0.0940  -1.5815 C.3            1 S1                 0.0000
     10 ****         2.5538   0.8704  -1.6636 N.am           1 S1                 0.0000
     11 ****         3.1944   1.0800  -2.8771 C.2            1 S1                 0.0000
     12 ****         4.2230   1.9474  -3.0304 C.2            1 S1                 0.0000
     13 ****         4.7972   2.0894  -4.2371 F              1 S1                 0.0000
     14 ****         4.7109   2.7307  -1.8994 C.2            1 S1                 0.0000
     15 ****         5.6399   3.5349  -1.9370 O.2            1 S1                 0.0000
     16 ****         4.0218   2.5070  -0.7039 N.am           1 S1                 0.0000
     17 ****         2.9572   1.6199  -0.5335 C.2            1 S1                 0.0000
     18 ****         2.4140   1.5234   0.5657 O.2            1 S1                 0.0000
     19 ****         1.6368  -1.2599  -0.6211 C.3            1 S1                 0.0000
     20 ****         2.3944  -2.8414  -1.5629 Br             1 S1                 0.0000
     21 ****         0.2361  -1.5296  -0.1182 C.3            1 S1                 0.0000
     22 ****         0.3062  -2.1516   1.1581 O.3            1 S1                 0.0000
     23 ****        -0.6205  -3.0521   1.5313 C.2            1 S1                 0.0000
     24 ****        -1.5934  -3.4081   0.8662 O.2            1 S1                 0.0000
     25 ****        -0.3590  -3.6204   2.9241 C.3            1 S1                 0.0000
     26 ****         0.9316  -4.4491   2.9781 C.3            1 S1                 0.0000
     27 ****         4.3160   3.0370   0.1037 H              1 S1                 0.0000
     28 ****        -5.6988   4.2497   0.6725 H              1 S1                 0.0000
     29 ****        -6.0864   2.5792   1.0651 H              1 S1                 0.0000
     30 ****        -5.9163   3.0767  -0.6208 H              1 S1                 0.0000
     31 ****        -3.4727   3.5588  -0.2284 H              1 S1                 0.0000
     32 ****        -3.6394   3.0805   1.4471 H              1 S1                 0.0000
     33 ****        -2.3379  -0.8099   0.4585 H              1 S1                 0.0000
     34 ****        -2.1628  -0.3616  -1.2337 H              1 S1                 0.0000
     35 ****        -0.0610   0.3558   0.8856 H              1 S1                 0.0000
     36 ****         1.1825  -0.4312  -2.5978 H              1 S1                 0.0000
     37 ****         2.8722   0.5264  -3.7476 H              1 S1                 0.0000
     38 ****         2.3073  -0.9819   0.1914 H              1 S1                 0.0000
     39 ****        -0.2994  -2.1295  -0.8561 H              1 S1                 0.0000
     40 ****        -0.3052  -2.7972   3.6368 H              1 S1                 0.0000
     41 ****        -1.2078  -4.2385   3.2176 H              1 S1                 0.0000
     42 ****         1.0722  -4.8754   3.9713 H              1 S1                 0.0000
     43 ****         1.8083  -3.8404   2.7543 H              1 S1                 0.0000
     44 ****         0.9034  -5.2741   2.2652 H              1 S1                 0.0000
     45 ****        -5.5171   0.8993  -0.2477 LP             1 S1                 0.0000
     46 ****        -4.2973  -0.3075  -0.4837 LP             1 S1                 0.0000
     47 ****         0.5387   1.5005  -0.8057 LP             1 S1                 0.0000
     48 ****        -0.3891   0.6900  -1.8776 LP             1 S1                 0.0000
     49 ****         6.1284   3.6949  -2.7948 LP             1 S1                 0.0000
     50 ****         5.9072   4.0292  -1.1098 LP             1 S1                 0.0000
     51 ****         1.6488   0.8921   0.6915 LP             1 S1                 0.0000
     52 ****         2.7376   2.0763   1.3336 LP             1 S1                 0.0000
     53 ****        -1.7484  -3.0178  -0.0414 LP             1 S1                 0.0000
     54 ****        -2.2286  -4.0875   1.2335 LP             1 S1                 0.0000
@<TRIPOS>BOND
    1    1    2 1     
    2    1   28 1     
    3    1   29 1     
    4    1   30 1     
    5    2    3 1     
    6    2   31 1     
    7    2   32 1     
    8    3    4 2     
    9    3    5 1     
   10    5    6 1     
   11    6    7 1     
   12    6   33 1     
   13    6   34 1     
   14    7   21 1     
   15    7    8 1     
   16    7   35 1     
   17    8    9 1     
   18    9   10 1     
   19    9   19 1     
   20    9   36 1     
   21   10   17 1     
   22   10   11 1     
   23   11   12 2     
   24   11   37 1     
   25   12   13 1     
   26   12   14 1     
   27   14   15 2     
   28   14   16 1     
   29   16   27 1     
   30   16   17 1     
   31   17   18 2     
   32   19   20 1     
   33   19   21 1     
   34   19   38 1     
   35   21   22 1     
   36   21   39 1     
   37   22   23 1     
   38   23   24 2     
   39   23   25 1     
   40   25   26 1     
   41   25   40 1     
   42   25   41 1     
   43   26   42 1     
   44   26   43 1     
   45   26   44 1     
   46    4   45 1     
   47    4   46 1     
   48    8   47 1     
   49    8   48 1     
   50   15   49 1     
   51   15   50 1     
   52   18   51 1     
   53   18   52 1     
   54   24   53 1     
   55   24   54 1     
@<TRIPOS>SUBSTRUCTURE
      1 S1             1
@<TRIPOS>SET
LONE_PAIRS      STATIC     ATOMS    <user>   **** ""
10 45 46 47 48 49 50 51 52 53 54
DONOR_HYDROGENS      STATIC     ATOMS    <user>   **** ""
1 27
ATOM$BLUE        STATIC     ATOMS    COLORGROUP SYSTEM
10 45 46 47 48 49 50 51 52 53 54
ATOM$RED        STATIC     ATOMS    COLORGROUP SYSTEM
1 27
