AV-unprocessed.smi:1662|AV-procd|sdf|6664|dock8
  -GOLD-   22720 7373D 1   1.00000     0.00000
 Structure written by MMmdl.
 47 48  0  0  0  0  0  0  0  0  1 V2000
  151.2620  144.3641  158.5599 C   0  0  0  0  0  0  0  0  0  0  0  0
  151.9339  143.3414  159.4358 C   0  0  0  0  0  0  0  0  0  0  0  0
  152.1606  142.1836  158.9078 N   0  0  0  0  0  0  0  0  0  0  0  0
  152.7656  141.1712  159.6271 N   0  0  0  0  0  0  0  0  0  0  0  0
  152.9252  139.9146  158.8813 C   0  0  0  0  0  0  0  0  0  0  0  0
  152.0907  139.8780  157.5937 C   0  0  0  0  0  0  0  0  0  0  0  0
  152.6394  139.7722  156.4962 O   0  0  0  0  0  0  0  0  0  0  0  0
  150.7602  139.9475  157.7513 N   0  0  0  0  0  0  0  0  0  0  0  0
  149.7737  139.9496  156.6732 C   0  0  1  0  0  0  0  0  0  0  0  0
  149.6900  141.3631  156.0635 C   0  0  0  0  0  0  0  0  0  0  0  0
  148.7349  141.4138  154.8630 C   0  0  0  0  0  0  0  0  0  0  0  0
  149.1203  140.3705  153.8025 C   0  0  0  0  0  0  0  0  0  0  0  0
  149.1830  138.9431  154.3837 C   0  0  2  0  0  0  0  0  0  0  0  0
  147.7739  138.3856  154.6720 C   0  0  0  0  0  0  0  0  0  0  0  0
  150.1477  138.8956  155.5993 C   0  0  2  0  0  0  0  0  0  0  0  0
  150.2946  137.4744  156.1790 C   0  0  0  0  0  0  0  0  0  0  0  0
  153.1862  141.2813  160.9205 C   0  0  0  0  0  0  0  0  0  0  0  0
  153.7291  140.3527  161.5217 O   0  0  0  0  0  0  0  0  0  0  0  0
  152.9279  142.5961  161.5113 C   0  0  0  0  0  0  0  0  0  0  0  0
  153.3486  142.7524  162.8663 C   0  0  0  0  0  0  0  0  0  0  0  0
  153.6731  142.8885  163.9691 N   0  0  0  0  0  0  0  0  0  0  0  0
  152.3281  143.5960  160.8179 C   0  0  0  0  0  0  0  0  0  0  0  0
  152.0350  144.9780  161.3860 C   0  0  0  0  0  0  0  0  0  0  0  0
  151.8889  145.2487  158.4457 H   0  0  0  0  0  0  0  0  0  0  0  0
  150.3106  144.6763  158.9906 H   0  0  0  0  0  0  0  0  0  0  0  0
  151.0588  143.9742  157.5612 H   0  0  0  0  0  0  0  0  0  0  0  0
  153.9711  139.7651  158.6079 H   0  0  0  0  0  0  0  0  0  0  0  0
  152.6663  139.0675  159.5200 H   0  0  0  0  0  0  0  0  0  0  0  0
  150.4009  140.0274  158.6915 H   0  0  0  0  0  0  0  0  0  0  0  0
  148.7961  139.6874  157.0808 H   0  0  0  0  0  0  0  0  0  0  0  0
  149.3644  142.0788  156.8195 H   0  0  0  0  0  0  0  0  0  0  0  0
  150.6823  141.6847  155.7438 H   0  0  0  0  0  0  0  0  0  0  0  0
  147.7115  141.2463  155.1997 H   0  0  0  0  0  0  0  0  0  0  0  0
  148.7506  142.4108  154.4221 H   0  0  0  0  0  0  0  0  0  0  0  0
  148.4180  140.4094  152.9693 H   0  0  0  0  0  0  0  0  0  0  0  0
  150.0944  140.6310  153.3866 H   0  0  0  0  0  0  0  0  0  0  0  0
  149.6081  138.3063  153.6067 H   0  0  0  0  0  0  0  0  0  0  0  0
  147.2750  138.9216  155.4787 H   0  0  0  0  0  0  0  0  0  0  0  0
  147.8083  137.3317  154.9471 H   0  0  0  0  0  0  0  0  0  0  0  0
  147.1393  138.4605  153.7886 H   0  0  0  0  0  0  0  0  0  0  0  0
  151.1330  139.1684  155.2171 H   0  0  0  0  0  0  0  0  0  0  0  0
  149.3896  137.1560  156.6967 H   0  0  0  0  0  0  0  0  0  0  0  0
  151.1148  137.4169  156.8949 H   0  0  0  0  0  0  0  0  0  0  0  0
  150.5044  136.7494  155.3924 H   0  0  0  0  0  0  0  0  0  0  0  0
  152.3675  145.0793  162.4186 H   0  0  0  0  0  0  0  0  0  0  0  0
  150.9636  145.1801  161.3662 H   0  0  0  0  0  0  0  0  0  0  0  0
  152.5415  145.7476  160.8029 H   0  0  0  0  0  0  0  0  0  0  0  0
  1  2  1  0  0  0  0
  1 24  1  0  0  0  0
  1 25  1  0  0  0  0
  1 26  1  0  0  0  0
  2 22  1  0  0  0  0
  2  3  2  0  0  0  0
  3  4  1  0  0  0  0
  4  5  1  0  0  0  0
  4 17  1  0  0  0  0
  5  6  1  0  0  0  0
  5 27  1  0  0  0  0
  5 28  1  0  0  0  0
  6  7  2  0  0  0  0
  6  8  1  0  0  0  0
  8  9  1  0  0  0  0
  8 29  1  0  0  0  0
  9 15  1  0  0  0  0
  9 10  1  0  0  0  0
  9 30  1  0  0  0  0
 10 11  1  0  0  0  0
 10 31  1  0  0  0  0
 10 32  1  0  0  0  0
 11 12  1  0  0  0  0
 11 33  1  0  0  0  0
 11 34  1  0  0  0  0
 12 13  1  0  0  0  0
 12 35  1  0  0  0  0
 12 36  1  0  0  0  0
 13 14  1  0  0  0  0
 13 15  1  0  0  0  0
 13 37  1  0  0  0  0
 14 38  1  0  0  0  0
 14 39  1  0  0  0  0
 14 40  1  0  0  0  0
 15 16  1  0  0  0  0
 15 41  1  0  0  0  0
 16 42  1  0  0  0  0
 16 43  1  0  0  0  0
 16 44  1  0  0  0  0
 17 18  2  0  0  0  0
 17 19  1  0  0  0  0
 19 20  1  0  0  0  0
 19 22  2  0  0  0  0
 20 21  3  0  0  0  0
 22 23  1  0  0  0  0
 23 45  1  0  0  0  0
 23 46  1  0  0  0  0
 23 47  1  0  0  0  0
M  END
> <s_m_source_file>
AV-unprocessed.smi

> <i_m_source_file_index>
1662

> <i_lp_mmshare_version>
43012

> <i_f3d_flags>
0

> <s_epik_input>
TiNDYyhjMVtDSDNdKWMoPU8pbihuYzFbQ0gzXSlbQ0gyXUMoPU8pW05IXVtDQEBIXTJbQ0gyXVtDSDJdW0NIMl1bQ0BASF0oW0NIM10pW0NASF0yW0NIM10=

> <s_epik_cmdline>
J2VwaWtfcHl0aG9uJywgJy1waCcsICc3LjAnLCAnLXRuJywgJzgnLCAnLW1hJywgJzIwMCcsICctbWV0YWxfYmluZGluZycsICctaW1hZScsICc8aW5maWxlLm1hZT4nLCAnLW9tYWUnLCAnPG91dGZpbGUubWFlPic=

> <r_lp_tautomer_probability>
1

> <r_epik_Ionization_Penalty>
1.90709e-08

> <r_epik_Ionization_Penalty_Charging>
2.37982e-11

> <r_epik_Ionization_Penalty_Neutral>
1.90471e-08

> <r_epik_State_Penalty>
-0

> <r_epik_Charging_Adjusted_Penalty>
2.37982e-11

> <i_epik_Tot_Q>
0

> <i_epik_Tot_abs_Q>
0

> <r_epik_Metal_State_Penalty>
-0

> <b_epik_Metal_Only>
0

> <s_lp_Force_Field>
OPLS_2005

> <r_lp_Energy>
29.0639

> <b_lp_Chiralities_Consistent>
1

> <s_lp_Variant>
AV-unprocessed.smi:1662-8

> <Gold.Version>
5.8.1

> <Gold.Id.Protein>
6NUR|6NUR_protein|mol2

> <Gold.PLP.Fitness>
42.5536

> <Gold.PLP.PLP>
-40.4040

> <Gold.PLP.part.hbond>
-1.1233

> <Gold.PLP.part.metal>
0.0000

> <Gold.PLP.part.buried>
1.2468

> <Gold.PLP.part.nonpolar>
-40.3209

> <Gold.PLP.part.repulsive>
0.1417

> <Gold.PLP.ligand.clash>
0.0000

> <Gold.PLP.ligand.torsion>
0.4275

> <Gold.PLP.Chemscore.Hbond>
1.0000

> <Gold.PLP.Chemscore.CHOScore>
0.0000

> <Gold.PLP.Chemscore.Metal>
0.0000

> <Gold.Chemscore.Hbonds>
donor molecule, donor type, donor heavy atom, donor atom, acceptor molecule, acceptor atom, score
      P1  H  7997  8008       L1     7  1.00

> <Gold.PLP.Chemscore.Internal.Correction>
0.0046

> <Gold.Rescore>
     Score         DG    S(hbond)    S(metal)    S(lipo)     H(rot)  DE(clash)    DE(int)     intcor
     14.08     -17.57       0.97        0.00     107.41       1.45       1.58       1.91       ----

> <Gold.Chemscore.Fitness>
14.0821

> <Gold.Chemscore.DG>
-17.5682

> <Gold.Chemscore.ZeroCoef>
-5.4800

> <Gold.Chemscore.Hbond>
0.9685

> <Gold.Chemscore.Metal>
0.0000

> <Gold.Chemscore.Lipo>
107.4050

> <Gold.Chemscore.Internal_Hbond>
0.0000

> <Gold.Chemscore.DEClash>
1.5792

> <Gold.Chemscore.DEInternal>
1.9069

> <Gold.Chemscore.Rot>
1.4504

> <Gold.Chemscore.Internal.Correction>
   9.000000E+99

> <Gold.Chemscore.Hbonds>
donor molecule, donor type, donor heavy atom, donor atom, acceptor molecule, acceptor atom, score
      P1  H  7997  8008       L1     7  0.98

> <Gold.Chemscore.Hbond.Weighted>
-3.2347

> <Gold.Chemscore.Metal.Weighted>
-0.0000

> <Gold.Chemscore.Lipo.Weighted>
-12.5664

> <Gold.Chemscore.Internal_Hbond.Weighted>
0.0000

> <Gold.Chemscore.DEClash.Weighted>
1.5792

> <Gold.Chemscore.DEInternal.Weighted>
1.9069

> <Gold.Chemscore.Rot.Weighted>
3.7129

> <Gold.Chemscore.Internal.Correction.Weighted>
   9.000000E+99

> <Gold.Protein.RotatedTorsions>
[ 6907 6896 6895 6894 ] final  100.28 input  -60.11 | X-H torsion
[ 7974 7965 7964 7962 ] final  100.92 input  175.53 | X-H torsion
[ 8008 7997 7996 7995 ] final  -32.70 input   59.86 | X-H torsion
[ 10167 10162 10161 10158 ] final  152.93 input  -65.29 | X-H torsion
[ 10718 10713 10712 10709 ] final  -34.23 input   66.30 | X-H torsion
[ 10763 10752 10751 10750 ] final -160.47 input  -60.55 | X-H torsion
[ 11005 11000 10999 10996 ] final  140.39 input  -57.11 | X-H torsion

> <Gold.Protein.ActiveResidues>
 VAL166  LYS551  ARG553  GLY616  TRP617  ASP618  TYR619  PRO620  LYS621  CYS622 
 ASP623  PHE694  ASN695  SER759  ASP760  ASP761  ALA762  ILE779  LEU786  VAL792 
 PHE793  MET794  SER795  GLU796  ALA797  LYS798  CYS799  TRP800  GLU811  SER814 

> <Gold.Protein.RotatedAtoms>
  152.5375  134.0300  159.8020 H   0  0  0  0  0  0  0  0  0  0  0  0  # atno 6907 bound_to 6896
  151.0473  133.5647  159.2652 H   0  0  0  0  0  0  0  0  0  0  0  0  # atno 6908 bound_to 6896
  151.2594  135.0656  159.9146 H   0  0  0  0  0  0  0  0  0  0  0  0  # atno 6909 bound_to 6896
  145.3791  139.2383  143.3413 H   0  0  0  0  0  0  0  0  0  0  0  0  # atno 7974 bound_to 7965
  154.4172  140.1730  156.1768 H   0  0  0  0  0  0  0  0  0  0  0  0  # atno 8008 bound_to 7997
  155.9715  140.3385  155.6556 H   0  0  0  0  0  0  0  0  0  0  0  0  # atno 8009 bound_to 7997
  155.6619  140.0702  157.2541 H   0  0  0  0  0  0  0  0  0  0  0  0  # atno 8010 bound_to 7997
  139.4830  144.5316  151.7713 H   0  0  0  0  0  0  0  0  0  0  0  0  # atno 10167 bound_to 10162
  156.3530  130.4311  149.7688 H   0  0  0  0  0  0  0  0  0  0  0  0  # atno 10718 bound_to 10713
  154.7387  135.3063  154.8766 H   0  0  0  0  0  0  0  0  0  0  0  0  # atno 10763 bound_to 10752
  153.9587  135.6755  153.4749 H   0  0  0  0  0  0  0  0  0  0  0  0  # atno 10764 bound_to 10752
  153.0988  135.4922  154.8752 H   0  0  0  0  0  0  0  0  0  0  0  0  # atno 10765 bound_to 10752
  140.0324  134.9345  157.0687 H   0  0  0  0  0  0  0  0  0  0  0  0  # atno 11005 bound_to 11000
  146.2850  140.4456  142.8761 LP  0  0  0  0  0  0  0  0  0  0  0  0  # atno 17320 bound_to 7965
  144.8520  140.7015  143.6162 LP  0  0  0  0  0  0  0  0  0  0  0  0  # atno 17321 bound_to 7965
  140.4843  144.1403  150.5938 LP  0  0  0  0  0  0  0  0  0  0  0  0  # atno 17342 bound_to 10162
  140.4242  143.2597  151.9677 LP  0  0  0  0  0  0  0  0  0  0  0  0  # atno 17343 bound_to 10162
  156.4881  130.8072  151.3083 LP  0  0  0  0  0  0  0  0  0  0  0  0  # atno 17370 bound_to 10713
  157.7464  130.9984  150.2852 LP  0  0  0  0  0  0  0  0  0  0  0  0  # atno 17371 bound_to 10713
  140.4204  134.1886  155.7164 LP  0  0  0  0  0  0  0  0  0  0  0  0  # atno 17394 bound_to 11000
  141.1838  133.8357  157.1162 LP  0  0  0  0  0  0  0  0  0  0  0  0  # atno 17395 bound_to 11000

$$$$
