AV-unprocessed.smi:1695|AV-procd|sdf|6797|dock8
  -GOLD-   22720 7563D 1   1.00000     0.00000
 Structure written by MMmdl.
 50 52  0  0  0  0  0  0  0  0  1 V2000
  152.5878  143.0089  161.6629 C   0  0  0  0  0  0  0  0  0  0  0  0
  152.0740  142.6374  160.2832 C   0  0  0  0  0  0  0  0  0  0  0  0
  152.5959  141.4919  159.6412 C   0  0  0  0  0  0  0  0  0  0  0  0
  152.1473  141.1137  158.3568 C   0  0  0  0  0  0  0  0  0  0  0  0
  152.5157  140.0479  157.5537 N   0  0  0  0  0  0  0  0  0  0  0  0
  151.7477  140.2403  156.4850 C   0  0  0  0  0  0  0  0  0  0  0  0
  150.9242  141.3061  156.5013 N   0  0  0  0  0  0  0  0  0  0  0  0
  150.0013  141.7184  155.4589 C   0  0  0  0  0  0  0  0  0  0  0  0
  149.2991  140.5241  154.7829 C   0  0  2  0  0  0  0  0  0  0  0  0
  150.1254  140.0505  153.7361 O   0  0  0  0  0  0  0  0  0  0  0  0
  147.9264  140.9226  154.2000 C   0  0  0  0  0  0  0  0  0  0  0  0
  147.1678  141.8971  154.9860 N   0  0  0  0  0  0  0  0  0  0  0  0
  146.7102  141.3504  156.2662 C   0  0  0  0  0  0  0  0  0  0  0  0
  145.9504  142.3844  157.1148 C   0  0  0  0  0  0  0  0  0  0  0  0
  144.7464  142.9518  156.3364 C   0  0  0  0  0  0  0  0  0  0  0  0
  144.0313  144.0509  157.1336 C   0  0  0  0  0  0  0  0  0  0  0  0
  144.7776  145.0683  157.5709 N   0  0  0  0  0  0  0  0  0  0  0  0
  142.8233  143.9854  157.3538 O   0  0  0  0  0  0  0  0  0  0  0  0
  145.2348  143.4798  154.9733 C   0  0  0  0  0  0  0  0  0  0  0  0
  146.0207  142.3914  154.2236 C   0  0  0  0  0  0  0  0  0  0  0  0
  151.1538  141.9193  157.7275 C   0  0  0  0  0  0  0  0  0  0  0  0
  150.6249  143.0599  158.3566 C   0  0  0  0  0  0  0  0  0  0  0  0
  151.0840  143.4233  159.6399 C   0  0  0  0  0  0  0  0  0  0  0  0
  150.5073  144.6577  160.3102 C   0  0  0  0  0  0  0  0  0  0  0  0
  153.3859  142.3394  161.9843 H   0  0  0  0  0  0  0  0  0  0  0  0
  151.7843  142.9494  162.3973 H   0  0  0  0  0  0  0  0  0  0  0  0
  152.9843  144.0243  161.6641 H   0  0  0  0  0  0  0  0  0  0  0  0
  153.3483  140.8919  160.1313 H   0  0  0  0  0  0  0  0  0  0  0  0
  151.7830  139.5663  155.6415 H   0  0  0  0  0  0  0  0  0  0  0  0
  149.2634  142.3848  155.9075 H   0  0  0  0  0  0  0  0  0  0  0  0
  150.5473  142.3087  154.7212 H   0  0  0  0  0  0  0  0  0  0  0  0
  149.1727  139.7293  155.5197 H   0  0  0  0  0  0  0  0  0  0  0  0
  149.6733  140.1824  152.9168 H   0  0  0  0  0  0  0  0  0  0  0  0
  148.1097  141.3667  153.2207 H   0  0  0  0  0  0  0  0  0  0  0  0
  147.3222  140.0354  154.0027 H   0  0  0  0  0  0  0  0  0  0  0  0
  146.0734  140.4815  156.0921 H   0  0  0  0  0  0  0  0  0  0  0  0
  147.5618  140.9993  156.8480 H   0  0  0  0  0  0  0  0  0  0  0  0
  145.6149  141.9212  158.0434 H   0  0  0  0  0  0  0  0  0  0  0  0
  146.6346  143.1864  157.3978 H   0  0  0  0  0  0  0  0  0  0  0  0
  144.0426  142.1372  156.1555 H   0  0  0  0  0  0  0  0  0  0  0  0
  144.3522  145.8172  158.0979 H   0  0  0  0  0  0  0  0  0  0  0  0
  145.7669  145.0853  157.3697 H   0  0  0  0  0  0  0  0  0  0  0  0
  144.3875  143.8035  154.3677 H   0  0  0  0  0  0  0  0  0  0  0  0
  145.8729  144.3548  155.1090 H   0  0  0  0  0  0  0  0  0  0  0  0
  146.3614  142.8017  153.2721 H   0  0  0  0  0  0  0  0  0  0  0  0
  145.3532  141.5631  153.9799 H   0  0  0  0  0  0  0  0  0  0  0  0
  149.8719  143.6490  157.8543 H   0  0  0  0  0  0  0  0  0  0  0  0
  149.7099  145.0991  159.7117 H   0  0  0  0  0  0  0  0  0  0  0  0
  151.2818  145.4124  160.4472 H   0  0  0  0  0  0  0  0  0  0  0  0
  150.0907  144.4063  161.2859 H   0  0  0  0  0  0  0  0  0  0  0  0
  1  2  1  0  0  0  0
  1 25  1  0  0  0  0
  1 26  1  0  0  0  0
  1 27  1  0  0  0  0
  2 23  1  0  0  0  0
  2  3  2  0  0  0  0
  3  4  1  0  0  0  0
  3 28  1  0  0  0  0
  4 21  2  0  0  0  0
  4  5  1  0  0  0  0
  5  6  2  0  0  0  0
  6  7  1  0  0  0  0
  6 29  1  0  0  0  0
  7  8  1  0  0  0  0
  7 21  1  0  0  0  0
  8  9  1  0  0  0  0
  8 30  1  0  0  0  0
  8 31  1  0  0  0  0
  9 10  1  0  0  0  0
  9 11  1  0  0  0  0
  9 32  1  0  0  0  0
 10 33  1  0  0  0  0
 11 12  1  0  0  0  0
 11 34  1  0  0  0  0
 11 35  1  0  0  0  0
 12 20  1  0  0  0  0
 12 13  1  0  0  0  0
 13 14  1  0  0  0  0
 13 36  1  0  0  0  0
 13 37  1  0  0  0  0
 14 15  1  0  0  0  0
 14 38  1  0  0  0  0
 14 39  1  0  0  0  0
 15 16  1  0  0  0  0
 15 19  1  0  0  0  0
 15 40  1  0  0  0  0
 16 17  1  0  0  0  0
 16 18  2  0  0  0  0
 17 41  1  0  0  0  0
 17 42  1  0  0  0  0
 19 20  1  0  0  0  0
 19 43  1  0  0  0  0
 19 44  1  0  0  0  0
 20 45  1  0  0  0  0
 20 46  1  0  0  0  0
 21 22  1  0  0  0  0
 22 23  2  0  0  0  0
 22 47  1  0  0  0  0
 23 24  1  0  0  0  0
 24 48  1  0  0  0  0
 24 49  1  0  0  0  0
 24 50  1  0  0  0  0
M  END
> <s_m_source_file>
AV-unprocessed.smi

> <i_m_source_file_index>
1695

> <i_lp_mmshare_version>
43012

> <i_f3d_flags>
0

> <s_epik_input>
W0NIM11jKFtjSF0xKWMoW0NIM10pW2NIXWMoYzEyKW4oW2NIXW4yKVtDSDJdW0NASF0oW09IXSlbQ0gyXU4zW0NIMl1bQ0gyXVtDSF0oQyg9TylbTkgyXSlbQ0gyXVtDSDJdMw==

> <s_epik_cmdline>
J2VwaWtfcHl0aG9uJywgJy1waCcsICc3LjAnLCAnLXRuJywgJzgnLCAnLW1hJywgJzIwMCcsICctbWV0YWxfYmluZGluZycsICctaW1hZScsICc8aW5maWxlLm1hZT4nLCAnLW9tYWUnLCAnPG91dGZpbGUubWFlPic=

> <r_epik_Ionization_Penalty>
1.9508

> <r_epik_Ionization_Penalty_Charging>
0

> <r_epik_Ionization_Penalty_Neutral>
1.9508

> <r_epik_State_Penalty>
2.03746

> <r_epik_Charging_Adjusted_Penalty>
2.03746

> <i_epik_Tot_Q>
0

> <i_epik_Tot_abs_Q>
0

> <r_epik_Metal_State_Penalty>
2.03012

> <b_epik_Metal_Only>
0

> <s_lp_Force_Field>
OPLS_2005

> <r_lp_Energy>
30.2081

> <b_lp_Chiralities_Consistent>
1

> <s_lp_Variant>
AV-unprocessed.smi:1695-9

> <Gold.Version>
5.8.1

> <Gold.Id.Protein>
6NUR|6NUR_protein|mol2

> <Gold.PLP.Fitness>
56.3627

> <Gold.PLP.PLP>
-47.4657

> <Gold.PLP.part.hbond>
-4.0000

> <Gold.PLP.part.metal>
0.0000

> <Gold.PLP.part.buried>
-7.3006

> <Gold.PLP.part.nonpolar>
-36.7089

> <Gold.PLP.part.repulsive>
0.1333

> <Gold.PLP.ligand.clash>
0.0000

> <Gold.PLP.ligand.torsion>
0.9960

> <Gold.PLP.Chemscore.Hbond>
3.6240

> <Gold.PLP.Chemscore.CHOScore>
0.0000

> <Gold.PLP.Chemscore.Metal>
0.0000

> <Gold.Chemscore.Hbonds>
donor molecule, donor type, donor heavy atom, donor atom, acceptor molecule, acceptor atom, score
      L1  H    10    33       P1  7957  1.00
      L1  H    17    42       P1  8029  0.38
      P1  H  7989  7998       L1    10  0.80
      P1  H  7997  8009       L1     5  0.84

> <Gold.PLP.Chemscore.Internal.Correction>
0.0171

> <Gold.Rescore>
     Score         DG    S(hbond)    S(metal)    S(lipo)     H(rot)  DE(clash)    DE(int)     intcor
     18.12     -19.18       2.27        0.00     113.29       2.78       0.10       0.96       ----

> <Gold.Chemscore.Fitness>
18.1174

> <Gold.Chemscore.DG>
-19.1774

> <Gold.Chemscore.ZeroCoef>
-5.4800

> <Gold.Chemscore.Hbond>
2.2669

> <Gold.Chemscore.Metal>
0.0000

> <Gold.Chemscore.Lipo>
113.2950

> <Gold.Chemscore.Internal_Hbond>
0.0000

> <Gold.Chemscore.DEClash>
0.1039

> <Gold.Chemscore.DEInternal>
0.9561

> <Gold.Chemscore.Rot>
2.7849

> <Gold.Chemscore.Internal.Correction>
   9.000000E+99

> <Gold.Chemscore.Hbonds>
donor molecule, donor type, donor heavy atom, donor atom, acceptor molecule, acceptor atom, score
      L1  H    10    33       P1  7957  0.94
      L1  H    17    42       P1  8029  0.05
      P1  H  7989  7998       L1    10  0.26
      P1  H  7997  8009       L1     5  0.45

> <Gold.Chemscore.Hbond.Weighted>
-7.5714

> <Gold.Chemscore.Metal.Weighted>
-0.0000

> <Gold.Chemscore.Lipo.Weighted>
-13.2555

> <Gold.Chemscore.Internal_Hbond.Weighted>
0.0000

> <Gold.Chemscore.DEClash.Weighted>
0.1039

> <Gold.Chemscore.DEInternal.Weighted>
0.9561

> <Gold.Chemscore.Rot.Weighted>
7.1294

> <Gold.Chemscore.Internal.Correction.Weighted>
   9.000000E+99

> <Gold.Protein.RotatedTorsions>
[ 6907 6896 6895 6894 ] final  -37.49 input  -60.11 | X-H torsion
[ 7974 7965 7964 7962 ] final -127.22 input  175.53 | X-H torsion
[ 8008 7997 7996 7995 ] final  160.65 input   59.86 | X-H torsion
[ 10167 10162 10161 10158 ] final    0.08 input  -65.29 | X-H torsion
[ 10718 10713 10712 10709 ] final  -73.88 input   66.30 | X-H torsion
[ 10763 10752 10751 10750 ] final   91.19 input  -60.55 | X-H torsion
[ 11005 11000 10999 10996 ] final -141.51 input  -57.11 | X-H torsion

> <Gold.Protein.ActiveResidues>
 VAL166  LYS551  ARG553  GLY616  TRP617  ASP618  TYR619  PRO620  LYS621  CYS622 
 ASP623  PHE694  ASN695  SER759  ASP760  ASP761  ALA762  ILE779  LEU786  VAL792 
 PHE793  MET794  SER795  GLU796  ALA797  LYS798  CYS799  TRP800  GLU811  SER814 

> <Gold.Protein.RotatedAtoms>
  151.0141  134.9419  159.8023 H   0  0  0  0  0  0  0  0  0  0  0  0  # atno 6907 bound_to 6896
  152.5309  134.2989  159.9081 H   0  0  0  0  0  0  0  0  0  0  0  0  # atno 6908 bound_to 6896
  151.2996  133.4086  159.2673 H   0  0  0  0  0  0  0  0  0  0  0  0  # atno 6909 bound_to 6896
  144.9793  140.7624  143.4622 H   0  0  0  0  0  0  0  0  0  0  0  0  # atno 7974 bound_to 7965
  156.2157  140.1798  156.7593 H   0  0  0  0  0  0  0  0  0  0  0  0  # atno 8008 bound_to 7997
  154.5789  140.0669  156.9103 H   0  0  0  0  0  0  0  0  0  0  0  0  # atno 8009 bound_to 7997
  155.2539  140.3331  155.4282 H   0  0  0  0  0  0  0  0  0  0  0  0  # atno 8010 bound_to 7997
  140.6745  143.6956  150.7992 H   0  0  0  0  0  0  0  0  0  0  0  0  # atno 10167 bound_to 10162
  156.0263  130.4404  150.2809 H   0  0  0  0  0  0  0  0  0  0  0  0  # atno 10718 bound_to 10713
  153.2056  135.4406  155.0318 H   0  0  0  0  0  0  0  0  0  0  0  0  # atno 10763 bound_to 10752
  154.8171  135.3320  154.7146 H   0  0  0  0  0  0  0  0  0  0  0  0  # atno 10764 bound_to 10752
  153.7588  135.6993  153.4985 H   0  0  0  0  0  0  0  0  0  0  0  0  # atno 10765 bound_to 10752
  140.8317  134.2509  157.4853 H   0  0  0  0  0  0  0  0  0  0  0  0  # atno 11005 bound_to 11000
  145.2444  139.2058  143.4976 LP  0  0  0  0  0  0  0  0  0  0  0  0  # atno 17320 bound_to 7965
  146.3404  140.2345  142.8594 LP  0  0  0  0  0  0  0  0  0  0  0  0  # atno 17321 bound_to 7965
  140.0647  143.5120  152.2610 LP  0  0  0  0  0  0  0  0  0  0  0  0  # atno 17342 bound_to 10162
  139.6029  144.7588  151.3129 LP  0  0  0  0  0  0  0  0  0  0  0  0  # atno 17343 bound_to 10162
  157.0913  131.0170  151.3121 LP  0  0  0  0  0  0  0  0  0  0  0  0  # atno 17370 bound_to 10713
  157.4852  130.7789  149.7453 LP  0  0  0  0  0  0  0  0  0  0  0  0  # atno 17371 bound_to 10713
  139.8705  134.9589  156.4317 LP  0  0  0  0  0  0  0  0  0  0  0  0  # atno 17394 bound_to 11000
  140.8991  133.7793  155.9659 LP  0  0  0  0  0  0  0  0  0  0  0  0  # atno 17395 bound_to 11000

$$$$
