AV-unprocessed.smi:630|AV-procd|sdf|3119|dock10
  -GOLD-   22720 0 43D 1   1.00000     0.00000
 Structure written by MMmdl.
 37 38  0  0  0  0  0  0  0  0  1 V2000
  148.4939  134.6176  153.8208 N   0  0  0  0  0  0  0  0  0  0  0  0
  147.4516  133.8311  154.1027 C   0  0  0  0  0  0  0  0  0  0  0  0
  147.3785  133.2029  155.1581 O   0  0  0  0  0  0  0  0  0  0  0  0
  146.3226  133.7515  153.0538 C   0  0  2  0  0  0  0  0  0  0  0  0
  146.8157  133.0938  151.7412 C   0  0  0  0  0  0  0  0  0  0  0  0
  145.7617  132.1598  151.1174 C   0  0  0  0  0  0  0  0  0  0  0  0
  144.5654  132.8759  150.4701 C   0  0  0  0  0  0  0  0  0  0  0  0
  143.8142  133.8565  151.3892 C   0  0  0  0  0  0  0  0  0  0  0  0
  144.6066  135.1493  151.6479 C   0  0  0  0  0  0  0  0  0  0  0  0
  145.5934  135.1121  152.8392 C   0  0  2  0  0  0  0  0  0  0  0  0
  146.5278  136.2340  152.7089 N   0  0  0  0  0  0  0  0  0  0  0  0
  146.4420  137.4023  153.3613 C   0  0  0  0  0  0  0  0  0  0  0  0
  145.5373  137.6754  154.1503 O   0  0  0  0  0  0  0  0  0  0  0  0
  147.4616  138.2137  153.0379 N   0  0  0  0  0  0  0  0  0  0  0  0
  147.7088  139.5263  153.5101 C   0  0  0  0  0  0  0  0  0  0  0  0
  146.7997  140.4759  153.2818 N   0  0  0  0  0  0  0  0  0  0  0  0
  147.1871  141.7109  153.8097 C   0  0  0  0  0  0  0  0  0  0  0  0
  148.4057  141.6835  154.4416 C   0  0  0  0  0  0  0  0  0  0  0  0
  149.1225  140.0953  154.4015 S   0  0  0  0  0  0  0  0  0  0  0  0
  149.2557  134.6937  154.4792 H   0  0  0  0  0  0  0  0  0  0  0  0
  148.5201  135.1294  152.9508 H   0  0  0  0  0  0  0  0  0  0  0  0
  145.5878  133.0706  153.4869 H   0  0  0  0  0  0  0  0  0  0  0  0
  147.1327  133.8493  151.0213 H   0  0  0  0  0  0  0  0  0  0  0  0
  147.7017  132.4871  151.9357 H   0  0  0  0  0  0  0  0  0  0  0  0
  146.2453  131.5511  150.3528 H   0  0  0  0  0  0  0  0  0  0  0  0
  145.4044  131.4534  151.8677 H   0  0  0  0  0  0  0  0  0  0  0  0
  144.8974  133.3990  149.5725 H   0  0  0  0  0  0  0  0  0  0  0  0
  143.8635  132.1173  150.1223 H   0  0  0  0  0  0  0  0  0  0  0  0
  142.8857  134.1293  150.8867 H   0  0  0  0  0  0  0  0  0  0  0  0
  143.5152  133.3797  152.3231 H   0  0  0  0  0  0  0  0  0  0  0  0
  145.1311  135.4307  150.7333 H   0  0  0  0  0  0  0  0  0  0  0  0
  143.8972  135.9586  151.8262 H   0  0  0  0  0  0  0  0  0  0  0  0
  145.0057  135.2717  153.7458 H   0  0  0  0  0  0  0  0  0  0  0  0
  147.3093  136.0978  152.0842 H   0  0  0  0  0  0  0  0  0  0  0  0
  148.1346  137.8547  152.3766 H   0  0  0  0  0  0  0  0  0  0  0  0
  146.5321  142.5611  153.6894 H   0  0  0  0  0  0  0  0  0  0  0  0
  148.9232  142.4978  154.9264 H   0  0  0  0  0  0  0  0  0  0  0  0
  1  2  1  0  0  0  0
  1 20  1  0  0  0  0
  1 21  1  0  0  0  0
  2  3  2  0  0  0  0
  2  4  1  0  0  0  0
  4 10  1  0  0  0  0
  4  5  1  0  0  0  0
  4 22  1  0  0  0  0
  5  6  1  0  0  0  0
  5 23  1  0  0  0  0
  5 24  1  0  0  0  0
  6  7  1  0  0  0  0
  6 25  1  0  0  0  0
  6 26  1  0  0  0  0
  7  8  1  0  0  0  0
  7 27  1  0  0  0  0
  7 28  1  0  0  0  0
  8  9  1  0  0  0  0
  8 29  1  0  0  0  0
  8 30  1  0  0  0  0
  9 10  1  0  0  0  0
  9 31  1  0  0  0  0
  9 32  1  0  0  0  0
 10 11  1  0  0  0  0
 10 33  1  0  0  0  0
 11 12  1  0  0  0  0
 11 34  1  0  0  0  0
 12 13  2  0  0  0  0
 12 14  1  0  0  0  0
 14 15  1  0  0  0  0
 14 35  1  0  0  0  0
 15 19  1  0  0  0  0
 15 16  2  0  0  0  0
 16 17  1  0  0  0  0
 17 18  2  0  0  0  0
 17 36  1  0  0  0  0
 18 19  1  0  0  0  0
 18 37  1  0  0  0  0
M  END
> <s_m_source_file>
AV-unprocessed.smi

> <i_m_source_file_index>
630

> <i_lp_mmshare_version>
43012

> <i_f3d_flags>
0

> <s_epik_input>
W05IMl1DKD1PKVtDQEBIXTFbQ0gyXVtDSDJdW0NIMl1bQ0gyXVtDSDJdW0NASF0xW05IXUMoPU8pW05IXWMybltjSF1bY0hdczI=

> <s_epik_cmdline>
J2VwaWtfcHl0aG9uJywgJy1waCcsICc3LjAnLCAnLXRuJywgJzgnLCAnLW1hJywgJzIwMCcsICctbWV0YWxfYmluZGluZycsICctaW1hZScsICc8aW5maWxlLm1hZT4nLCAnLW9tYWUnLCAnPG91dGZpbGUubWFlPic=

> <r_lp_tautomer_probability>
0.999

> <r_epik_Ionization_Penalty>
0.000342689

> <r_epik_Ionization_Penalty_Charging>
0

> <r_epik_Ionization_Penalty_Neutral>
0.000342689

> <r_epik_State_Penalty>
0.000177984

> <r_epik_Charging_Adjusted_Penalty>
0.000177984

> <i_epik_Tot_Q>
0

> <i_epik_Tot_abs_Q>
0

> <r_epik_Metal_State_Penalty>
0.00743087

> <b_epik_Metal_Only>
0

> <s_lp_Force_Field>
OPLS_2005

> <r_lp_Energy>
11.6017

> <b_lp_Chiralities_Consistent>
1

> <s_lp_Variant>
AV-unprocessed.smi:630-3

> <Gold.Version>
5.8.1

> <Gold.Id.Protein>
6NUR|6NUR_protein|mol2

> <Gold.PLP.Fitness>
39.6185

> <Gold.PLP.PLP>
-29.6625

> <Gold.PLP.part.hbond>
-3.0000

> <Gold.PLP.part.metal>
0.0000

> <Gold.PLP.part.buried>
-2.7110

> <Gold.PLP.part.nonpolar>
-23.3133

> <Gold.PLP.part.repulsive>
0.3717

> <Gold.PLP.ligand.clash>
0.0000

> <Gold.PLP.ligand.torsion>
0.8240

> <Gold.PLP.Chemscore.Hbond>
2.8240

> <Gold.PLP.Chemscore.CHOScore>
1.0000

> <Gold.PLP.Chemscore.Metal>
0.0000

> <Gold.Chemscore.Hbonds>
donor molecule, donor type, donor heavy atom, donor atom, acceptor molecule, acceptor atom, score
      L1  H     1    21       P1  7948  1.00
      L1  H    11    34       P1  7948  0.98
      L1  H    14    35       P1  7948  0.85
      L1  C    18    37       P1  8028  1.00

> <Gold.PLP.Chemscore.Internal.Correction>
0.1320

> <Gold.Rescore>
     Score         DG    S(hbond)    S(metal)    S(lipo)     H(rot)  DE(clash)    DE(int)     intcor
     15.74     -18.07       2.83        0.00      60.19       1.52       0.01       2.33       ----

> <Gold.Chemscore.Fitness>
15.7372

> <Gold.Chemscore.DG>
-18.0730

> <Gold.Chemscore.ZeroCoef>
-5.4800

> <Gold.Chemscore.Hbond>
2.8256

> <Gold.Chemscore.Metal>
0.0000

> <Gold.Chemscore.Lipo>
60.1929

> <Gold.Chemscore.Internal_Hbond>
0.0000

> <Gold.Chemscore.DEClash>
0.0081

> <Gold.Chemscore.DEInternal>
2.3277

> <Gold.Chemscore.Rot>
1.5184

> <Gold.Chemscore.Internal.Correction>
   9.000000E+99

> <Gold.Chemscore.Hbonds>
donor molecule, donor type, donor heavy atom, donor atom, acceptor molecule, acceptor atom, score
      L1  H     1    21       P1  7948  0.72
      L1  H    11    34       P1  7948  0.92
      L1  H    14    35       P1  7948  0.83

> <Gold.Chemscore.Hbond.Weighted>
-9.4376

> <Gold.Chemscore.Metal.Weighted>
-0.0000

> <Gold.Chemscore.Lipo.Weighted>
-7.0426

> <Gold.Chemscore.Internal_Hbond.Weighted>
0.0000

> <Gold.Chemscore.DEClash.Weighted>
0.0081

> <Gold.Chemscore.DEInternal.Weighted>
2.3277

> <Gold.Chemscore.Rot.Weighted>
3.8872

> <Gold.Chemscore.Internal.Correction.Weighted>
   9.000000E+99

> <Gold.Protein.RotatedTorsions>
[ 6907 6896 6895 6894 ] final  128.92 input  -60.11 | X-H torsion
[ 7974 7965 7964 7962 ] final   76.00 input  175.53 | X-H torsion
[ 8008 7997 7996 7995 ] final  152.25 input   59.86 | X-H torsion
[ 10167 10162 10161 10158 ] final  -54.83 input  -65.29 | X-H torsion
[ 10718 10713 10712 10709 ] final  146.63 input   66.30 | X-H torsion
[ 10763 10752 10751 10750 ] final -141.32 input  -60.55 | X-H torsion
[ 11005 11000 10999 10996 ] final  107.55 input  -57.11 | X-H torsion

> <Gold.Protein.ActiveResidues>
 VAL166  LYS551  ARG553  GLY616  TRP617  ASP618  TYR619  PRO620  LYS621  CYS622 
 ASP623  PHE694  ASN695  SER759  ASP760  ASP761  ALA762  ILE779  LEU786  VAL792 
 PHE793  MET794  SER795  GLU796  ALA797  LYS798  CYS799  TRP800  GLU811  SER814 

> <Gold.Protein.RotatedAtoms>
  152.3673  133.6373  159.6059 H   0  0  0  0  0  0  0  0  0  0  0  0  # atno 6907 bound_to 6896
  150.7643  133.9327  159.3441 H   0  0  0  0  0  0  0  0  0  0  0  0  # atno 6908 bound_to 6896
  151.7156  135.0905  160.0326 H   0  0  0  0  0  0  0  0  0  0  0  0  # atno 6909 bound_to 6896
  145.7084  139.2606  143.1665 H   0  0  0  0  0  0  0  0  0  0  0  0  # atno 7974 bound_to 7965
  156.2637  140.2026  156.6304 H   0  0  0  0  0  0  0  0  0  0  0  0  # atno 8008 bound_to 7997
  154.6687  140.0552  157.0166 H   0  0  0  0  0  0  0  0  0  0  0  0  # atno 8009 bound_to 7997
  155.1169  140.3221  155.4510 H   0  0  0  0  0  0  0  0  0  0  0  0  # atno 8010 bound_to 7997
  140.6408  143.2507  151.4993 H   0  0  0  0  0  0  0  0  0  0  0  0  # atno 10167 bound_to 10162
  157.3309  131.0920  151.1164 H   0  0  0  0  0  0  0  0  0  0  0  0  # atno 10718 bound_to 10713
  154.8549  135.3528  154.5849 H   0  0  0  0  0  0  0  0  0  0  0  0  # atno 10763 bound_to 10752
  153.6459  135.6996  153.5230 H   0  0  0  0  0  0  0  0  0  0  0  0  # atno 10764 bound_to 10752
  153.2933  135.4228  155.1145 H   0  0  0  0  0  0  0  0  0  0  0  0  # atno 10765 bound_to 10752
  139.8830  134.9404  156.5836 H   0  0  0  0  0  0  0  0  0  0  0  0  # atno 11005 bound_to 11000
  146.0735  140.7843  142.9676 LP  0  0  0  0  0  0  0  0  0  0  0  0  # atno 17320 bound_to 7965
  144.6949  140.3378  143.7204 LP  0  0  0  0  0  0  0  0  0  0  0  0  # atno 17321 bound_to 7965
  139.5618  144.2139  152.1702 LP  0  0  0  0  0  0  0  0  0  0  0  0  # atno 17342 bound_to 10162
  140.1409  144.5203  150.6745 LP  0  0  0  0  0  0  0  0  0  0  0  0  # atno 17343 bound_to 10162
  157.2412  130.6570  149.5891 LP  0  0  0  0  0  0  0  0  0  0  0  0  # atno 17370 bound_to 10713
  155.9695  130.4568  150.5937 LP  0  0  0  0  0  0  0  0  0  0  0  0  # atno 17371 bound_to 10713
  140.8008  133.8506  155.8725 LP  0  0  0  0  0  0  0  0  0  0  0  0  # atno 17394 bound_to 11000
  140.9594  134.1676  157.4666 LP  0  0  0  0  0  0  0  0  0  0  0  0  # atno 17395 bound_to 11000

$$$$
