AV-unprocessed.smi:1377|AV-procd|sdf|5595|dock3
  -GOLD-   22720 5203D 1   1.00000     0.00000
 Structure written by MMmdl.
 28 29  0  0  0  0  0  0  0  0  2 V2000
  149.8711  138.4611  153.3085 N   0  0  0  0  0  0  0  0  0  0  0  0
  150.6764  138.7883  154.3223 C   0  0  0  0  0  0  0  0  0  0  0  0
  150.9430  139.9600  154.5862 O   0  0  0  0  0  0  0  0  0  0  0  0
  151.2538  137.6223  155.1364 C   0  0  0  0  0  0  0  0  0  0  0  0
  150.1976  136.8882  155.9154 C   0  0  0  0  0  0  0  0  0  0  0  0
  149.1036  136.2325  155.4111 C   0  0  0  0  0  0  0  0  0  0  0  0
  148.1441  135.5150  156.6730 S   0  0  0  0  0  0  0  0  0  0  0  0
  149.2911  136.1167  157.8718 C   0  0  0  0  0  0  0  0  0  0  0  0
  149.1895  135.9277  159.1966 N   0  5  0  0  0  0  0  0  0  0  0  0
  148.2393  136.5923  159.8963 C   0  0  0  0  0  0  0  0  0  0  0  0
  147.4806  137.4833  159.5095 O   0  0  0  0  0  0  0  0  0  0  0  0
  148.1646  136.0884  161.3462 C   0  0  0  0  0  0  0  0  0  0  0  0
  147.5648  134.6826  161.5439 C   0  0  0  0  0  0  0  0  0  0  0  0
  146.7837  135.2352  162.7403 C   0  0  0  0  0  0  0  0  0  0  0  0
  146.9740  136.6364  162.1523 C   0  0  0  0  0  0  0  0  0  0  0  0
  150.2860  136.8105  157.3085 N   0  0  0  0  0  0  0  0  0  0  0  0
  149.4663  139.1886  152.7373 H   0  0  0  0  0  0  0  0  0  0  0  0
  149.6728  137.4906  153.1145 H   0  0  0  0  0  0  0  0  0  0  0  0
  151.7607  136.9343  154.4589 H   0  0  0  0  0  0  0  0  0  0  0  0
  152.0206  138.0161  155.8048 H   0  0  0  0  0  0  0  0  0  0  0  0
  148.8009  136.1348  154.3796 H   0  0  0  0  0  0  0  0  0  0  0  0
  149.1100  136.2037  161.8801 H   0  0  0  0  0  0  0  0  0  0  0  0
  146.9062  134.3520  160.7390 H   0  0  0  0  0  0  0  0  0  0  0  0
  148.2931  133.9144  161.8044 H   0  0  0  0  0  0  0  0  0  0  0  0
  145.7469  134.9037  162.8009 H   0  0  0  0  0  0  0  0  0  0  0  0
  147.3100  135.0997  163.6863 H   0  0  0  0  0  0  0  0  0  0  0  0
  147.2392  137.3971  162.8867 H   0  0  0  0  0  0  0  0  0  0  0  0
  146.1338  136.9544  161.5319 H   0  0  0  0  0  0  0  0  0  0  0  0
  1  2  1  0  0  0  0
  1 17  1  0  0  0  0
  1 18  1  0  0  0  0
  2  3  2  0  0  0  0
  2  4  1  0  0  0  0
  4  5  1  0  0  0  0
  4 19  1  0  0  0  0
  4 20  1  0  0  0  0
  5 16  1  0  0  0  0
  5  6  2  0  0  0  0
  6  7  1  0  0  0  0
  6 21  1  0  0  0  0
  7  8  1  0  0  0  0
  8  9  1  0  0  0  0
  8 16  2  0  0  0  0
  9 10  1  0  0  0  0
 10 11  2  0  0  0  0
 10 12  1  0  0  0  0
 12 15  1  0  0  0  0
 12 13  1  0  0  0  0
 12 22  1  0  0  0  0
 13 14  1  0  0  0  0
 13 23  1  0  0  0  0
 13 24  1  0  0  0  0
 14 15  1  0  0  0  0
 14 25  1  0  0  0  0
 14 26  1  0  0  0  0
 15 27  1  0  0  0  0
 15 28  1  0  0  0  0
M  CHG  1   9  -1
M  END
> <s_m_source_file>
AV-unprocessed.smi

> <i_m_source_file_index>
1377

> <i_lp_mmshare_version>
43012

> <i_f3d_flags>
0

> <s_epik_input>
W05IMl1DKD1PKVtDSDJdYzFbY0hdc2MobjEpW05IXUMoPU8pW0NIXTJbQ0gyXVtDSDJdW0NIMl0y

> <s_epik_cmdline>
J2VwaWtfcHl0aG9uJywgJy1waCcsICc3LjAnLCAnLXRuJywgJzgnLCAnLW1hJywgJzIwMCcsICctbWV0YWxfYmluZGluZycsICctaW1hZScsICc8aW5maWxlLm1hZT4nLCAnLW9tYWUnLCAnPG91dGZpbGUubWFlPic=

> <r_lp_tautomer_probability>
1

> <r_epik_Ionization_Penalty>
5.13356

> <r_epik_Ionization_Penalty_Charging>
4.74096

> <r_epik_Ionization_Penalty_Neutral>
0.392596

> <r_epik_State_Penalty>
4.74076

> <r_epik_Charging_Adjusted_Penalty>
9.48173

> <i_epik_Tot_Q>
-1

> <i_epik_Tot_abs_Q>
1

> <r_epik_Metal_State_Penalty>
0.951691

> <b_epik_Metal_Only>
1

> <s_lp_Force_Field>
OPLS_2005

> <r_lp_Energy>
7.89776

> <b_lp_Chiralities_Consistent>
1

> <s_lp_Variant>
AV-unprocessed.smi:1377-2

> <Gold.Version>
5.8.1

> <Gold.Id.Protein>
6NUR|6NUR_protein|mol2

> <Gold.PLP.Fitness>
46.4352

> <Gold.PLP.PLP>
-28.5242

> <Gold.PLP.part.hbond>
-5.0000

> <Gold.PLP.part.metal>
0.0000

> <Gold.PLP.part.buried>
-5.2530

> <Gold.PLP.part.nonpolar>
-18.5074

> <Gold.PLP.part.repulsive>
0.1729

> <Gold.PLP.ligand.clash>
0.0000

> <Gold.PLP.ligand.torsion>
0.9404

> <Gold.PLP.Chemscore.Hbond>
5.5120

> <Gold.PLP.Chemscore.CHOScore>
0.9519

> <Gold.PLP.Chemscore.Metal>
0.0000

> <Gold.Chemscore.Hbonds>
donor molecule, donor type, donor heavy atom, donor atom, acceptor molecule, acceptor atom, score
      L1  H     1    17       P1  7957  0.86
      L1  H     1    18       P1  7948  0.91
      P1  H  6896  6909       L1     9  1.95
      P1  H  6934  6947       L1    11  0.62
      P1  H  7989  7998       L1     3  1.00
      L1  C     6    21       P1  7948  1.00

> <Gold.PLP.Chemscore.Internal.Correction>
0.4000

> <Gold.Rescore>
     Score         DG    S(hbond)    S(metal)    S(lipo)     H(rot)  DE(clash)    DE(int)     intcor
     18.45     -19.38       3.91        0.00      48.63       1.89       0.01       0.93       ----

> <Gold.Chemscore.Fitness>
18.4479

> <Gold.Chemscore.DG>
-19.3835

> <Gold.Chemscore.ZeroCoef>
-5.4800

> <Gold.Chemscore.Hbond>
3.9107

> <Gold.Chemscore.Metal>
0.0000

> <Gold.Chemscore.Lipo>
48.6266

> <Gold.Chemscore.Internal_Hbond>
0.0000

> <Gold.Chemscore.DEClash>
0.0106

> <Gold.Chemscore.DEInternal>
0.9250

> <Gold.Chemscore.Rot>
1.8935

> <Gold.Chemscore.Internal.Correction>
   9.000000E+99

> <Gold.Chemscore.Hbonds>
donor molecule, donor type, donor heavy atom, donor atom, acceptor molecule, acceptor atom, score
      L1  H     1    17       P1  7957  0.84
      L1  H     1    18       P1  7948  0.58
      P1  H  6896  6909       L1     9  0.32
      P1  H  6934  6947       L1    11  0.56
      P1  H  7989  7998       L1     3  0.95

> <Gold.Chemscore.Hbond.Weighted>
-13.0617

> <Gold.Chemscore.Metal.Weighted>
-0.0000

> <Gold.Chemscore.Lipo.Weighted>
-5.6893

> <Gold.Chemscore.Internal_Hbond.Weighted>
0.0000

> <Gold.Chemscore.DEClash.Weighted>
0.0106

> <Gold.Chemscore.DEInternal.Weighted>
0.9250

> <Gold.Chemscore.Rot.Weighted>
4.8475

> <Gold.Chemscore.Internal.Correction.Weighted>
   9.000000E+99

> <Gold.Protein.RotatedTorsions>
[ 6907 6896 6895 6894 ] final   47.82 input  -60.11 | X-H torsion
[ 7974 7965 7964 7962 ] final  109.98 input  175.53 | X-H torsion
[ 8008 7997 7996 7995 ] final  -13.34 input   59.86 | X-H torsion
[ 10167 10162 10161 10158 ] final  -85.70 input  -65.29 | X-H torsion
[ 10718 10713 10712 10709 ] final  175.98 input   66.30 | X-H torsion
[ 10763 10752 10751 10750 ] final    8.81 input  -60.55 | X-H torsion
[ 11005 11000 10999 10996 ] final   40.52 input  -57.11 | X-H torsion

> <Gold.Protein.ActiveResidues>
 VAL166  LYS551  ARG553  GLY616  TRP617  ASP618  TYR619  PRO620  LYS621  CYS622 
 ASP623  PHE694  ASN695  SER759  ASP760  ASP761  ALA762  ILE779  LEU786  VAL792 
 PHE793  MET794  SER795  GLU796  ALA797  LYS798  CYS799  TRP800  GLU811  SER814 

> <Gold.Protein.RotatedAtoms>
  152.2725  134.7917  160.0411 H   0  0  0  0  0  0  0  0  0  0  0  0  # atno 6907 bound_to 6896
  151.8525  133.3437  159.3686 H   0  0  0  0  0  0  0  0  0  0  0  0  # atno 6908 bound_to 6896
  150.7157  134.5213  159.5699 H   0  0  0  0  0  0  0  0  0  0  0  0  # atno 6909 bound_to 6896
  145.2608  139.2703  143.4018 H   0  0  0  0  0  0  0  0  0  0  0  0  # atno 7974 bound_to 7965
  154.5300  140.2252  155.8821 H   0  0  0  0  0  0  0  0  0  0  0  0  # atno 8008 bound_to 7997
  156.1754  140.3112  155.9013 H   0  0  0  0  0  0  0  0  0  0  0  0  # atno 8009 bound_to 7997
  155.3470  140.0453  157.3036 H   0  0  0  0  0  0  0  0  0  0  0  0  # atno 8010 bound_to 7997
  140.4012  143.2662  151.9140 H   0  0  0  0  0  0  0  0  0  0  0  0  # atno 10167 bound_to 10162
  156.9269  130.9958  151.2994 H   0  0  0  0  0  0  0  0  0  0  0  0  # atno 10718 bound_to 10713
  153.2209  135.6881  153.8002 H   0  0  0  0  0  0  0  0  0  0  0  0  # atno 10763 bound_to 10752
  153.7201  135.3268  155.3266 H   0  0  0  0  0  0  0  0  0  0  0  0  # atno 10764 bound_to 10752
  154.8269  135.4611  154.1055 H   0  0  0  0  0  0  0  0  0  0  0  0  # atno 10765 bound_to 10752
  140.1923  134.3972  155.8140 H   0  0  0  0  0  0  0  0  0  0  0  0  # atno 11005 bound_to 11000
  146.3275  140.3025  142.8621 LP  0  0  0  0  0  0  0  0  0  0  0  0  # atno 17320 bound_to 7965
  144.9420  140.8088  143.5625 LP  0  0  0  0  0  0  0  0  0  0  0  0  # atno 17321 bound_to 7965
  139.4785  144.5631  151.8207 LP  0  0  0  0  0  0  0  0  0  0  0  0  # atno 17342 bound_to 10162
  140.4738  144.1549  150.5922 LP  0  0  0  0  0  0  0  0  0  0  0  0  # atno 17343 bound_to 10162
  157.5872  130.8418  149.8606 LP  0  0  0  0  0  0  0  0  0  0  0  0  # atno 17370 bound_to 10713
  156.0465  130.3727  150.1305 LP  0  0  0  0  0  0  0  0  0  0  0  0  # atno 17371 bound_to 10713
  141.2226  133.7052  156.8116 LP  0  0  0  0  0  0  0  0  0  0  0  0  # atno 17394 bound_to 11000
  140.2146  134.8802  157.3311 LP  0  0  0  0  0  0  0  0  0  0  0  0  # atno 17395 bound_to 11000

$$$$
