#       Name:                AV-unprocessed.smi:2375
#       Creating user name   scv26
#       Creation time:       Fri Mar 27 13:07:27 2020


#       File generated by GOLD software.
#

@<TRIPOS>MOLECULE
AV-unprocessed.smi:2375
    40    41     1
SMALL
NO_CHARGES


@<TRIPOS>ATOM
      1 ****        -3.0910  -1.1477   2.2451 C.3            1 S1                 0.0000
      2 ****        -2.3892   0.0057   1.6130 C.2            1 S1                 0.0000
      3 ****        -1.6567   0.9864   2.2343 C.2            1 S1                 0.0000
      4 ****        -1.1082   1.9230   1.3558 N.2            1 S1                 0.0000
      5 ****        -1.4096   1.6650   0.0800 C.2            1 S1                 0.0000
      6 ****        -0.9163   2.4832  -1.0754 C.3            1 S1                 0.0000
      7 ****        -1.4920   3.9060  -1.0673 C.3            1 S1                 0.0000
      8 ****         0.6209   2.4566  -1.2232 C.3            1 S1                 0.0000
      9 ****         1.1675   1.1072  -1.1215 N.am           1 S1                 0.0000
     10 ****         1.1894   0.2006  -2.1118 C.2            1 S1                 0.0000
     11 ****         0.8214   0.4416  -3.2600 O.2            1 S1                 0.0000
     12 ****         1.6498  -1.0102  -1.7496 N.am           1 S1                 0.0000
     13 ****         1.7966  -2.2011  -2.5892 C.3            1 S1                 0.0000
     14 ****         2.0934  -3.4661  -1.7481 C.3            1 S1                 0.0000
     15 ****         3.1901  -4.1544  -2.5156 C.2            1 S1                 0.0000
     16 ****         3.6539  -3.4096  -3.5172 C.2            1 S1                 0.0000
     17 ****         2.9574  -2.0805  -3.6103 C.3            1 S1                 0.0000
     18 ****        -2.4237   0.2396  -0.1147 S.3            1 S1                 0.0000
     19 ****        -3.0617  -1.0770   3.3327 H              1 S1                 0.0000
     20 ****        -2.6222  -2.0884   1.9560 H              1 S1                 0.0000
     21 ****        -4.1363  -1.1810   1.9380 H              1 S1                 0.0000
     22 ****        -1.4678   1.0902   3.2925 H              1 S1                 0.0000
     23 ****        -1.3162   2.0044  -1.9702 H              1 S1                 0.0000
     24 ****        -2.5822   3.8877  -1.0649 H              1 S1                 0.0000
     25 ****        -1.1723   4.4624  -1.9487 H              1 S1                 0.0000
     26 ****        -1.1651   4.4606  -0.1873 H              1 S1                 0.0000
     27 ****         0.9273   2.9251  -2.1599 H              1 S1                 0.0000
     28 ****         1.0731   3.0444  -0.4238 H              1 S1                 0.0000
     29 ****         1.5019   0.8211  -0.2129 H              1 S1                 0.0000
     30 ****         1.9865  -1.0982  -0.8017 H              1 S1                 0.0000
     31 ****         0.8678  -2.3808  -3.1338 H              1 S1                 0.0000
     32 ****         2.4542  -3.2274  -0.7466 H              1 S1                 0.0000
     33 ****         1.2164  -4.1079  -1.6573 H              1 S1                 0.0000
     34 ****         3.5560  -5.1340  -2.2458 H              1 S1                 0.0000
     35 ****         4.4547  -3.6890  -4.1862 H              1 S1                 0.0000
     36 ****         2.5933  -1.8954  -4.6212 H              1 S1                 0.0000
     37 ****         3.6643  -1.2940  -3.3448 H              1 S1                 0.0000
     38 ****        -0.5517   2.7004   1.6490 LP             1 S1                 0.0000
     39 ****         0.4835   1.3527  -3.4959 LP             1 S1                 0.0000
     40 ****         0.8600  -0.2735  -3.9579 LP             1 S1                 0.0000
@<TRIPOS>BOND
    1    1    2 1     
    2    1   19 1     
    3    1   20 1     
    4    1   21 1     
    5    2   18 1     
    6    2    3 2     
    7    3    4 1     
    8    3   22 1     
    9    4    5 2     
   10    5    6 1     
   11    5   18 1     
   12    6    7 1     
   13    6    8 1     
   14    6   23 1     
   15    7   24 1     
   16    7   25 1     
   17    7   26 1     
   18    8    9 1     
   19    8   27 1     
   20    8   28 1     
   21    9   10 am    
   22    9   29 1     
   23   10   11 2     
   24   10   12 am    
   25   12   13 1     
   26   12   30 1     
   27   13   17 1     
   28   13   14 1     
   29   13   31 1     
   30   14   15 1     
   31   14   32 1     
   32   14   33 1     
   33   15   16 2     
   34   15   34 1     
   35   16   17 1     
   36   16   35 1     
   37   17   36 1     
   38   17   37 1     
   39    4   38 1     
   40   11   39 1     
   41   11   40 1     
@<TRIPOS>SUBSTRUCTURE
      1 S1             1
@<TRIPOS>SET
LONE_PAIRS      STATIC     ATOMS    <user>   **** ""
3 38 39 40
DONOR_HYDROGENS      STATIC     ATOMS    <user>   **** ""
2 29 30
ATOM$BLUE        STATIC     ATOMS    COLORGROUP SYSTEM
3 38 39 40
ATOM$RED        STATIC     ATOMS    COLORGROUP SYSTEM
2 29 30
