AV-unprocessed.smi:3156|AV-procd|sdf|12029|dock5
  -GOLD-   2272017443D 1   1.00000     0.00000
 Structure written by MMmdl.
 41 42  0  0  0  0  0  0  0  0  2 V2000
  152.5331  145.0131  157.2758 C   0  0  0  0  0  0  0  0  0  0  0  0
  151.7105  143.8820  157.9236 C   0  0  2  0  0  0  0  0  0  0  0  0
  150.6220  143.4553  157.0116 N   0  3  0  0  0  0  0  0  0  0  0  0
  151.0010  142.4649  155.9821 C   0  0  0  0  0  0  0  0  0  0  0  0
  149.7642  141.7247  155.4549 C   0  0  2  0  0  0  0  0  0  0  0  0
  149.0133  140.9880  156.5811 C   0  0  0  0  0  0  0  0  0  0  0  0
  147.8342  140.1912  156.0111 C   0  0  0  0  0  0  0  0  0  0  0  0
  148.3255  139.2779  154.8833 C   0  0  0  0  0  0  0  0  0  0  0  0
  149.1198  140.0885  153.8470 C   0  0  0  0  0  0  0  0  0  0  0  0
  150.1952  140.7715  154.4853 O   0  0  0  0  0  0  0  0  0  0  0  0
  151.1166  144.2979  159.2987 C   0  0  2  0  0  0  0  0  0  0  0  0
  150.9258  145.8194  159.4424 C   0  0  0  0  0  0  0  0  0  0  0  0
  151.9185  143.8054  160.4146 N   0  0  0  0  0  0  0  0  0  0  0  0
  152.1737  144.4296  161.6185 C   0  0  0  0  0  0  0  0  0  0  0  0
  152.9856  143.6053  162.3432 C   0  0  0  0  0  0  0  0  0  0  0  0
  153.1895  142.4903  161.4838 C   0  0  0  0  0  0  0  0  0  0  0  0
  152.5556  142.6152  160.3292 N   0  0  0  0  0  0  0  0  0  0  0  0
  153.3800  145.3024  157.8970 H   0  0  0  0  0  0  0  0  0  0  0  0
  151.9235  145.9016  157.1085 H   0  0  0  0  0  0  0  0  0  0  0  0
  152.9488  144.7117  156.3149 H   0  0  0  0  0  0  0  0  0  0  0  0
  152.3695  143.0271  158.0837 H   0  0  0  0  0  0  0  0  0  0  0  0
  149.9102  143.0247  157.5851 H   0  0  0  0  0  0  0  0  0  0  0  0
  151.5250  142.9527  155.1603 H   0  0  0  0  0  0  0  0  0  0  0  0
  151.6912  141.7450  156.4239 H   0  0  0  0  0  0  0  0  0  0  0  0
  149.0931  142.4455  154.9833 H   0  0  0  0  0  0  0  0  0  0  0  0
  149.6951  140.3100  157.0965 H   0  0  0  0  0  0  0  0  0  0  0  0
  148.6558  141.6983  157.3272 H   0  0  0  0  0  0  0  0  0  0  0  0
  147.3559  139.6040  156.7956 H   0  0  0  0  0  0  0  0  0  0  0  0
  147.0785  140.8772  155.6265 H   0  0  0  0  0  0  0  0  0  0  0  0
  148.9610  138.4941  155.2971 H   0  0  0  0  0  0  0  0  0  0  0  0
  147.4815  138.7782  154.4071 H   0  0  0  0  0  0  0  0  0  0  0  0
  149.5272  139.4246  153.0845 H   0  0  0  0  0  0  0  0  0  0  0  0
  148.4740  140.8029  153.3340 H   0  0  0  0  0  0  0  0  0  0  0  0
  150.1337  143.8333  159.3932 H   0  0  0  0  0  0  0  0  0  0  0  0
  150.1957  146.2067  158.7328 H   0  0  0  0  0  0  0  0  0  0  0  0
  151.8626  146.3554  159.2858 H   0  0  0  0  0  0  0  0  0  0  0  0
  150.5631  146.0742  160.4388 H   0  0  0  0  0  0  0  0  0  0  0  0
  151.7598  145.3981  161.8585 H   0  0  0  0  0  0  0  0  0  0  0  0
  153.3796  143.7757  163.3344 H   0  0  0  0  0  0  0  0  0  0  0  0
  153.7767  141.6015  161.6623 H   0  0  0  0  0  0  0  0  0  0  0  0
  150.2221  144.2677  156.5641 H   0  0  0  0  0  0  0  0  0  0  0  0
  1  2  1  0  0  0  0
  1 18  1  0  0  0  0
  1 19  1  0  0  0  0
  1 20  1  0  0  0  0
  2  3  1  0  0  0  0
  2 11  1  0  0  0  0
  2 21  1  0  0  0  0
  3  4  1  0  0  0  0
  3 22  1  0  0  0  0
  3 41  1  0  0  0  0
  4  5  1  0  0  0  0
  4 23  1  0  0  0  0
  4 24  1  0  0  0  0
  5 10  1  0  0  0  0
  5  6  1  0  0  0  0
  5 25  1  0  0  0  0
  6  7  1  0  0  0  0
  6 26  1  0  0  0  0
  6 27  1  0  0  0  0
  7  8  1  0  0  0  0
  7 28  1  0  0  0  0
  7 29  1  0  0  0  0
  8  9  1  0  0  0  0
  8 30  1  0  0  0  0
  8 31  1  0  0  0  0
  9 10  1  0  0  0  0
  9 32  1  0  0  0  0
  9 33  1  0  0  0  0
 11 12  1  0  0  0  0
 11 13  1  0  0  0  0
 11 34  1  0  0  0  0
 12 35  1  0  0  0  0
 12 36  1  0  0  0  0
 12 37  1  0  0  0  0
 13 17  1  0  0  0  0
 13 14  1  0  0  0  0
 14 15  2  0  0  0  0
 14 38  1  0  0  0  0
 15 16  1  0  0  0  0
 15 39  1  0  0  0  0
 16 17  2  0  0  0  0
 16 40  1  0  0  0  0
M  CHG  1   3   1
M  END
> <s_m_source_file>
AV-unprocessed.smi

> <i_m_source_file_index>
3156

> <i_lp_mmshare_version>
43012

> <i_f3d_flags>
0

> <s_epik_input>
bjFbY0hdW2NIXVtjSF1uMVtDQEBIXShbQ0gzXSlbQ0BIXShbQ0gzXSlbTkhdW0NIMl1bQ0BASF0yW0NIMl1bQ0gyXVtDSDJdW0NIMl1PMg==

> <s_epik_cmdline>
J2VwaWtfcHl0aG9uJywgJy1waCcsICc3LjAnLCAnLXRuJywgJzgnLCAnLW1hJywgJzIwMCcsICctbWV0YWxfYmluZGluZycsICctaW1hZScsICc8aW5maWxlLm1hZT4nLCAnLW9tYWUnLCAnPG91dGZpbGUubWFlPic=

> <r_lp_tautomer_probability>
1

> <r_epik_Ionization_Penalty>
0.00658015

> <r_epik_Ionization_Penalty_Charging>
0.00656881

> <r_epik_Ionization_Penalty_Neutral>
1.13431e-05

> <r_epik_State_Penalty>
0.0048654

> <r_epik_Charging_Adjusted_Penalty>
0.0114342

> <i_epik_Tot_Q>
1

> <i_epik_Tot_abs_Q>
1

> <r_epik_Metal_State_Penalty>
-0

> <b_epik_Metal_Only>
0

> <s_lp_Force_Field>
OPLS_2005

> <r_lp_Energy>
17.2589

> <b_lp_Chiralities_Consistent>
1

> <s_lp_Variant>
AV-unprocessed.smi:3156-1

> <Gold.Version>
5.8.1

> <Gold.Id.Protein>
6NUR|6NUR_protein|mol2

> <Gold.PLP.Fitness>
42.9520

> <Gold.PLP.PLP>
-38.0538

> <Gold.PLP.part.hbond>
-2.0000

> <Gold.PLP.part.metal>
0.0000

> <Gold.PLP.part.buried>
-5.9476

> <Gold.PLP.part.nonpolar>
-30.3409

> <Gold.PLP.part.repulsive>
0.1070

> <Gold.PLP.ligand.clash>
0.0000

> <Gold.PLP.ligand.torsion>
2.0710

> <Gold.PLP.Chemscore.Hbond>
2.9833

> <Gold.PLP.Chemscore.CHOScore>
0.0000

> <Gold.PLP.Chemscore.Metal>
0.0000

> <Gold.Chemscore.Hbonds>
donor molecule, donor type, donor heavy atom, donor atom, acceptor molecule, acceptor atom, score
      L1  H     3    41       P1  8028  1.70
      P1  H  7989  7998       L1    10  0.77

> <Gold.PLP.Chemscore.Internal.Correction>
0.0902

> <Gold.Rescore>
     Score         DG    S(hbond)    S(metal)    S(lipo)     H(rot)  DE(clash)    DE(int)     intcor
     16.68     -19.58       1.64        0.00     108.66       1.59       1.84       1.07       ----

> <Gold.Chemscore.Fitness>
16.6755

> <Gold.Chemscore.DG>
-19.5822

> <Gold.Chemscore.ZeroCoef>
-5.4800

> <Gold.Chemscore.Hbond>
1.6376

> <Gold.Chemscore.Metal>
0.0000

> <Gold.Chemscore.Lipo>
108.6574

> <Gold.Chemscore.Internal_Hbond>
0.0000

> <Gold.Chemscore.DEClash>
1.8416

> <Gold.Chemscore.DEInternal>
1.0651

> <Gold.Chemscore.Rot>
1.5938

> <Gold.Chemscore.Internal.Correction>
   9.000000E+99

> <Gold.Chemscore.Hbonds>
donor molecule, donor type, donor heavy atom, donor atom, acceptor molecule, acceptor atom, score
      L1  H     3    41       P1  8028  0.82
      P1  H  7989  7998       L1    10  0.65

> <Gold.Chemscore.Hbond.Weighted>
-5.4695

> <Gold.Chemscore.Metal.Weighted>
-0.0000

> <Gold.Chemscore.Lipo.Weighted>
-12.7129

> <Gold.Chemscore.Internal_Hbond.Weighted>
0.0000

> <Gold.Chemscore.DEClash.Weighted>
1.8416

> <Gold.Chemscore.DEInternal.Weighted>
1.0651

> <Gold.Chemscore.Rot.Weighted>
4.0802

> <Gold.Chemscore.Internal.Correction.Weighted>
   9.000000E+99

> <Gold.Protein.RotatedTorsions>
[ 6907 6896 6895 6894 ] final -154.68 input  -60.11 | X-H torsion
[ 7974 7965 7964 7962 ] final  -68.85 input  175.53 | X-H torsion
[ 8008 7997 7996 7995 ] final    4.54 input   59.86 | X-H torsion
[ 10167 10162 10161 10158 ] final   91.06 input  -65.29 | X-H torsion
[ 10718 10713 10712 10709 ] final -170.61 input   66.30 | X-H torsion
[ 10763 10752 10751 10750 ] final -155.70 input  -60.55 | X-H torsion
[ 11005 11000 10999 10996 ] final -155.56 input  -57.11 | X-H torsion

> <Gold.Protein.ActiveResidues>
 VAL166  LYS551  ARG553  GLY616  TRP617  ASP618  TYR619  PRO620  LYS621  CYS622 
 ASP623  PHE694  ASN695  SER759  ASP760  ASP761  ALA762  ILE779  LEU786  VAL792 
 PHE793  MET794  SER795  GLU796  ALA797  LYS798  CYS799  TRP800  GLU811  SER814 

> <Gold.Protein.RotatedAtoms>
  151.2612  133.4301  159.2615 H   0  0  0  0  0  0  0  0  0  0  0  0  # atno 6907 bound_to 6896
  151.0529  134.9685  159.8231 H   0  0  0  0  0  0  0  0  0  0  0  0  # atno 6908 bound_to 6896
  152.5385  134.2565  159.8971 H   0  0  0  0  0  0  0  0  0  0  0  0  # atno 6909 bound_to 6896
  145.7112  140.9077  143.0679 H   0  0  0  0  0  0  0  0  0  0  0  0  # atno 7974 bound_to 7965
  154.7172  140.2704  155.6574 H   0  0  0  0  0  0  0  0  0  0  0  0  # atno 8008 bound_to 7997
  156.2813  140.2741  156.1757 H   0  0  0  0  0  0  0  0  0  0  0  0  # atno 8009 bound_to 7997
  155.0555  140.0371  157.2548 H   0  0  0  0  0  0  0  0  0  0  0  0  # atno 8010 bound_to 7997
  139.8412  144.6640  150.9281 H   0  0  0  0  0  0  0  0  0  0  0  0  # atno 10167 bound_to 10162
  156.7288  130.9298  151.3103 H   0  0  0  0  0  0  0  0  0  0  0  0  # atno 10718 bound_to 10713
  154.7768  135.3162  154.8075 H   0  0  0  0  0  0  0  0  0  0  0  0  # atno 10763 bound_to 10752
  153.8797  135.6836  153.4772 H   0  0  0  0  0  0  0  0  0  0  0  0  # atno 10764 bound_to 10752
  153.1394  135.4746  154.9408 H   0  0  0  0  0  0  0  0  0  0  0  0  # atno 10765 bound_to 10752
  140.6852  134.4102  157.5224 H   0  0  0  0  0  0  0  0  0  0  0  0  # atno 11005 bound_to 11000
  144.6941  139.9077  143.7462 LP  0  0  0  0  0  0  0  0  0  0  0  0  # atno 17320 bound_to 7965
  146.0710  139.3699  143.0523 LP  0  0  0  0  0  0  0  0  0  0  0  0  # atno 17321 bound_to 7965
  140.7798  143.3911  151.1309 LP  0  0  0  0  0  0  0  0  0  0  0  0  # atno 17342 bound_to 10162
  139.7557  143.8711  152.3088 LP  0  0  0  0  0  0  0  0  0  0  0  0  # atno 17343 bound_to 10162
  157.6867  130.9193  150.0406 LP  0  0  0  0  0  0  0  0  0  0  0  0  # atno 17370 bound_to 10713
  156.1543  130.3643  149.9391 LP  0  0  0  0  0  0  0  0  0  0  0  0  # atno 17371 bound_to 10713
  139.8940  134.8718  156.2198 LP  0  0  0  0  0  0  0  0  0  0  0  0  # atno 17394 bound_to 11000
  141.0286  133.7001  156.1390 LP  0  0  0  0  0  0  0  0  0  0  0  0  # atno 17395 bound_to 11000

$$$$
