AV-unprocessed.smi:2467|AV-procd|sdf|9726|dock7
  -GOLD-   2272013363D 1   1.00000     0.00000
 Structure written by MMmdl.
 46 47  0  0  0  0  0  0  0  0  1 V2000
  152.3046  145.0662  158.5304 C   0  0  0  0  0  0  0  0  0  0  0  0
  151.8571  143.8556  157.6969 C   0  0  0  0  0  0  0  0  0  0  0  0
  151.6361  142.5605  158.5189 C   0  0  0  0  0  0  0  0  0  0  0  0
  152.8411  142.2807  159.4520 C   0  0  0  0  0  0  0  0  0  0  0  0
  152.9623  140.8239  159.9251 C   0  0  0  0  0  0  0  0  0  0  0  0
  151.3226  141.3378  157.6163 C   0  0  1  0  0  0  0  0  0  0  0  0
  150.3382  140.3208  158.2360 C   0  0  0  0  0  0  0  0  0  0  0  0
  150.1029  139.1472  157.2738 C   0  0  1  0  0  0  0  0  0  0  0  0
  149.0830  138.2552  157.8167 N   0  0  0  0  0  0  0  0  0  0  0  0
  149.0801  137.7324  159.0541 C   0  0  0  0  0  0  0  0  0  0  0  0
  149.9596  137.9742  159.8794 O   0  0  0  0  0  0  0  0  0  0  0  0
  148.0491  136.9145  159.3577 N   0  0  0  0  0  0  0  0  0  0  0  0
  147.7262  136.1975  160.5476 C   0  0  0  0  0  0  0  0  0  0  0  0
  147.2182  134.8972  160.3259 C   0  0  0  0  0  0  0  0  0  0  0  0
  146.8565  134.0932  161.4241 C   0  0  0  0  0  0  0  0  0  0  0  0
  147.0112  134.6107  162.7221 C   0  0  0  0  0  0  0  0  0  0  0  0
  147.5226  135.9140  162.8587 C   0  0  0  0  0  0  0  0  0  0  0  0
  147.8697  136.6853  161.8066 N   0  0  0  0  0  0  0  0  0  0  0  0
  149.6736  139.6955  155.9029 C   0  0  0  0  0  0  0  0  0  0  0  0
  150.6747  140.7483  155.4014 C   0  0  0  0  0  0  0  0  0  0  0  0
  150.8175  141.7901  156.3615 O   0  0  0  0  0  0  0  0  0  0  0  0
  152.3609  145.9589  157.9071 H   0  0  0  0  0  0  0  0  0  0  0  0
  153.2893  144.9214  158.9726 H   0  0  0  0  0  0  0  0  0  0  0  0
  151.5993  145.2723  159.3360 H   0  0  0  0  0  0  0  0  0  0  0  0
  150.9374  144.1452  157.1933 H   0  0  0  0  0  0  0  0  0  0  0  0
  152.5812  143.6712  156.9025 H   0  0  0  0  0  0  0  0  0  0  0  0
  150.7635  142.7234  159.1531 H   0  0  0  0  0  0  0  0  0  0  0  0
  153.7679  142.5848  158.9641 H   0  0  0  0  0  0  0  0  0  0  0  0
  152.7653  142.8965  160.3466 H   0  0  0  0  0  0  0  0  0  0  0  0
  153.7582  140.7280  160.6639 H   0  0  0  0  0  0  0  0  0  0  0  0
  153.2013  140.1438  159.1085 H   0  0  0  0  0  0  0  0  0  0  0  0
  152.0381  140.4819  160.3916 H   0  0  0  0  0  0  0  0  0  0  0  0
  152.2523  140.7997  157.4335 H   0  0  0  0  0  0  0  0  0  0  0  0
  150.7297  139.9520  159.1848 H   0  0  0  0  0  0  0  0  0  0  0  0
  149.3815  140.7931  158.4562 H   0  0  0  0  0  0  0  0  0  0  0  0
  151.0413  138.6004  157.1630 H   0  0  0  0  0  0  0  0  0  0  0  0
  148.3220  138.0042  157.2011 H   0  0  0  0  0  0  0  0  0  0  0  0
  147.3717  136.8113  158.6165 H   0  0  0  0  0  0  0  0  0  0  0  0
  147.1043  134.5131  159.3223 H   0  0  0  0  0  0  0  0  0  0  0  0
  146.4667  133.0976  161.2719 H   0  0  0  0  0  0  0  0  0  0  0  0
  146.7448  134.0247  163.5893 H   0  0  0  0  0  0  0  0  0  0  0  0
  147.6572  136.3494  163.8378 H   0  0  0  0  0  0  0  0  0  0  0  0
  149.5913  138.8859  155.1768 H   0  0  0  0  0  0  0  0  0  0  0  0
  148.6843  140.1494  155.9787 H   0  0  0  0  0  0  0  0  0  0  0  0
  151.6452  140.2938  155.1961 H   0  0  0  0  0  0  0  0  0  0  0  0
  150.3236  141.1807  154.4644 H   0  0  0  0  0  0  0  0  0  0  0  0
  1  2  1  0  0  0  0
  1 22  1  0  0  0  0
  1 23  1  0  0  0  0
  1 24  1  0  0  0  0
  2  3  1  0  0  0  0
  2 25  1  0  0  0  0
  2 26  1  0  0  0  0
  3  4  1  0  0  0  0
  3  6  1  0  0  0  0
  3 27  1  0  0  0  0
  4  5  1  0  0  0  0
  4 28  1  0  0  0  0
  4 29  1  0  0  0  0
  5 30  1  0  0  0  0
  5 31  1  0  0  0  0
  5 32  1  0  0  0  0
  6 21  1  0  0  0  0
  6  7  1  0  0  0  0
  6 33  1  0  0  0  0
  7  8  1  0  0  0  0
  7 34  1  0  0  0  0
  7 35  1  0  0  0  0
  8  9  1  0  0  0  0
  8 19  1  0  0  0  0
  8 36  1  0  0  0  0
  9 10  1  0  0  0  0
  9 37  1  0  0  0  0
 10 11  2  0  0  0  0
 10 12  1  0  0  0  0
 12 13  1  0  0  0  0
 12 38  1  0  0  0  0
 13 18  1  0  0  0  0
 13 14  2  0  0  0  0
 14 15  1  0  0  0  0
 14 39  1  0  0  0  0
 15 16  2  0  0  0  0
 15 40  1  0  0  0  0
 16 17  1  0  0  0  0
 16 41  1  0  0  0  0
 17 18  2  0  0  0  0
 17 42  1  0  0  0  0
 19 20  1  0  0  0  0
 19 43  1  0  0  0  0
 19 44  1  0  0  0  0
 20 21  1  0  0  0  0
 20 45  1  0  0  0  0
 20 46  1  0  0  0  0
M  END
> <s_m_source_file>
AV-unprocessed.smi

> <i_m_source_file_index>
2467

> <i_lp_mmshare_version>
43012

> <i_f3d_flags>
0

> <s_epik_input>
W0NIM11bQ0gyXVtDSF0oW0NIMl1bQ0gzXSlbQ0BASF0xW0NIMl1bQ0BIXShbQ0gyXVtDSDJdTzEpW05IXUMoPU8pW05IXWMyW2NIXVtjSF1bY0hdW2NIXW4y

> <s_epik_cmdline>
J2VwaWtfcHl0aG9uJywgJy1waCcsICc3LjAnLCAnLXRuJywgJzgnLCAnLW1hJywgJzIwMCcsICctbWV0YWxfYmluZGluZycsICctaW1hZScsICc8aW5maWxlLm1hZT4nLCAnLW9tYWUnLCAnPG91dGZpbGUubWFlPic=

> <r_lp_tautomer_probability>
1

> <r_epik_Ionization_Penalty>
4.80427e-05

> <r_epik_Ionization_Penalty_Charging>
0

> <r_epik_Ionization_Penalty_Neutral>
4.80427e-05

> <r_epik_State_Penalty>
-0

> <r_epik_Charging_Adjusted_Penalty>
0

> <i_epik_Tot_Q>
0

> <i_epik_Tot_abs_Q>
0

> <r_epik_Metal_State_Penalty>
-0

> <b_epik_Metal_Only>
0

> <s_lp_Force_Field>
OPLS_2005

> <r_lp_Energy>
20.6132

> <b_lp_Chiralities_Consistent>
1

> <s_lp_Variant>
AV-unprocessed.smi:2467-2

> <Gold.Version>
5.8.1

> <Gold.Id.Protein>
6NUR|6NUR_protein|mol2

> <Gold.PLP.Fitness>
40.2296

> <Gold.PLP.PLP>
-40.2361

> <Gold.PLP.part.hbond>
-1.9898

> <Gold.PLP.part.metal>
0.0000

> <Gold.PLP.part.buried>
-2.6088

> <Gold.PLP.part.nonpolar>
-36.5181

> <Gold.PLP.part.repulsive>
0.3098

> <Gold.PLP.ligand.clash>
0.0000

> <Gold.PLP.ligand.torsion>
1.5464

> <Gold.PLP.Chemscore.Hbond>
1.0000

> <Gold.PLP.Chemscore.CHOScore>
0.0000

> <Gold.PLP.Chemscore.Metal>
0.0000

> <Gold.Chemscore.Hbonds>
donor molecule, donor type, donor heavy atom, donor atom, acceptor molecule, acceptor atom, score
      P1  H  6931  6943       L1    18  1.00

> <Gold.PLP.Chemscore.Internal.Correction>
0.0863

> <Gold.Rescore>
     Score         DG    S(hbond)    S(metal)    S(lipo)     H(rot)  DE(clash)    DE(int)     intcor
     13.40     -17.68       0.85        0.00     112.59       1.49       0.55       3.73       ----

> <Gold.Chemscore.Fitness>
13.3995

> <Gold.Chemscore.DG>
-17.6760

> <Gold.Chemscore.ZeroCoef>
-5.4800

> <Gold.Chemscore.Hbond>
0.8460

> <Gold.Chemscore.Metal>
0.0000

> <Gold.Chemscore.Lipo>
112.5925

> <Gold.Chemscore.Internal_Hbond>
0.0000

> <Gold.Chemscore.DEClash>
0.5453

> <Gold.Chemscore.DEInternal>
3.7312

> <Gold.Chemscore.Rot>
1.4856

> <Gold.Chemscore.Internal.Correction>
   9.000000E+99

> <Gold.Chemscore.Hbonds>
donor molecule, donor type, donor heavy atom, donor atom, acceptor molecule, acceptor atom, score
      P1  H  6931  6943       L1    18  0.87

> <Gold.Chemscore.Hbond.Weighted>
-2.8257

> <Gold.Chemscore.Metal.Weighted>
-0.0000

> <Gold.Chemscore.Lipo.Weighted>
-13.1733

> <Gold.Chemscore.Internal_Hbond.Weighted>
0.0000

> <Gold.Chemscore.DEClash.Weighted>
0.5453

> <Gold.Chemscore.DEInternal.Weighted>
3.7312

> <Gold.Chemscore.Rot.Weighted>
3.8031

> <Gold.Chemscore.Internal.Correction.Weighted>
   9.000000E+99

> <Gold.Protein.RotatedTorsions>
[ 6907 6896 6895 6894 ] final -130.57 input  -60.11 | X-H torsion
[ 7974 7965 7964 7962 ] final  -80.70 input  175.53 | X-H torsion
[ 8008 7997 7996 7995 ] final  175.27 input   59.86 | X-H torsion
[ 10167 10162 10161 10158 ] final -178.66 input  -65.29 | X-H torsion
[ 10718 10713 10712 10709 ] final  -10.45 input   66.30 | X-H torsion
[ 10763 10752 10751 10750 ] final -164.56 input  -60.55 | X-H torsion
[ 11005 11000 10999 10996 ] final   60.42 input  -57.11 | X-H torsion

> <Gold.Protein.ActiveResidues>
 VAL166  LYS551  ARG553  GLY616  TRP617  ASP618  TYR619  PRO620  LYS621  CYS622 
 ASP623  PHE694  ASN695  SER759  ASP760  ASP761  ALA762  ILE779  LEU786  VAL792 
 PHE793  MET794  SER795  GLU796  ALA797  LYS798  CYS799  TRP800  GLU811  SER814 

> <Gold.Protein.RotatedAtoms>
  150.9412  133.6655  159.2790 H   0  0  0  0  0  0  0  0  0  0  0  0  # atno 6907 bound_to 6896
  151.4043  135.0974  159.9575 H   0  0  0  0  0  0  0  0  0  0  0  0  # atno 6908 bound_to 6896
  152.5070  133.8899  159.7443 H   0  0  0  0  0  0  0  0  0  0  0  0  # atno 6909 bound_to 6896
  145.5565  140.9489  143.1470 H   0  0  0  0  0  0  0  0  0  0  0  0  # atno 7974 bound_to 7965
  156.0888  140.1413  156.9619 H   0  0  0  0  0  0  0  0  0  0  0  0  # atno 8008 bound_to 7997
  154.4629  140.0936  156.6989 H   0  0  0  0  0  0  0  0  0  0  0  0  # atno 8009 bound_to 7997
  155.4954  140.3449  155.4364 H   0  0  0  0  0  0  0  0  0  0  0  0  # atno 8010 bound_to 7997
  139.5422  144.2333  152.0917 H   0  0  0  0  0  0  0  0  0  0  0  0  # atno 10167 bound_to 10162
  156.6733  130.5015  149.5993 H   0  0  0  0  0  0  0  0  0  0  0  0  # atno 10718 bound_to 10713
  154.7016  135.2989  154.9332 H   0  0  0  0  0  0  0  0  0  0  0  0  # atno 10763 bound_to 10752
  154.0262  135.6676  153.4780 H   0  0  0  0  0  0  0  0  0  0  0  0  # atno 10764 bound_to 10752
  153.0686  135.5074  154.8164 H   0  0  0  0  0  0  0  0  0  0  0  0  # atno 10765 bound_to 10752
  140.0233  134.6121  155.9609 H   0  0  0  0  0  0  0  0  0  0  0  0  # atno 11005 bound_to 11000
  144.7504  139.7210  143.7275 LP  0  0  0  0  0  0  0  0  0  0  0  0  # atno 17320 bound_to 7965
  146.1881  139.5106  142.9823 LP  0  0  0  0  0  0  0  0  0  0  0  0  # atno 17321 bound_to 7965
  140.1813  144.4841  150.6527 LP  0  0  0  0  0  0  0  0  0  0  0  0  # atno 17342 bound_to 10162
  140.6656  143.2267  151.5751 LP  0  0  0  0  0  0  0  0  0  0  0  0  # atno 17343 bound_to 10162
  156.1922  130.6567  151.1074 LP  0  0  0  0  0  0  0  0  0  0  0  0  # atno 17370 bound_to 10713
  157.7069  131.0752  150.6634 LP  0  0  0  0  0  0  0  0  0  0  0  0  # atno 17371 bound_to 10713
  141.1787  133.6543  156.4932 LP  0  0  0  0  0  0  0  0  0  0  0  0  # atno 17394 bound_to 11000
  140.4350  134.7067  157.4962 LP  0  0  0  0  0  0  0  0  0  0  0  0  # atno 17395 bound_to 11000

$$$$
