AV-unprocessed.smi:3164|AV-procd|sdf|12082|dock1
  -GOLD-   2272017513D 1   1.00000     0.00000
 Structure written by MMmdl.
 40 41  0  0  0  0  0  0  0  0  3 V2000
  147.5858  136.6941  154.9469 C   0  0  0  0  0  0  0  0  0  0  0  0
  148.6189  137.6081  154.4141 N   0  3  2  0  0  0  0  0  0  0  0  0
  149.9857  137.2353  154.8436 C   0  0  0  0  0  0  0  0  0  0  0  0
  151.0170  138.1971  154.2315 C   0  0  0  0  0  0  0  0  0  0  0  0
  150.6933  139.5335  154.5970 O   0  0  0  0  0  0  0  0  0  0  0  0
  149.4195  139.9414  154.1051 C   0  0  2  0  0  0  0  0  0  0  0  0
  149.2160  141.4156  154.4862 C   0  0  0  0  0  0  0  0  0  0  0  0
  148.9044  141.5521  155.9227 N   0  3  0  0  0  0  0  0  0  0  0  0
  149.9752  141.0911  156.8296 C   0  0  0  0  0  0  0  0  0  0  0  0
  151.2615  141.9151  156.6504 C   0  0  0  0  0  0  0  0  0  0  0  0
  151.8095  142.4509  157.9629 C   0  0  0  0  0  0  0  0  0  0  0  0
  151.9879  143.8375  158.1545 C   0  0  0  0  0  0  0  0  0  0  0  0
  152.4790  144.2861  159.3962 C   0  0  0  0  0  0  0  0  0  0  0  0
  152.7687  143.3359  160.3941 C   0  0  0  0  0  0  0  0  0  0  0  0
  152.5566  141.9736  160.1049 C   0  0  0  0  0  0  0  0  0  0  0  0
  152.0840  141.5332  158.9185 N   0  0  0  0  0  0  0  0  0  0  0  0
  148.3390  139.0300  154.7224 C   0  0  0  0  0  0  0  0  0  0  0  0
  147.5502  136.7346  156.0363 H   0  0  0  0  0  0  0  0  0  0  0  0
  147.7927  135.6655  154.6493 H   0  0  0  0  0  0  0  0  0  0  0  0
  146.6012  136.9605  154.5616 H   0  0  0  0  0  0  0  0  0  0  0  0
  150.0491  137.2652  155.9328 H   0  0  0  0  0  0  0  0  0  0  0  0
  150.2037  136.2115  154.5371 H   0  0  0  0  0  0  0  0  0  0  0  0
  152.0155  137.9618  154.6001 H   0  0  0  0  0  0  0  0  0  0  0  0
  151.0471  138.1001  153.1450 H   0  0  0  0  0  0  0  0  0  0  0  0
  149.3990  139.8464  153.0175 H   0  0  0  0  0  0  0  0  0  0  0  0
  150.1180  141.9891  154.2687 H   0  0  0  0  0  0  0  0  0  0  0  0
  148.4084  141.8465  153.8927 H   0  0  0  0  0  0  0  0  0  0  0  0
  148.7376  142.5300  156.1171 H   0  0  0  0  0  0  0  0  0  0  0  0
  149.6238  141.1687  157.8591 H   0  0  0  0  0  0  0  0  0  0  0  0
  150.1872  140.0375  156.6418 H   0  0  0  0  0  0  0  0  0  0  0  0
  152.0279  141.3133  156.1596 H   0  0  0  0  0  0  0  0  0  0  0  0
  151.0653  142.7542  155.9817 H   0  0  0  0  0  0  0  0  0  0  0  0
  151.7530  144.5438  157.3714 H   0  0  0  0  0  0  0  0  0  0  0  0
  152.6288  145.3396  159.5802 H   0  0  0  0  0  0  0  0  0  0  0  0
  153.1458  143.6438  161.3582 H   0  0  0  0  0  0  0  0  0  0  0  0
  152.7667  141.2178  160.8469 H   0  0  0  0  0  0  0  0  0  0  0  0
  147.3561  139.3001  154.3337 H   0  0  0  0  0  0  0  0  0  0  0  0
  148.3040  139.1663  155.8047 H   0  0  0  0  0  0  0  0  0  0  0  0
  148.0601  141.0374  156.1299 H   0  0  0  0  0  0  0  0  0  0  0  0
  148.5952  137.5161  153.4082 H   0  0  0  0  0  0  0  0  0  0  0  0
  1  2  1  0  0  0  0
  1 18  1  0  0  0  0
  1 19  1  0  0  0  0
  1 20  1  0  0  0  0
  2 17  1  0  0  0  0
  2  3  1  0  0  0  0
  2 40  1  0  0  0  0
  3  4  1  0  0  0  0
  3 21  1  0  0  0  0
  3 22  1  0  0  0  0
  4  5  1  0  0  0  0
  4 23  1  0  0  0  0
  4 24  1  0  0  0  0
  5  6  1  0  0  0  0
  6  7  1  0  0  0  0
  6 17  1  0  0  0  0
  6 25  1  0  0  0  0
  7  8  1  0  0  0  0
  7 26  1  0  0  0  0
  7 27  1  0  0  0  0
  8  9  1  0  0  0  0
  8 28  1  0  0  0  0
  8 39  1  0  0  0  0
  9 10  1  0  0  0  0
  9 29  1  0  0  0  0
  9 30  1  0  0  0  0
 10 11  1  0  0  0  0
 10 31  1  0  0  0  0
 10 32  1  0  0  0  0
 11 16  1  0  0  0  0
 11 12  2  0  0  0  0
 12 13  1  0  0  0  0
 12 33  1  0  0  0  0
 13 14  2  0  0  0  0
 13 34  1  0  0  0  0
 14 15  1  0  0  0  0
 14 35  1  0  0  0  0
 15 16  2  0  0  0  0
 15 36  1  0  0  0  0
 17 37  1  0  0  0  0
 17 38  1  0  0  0  0
M  CHG  1   2   1
M  CHG  1   8   1
M  END
> <s_m_source_file>
AV-unprocessed.smi

> <i_m_source_file_index>
3164

> <i_lp_mmshare_version>
43012

> <i_f3d_flags>
0

> <s_epik_input>
W0NIM11OMVtDSDJdW0NIMl1PW0NASF0oW0NIMl0xKVtDSDJdW05IXVtDSDJdW0NIMl1jMltjSF1bY0hdW2NIXVtjSF1uMg==

> <s_epik_cmdline>
J2VwaWtfcHl0aG9uJywgJy1waCcsICc3LjAnLCAnLXRuJywgJzgnLCAnLW1hJywgJzIwMCcsICctbWV0YWxfYmluZGluZycsICctaW1hZScsICc8aW5maWxlLm1hZT4nLCAnLW9tYWUnLCAnPG91dGZpbGUubWFlPic=

> <r_epik_Ionization_Penalty>
0.294944

> <r_epik_Ionization_Penalty_Charging>
0.29381

> <r_epik_Ionization_Penalty_Neutral>
0.00113372

> <r_epik_State_Penalty>
0.271365

> <r_epik_Charging_Adjusted_Penalty>
0.565175

> <i_epik_Tot_Q>
2

> <i_epik_Tot_abs_Q>
2

> <r_epik_Metal_State_Penalty>
0.271365

> <b_epik_Metal_Only>
0

> <s_lp_Force_Field>
OPLS_2005

> <r_lp_Energy>
22.5841

> <b_lp_Chiralities_Consistent>
1

> <s_lp_Variant>
AV-unprocessed.smi:3164-4

> <Gold.Version>
5.8.1

> <Gold.Id.Protein>
6NUR|6NUR_protein|mol2

> <Gold.PLP.Fitness>
49.5098

> <Gold.PLP.PLP>
-36.4906

> <Gold.PLP.part.hbond>
-3.0000

> <Gold.PLP.part.metal>
0.0000

> <Gold.PLP.part.buried>
-1.1876

> <Gold.PLP.part.nonpolar>
-31.3073

> <Gold.PLP.part.repulsive>
0.1844

> <Gold.PLP.ligand.clash>
0.0000

> <Gold.PLP.ligand.torsion>
0.4763

> <Gold.PLP.Chemscore.Hbond>
4.6399

> <Gold.PLP.Chemscore.CHOScore>
0.0000

> <Gold.PLP.Chemscore.Metal>
0.0000

> <Gold.Chemscore.Hbonds>
donor molecule, donor type, donor heavy atom, donor atom, acceptor molecule, acceptor atom, score
      L1  H     2    40       P1  7948  1.76
      L1  H     8    28       P1  8028  0.98
      P1  H  7989  7998       L1     5  0.60

> <Gold.PLP.Chemscore.Internal.Correction>
0.0520

> <Gold.Rescore>
     Score         DG    S(hbond)    S(metal)    S(lipo)     H(rot)  DE(clash)    DE(int)     intcor
     17.46     -21.64       2.23        0.00     110.60       1.65       2.47       1.71       ----

> <Gold.Chemscore.Fitness>
17.4610

> <Gold.Chemscore.DG>
-21.6416

> <Gold.Chemscore.ZeroCoef>
-5.4800

> <Gold.Chemscore.Hbond>
2.2255

> <Gold.Chemscore.Metal>
0.0000

> <Gold.Chemscore.Lipo>
110.6023

> <Gold.Chemscore.Internal_Hbond>
0.0000

> <Gold.Chemscore.DEClash>
2.4741

> <Gold.Chemscore.DEInternal>
1.7064

> <Gold.Chemscore.Rot>
1.6454

> <Gold.Chemscore.Internal.Correction>
   9.000000E+99

> <Gold.Chemscore.Hbonds>
donor molecule, donor type, donor heavy atom, donor atom, acceptor molecule, acceptor atom, score
      L1  H     2    40       P1  7948  0.81
      L1  H     8    28       P1  8028  0.47
      P1  H  7989  7998       L1     5  0.03

> <Gold.Chemscore.Hbond.Weighted>
-7.4333

> <Gold.Chemscore.Metal.Weighted>
-0.0000

> <Gold.Chemscore.Lipo.Weighted>
-12.9405

> <Gold.Chemscore.Internal_Hbond.Weighted>
0.0000

> <Gold.Chemscore.DEClash.Weighted>
2.4741

> <Gold.Chemscore.DEInternal.Weighted>
1.7064

> <Gold.Chemscore.Rot.Weighted>
4.2122

> <Gold.Chemscore.Internal.Correction.Weighted>
   9.000000E+99

> <Gold.Protein.RotatedTorsions>
[ 6907 6896 6895 6894 ] final -173.82 input  -60.11 | X-H torsion
[ 7974 7965 7964 7962 ] final   97.04 input  175.53 | X-H torsion
[ 8008 7997 7996 7995 ] final   21.37 input   59.86 | X-H torsion
[ 10167 10162 10161 10158 ] final  -85.79 input  -65.29 | X-H torsion
[ 10718 10713 10712 10709 ] final    5.45 input   66.30 | X-H torsion
[ 10763 10752 10751 10750 ] final    2.97 input  -60.55 | X-H torsion
[ 11005 11000 10999 10996 ] final -165.11 input  -57.11 | X-H torsion

> <Gold.Protein.ActiveResidues>
 VAL166  LYS551  ARG553  GLY616  TRP617  ASP618  TYR619  PRO620  LYS621  CYS622 
 ASP623  PHE694  ASN695  SER759  ASP760  ASP761  ALA762  ILE779  LEU786  VAL792 
 PHE793  MET794  SER795  GLU796  ALA797  LYS798  CYS799  TRP800  GLU811  SER814 

> <Gold.Protein.RotatedAtoms>
  151.5623  133.3401  159.2973 H   0  0  0  0  0  0  0  0  0  0  0  0  # atno 6907 bound_to 6896
  150.8415  134.7712  159.6947 H   0  0  0  0  0  0  0  0  0  0  0  0  # atno 6908 bound_to 6896
  152.4482  134.5457  159.9904 H   0  0  0  0  0  0  0  0  0  0  0  0  # atno 6909 bound_to 6896
  145.4308  139.2311  143.3145 H   0  0  0  0  0  0  0  0  0  0  0  0  # atno 7974 bound_to 7965
  154.9496  140.3064  155.5081 H   0  0  0  0  0  0  0  0  0  0  0  0  # atno 8008 bound_to 7997
  156.2988  140.2321  156.4510 H   0  0  0  0  0  0  0  0  0  0  0  0  # atno 8009 bound_to 7997
  154.8068  140.0431  157.1302 H   0  0  0  0  0  0  0  0  0  0  0  0  # atno 8010 bound_to 7997
  140.4003  143.2665  151.9151 H   0  0  0  0  0  0  0  0  0  0  0  0  # atno 10167 bound_to 10162
  156.9076  130.5744  149.5647 H   0  0  0  0  0  0  0  0  0  0  0  0  # atno 10718 bound_to 10713
  153.2891  135.6947  153.7311 H   0  0  0  0  0  0  0  0  0  0  0  0  # atno 10763 bound_to 10752
  153.6268  135.3417  155.3030 H   0  0  0  0  0  0  0  0  0  0  0  0  # atno 10764 bound_to 10752
  154.8518  135.4399  154.1968 H   0  0  0  0  0  0  0  0  0  0  0  0  # atno 10765 bound_to 10752
  140.5793  134.5157  157.5175 H   0  0  0  0  0  0  0  0  0  0  0  0  # atno 11005 bound_to 11000
  146.2608  140.5044  142.8854 LP  0  0  0  0  0  0  0  0  0  0  0  0  # atno 17320 bound_to 7965
  144.8184  140.6508  143.6369 LP  0  0  0  0  0  0  0  0  0  0  0  0  # atno 17321 bound_to 7965
  139.4785  144.5640  151.8194 LP  0  0  0  0  0  0  0  0  0  0  0  0  # atno 17342 bound_to 10162
  140.4746  144.1537  150.5923 LP  0  0  0  0  0  0  0  0  0  0  0  0  # atno 17343 bound_to 10162
  156.0551  130.5614  150.9075 LP  0  0  0  0  0  0  0  0  0  0  0  0  # atno 17370 bound_to 10713
  157.5987  131.0942  150.8996 LP  0  0  0  0  0  0  0  0  0  0  0  0  # atno 17371 bound_to 10713
  139.9324  134.7938  156.0893 LP  0  0  0  0  0  0  0  0  0  0  0  0  # atno 17394 bound_to 11000
  141.1006  133.6678  156.2746 LP  0  0  0  0  0  0  0  0  0  0  0  0  # atno 17395 bound_to 11000

$$$$
