#       Name:                AV-unprocessed.smi:2978
#       Creating user name   scv26
#       Creation time:       Fri Mar 27 16:28:39 2020


#       File generated by GOLD software.
#

@<TRIPOS>MOLECULE
AV-unprocessed.smi:2978
    39    40     1
SMALL
NO_CHARGES


@<TRIPOS>ATOM
      1 ****        -0.1729   0.7563   0.6717 O.2            1 S1                 0.0000
      2 ****         0.5157  -0.2510   0.5020 C.2            1 S1                 0.0000
      3 ****         2.0484  -0.1588   0.4726 C.3            1 S1                 0.0000
      4 ****         2.5750   1.0183   1.1792 N.am           1 S1                 0.0000
      5 ****         2.9247   2.0668   0.3461 N.2            1 S1                 0.0000
      6 ****         3.3811   3.1578   0.8574 C.2            1 S1                 0.0000
      7 ****         3.5479   3.3296   2.2837 C.2            1 S1                 0.0000
      8 ****         4.1642   4.8174   2.9113 Cl             1 S1                 0.0000
      9 ****         3.2094   2.2930   3.0909 C.2            1 S1                 0.0000
     10 ****         3.3843   2.4222   4.8076 Cl             1 S1                 0.0000
     11 ****         2.6862   1.0336   2.5434 C.2            1 S1                 0.0000
     12 ****         2.3705   0.0692   3.2417 O.2            1 S1                 0.0000
     13 ****        -0.0028  -1.4735   0.3103 N.am           1 S1                 0.0000
     14 ****        -1.4256  -1.7971   0.2876 C.3            1 S1                 0.0000
     15 ****        -1.9734  -1.8654  -1.1480 C.3            1 S1                 0.0000
     16 ****        -1.9818  -0.5359  -1.9044 C.3            1 S1                 0.0000
     17 ****        -3.0784  -0.7685  -2.9175 C.3            1 S1                 0.0000
     18 ****        -4.0907  -1.5656  -2.1004 C.3            1 S1                 0.0000
     19 ****        -3.3337  -2.2907  -1.1340 O.3            1 S1                 0.0000
     20 ****         2.4790  -1.0692   0.8941 H              1 S1                 0.0000
     21 ****         2.3634  -0.1439  -0.5722 H              1 S1                 0.0000
     22 ****         3.6670   4.0103   0.2411 H              1 S1                 0.0000
     23 ****         0.6381  -2.2415   0.1722 H              1 S1                 0.0000
     24 ****        -1.5502  -2.7677   0.7684 H              1 S1                 0.0000
     25 ****        -2.0017  -1.0878   0.8843 H              1 S1                 0.0000
     26 ****        -1.4110  -2.6015  -1.7252 H              1 S1                 0.0000
     27 ****        -2.2585   0.2843  -1.2404 H              1 S1                 0.0000
     28 ****        -1.0206  -0.2980  -2.3608 H              1 S1                 0.0000
     29 ****        -3.4913   0.1549  -3.3246 H              1 S1                 0.0000
     30 ****        -2.7022  -1.3715  -3.7451 H              1 S1                 0.0000
     31 ****        -4.7682  -0.8928  -1.5733 H              1 S1                 0.0000
     32 ****        -4.6905  -2.2331  -2.7194 H              1 S1                 0.0000
     33 ****         0.2653   1.6470   0.7923 LP             1 S1                 0.0000
     34 ****        -1.1701   0.6832   0.6889 LP             1 S1                 0.0000
     35 ****         2.8239   1.9783  -0.6449 LP             1 S1                 0.0000
     36 ****         2.0183  -0.7635   2.8144 LP             1 S1                 0.0000
     37 ****         2.4663   0.1190   4.2358 LP             1 S1                 0.0000
     38 ****        -3.7197  -2.1308  -0.2255 LP             1 S1                 0.0000
     39 ****        -3.3761  -3.2668  -1.3470 LP             1 S1                 0.0000
@<TRIPOS>BOND
    1    1    2 2     
    2    2    3 1     
    3    2   13 am    
    4    3    4 1     
    5    3   20 1     
    6    3   21 1     
    7    4   11 am    
    8    4    5 1     
    9    5    6 2     
   10    6    7 1     
   11    6   22 1     
   12    7    8 1     
   13    7    9 2     
   14    9   10 1     
   15    9   11 1     
   16   11   12 2     
   17   13   14 1     
   18   13   23 1     
   19   14   15 1     
   20   14   24 1     
   21   14   25 1     
   22   15   19 1     
   23   15   16 1     
   24   15   26 1     
   25   16   17 1     
   26   16   27 1     
   27   16   28 1     
   28   17   18 1     
   29   17   29 1     
   30   17   30 1     
   31   18   19 1     
   32   18   31 1     
   33   18   32 1     
   34    1   33 1     
   35    1   34 1     
   36    5   35 1     
   37   12   36 1     
   38   12   37 1     
   39   19   38 1     
   40   19   39 1     
@<TRIPOS>SUBSTRUCTURE
      1 S1             1
@<TRIPOS>SET
LONE_PAIRS      STATIC     ATOMS    <user>   **** ""
7 33 34 35 36 37 38 39
DONOR_HYDROGENS      STATIC     ATOMS    <user>   **** ""
1 23
ATOM$BLUE        STATIC     ATOMS    COLORGROUP SYSTEM
7 33 34 35 36 37 38 39
ATOM$RED        STATIC     ATOMS    COLORGROUP SYSTEM
1 23
