AV-unprocessed.smi:1645|AV-procd|sdf|6623|dock3
  -GOLD-   22720 7323D 1   1.00000     0.00000
 Structure written by MMmdl.
 55 58  0  0  0  0  0  0  0  0  4 V2000
  149.4301  134.2687  155.8042 O   0  0  0  0  0  0  0  0  0  0  0  0
  149.0477  134.8398  154.7765 C   0  0  0  0  0  0  0  0  0  0  0  0
  149.3117  136.1448  154.5873 N   0  0  0  0  0  0  0  0  0  0  0  0
  149.9298  137.0669  155.4733 C   0  0  0  0  0  0  0  0  0  0  0  0
  150.6805  136.6839  156.6103 C   0  0  0  0  0  0  0  0  0  0  0  0
  151.2313  137.6760  157.4468 C   0  0  0  0  0  0  0  0  0  0  0  0
  151.0245  139.0475  157.1522 C   0  0  0  0  0  0  0  0  0  0  0  0
  151.5301  140.1081  157.9384 N   0  0  0  0  0  0  0  0  0  0  0  0
  152.1475  139.7338  159.2150 C   0  0  0  0  0  0  0  0  0  0  0  0
  153.0223  140.8695  159.7732 C   0  0  0  0  0  0  0  0  0  0  0  0
  152.2364  142.1853  159.8545 C   0  0  0  0  0  0  0  0  0  0  0  0
  151.6549  142.5289  158.4767 C   0  0  0  0  0  0  0  0  0  0  0  0
  150.7959  141.3752  157.9315 C   0  0  0  0  0  0  0  0  0  0  0  0
  150.2839  139.3583  156.0602 N   0  3  0  0  0  0  0  0  0  0  0  0
  149.7371  138.4412  155.2335 C   0  0  0  0  0  0  0  0  0  0  0  0
  148.3687  134.2965  153.7306 N   0  5  0  0  0  0  0  0  0  0  0  0
  148.6261  132.9686  153.1689 C   0  0  1  0  0  0  0  0  0  0  0  0
  149.2574  132.0177  154.2048 C   0  0  0  0  0  0  0  0  0  0  0  0
  148.6582  130.6289  153.9108 C   0  0  0  0  0  0  0  0  0  0  0  0
  147.7268  130.8300  152.7839 N   0  3  1  0  0  0  0  0  0  0  0  0
  146.5784  129.9030  152.6806 C   0  0  0  0  0  0  0  0  0  0  0  0
  145.7965  130.2040  151.3859 C   0  0  0  0  0  0  0  0  0  0  0  0
  145.4015  131.6922  151.2857 C   0  0  0  0  0  0  0  0  0  0  0  0
  146.6245  132.6096  151.4854 C   0  0  0  0  0  0  0  0  0  0  0  0
  147.3220  132.2450  152.8124 C   0  0  2  0  0  0  0  0  0  0  0  0
  149.0747  136.5072  153.6754 H   0  0  0  0  0  0  0  0  0  0  0  0
  150.8318  135.6459  156.8643 H   0  0  0  0  0  0  0  0  0  0  0  0
  151.8085  137.3578  158.3014 H   0  0  0  0  0  0  0  0  0  0  0  0
  151.3561  139.4919  159.9254 H   0  0  0  0  0  0  0  0  0  0  0  0
  152.7651  138.8413  159.1184 H   0  0  0  0  0  0  0  0  0  0  0  0
  153.4000  140.5976  160.7593 H   0  0  0  0  0  0  0  0  0  0  0  0
  153.8962  141.0053  159.1344 H   0  0  0  0  0  0  0  0  0  0  0  0
  151.4308  142.0922  160.5838 H   0  0  0  0  0  0  0  0  0  0  0  0
  152.8841  142.9905  160.2027 H   0  0  0  0  0  0  0  0  0  0  0  0
  151.0590  143.4398  158.5383 H   0  0  0  0  0  0  0  0  0  0  0  0
  152.4686  142.7377  157.7806 H   0  0  0  0  0  0  0  0  0  0  0  0
  150.4891  141.6296  156.9166 H   0  0  0  0  0  0  0  0  0  0  0  0
  149.8904  141.2656  158.5298 H   0  0  0  0  0  0  0  0  0  0  0  0
  149.1674  138.8355  154.4045 H   0  0  0  0  0  0  0  0  0  0  0  0
  149.2607  132.9992  152.2814 H   0  0  0  0  0  0  0  0  0  0  0  0
  150.3453  132.0175  154.1308 H   0  0  0  0  0  0  0  0  0  0  0  0
  149.0008  132.3111  155.2242 H   0  0  0  0  0  0  0  0  0  0  0  0
  149.4208  129.8956  153.6455 H   0  0  0  0  0  0  0  0  0  0  0  0
  148.1234  130.2569  154.7868 H   0  0  0  0  0  0  0  0  0  0  0  0
  146.9379  128.8735  152.6728 H   0  0  0  0  0  0  0  0  0  0  0  0
  145.9326  130.0141  153.5531 H   0  0  0  0  0  0  0  0  0  0  0  0
  146.4115  129.9383  150.5249 H   0  0  0  0  0  0  0  0  0  0  0  0
  144.9066  129.5763  151.3326 H   0  0  0  0  0  0  0  0  0  0  0  0
  144.9350  131.8931  150.3210 H   0  0  0  0  0  0  0  0  0  0  0  0
  144.6515  131.9191  152.0444 H   0  0  0  0  0  0  0  0  0  0  0  0
  147.3058  132.4934  150.6403 H   0  0  0  0  0  0  0  0  0  0  0  0
  146.3034  133.6528  151.4891 H   0  0  0  0  0  0  0  0  0  0  0  0
  146.6117  132.3749  153.6329 H   0  0  0  0  0  0  0  0  0  0  0  0
  148.2777  130.7202  151.9446 H   0  0  0  0  0  0  0  0  0  0  0  0
  150.1254  140.3438  155.8513 H   0  0  0  0  0  0  0  0  0  0  0  0
  1  2  2  0  0  0  0
  2  3  1  0  0  0  0
  2 16  1  0  0  0  0
  3  4  1  0  0  0  0
  3 26  1  0  0  0  0
  4 15  1  0  0  0  0
  4  5  2  0  0  0  0
  5  6  1  0  0  0  0
  5 27  1  0  0  0  0
  6  7  2  0  0  0  0
  6 28  1  0  0  0  0
  7  8  1  0  0  0  0
  7 14  1  0  0  0  0
  8 13  1  0  0  0  0
  8  9  1  0  0  0  0
  9 10  1  0  0  0  0
  9 29  1  0  0  0  0
  9 30  1  0  0  0  0
 10 11  1  0  0  0  0
 10 31  1  0  0  0  0
 10 32  1  0  0  0  0
 11 12  1  0  0  0  0
 11 33  1  0  0  0  0
 11 34  1  0  0  0  0
 12 13  1  0  0  0  0
 12 35  1  0  0  0  0
 12 36  1  0  0  0  0
 13 37  1  0  0  0  0
 13 38  1  0  0  0  0
 14 15  2  0  0  0  0
 14 55  1  0  0  0  0
 15 39  1  0  0  0  0
 16 17  1  0  0  0  0
 17 25  1  0  0  0  0
 17 18  1  0  0  0  0
 17 40  1  0  0  0  0
 18 19  1  0  0  0  0
 18 41  1  0  0  0  0
 18 42  1  0  0  0  0
 19 20  1  0  0  0  0
 19 43  1  0  0  0  0
 19 44  1  0  0  0  0
 20 25  1  0  0  0  0
 20 21  1  0  0  0  0
 20 54  1  0  0  0  0
 21 22  1  0  0  0  0
 21 45  1  0  0  0  0
 21 46  1  0  0  0  0
 22 23  1  0  0  0  0
 22 47  1  0  0  0  0
 22 48  1  0  0  0  0
 23 24  1  0  0  0  0
 23 49  1  0  0  0  0
 23 50  1  0  0  0  0
 24 25  1  0  0  0  0
 24 51  1  0  0  0  0
 24 52  1  0  0  0  0
 25 53  1  0  0  0  0
M  CHG  1  14   1
M  CHG  1  16  -1
M  CHG  1  20   1
M  END
> <s_m_source_file>
AV-unprocessed.smi

> <i_m_source_file_index>
1645

> <i_lp_mmshare_version>
43012

> <i_f3d_flags>
0

> <s_epik_input>
W0NIMl0xW0NIMl1bQ0gyXVtDSDJdW0NASF0oTjEyKVtDQEBIXShbQ0gyXVtDSDJdMilbTkhdQyg9TylbTkhdYzNbY0hdW2NIXWMobltjSF0zKU40W0NIMl1bQ0gyXVtDSDJdW0NIMl1bQ0gyXTQ=

> <s_epik_cmdline>
J2VwaWtfcHl0aG9uJywgJy1waCcsICc3LjAnLCAnLXRuJywgJzgnLCAnLW1hJywgJzIwMCcsICctbWV0YWxfYmluZGluZycsICctaW1hZScsICc8aW5maWxlLm1hZT4nLCAnLW9tYWUnLCAnPG91dGZpbGUubWFlPic=

> <r_lp_tautomer_probability>
0.999994

> <r_epik_Ionization_Penalty>
8.55589

> <r_epik_Ionization_Penalty_Charging>
8.55589

> <r_epik_Ionization_Penalty_Neutral>
3.8092e-06

> <r_epik_State_Penalty>
8.15703

> <r_epik_Charging_Adjusted_Penalty>
16.7129

> <i_epik_Tot_Q>
1

> <i_epik_Tot_abs_Q>
3

> <r_epik_Metal_State_Penalty>
4.13781

> <b_epik_Metal_Only>
1

> <s_lp_Force_Field>
OPLS_2005

> <r_lp_Energy>
51.9528

> <b_lp_Chiralities_Consistent>
1

> <s_lp_Variant>
AV-unprocessed.smi:1645-24

> <Gold.Version>
5.8.1

> <Gold.Id.Protein>
6NUR|6NUR_protein|mol2

> <Gold.PLP.Fitness>
45.6824

> <Gold.PLP.PLP>
-41.1142

> <Gold.PLP.part.hbond>
-2.0000

> <Gold.PLP.part.metal>
0.0000

> <Gold.PLP.part.buried>
-6.9356

> <Gold.PLP.part.nonpolar>
-34.2650

> <Gold.PLP.part.repulsive>
2.1440

> <Gold.PLP.ligand.clash>
0.0000

> <Gold.PLP.ligand.torsion>
0.8707

> <Gold.PLP.Chemscore.Hbond>
1.9833

> <Gold.PLP.Chemscore.CHOScore>
0.0000

> <Gold.PLP.Chemscore.Metal>
0.0000

> <Gold.Chemscore.Hbonds>
donor molecule, donor type, donor heavy atom, donor atom, acceptor molecule, acceptor atom, score
      L1  H     3    26       P1  7948  0.96
      L1  H    20    54       P1 10747  1.00

> <Gold.PLP.Chemscore.Internal.Correction>
0.3597

> <Gold.Rescore>
     Score         DG    S(hbond)    S(metal)    S(lipo)     H(rot)  DE(clash)    DE(int)     intcor
     17.99     -21.82       1.87        0.00     108.03       1.00       0.18       3.66       ----

> <Gold.Chemscore.Fitness>
17.9859

> <Gold.Chemscore.DG>
-21.8204

> <Gold.Chemscore.ZeroCoef>
-5.4800

> <Gold.Chemscore.Hbond>
1.8746

> <Gold.Chemscore.Metal>
0.0000

> <Gold.Chemscore.Lipo>
108.0268

> <Gold.Chemscore.Internal_Hbond>
0.0000

> <Gold.Chemscore.DEClash>
0.1779

> <Gold.Chemscore.DEInternal>
3.6566

> <Gold.Chemscore.Rot>
1.0000

> <Gold.Chemscore.Internal.Correction>
   9.000000E+99

> <Gold.Chemscore.Hbonds>
donor molecule, donor type, donor heavy atom, donor atom, acceptor molecule, acceptor atom, score
      L1  H     3    26       P1  7948  0.91
      L1  H    20    54       P1 10747  0.99

> <Gold.Chemscore.Hbond.Weighted>
-6.2613

> <Gold.Chemscore.Metal.Weighted>
-0.0000

> <Gold.Chemscore.Lipo.Weighted>
-12.6391

> <Gold.Chemscore.Internal_Hbond.Weighted>
0.0000

> <Gold.Chemscore.DEClash.Weighted>
0.1779

> <Gold.Chemscore.DEInternal.Weighted>
3.6566

> <Gold.Chemscore.Rot.Weighted>
2.5600

> <Gold.Chemscore.Internal.Correction.Weighted>
   9.000000E+99

> <Gold.Protein.RotatedTorsions>
[ 6907 6896 6895 6894 ] final   61.16 input  -60.11 | X-H torsion
[ 7974 7965 7964 7962 ] final -105.41 input  175.53 | X-H torsion
[ 8008 7997 7996 7995 ] final  141.57 input   59.86 | X-H torsion
[ 10167 10162 10161 10158 ] final -104.42 input  -65.29 | X-H torsion
[ 10718 10713 10712 10709 ] final -130.63 input   66.30 | X-H torsion
[ 10763 10752 10751 10750 ] final  133.33 input  -60.55 | X-H torsion
[ 11005 11000 10999 10996 ] final  141.37 input  -57.11 | X-H torsion

> <Gold.Protein.ActiveResidues>
 VAL166  LYS551  ARG553  GLY616  TRP617  ASP618  TYR619  PRO620  LYS621  CYS622 
 ASP623  PHE694  ASN695  SER759  ASP760  ASP761  ALA762  ILE779  LEU786  VAL792 
 PHE793  MET794  SER795  GLU796  ALA797  LYS798  CYS799  TRP800  GLU811  SER814 

> <Gold.Protein.RotatedAtoms>
  152.4065  134.6198  160.0047 H   0  0  0  0  0  0  0  0  0  0  0  0  # atno 6907 bound_to 6896
  151.6388  133.3321  159.3133 H   0  0  0  0  0  0  0  0  0  0  0  0  # atno 6908 bound_to 6896
  150.7959  134.7060  159.6621 H   0  0  0  0  0  0  0  0  0  0  0  0  # atno 6909 bound_to 6896
  145.2308  140.9169  143.3206 H   0  0  0  0  0  0  0  0  0  0  0  0  # atno 7974 bound_to 7965
  156.2963  140.2311  156.4586 H   0  0  0  0  0  0  0  0  0  0  0  0  # atno 8008 bound_to 7997
  154.8038  140.0447  157.1313 H   0  0  0  0  0  0  0  0  0  0  0  0  # atno 8009 bound_to 7997
  154.9502  140.3041  155.5082 H   0  0  0  0  0  0  0  0  0  0  0  0  # atno 8010 bound_to 7997
  140.2094  143.3758  152.1063 H   0  0  0  0  0  0  0  0  0  0  0  0  # atno 10167 bound_to 10162
  156.2163  130.6950  151.0706 H   0  0  0  0  0  0  0  0  0  0  0  0  # atno 10718 bound_to 10713
  153.8054  135.3136  155.3395 H   0  0  0  0  0  0  0  0  0  0  0  0  # atno 10763 bound_to 10752
  154.8073  135.4690  154.0427 H   0  0  0  0  0  0  0  0  0  0  0  0  # atno 10764 bound_to 10752
  153.1788  135.6890  153.8594 H   0  0  0  0  0  0  0  0  0  0  0  0  # atno 10765 bound_to 10752
  140.0396  134.9311  157.0818 H   0  0  0  0  0  0  0  0  0  0  0  0  # atno 11005 bound_to 11000
  144.9679  139.3911  143.6324 LP  0  0  0  0  0  0  0  0  0  0  0  0  # atno 17320 bound_to 7965
  146.3353  139.8762  142.8832 LP  0  0  0  0  0  0  0  0  0  0  0  0  # atno 17321 bound_to 7965
  139.5186  144.7007  151.5500 LP  0  0  0  0  0  0  0  0  0  0  0  0  # atno 17342 bound_to 10162
  140.6334  143.9032  150.6625 LP  0  0  0  0  0  0  0  0  0  0  0  0  # atno 17343 bound_to 10162
  157.7065  131.0754  150.6650 LP  0  0  0  0  0  0  0  0  0  0  0  0  # atno 17370 bound_to 10713
  156.6711  130.4540  149.5657 LP  0  0  0  0  0  0  0  0  0  0  0  0  # atno 17371 bound_to 10713
  140.4091  134.2001  155.7163 LP  0  0  0  0  0  0  0  0  0  0  0  0  # atno 17394 bound_to 11000
  141.1876  133.8278  157.1026 LP  0  0  0  0  0  0  0  0  0  0  0  0  # atno 17395 bound_to 11000

$$$$
