#       Name:                AV-unprocessed.smi:2249
#       Creating user name   scv26
#       Creation time:       Fri Mar 27 12:29:56 2020


#       File generated by GOLD software.
#

@<TRIPOS>MOLECULE
AV-unprocessed.smi:2249
    43    44     1
SMALL
NO_CHARGES


@<TRIPOS>ATOM
      1 ****        -1.8175  -0.7326   2.1164 C.3            1 S1                 0.0000
      2 ****        -1.4663  -0.1299   0.7434 C.3            1 S1                 0.0000
      3 ****        -0.0104  -0.0645   0.6189 N.am           1 S1                 0.0000
      4 ****         0.7600   0.9704   0.9854 C.2            1 S1                 0.0000
      5 ****         0.3170   2.0028   1.4892 O.2            1 S1                 0.0000
      6 ****         2.0565   0.7206   0.7315 N.am           1 S1                 0.0000
      7 ****         3.1347   1.5196   0.9492 C.2            1 S1                 0.0000
      8 ****         3.1763   2.7899   1.4559 C.2            1 S1                 0.0000
      9 ****         4.5701   3.0829   1.4379 C.2            1 S1                 0.0000
     10 ****         5.3055   2.0849   0.9638 N.2            1 S1                 0.0000
     11 ****         4.4187   1.1129   0.6580 N.pl3          1 S1                 0.0000
     12 ****         4.8830  -0.1453   0.1069 C.3            1 S1                 0.0000
     13 ****        -2.0675  -0.9216  -0.4474 C.3            1 S1                 0.0000
     14 ****        -1.6531  -0.3346  -1.8142 C.3            1 S1                 0.0000
     15 ****        -2.3202  -1.0917  -2.9736 C.3            1 S1                 0.0000
     16 ****        -3.7340  -1.0620  -2.8242 O.3            1 S1                 0.0000
     17 ****        -4.1729  -1.7091  -1.6364 C.3            1 S1                 0.0000
     18 ****        -3.6078  -0.9868  -0.4025 C.3            1 S1                 0.0000
     19 ****        -2.8870  -0.6832   2.3178 H              1 S1                 0.0000
     20 ****        -1.3219  -0.1903   2.9223 H              1 S1                 0.0000
     21 ****        -1.5103  -1.7768   2.1827 H              1 S1                 0.0000
     22 ****        -1.8702   0.8836   0.7054 H              1 S1                 0.0000
     23 ****         0.4433  -0.8714   0.2159 H              1 S1                 0.0000
     24 ****         2.2641  -0.1794   0.3245 H              1 S1                 0.0000
     25 ****         2.3642   3.4188   1.7879 H              1 S1                 0.0000
     26 ****         5.0681   3.9876   1.7537 H              1 S1                 0.0000
     27 ****         4.6945  -0.9477   0.8203 H              1 S1                 0.0000
     28 ****         5.9528  -0.1020  -0.1026 H              1 S1                 0.0000
     29 ****         4.3508  -0.3591  -0.8204 H              1 S1                 0.0000
     30 ****        -1.6896  -1.9443  -0.3976 H              1 S1                 0.0000
     31 ****        -1.9335   0.7185  -1.8630 H              1 S1                 0.0000
     32 ****        -0.5714  -0.3734  -1.9436 H              1 S1                 0.0000
     33 ****        -2.0581  -0.6261  -3.9238 H              1 S1                 0.0000
     34 ****        -1.9690  -2.1238  -3.0178 H              1 S1                 0.0000
     35 ****        -5.2627  -1.6949  -1.6110 H              1 S1                 0.0000
     36 ****        -3.8695  -2.7571  -1.6464 H              1 S1                 0.0000
     37 ****        -3.9478  -1.5075   0.4921 H              1 S1                 0.0000
     38 ****        -4.0201   0.0218  -0.3536 H              1 S1                 0.0000
     39 ****        -0.6659   2.1015   1.6446 LP             1 S1                 0.0000
     40 ****         0.9401   2.7427   1.7429 LP             1 S1                 0.0000
     41 ****         6.2994   2.0583   0.8564 LP             1 S1                 0.0000
     42 ****        -4.1487  -1.5202  -3.6104 LP             1 S1                 0.0000
     43 ****        -4.0332  -0.1081  -2.7984 LP             1 S1                 0.0000
@<TRIPOS>BOND
    1    1    2 1     
    2    1   19 1     
    3    1   20 1     
    4    1   21 1     
    5    2    3 1     
    6    2   13 1     
    7    2   22 1     
    8    3    4 am    
    9    3   23 1     
   10    4    5 2     
   11    4    6 am    
   12    6    7 1     
   13    6   24 1     
   14    7   11 1     
   15    7    8 2     
   16    8    9 1     
   17    8   25 1     
   18    9   10 2     
   19    9   26 1     
   20   10   11 1     
   21   11   12 1     
   22   12   27 1     
   23   12   28 1     
   24   12   29 1     
   25   13   18 1     
   26   13   14 1     
   27   13   30 1     
   28   14   15 1     
   29   14   31 1     
   30   14   32 1     
   31   15   16 1     
   32   15   33 1     
   33   15   34 1     
   34   16   17 1     
   35   17   18 1     
   36   17   35 1     
   37   17   36 1     
   38   18   37 1     
   39   18   38 1     
   40    5   39 1     
   41    5   40 1     
   42   10   41 1     
   43   16   42 1     
   44   16   43 1     
@<TRIPOS>SUBSTRUCTURE
      1 S1             1
@<TRIPOS>SET
LONE_PAIRS      STATIC     ATOMS    <user>   **** ""
5 39 40 41 42 43
DONOR_HYDROGENS      STATIC     ATOMS    <user>   **** ""
2 23 24
ATOM$BLUE        STATIC     ATOMS    COLORGROUP SYSTEM
5 39 40 41 42 43
ATOM$RED        STATIC     ATOMS    COLORGROUP SYSTEM
2 23 24
