#       Name:                AV-unprocessed.smi:2167
#       Creating user name   scv26
#       Creation time:       Fri Mar 27 12:00:42 2020


#       File generated by GOLD software.
#

@<TRIPOS>MOLECULE
AV-unprocessed.smi:2167
    46    47     1
SMALL
NO_CHARGES


@<TRIPOS>ATOM
      1 ****        -2.5059   3.4694   3.1511 C.3            1 S1                 0.0000
      2 ****        -2.2698   3.4543   1.6339 C.3            1 S1                 0.0000
      3 ****        -3.1102   2.3976   0.9028 C.3            1 S1                 0.0000
      4 ****        -0.8168   3.3511   1.2922 C.2            1 S1                 0.0000
      5 ****        -0.0581   2.2924   1.5916 N.2            1 S1                 0.0000
      6 ****         1.2646   2.4339   1.1590 C.2            1 S1                 0.0000
      7 ****         2.2566   1.3351   1.4054 C.3            1 S1                 0.0000
      8 ****         2.2639   0.3580   0.2294 C.2            1 S1                 0.0000
      9 ****         3.1503   0.4251  -0.6222 O.2            1 S1                 0.0000
     10 ****         1.2710  -0.5463   0.1960 N.am           1 S1                 0.0000
     11 ****         1.0895  -1.5747  -0.8307 C.3            1 S1                 0.0000
     12 ****        -0.4090  -1.9548  -0.8495 C.3            1 S1                 0.0000
     13 ****        -0.8721  -2.5865  -2.1739 C.3            1 S1                 0.0000
     14 ****        -0.2384  -3.9473  -2.5014 C.3            1 S1                 0.0000
     15 ****         1.2886  -3.8931  -2.6800 C.3            1 S1                 0.0000
     16 ****         1.9888  -3.8250  -1.4040 N.am           1 S1                 0.0000
     17 ****         1.9286  -2.8323  -0.5035 C.2            1 S1                 0.0000
     18 ****         2.5298  -2.9272   0.5665 O.2            1 S1                 0.0000
     19 ****         1.5013   3.6311   0.5302 C.2            1 S1                 0.0000
     20 ****         0.0683   4.6182   0.4497 S.3            1 S1                 0.0000
     21 ****        -1.9642   4.2895   3.6237 H              1 S1                 0.0000
     22 ****        -2.1732   2.5397   3.6139 H              1 S1                 0.0000
     23 ****        -3.5637   3.5956   3.3828 H              1 S1                 0.0000
     24 ****        -2.6041   4.4236   1.2615 H              1 S1                 0.0000
     25 ****        -2.9811   2.4726  -0.1773 H              1 S1                 0.0000
     26 ****        -4.1718   2.5219   1.1180 H              1 S1                 0.0000
     27 ****        -2.8266   1.3882   1.2029 H              1 S1                 0.0000
     28 ****         3.2585   1.7458   1.5375 H              1 S1                 0.0000
     29 ****         2.0227   0.7954   2.3242 H              1 S1                 0.0000
     30 ****         0.5902  -0.5250   0.9414 H              1 S1                 0.0000
     31 ****         1.3864  -1.1665  -1.7984 H              1 S1                 0.0000
     32 ****        -0.6579  -2.6090  -0.0119 H              1 S1                 0.0000
     33 ****        -1.0061  -1.0533  -0.7009 H              1 S1                 0.0000
     34 ****        -1.9550  -2.7101  -2.1384 H              1 S1                 0.0000
     35 ****        -0.6807  -1.8913  -2.9923 H              1 S1                 0.0000
     36 ****        -0.5025  -4.6804  -1.7381 H              1 S1                 0.0000
     37 ****        -0.6805  -4.3109  -3.4295 H              1 S1                 0.0000
     38 ****         1.6228  -4.8025  -3.1796 H              1 S1                 0.0000
     39 ****         1.5833  -3.0635  -3.3241 H              1 S1                 0.0000
     40 ****         2.5557  -4.6256  -1.1645 H              1 S1                 0.0000
     41 ****         2.4285   3.9880   0.1066 H              1 S1                 0.0000
     42 ****        -0.3995   1.4853   2.0734 LP             1 S1                 0.0000
     43 ****         3.8662   1.1190  -0.5451 LP             1 S1                 0.0000
     44 ****         3.1544  -0.2143  -1.3911 LP             1 S1                 0.0000
     45 ****         2.4790  -2.1861   1.2360 LP             1 S1                 0.0000
     46 ****         3.0689  -3.7454   0.7662 LP             1 S1                 0.0000
@<TRIPOS>BOND
    1    1    2 1     
    2    1   21 1     
    3    1   22 1     
    4    1   23 1     
    5    2    3 1     
    6    2    4 1     
    7    2   24 1     
    8    3   25 1     
    9    3   26 1     
   10    3   27 1     
   11    4   20 1     
   12    4    5 2     
   13    5    6 1     
   14    6    7 1     
   15    6   19 2     
   16    7    8 1     
   17    7   28 1     
   18    7   29 1     
   19    8    9 2     
   20    8   10 am    
   21   10   11 1     
   22   10   30 1     
   23   11   17 1     
   24   11   12 1     
   25   11   31 1     
   26   12   13 1     
   27   12   32 1     
   28   12   33 1     
   29   13   14 1     
   30   13   34 1     
   31   13   35 1     
   32   14   15 1     
   33   14   36 1     
   34   14   37 1     
   35   15   16 1     
   36   15   38 1     
   37   15   39 1     
   38   16   17 am    
   39   16   40 1     
   40   17   18 2     
   41   19   20 1     
   42   19   41 1     
   43    5   42 1     
   44    9   43 1     
   45    9   44 1     
   46   18   45 1     
   47   18   46 1     
@<TRIPOS>SUBSTRUCTURE
      1 S1             1
@<TRIPOS>SET
LONE_PAIRS      STATIC     ATOMS    <user>   **** ""
5 42 43 44 45 46
DONOR_HYDROGENS      STATIC     ATOMS    <user>   **** ""
2 30 40
ATOM$BLUE        STATIC     ATOMS    COLORGROUP SYSTEM
5 42 43 44 45 46
ATOM$RED        STATIC     ATOMS    COLORGROUP SYSTEM
2 30 40
