AV-unprocessed.smi:409|AV-procd|sdf|2505|dock8
  -GOLD-   2262022453D 1   1.00000     0.00000
 Structure written by MMmdl.
 35 36  0  0  0  0  0  0  0  0  1 V2000
  151.5691  140.3548  156.1946 O   0  0  0  0  0  0  0  0  0  0  0  0
  150.6981  141.1738  155.8968 C   0  0  0  0  0  0  0  0  0  0  0  0
  149.6026  140.8213  154.8804 C   0  0  0  0  0  0  0  0  0  0  0  0
  148.3249  141.4950  155.1542 N   0  0  0  0  0  0  0  0  0  0  0  0
  147.6554  142.1659  154.1405 C   0  0  0  0  0  0  0  0  0  0  0  0
  146.4827  142.8171  154.3252 C   0  0  0  0  0  0  0  0  0  0  0  0
  145.8514  142.8432  155.6402 C   0  0  0  0  0  0  0  0  0  0  0  0
  144.7909  143.4040  155.9067 O   0  0  0  0  0  0  0  0  0  0  0  0
  146.5563  142.1593  156.6340 N   0  0  0  0  0  0  0  0  0  0  0  0
  147.7660  141.4875  156.4509 C   0  0  0  0  0  0  0  0  0  0  0  0
  148.3069  140.9186  157.3985 O   0  0  0  0  0  0  0  0  0  0  0  0
  150.6256  142.3988  156.4396 N   0  0  0  0  0  0  0  0  0  0  0  0
  151.5540  142.9419  157.4263 C   0  0  0  0  0  0  0  0  0  0  0  0
  151.5653  142.0723  158.7010 C   0  0  0  0  0  0  0  0  0  0  0  0
  152.4793  142.6715  159.7821 C   0  0  0  0  0  0  0  0  0  0  0  0
  152.0843  144.1205  160.1073 C   0  0  0  0  0  0  0  0  0  0  0  0
  152.0776  144.9906  158.8407 C   0  0  0  0  0  0  0  0  0  0  0  0
  151.1621  144.3940  157.7594 C   0  0  0  0  0  0  0  0  0  0  0  0
  146.1590  142.1525  157.5621 H   0  0  0  0  0  0  0  0  0  0  0  0
  149.9652  141.0881  153.8868 H   0  0  0  0  0  0  0  0  0  0  0  0
  149.4580  139.7392  154.8527 H   0  0  0  0  0  0  0  0  0  0  0  0
  148.0885  142.1772  153.1502 H   0  0  0  0  0  0  0  0  0  0  0  0
  146.0100  143.3225  153.4954 H   0  0  0  0  0  0  0  0  0  0  0  0
  149.8741  143.0038  156.1419 H   0  0  0  0  0  0  0  0  0  0  0  0
  152.5585  142.9535  156.9984 H   0  0  0  0  0  0  0  0  0  0  0  0
  150.5519  141.9815  159.0951 H   0  0  0  0  0  0  0  0  0  0  0  0
  151.8962  141.0602  158.4655 H   0  0  0  0  0  0  0  0  0  0  0  0
  152.4348  142.0625  160.6854 H   0  0  0  0  0  0  0  0  0  0  0  0
  153.5147  142.6425  159.4406 H   0  0  0  0  0  0  0  0  0  0  0  0
  151.0953  144.1357  160.5668 H   0  0  0  0  0  0  0  0  0  0  0  0
  152.7730  144.5382  160.8424 H   0  0  0  0  0  0  0  0  0  0  0  0
  151.7523  146.0019  159.0865 H   0  0  0  0  0  0  0  0  0  0  0  0
  153.0930  145.0780  158.4520 H   0  0  0  0  0  0  0  0  0  0  0  0
  151.2083  145.0096  156.8602 H   0  0  0  0  0  0  0  0  0  0  0  0
  150.1277  144.4287  158.1048 H   0  0  0  0  0  0  0  0  0  0  0  0
  1  2  2  0  0  0  0
  2  3  1  0  0  0  0
  2 12  1  0  0  0  0
  3  4  1  0  0  0  0
  3 20  1  0  0  0  0
  3 21  1  0  0  0  0
  4 10  1  0  0  0  0
  4  5  1  0  0  0  0
  5  6  2  0  0  0  0
  5 22  1  0  0  0  0
  6  7  1  0  0  0  0
  6 23  1  0  0  0  0
  7  8  2  0  0  0  0
  7  9  1  0  0  0  0
  9 19  1  0  0  0  0
  9 10  1  0  0  0  0
 10 11  2  0  0  0  0
 12 13  1  0  0  0  0
 12 24  1  0  0  0  0
 13 18  1  0  0  0  0
 13 14  1  0  0  0  0
 13 25  1  0  0  0  0
 14 15  1  0  0  0  0
 14 26  1  0  0  0  0
 14 27  1  0  0  0  0
 15 16  1  0  0  0  0
 15 28  1  0  0  0  0
 15 29  1  0  0  0  0
 16 17  1  0  0  0  0
 16 30  1  0  0  0  0
 16 31  1  0  0  0  0
 17 18  1  0  0  0  0
 17 32  1  0  0  0  0
 17 33  1  0  0  0  0
 18 34  1  0  0  0  0
 18 35  1  0  0  0  0
M  END
> <s_m_source_file>
AV-unprocessed.smi

> <i_m_source_file_index>
409

> <i_lp_mmshare_version>
43012

> <i_f3d_flags>
0

> <s_epik_input>
W0NIMl0xW0NIMl1bQ0gyXVtDSDJdW0NIMl1bQ0hdMVtOSF1DKD1PKVtDSDJdbjJbY0hdW2NIXWMoPU8pW25IXWMyPU8=

> <s_epik_cmdline>
J2VwaWtfcHl0aG9uJywgJy1waCcsICc3LjAnLCAnLXRuJywgJzgnLCAnLW1hJywgJzIwMCcsICctbWV0YWxfYmluZGluZycsICctaW1hZScsICc8aW5maWxlLm1hZT4nLCAnLW9tYWUnLCAnPG91dGZpbGUubWFlPic=

> <r_lp_tautomer_probability>
0.999537

> <r_epik_Ionization_Penalty>
0.00309578

> <r_epik_Ionization_Penalty_Charging>
0.00309576

> <r_epik_Ionization_Penalty_Neutral>
1.90469e-08

> <r_epik_State_Penalty>
0.00217825

> <r_epik_Charging_Adjusted_Penalty>
0.00527401

> <i_epik_Tot_Q>
0

> <i_epik_Tot_abs_Q>
0

> <r_epik_Metal_State_Penalty>
0.362603

> <b_epik_Metal_Only>
0

> <s_lp_Force_Field>
OPLS_2005

> <r_lp_Energy>
8.21917

> <b_lp_Chiralities_Consistent>
1

> <s_lp_Variant>
AV-unprocessed.smi:409-1

> <Gold.Version>
5.8.1

> <Gold.Id.Protein>
6NUR|6NUR_protein|mol2

> <Gold.PLP.Fitness>
40.2084

> <Gold.PLP.PLP>
-38.1835

> <Gold.PLP.part.hbond>
-1.0000

> <Gold.PLP.part.metal>
0.0000

> <Gold.PLP.part.buried>
-3.2627

> <Gold.PLP.part.nonpolar>
-34.1075

> <Gold.PLP.part.repulsive>
0.2566

> <Gold.PLP.ligand.clash>
0.0000

> <Gold.PLP.ligand.torsion>
0.4900

> <Gold.PLP.Chemscore.Hbond>
1.0000

> <Gold.PLP.Chemscore.CHOScore>
0.0000

> <Gold.PLP.Chemscore.Metal>
0.0000

> <Gold.Chemscore.Hbonds>
donor molecule, donor type, donor heavy atom, donor atom, acceptor molecule, acceptor atom, score
      L1  H    12    24       P1  8028  0.98

> <Gold.PLP.Chemscore.Internal.Correction>
0.0048

> <Gold.Rescore>
     Score         DG    S(hbond)    S(metal)    S(lipo)     H(rot)  DE(clash)    DE(int)     intcor
     12.89     -14.80       0.98        0.00      89.04       1.70       0.38       1.53       ----

> <Gold.Chemscore.Fitness>
12.8899

> <Gold.Chemscore.DG>
-14.8029

> <Gold.Chemscore.ZeroCoef>
-5.4800

> <Gold.Chemscore.Hbond>
0.9766

> <Gold.Chemscore.Metal>
0.0000

> <Gold.Chemscore.Lipo>
89.0354

> <Gold.Chemscore.Internal_Hbond>
0.0000

> <Gold.Chemscore.DEClash>
0.3804

> <Gold.Chemscore.DEInternal>
1.5326

> <Gold.Chemscore.Rot>
1.7015

> <Gold.Chemscore.Internal.Correction>
   9.000000E+99

> <Gold.Chemscore.Hbonds>
donor molecule, donor type, donor heavy atom, donor atom, acceptor molecule, acceptor atom, score
      L1  H    12    24       P1  8028  0.92

> <Gold.Chemscore.Hbond.Weighted>
-3.2617

> <Gold.Chemscore.Metal.Weighted>
-0.0000

> <Gold.Chemscore.Lipo.Weighted>
-10.4171

> <Gold.Chemscore.Internal_Hbond.Weighted>
0.0000

> <Gold.Chemscore.DEClash.Weighted>
0.3804

> <Gold.Chemscore.DEInternal.Weighted>
1.5326

> <Gold.Chemscore.Rot.Weighted>
4.3559

> <Gold.Chemscore.Internal.Correction.Weighted>
   9.000000E+99

> <Gold.Protein.RotatedTorsions>
[ 6907 6896 6895 6894 ] final   -1.81 input  -60.11 | X-H torsion
[ 7974 7965 7964 7962 ] final  -30.79 input  175.53 | X-H torsion
[ 8008 7997 7996 7995 ] final   17.14 input   59.86 | X-H torsion
[ 10167 10162 10161 10158 ] final   31.98 input  -65.29 | X-H torsion
[ 10718 10713 10712 10709 ] final   29.17 input   66.30 | X-H torsion
[ 10763 10752 10751 10750 ] final  -53.53 input  -60.55 | X-H torsion
[ 11005 11000 10999 10996 ] final  116.85 input  -57.11 | X-H torsion

> <Gold.Protein.ActiveResidues>
 VAL166  LYS551  ARG553  GLY616  TRP617  ASP618  TYR619  PRO620  LYS621  CYS622 
 ASP623  PHE694  ASN695  SER759  ASP760  ASP761  ALA762  ILE779  LEU786  VAL792 
 PHE793  MET794  SER795  GLU796  ALA797  LYS798  CYS799  TRP800  GLU811  SER814 

> <Gold.Protein.RotatedAtoms>
  151.5401  135.1068  159.9923 H   0  0  0  0  0  0  0  0  0  0  0  0  # atno 6907 bound_to 6896
  152.4539  133.7680  159.6794 H   0  0  0  0  0  0  0  0  0  0  0  0  # atno 6908 bound_to 6896
  150.8476  133.7770  159.3062 H   0  0  0  0  0  0  0  0  0  0  0  0  # atno 6909 bound_to 6896
  146.1117  140.5585  142.8775 H   0  0  0  0  0  0  0  0  0  0  0  0  # atno 7974 bound_to 7965
  154.8871  140.2981  155.5392 H   0  0  0  0  0  0  0  0  0  0  0  0  # atno 8008 bound_to 7997
  156.3021  140.2431  156.3816 H   0  0  0  0  0  0  0  0  0  0  0  0  # atno 8009 bound_to 7997
  154.8657  140.0403  157.1682 H   0  0  0  0  0  0  0  0  0  0  0  0  # atno 8010 bound_to 7997
  140.4540  144.1006  150.6198 H   0  0  0  0  0  0  0  0  0  0  0  0  # atno 10167 bound_to 10162
  157.2431  130.7079  149.6368 H   0  0  0  0  0  0  0  0  0  0  0  0  # atno 10718 bound_to 10713
  154.1603  135.6476  153.4984 H   0  0  0  0  0  0  0  0  0  0  0  0  # atno 10763 bound_to 10752
  153.0112  135.5359  154.6718 H   0  0  0  0  0  0  0  0  0  0  0  0  # atno 10764 bound_to 10752
  154.6029  135.2945  155.0487 H   0  0  0  0  0  0  0  0  0  0  0  0  # atno 10765 bound_to 10752
  139.9055  134.9603  156.7261 H   0  0  0  0  0  0  0  0  0  0  0  0  # atno 11005 bound_to 11000
  144.7517  140.5207  143.6797 LP  0  0  0  0  0  0  0  0  0  0  0  0  # atno 17320 bound_to 7965
  145.5651  139.1481  143.3320 LP  0  0  0  0  0  0  0  0  0  0  0  0  # atno 17321 bound_to 7965
  140.4173  143.2628  151.9759 LP  0  0  0  0  0  0  0  0  0  0  0  0  # atno 17342 bound_to 10162
  139.4799  144.5862  151.7849 LP  0  0  0  0  0  0  0  0  0  0  0  0  # atno 17343 bound_to 10162
  155.9669  130.4452  150.5490 LP  0  0  0  0  0  0  0  0  0  0  0  0  # atno 17370 bound_to 10713
  157.3358  131.0708  151.1826 LP  0  0  0  0  0  0  0  0  0  0  0  0  # atno 17371 bound_to 10713
  140.6962  133.9346  155.7996 LP  0  0  0  0  0  0  0  0  0  0  0  0  # atno 17394 bound_to 11000
  141.0405  134.0628  157.3907 LP  0  0  0  0  0  0  0  0  0  0  0  0  # atno 17395 bound_to 11000

$$$$
