AV-unprocessed.smi:817|AV-procd|sdf|3831|dock3
  -GOLD-   22720 1273D 1   1.00000     0.00000
 Structure written by MMmdl.
 48 49  0  0  0  0  0  0  0  0  2 V2000
  143.6582  132.7121  148.6470 C   0  0  0  0  0  0  0  0  0  0  0  0
  144.3446  133.0334  149.9821 C   0  0  1  0  0  0  0  0  0  0  0  0
  145.7537  132.4163  150.0483 C   0  0  0  0  0  0  0  0  0  0  0  0
  146.4749  132.7840  151.3531 C   0  0  0  0  0  0  0  0  0  0  0  0
  146.4980  134.3090  151.5619 C   0  0  0  0  0  0  0  0  0  0  0  0
  145.0706  134.9355  151.5895 C   0  0  2  0  0  0  0  0  0  0  0  0
  145.1763  136.4867  151.7129 C   0  0  0  0  0  0  0  0  0  0  0  0
  146.4611  136.9361  152.2529 N   0  0  0  0  0  0  0  0  0  0  0  0
  146.7175  138.0708  152.9260 C   0  0  0  0  0  0  0  0  0  0  0  0
  145.8302  138.8922  153.1432 O   0  0  0  0  0  0  0  0  0  0  0  0
  148.0053  138.2097  153.2988 N   0  0  0  0  0  0  0  0  0  0  0  0
  148.6145  139.2739  154.0174 C   0  0  0  0  0  0  0  0  0  0  0  0
  147.9214  140.4049  154.5134 C   0  0  0  0  0  0  0  0  0  0  0  0
  148.6409  141.3844  155.2248 C   0  0  0  0  0  0  0  0  0  0  0  0
  150.0223  141.1947  155.4223 C   0  0  0  0  0  0  0  0  0  0  0  0
  150.6929  140.1152  154.9677 N   0  0  0  0  0  0  0  0  0  0  0  0
  149.9966  139.1809  154.2860 C   0  0  0  0  0  0  0  0  0  0  0  0
  144.2684  134.3697  152.7387 N   0  3  0  0  0  0  0  0  0  0  0  0
  144.8883  134.4867  154.0854 C   0  0  0  0  0  0  0  0  0  0  0  0
  142.8381  134.7738  152.7942 C   0  0  0  0  0  0  0  0  0  0  0  0
  144.4153  134.5578  150.2245 C   0  0  0  0  0  0  0  0  0  0  0  0
  144.2070  133.1377  147.8063 H   0  0  0  0  0  0  0  0  0  0  0  0
  142.6445  133.1128  148.6199 H   0  0  0  0  0  0  0  0  0  0  0  0
  143.5902  131.6353  148.4887 H   0  0  0  0  0  0  0  0  0  0  0  0
  143.7404  132.5815  150.7692 H   0  0  0  0  0  0  0  0  0  0  0  0
  145.6930  131.3314  149.9552 H   0  0  0  0  0  0  0  0  0  0  0  0
  146.3466  132.7641  149.2009 H   0  0  0  0  0  0  0  0  0  0  0  0
  145.9893  132.2930  152.1970 H   0  0  0  0  0  0  0  0  0  0  0  0
  147.4952  132.4002  151.3264 H   0  0  0  0  0  0  0  0  0  0  0  0
  147.0693  134.5615  152.4540 H   0  0  0  0  0  0  0  0  0  0  0  0
  147.0739  134.7386  150.7414 H   0  0  0  0  0  0  0  0  0  0  0  0
  145.0421  136.9565  150.7385 H   0  0  0  0  0  0  0  0  0  0  0  0
  144.3926  136.8723  152.3652 H   0  0  0  0  0  0  0  0  0  0  0  0
  147.2477  136.3237  152.0899 H   0  0  0  0  0  0  0  0  0  0  0  0
  148.6363  137.4888  152.9815 H   0  0  0  0  0  0  0  0  0  0  0  0
  146.8594  140.5360  154.3769 H   0  0  0  0  0  0  0  0  0  0  0  0
  148.1432  142.2600  155.6147 H   0  0  0  0  0  0  0  0  0  0  0  0
  150.6026  141.9267  155.9645 H   0  0  0  0  0  0  0  0  0  0  0  0
  150.5657  138.3306  153.9395 H   0  0  0  0  0  0  0  0  0  0  0  0
  144.9727  135.5244  154.4068 H   0  0  0  0  0  0  0  0  0  0  0  0
  145.8713  134.0232  154.1379 H   0  0  0  0  0  0  0  0  0  0  0  0
  144.2769  133.9693  154.8256 H   0  0  0  0  0  0  0  0  0  0  0  0
  142.7223  135.8458  152.9504 H   0  0  0  0  0  0  0  0  0  0  0  0
  142.3361  134.2709  153.6213 H   0  0  0  0  0  0  0  0  0  0  0  0
  142.2888  134.4894  151.8987 H   0  0  0  0  0  0  0  0  0  0  0  0
  144.9946  134.9905  149.4079 H   0  0  0  0  0  0  0  0  0  0  0  0
  143.4286  135.0079  150.1207 H   0  0  0  0  0  0  0  0  0  0  0  0
  144.2429  133.3760  152.5578 H   0  0  0  0  0  0  0  0  0  0  0  0
  1  2  1  0  0  0  0
  1 22  1  0  0  0  0
  1 23  1  0  0  0  0
  1 24  1  0  0  0  0
  2 21  1  0  0  0  0
  2  3  1  0  0  0  0
  2 25  1  0  0  0  0
  3  4  1  0  0  0  0
  3 26  1  0  0  0  0
  3 27  1  0  0  0  0
  4  5  1  0  0  0  0
  4 28  1  0  0  0  0
  4 29  1  0  0  0  0
  5  6  1  0  0  0  0
  5 30  1  0  0  0  0
  5 31  1  0  0  0  0
  6  7  1  0  0  0  0
  6 18  1  0  0  0  0
  6 21  1  0  0  0  0
  7  8  1  0  0  0  0
  7 32  1  0  0  0  0
  7 33  1  0  0  0  0
  8  9  1  0  0  0  0
  8 34  1  0  0  0  0
  9 10  2  0  0  0  0
  9 11  1  0  0  0  0
 11 12  1  0  0  0  0
 11 35  1  0  0  0  0
 12 17  1  0  0  0  0
 12 13  2  0  0  0  0
 13 14  1  0  0  0  0
 13 36  1  0  0  0  0
 14 15  2  0  0  0  0
 14 37  1  0  0  0  0
 15 16  1  0  0  0  0
 15 38  1  0  0  0  0
 16 17  2  0  0  0  0
 17 39  1  0  0  0  0
 18 19  1  0  0  0  0
 18 20  1  0  0  0  0
 18 48  1  0  0  0  0
 19 40  1  0  0  0  0
 19 41  1  0  0  0  0
 19 42  1  0  0  0  0
 20 43  1  0  0  0  0
 20 44  1  0  0  0  0
 20 45  1  0  0  0  0
 21 46  1  0  0  0  0
 21 47  1  0  0  0  0
M  CHG  1  18   1
M  END
> <s_m_source_file>
AV-unprocessed.smi

> <i_m_source_file_index>
817

> <i_lp_mmshare_version>
43012

> <i_f3d_flags>
0

> <s_epik_input>
W0NIM11bQ0BASF0oW0NIMl0xKVtDSDJdW0NIMl1bQ0gyXVtDQF0xKE4oW0NIM10pW0NIM10pW0NIMl1bTkhdQyg9TylbTkhdYzJbY0hdW2NIXVtjSF1uW2NIXTI=

> <s_epik_cmdline>
J2VwaWtfcHl0aG9uJywgJy1waCcsICc3LjAnLCAnLXRuJywgJzgnLCAnLW1hJywgJzIwMCcsICctbWV0YWxfYmluZGluZycsICctaW1hZScsICc8aW5maWxlLm1hZT4nLCAnLW9tYWUnLCAnPG91dGZpbGUubWFlPic=

> <r_lp_tautomer_probability>
1

> <r_epik_Ionization_Penalty>
0.00584939

> <r_epik_Ionization_Penalty_Charging>
0.00160539

> <r_epik_Ionization_Penalty_Neutral>
0.004244

> <r_epik_State_Penalty>
-0

> <r_epik_Charging_Adjusted_Penalty>
0.00160539

> <i_epik_Tot_Q>
1

> <i_epik_Tot_abs_Q>
1

> <r_epik_Metal_State_Penalty>
-0

> <b_epik_Metal_Only>
0

> <s_lp_Force_Field>
OPLS_2005

> <r_lp_Energy>
44.0482

> <b_lp_Chiralities_Consistent>
1

> <s_lp_Variant>
AV-unprocessed.smi:817-4

> <Gold.Version>
5.8.1

> <Gold.Id.Protein>
6NUR|6NUR_protein|mol2

> <Gold.PLP.Fitness>
42.1914

> <Gold.PLP.PLP>
-36.7559

> <Gold.PLP.part.hbond>
-3.5354

> <Gold.PLP.part.metal>
0.0000

> <Gold.PLP.part.buried>
0.0390

> <Gold.PLP.part.nonpolar>
-34.8881

> <Gold.PLP.part.repulsive>
2.7082

> <Gold.PLP.ligand.clash>
1.2045

> <Gold.PLP.ligand.torsion>
1.1027

> <Gold.PLP.Chemscore.Hbond>
2.9040

> <Gold.PLP.Chemscore.CHOScore>
0.0000

> <Gold.PLP.Chemscore.Metal>
0.0000

> <Gold.Chemscore.Hbonds>
donor molecule, donor type, donor heavy atom, donor atom, acceptor molecule, acceptor atom, score
      L1  H     8    34       P1  7948  0.93
      L1  H    11    35       P1  7948  0.96
      P1  H  7989  7998       L1    16  0.90

> <Gold.PLP.Chemscore.Internal.Correction>
0.1334

> <Gold.Rescore>
     Score         DG    S(hbond)    S(metal)    S(lipo)     H(rot)  DE(clash)    DE(int)     intcor
     16.88     -20.60       2.15        0.00      99.52       1.44       1.40       2.33       ----

> <Gold.Chemscore.Fitness>
16.8755

> <Gold.Chemscore.DG>
-20.6040

> <Gold.Chemscore.ZeroCoef>
-5.4800

> <Gold.Chemscore.Hbond>
2.1459

> <Gold.Chemscore.Metal>
0.0000

> <Gold.Chemscore.Lipo>
99.5244

> <Gold.Chemscore.Internal_Hbond>
0.0000

> <Gold.Chemscore.DEClash>
1.3989

> <Gold.Chemscore.DEInternal>
2.3297

> <Gold.Chemscore.Rot>
1.4405

> <Gold.Chemscore.Internal.Correction>
   9.000000E+99

> <Gold.Chemscore.Hbonds>
donor molecule, donor type, donor heavy atom, donor atom, acceptor molecule, acceptor atom, score
      L1  H     8    34       P1  7948  0.90
      L1  H    11    35       P1  7948  0.92
      P1  H  7989  7998       L1    16  0.05

> <Gold.Chemscore.Hbond.Weighted>
-7.1674

> <Gold.Chemscore.Metal.Weighted>
-0.0000

> <Gold.Chemscore.Lipo.Weighted>
-11.6444

> <Gold.Chemscore.Internal_Hbond.Weighted>
0.0000

> <Gold.Chemscore.DEClash.Weighted>
1.3989

> <Gold.Chemscore.DEInternal.Weighted>
2.3297

> <Gold.Chemscore.Rot.Weighted>
3.6878

> <Gold.Chemscore.Internal.Correction.Weighted>
   9.000000E+99

> <Gold.Protein.RotatedTorsions>
[ 6907 6896 6895 6894 ] final    6.81 input  -60.11 | X-H torsion
[ 7974 7965 7964 7962 ] final  -70.91 input  175.53 | X-H torsion
[ 8008 7997 7996 7995 ] final   19.46 input   59.86 | X-H torsion
[ 10167 10162 10161 10158 ] final   24.09 input  -65.29 | X-H torsion
[ 10718 10713 10712 10709 ] final  -55.07 input   66.30 | X-H torsion
[ 10763 10752 10751 10750 ] final   24.45 input  -60.55 | X-H torsion
[ 11005 11000 10999 10996 ] final -100.58 input  -57.11 | X-H torsion

> <Gold.Protein.ActiveResidues>
 VAL166  LYS551  ARG553  GLY616  TRP617  ASP618  TYR619  PRO620  LYS621  CYS622 
 ASP623  PHE694  ASN695  SER759  ASP760  ASP761  ALA762  ILE779  LEU786  VAL792 
 PHE793  MET794  SER795  GLU796  ALA797  LYS798  CYS799  TRP800  GLU811  SER814 

> <Gold.Protein.RotatedAtoms>
  151.6798  135.0963  160.0213 H   0  0  0  0  0  0  0  0  0  0  0  0  # atno 6907 bound_to 6896
  152.3842  133.6584  159.6194 H   0  0  0  0  0  0  0  0  0  0  0  0  # atno 6908 bound_to 6896
  150.7772  133.8979  159.3374 H   0  0  0  0  0  0  0  0  0  0  0  0  # atno 6909 bound_to 6896
  145.6849  140.9174  143.0812 H   0  0  0  0  0  0  0  0  0  0  0  0  # atno 7974 bound_to 7965
  154.9211  140.3027  155.5215 H   0  0  0  0  0  0  0  0  0  0  0  0  # atno 8008 bound_to 7997
  156.3009  140.2371  156.4198 H   0  0  0  0  0  0  0  0  0  0  0  0  # atno 8009 bound_to 7997
  154.8329  140.0417  157.1478 H   0  0  0  0  0  0  0  0  0  0  0  0  # atno 8010 bound_to 7997
  140.5216  143.9993  150.6420 H   0  0  0  0  0  0  0  0  0  0  0  0  # atno 10167 bound_to 10162
  156.1399  130.4155  150.0122 H   0  0  0  0  0  0  0  0  0  0  0  0  # atno 10718 bound_to 10713
  153.0763  135.6605  154.0140 H   0  0  0  0  0  0  0  0  0  0  0  0  # atno 10763 bound_to 10752
  153.9773  135.2958  155.3424 H   0  0  0  0  0  0  0  0  0  0  0  0  # atno 10764 bound_to 10752
  154.7151  135.5188  153.8796 H   0  0  0  0  0  0  0  0  0  0  0  0  # atno 10765 bound_to 10752
  141.1265  133.8410  157.1121 H   0  0  0  0  0  0  0  0  0  0  0  0  # atno 11005 bound_to 11000
  144.7014  139.8745  143.7443 LP  0  0  0  0  0  0  0  0  0  0  0  0  # atno 17320 bound_to 7965
  146.0932  139.3923  143.0393 LP  0  0  0  0  0  0  0  0  0  0  0  0  # atno 17321 bound_to 7965
  140.3343  143.3058  152.0654 LP  0  0  0  0  0  0  0  0  0  0  0  0  # atno 17342 bound_to 10162
  139.4925  144.6487  151.6722 LP  0  0  0  0  0  0  0  0  0  0  0  0  # atno 17343 bound_to 10162
  156.8010  130.9290  151.3646 LP  0  0  0  0  0  0  0  0  0  0  0  0  # atno 17370 bound_to 10713
  157.6566  130.8929  149.9741 LP  0  0  0  0  0  0  0  0  0  0  0  0  # atno 17371 bound_to 10713
  140.0268  134.9920  157.0703 LP  0  0  0  0  0  0  0  0  0  0  0  0  # atno 17394 bound_to 11000
  140.4349  134.1742  155.7170 LP  0  0  0  0  0  0  0  0  0  0  0  0  # atno 17395 bound_to 11000

$$$$
