AV-unprocessed.smi:1228|AV-procd|sdf|5148|dock8
  -GOLD-   22720 4213D 1   1.00000     0.00000
 Structure written by MMmdl.
 44 46  0  0  0  0  0  0  0  0  2 V2000
  150.0449  141.4019  156.9076 C   0  0  0  0  0  0  0  0  0  0  0  0
  149.8737  140.3441  155.8578 C   0  0  0  0  0  0  0  0  0  0  0  0
  148.6600  139.7658  155.3850 C   0  0  0  0  0  0  0  0  0  0  0  0
  149.0981  138.8722  154.4461 C   0  0  0  0  0  0  0  0  0  0  0  0
  148.3728  138.0331  153.6596 N   0  0  0  0  0  0  0  0  0  0  0  0
  147.0666  137.7252  153.7412 C   0  0  0  0  0  0  0  0  0  0  0  0
  146.2819  138.1558  154.5864 O   0  0  0  0  0  0  0  0  0  0  0  0
  146.7089  136.8680  152.7735 N   0  0  0  0  0  0  0  0  0  0  0  0
  145.3621  136.3392  152.5773 C   0  0  2  0  0  0  0  0  0  0  0  0
  145.1104  135.1245  153.4900 C   0  0  0  0  0  0  0  0  0  0  0  0
  143.7288  134.5001  153.2175 C   0  0  0  0  0  0  0  0  0  0  0  0
  143.5492  134.1390  151.7878 N   0  3  2  0  0  0  0  0  0  0  0  0
  144.2986  132.9240  151.3906 C   0  0  0  0  0  0  0  0  0  0  0  0
  144.6055  132.8587  149.9127 C   0  0  0  0  0  0  0  0  0  0  0  0
  143.5134  131.9917  150.4978 C   0  0  0  0  0  0  0  0  0  0  0  0
  143.7824  135.2960  150.8849 C   0  0  0  0  0  0  0  0  0  0  0  0
  145.1660  135.9359  151.1066 C   0  0  0  0  0  0  0  0  0  0  0  0
  150.4723  138.9339  154.3803 N   0  0  0  0  0  0  0  0  0  0  0  0
  151.3883  138.1863  153.5412 C   0  0  0  0  0  0  0  0  0  0  0  0
  150.9479  139.8444  155.2571 N   0  0  0  0  0  0  0  0  0  0  0  0
  149.0821  141.8095  157.2166 H   0  0  0  0  0  0  0  0  0  0  0  0
  150.6515  142.2293  156.5384 H   0  0  0  0  0  0  0  0  0  0  0  0
  150.5340  140.9979  157.7941 H   0  0  0  0  0  0  0  0  0  0  0  0
  147.6497  139.9861  155.6956 H   0  0  0  0  0  0  0  0  0  0  0  0
  148.8920  137.5838  152.9200 H   0  0  0  0  0  0  0  0  0  0  0  0
  147.4183  136.5643  152.1222 H   0  0  0  0  0  0  0  0  0  0  0  0
  144.6348  137.1180  152.8150 H   0  0  0  0  0  0  0  0  0  0  0  0
  145.8907  134.3772  153.3398 H   0  0  0  0  0  0  0  0  0  0  0  0
  145.1731  135.4220  154.5374 H   0  0  0  0  0  0  0  0  0  0  0  0
  143.5779  133.6213  153.8456 H   0  0  0  0  0  0  0  0  0  0  0  0
  142.9485  135.2108  153.4926 H   0  0  0  0  0  0  0  0  0  0  0  0
  145.0035  132.5219  152.1155 H   0  0  0  0  0  0  0  0  0  0  0  0
  144.3004  133.6939  149.2846 H   0  0  0  0  0  0  0  0  0  0  0  0
  145.5270  132.3643  149.6120 H   0  0  0  0  0  0  0  0  0  0  0  0
  143.7155  130.9260  150.5840 H   0  0  0  0  0  0  0  0  0  0  0  0
  142.4841  132.2512  150.2567 H   0  0  0  0  0  0  0  0  0  0  0  0
  143.6685  134.9868  149.8453 H   0  0  0  0  0  0  0  0  0  0  0  0
  143.0051  136.0384  151.0708 H   0  0  0  0  0  0  0  0  0  0  0  0
  145.2697  136.8113  150.4643 H   0  0  0  0  0  0  0  0  0  0  0  0
  145.9485  135.2400  150.8010 H   0  0  0  0  0  0  0  0  0  0  0  0
  151.2825  137.1202  153.7433 H   0  0  0  0  0  0  0  0  0  0  0  0
  152.4194  138.4833  153.7381 H   0  0  0  0  0  0  0  0  0  0  0  0
  151.1610  138.3752  152.4917 H   0  0  0  0  0  0  0  0  0  0  0  0
  142.5748  133.8946  151.6818 H   0  0  0  0  0  0  0  0  0  0  0  0
  1  2  1  0  0  0  0
  1 21  1  0  0  0  0
  1 22  1  0  0  0  0
  1 23  1  0  0  0  0
  2 20  2  0  0  0  0
  2  3  1  0  0  0  0
  3  4  2  0  0  0  0
  3 24  1  0  0  0  0
  4  5  1  0  0  0  0
  4 18  1  0  0  0  0
  5  6  1  0  0  0  0
  5 25  1  0  0  0  0
  6  7  2  0  0  0  0
  6  8  1  0  0  0  0
  8  9  1  0  0  0  0
  8 26  1  0  0  0  0
  9 17  1  0  0  0  0
  9 10  1  0  0  0  0
  9 27  1  0  0  0  0
 10 11  1  0  0  0  0
 10 28  1  0  0  0  0
 10 29  1  0  0  0  0
 11 12  1  0  0  0  0
 11 30  1  0  0  0  0
 11 31  1  0  0  0  0
 12 13  1  0  0  0  0
 12 16  1  0  0  0  0
 12 44  1  0  0  0  0
 13 15  1  0  0  0  0
 13 14  1  0  0  0  0
 13 32  1  0  0  0  0
 14 15  1  0  0  0  0
 14 33  1  0  0  0  0
 14 34  1  0  0  0  0
 15 35  1  0  0  0  0
 15 36  1  0  0  0  0
 16 17  1  0  0  0  0
 16 37  1  0  0  0  0
 16 38  1  0  0  0  0
 17 39  1  0  0  0  0
 17 40  1  0  0  0  0
 18 19  1  0  0  0  0
 18 20  1  0  0  0  0
 19 41  1  0  0  0  0
 19 42  1  0  0  0  0
 19 43  1  0  0  0  0
M  CHG  1  12   1
M  END
> <s_m_source_file>
AV-unprocessed.smi

> <i_m_source_file_index>
1228

> <i_lp_mmshare_version>
43012

> <i_f3d_flags>
0

> <s_epik_input>
W0NIM11jMVtjSF1jKG4objEpW0NIM10pW05IXUMoPU8pW05IXVtDSF0yW0NIMl1bQ0gyXU4oW0NIMl1bQ0gyXTIpW0NIXTNbQ0gyXVtDSDJdMw==

> <s_epik_cmdline>
J2VwaWtfcHl0aG9uJywgJy1waCcsICc3LjAnLCAnLXRuJywgJzgnLCAnLW1hJywgJzIwMCcsICctbWV0YWxfYmluZGluZycsICctaW1hZScsICc8aW5maWxlLm1hZT4nLCAnLW9tYWUnLCAnPG91dGZpbGUubWFlPic=

> <r_lp_tautomer_probability>
1

> <r_epik_Ionization_Penalty>
0.11882

> <r_epik_Ionization_Penalty_Charging>
0.11874

> <r_epik_Ionization_Penalty_Neutral>
8.03064e-05

> <r_epik_State_Penalty>
0.108313

> <r_epik_Charging_Adjusted_Penalty>
0.227053

> <i_epik_Tot_Q>
1

> <i_epik_Tot_abs_Q>
1

> <r_epik_Metal_State_Penalty>
0.108316

> <b_epik_Metal_Only>
0

> <s_lp_Force_Field>
OPLS_2005

> <r_lp_Energy>
29.8379

> <b_lp_Chiralities_Consistent>
1

> <s_lp_Variant>
AV-unprocessed.smi:1228-2

> <Gold.Version>
5.8.1

> <Gold.Id.Protein>
6NUR|6NUR_protein|mol2

> <Gold.PLP.Fitness>
43.8786

> <Gold.PLP.PLP>
-33.2907

> <Gold.PLP.part.hbond>
-4.1831

> <Gold.PLP.part.metal>
0.0000

> <Gold.PLP.part.buried>
1.5951

> <Gold.PLP.part.nonpolar>
-32.4449

> <Gold.PLP.part.repulsive>
0.3399

> <Gold.PLP.ligand.clash>
0.0000

> <Gold.PLP.ligand.torsion>
1.2337

> <Gold.PLP.Chemscore.Hbond>
3.9300

> <Gold.PLP.Chemscore.CHOScore>
0.0000

> <Gold.PLP.Chemscore.Metal>
0.0000

> <Gold.Chemscore.Hbonds>
donor molecule, donor type, donor heavy atom, donor atom, acceptor molecule, acceptor atom, score
      L1  H     5    25       P1  7948  0.93
      L1  H     8    26       P1  7948  0.99
      P1  H  7989  7998       L1    20  0.18

> <Gold.PLP.Chemscore.Internal.Correction>
1.2653

> <Gold.Rescore>
     Score         DG    S(hbond)    S(metal)    S(lipo)     H(rot)  DE(clash)    DE(int)     intcor
     17.83     -20.23       2.82        0.00      72.21       1.21       0.38       2.02       ----

> <Gold.Chemscore.Fitness>
17.8331

> <Gold.Chemscore.DG>
-20.2348

> <Gold.Chemscore.ZeroCoef>
-5.4800

> <Gold.Chemscore.Hbond>
2.8154

> <Gold.Chemscore.Metal>
0.0000

> <Gold.Chemscore.Lipo>
72.2084

> <Gold.Chemscore.Internal_Hbond>
0.0000

> <Gold.Chemscore.DEClash>
0.3827

> <Gold.Chemscore.DEInternal>
2.0191

> <Gold.Chemscore.Rot>
1.2097

> <Gold.Chemscore.Internal.Correction>
   9.000000E+99

> <Gold.Chemscore.Hbonds>
donor molecule, donor type, donor heavy atom, donor atom, acceptor molecule, acceptor atom, score
      L1  H     5    25       P1  7948  0.91
      L1  H     8    26       P1  7948  0.91

> <Gold.Chemscore.Hbond.Weighted>
-9.4033

> <Gold.Chemscore.Metal.Weighted>
-0.0000

> <Gold.Chemscore.Lipo.Weighted>
-8.4484

> <Gold.Chemscore.Internal_Hbond.Weighted>
0.0000

> <Gold.Chemscore.DEClash.Weighted>
0.3827

> <Gold.Chemscore.DEInternal.Weighted>
2.0191

> <Gold.Chemscore.Rot.Weighted>
3.0969

> <Gold.Chemscore.Internal.Correction.Weighted>
   9.000000E+99

> <Gold.Protein.RotatedTorsions>
[ 6907 6896 6895 6894 ] final -125.50 input  -60.11 | X-H torsion
[ 7974 7965 7964 7962 ] final  159.83 input  175.53 | X-H torsion
[ 8008 7997 7996 7995 ] final  130.66 input   59.86 | X-H torsion
[ 10167 10162 10161 10158 ] final  -64.61 input  -65.29 | X-H torsion
[ 10718 10713 10712 10709 ] final   85.32 input   66.30 | X-H torsion
[ 10763 10752 10751 10750 ] final  -98.10 input  -60.55 | X-H torsion
[ 11005 11000 10999 10996 ] final   33.27 input  -57.11 | X-H torsion

> <Gold.Protein.ActiveResidues>
 VAL166  LYS551  ARG553  GLY616  TRP617  ASP618  TYR619  PRO620  LYS621  CYS622 
 ASP623  PHE694  ASN695  SER759  ASP760  ASP761  ALA762  ILE779  LEU786  VAL792 
 PHE793  MET794  SER795  GLU796  ALA797  LYS798  CYS799  TRP800  GLU811  SER814 

> <Gold.Protein.RotatedAtoms>
  150.8874  133.7289  159.2914 H   0  0  0  0  0  0  0  0  0  0  0  0  # atno 6907 bound_to 6896
  151.4851  135.1053  159.9798 H   0  0  0  0  0  0  0  0  0  0  0  0  # atno 6908 bound_to 6896
  152.4798  133.8181  159.7094 H   0  0  0  0  0  0  0  0  0  0  0  0  # atno 6909 bound_to 6896
  144.7769  139.7672  143.6275 H   0  0  0  0  0  0  0  0  0  0  0  0  # atno 7974 bound_to 7965
  156.2958  140.2590  156.2798 H   0  0  0  0  0  0  0  0  0  0  0  0  # atno 8008 bound_to 7997
  154.9613  140.0392  157.2210 H   0  0  0  0  0  0  0  0  0  0  0  0  # atno 8009 bound_to 7997
  154.7944  140.2817  155.5972 H   0  0  0  0  0  0  0  0  0  0  0  0  # atno 8010 bound_to 7997
  140.5788  143.2325  151.6385 H   0  0  0  0  0  0  0  0  0  0  0  0  # atno 10167 bound_to 10162
  157.6913  131.0170  150.2805 H   0  0  0  0  0  0  0  0  0  0  0  0  # atno 10718 bound_to 10713
  154.7385  135.5022  153.9083 H   0  0  0  0  0  0  0  0  0  0  0  0  # atno 10763 bound_to 10752
  153.1019  135.6687  153.9664 H   0  0  0  0  0  0  0  0  0  0  0  0  # atno 10764 bound_to 10752
  153.9448  135.3064  155.3420 H   0  0  0  0  0  0  0  0  0  0  0  0  # atno 10765 bound_to 10752
  140.2649  134.3149  155.7846 H   0  0  0  0  0  0  0  0  0  0  0  0  # atno 11005 bound_to 11000
  146.1954  139.5217  142.9778 LP  0  0  0  0  0  0  0  0  0  0  0  0  # atno 17320 bound_to 7965
  145.6161  141.0331  143.1940 LP  0  0  0  0  0  0  0  0  0  0  0  0  # atno 17321 bound_to 7965
  139.5158  144.3367  152.0777 LP  0  0  0  0  0  0  0  0  0  0  0  0  # atno 17342 bound_to 10162
  140.2514  144.4164  150.6220 LP  0  0  0  0  0  0  0  0  0  0  0  0  # atno 17343 bound_to 10162
  156.3352  130.3806  149.7456 LP  0  0  0  0  0  0  0  0  0  0  0  0  # atno 17370 bound_to 10713
  156.4983  130.8117  151.3122 LP  0  0  0  0  0  0  0  0  0  0  0  0  # atno 17371 bound_to 10713
  141.2185  133.7431  156.9244 LP  0  0  0  0  0  0  0  0  0  0  0  0  # atno 17394 bound_to 11000
  140.1429  134.9281  157.2491 LP  0  0  0  0  0  0  0  0  0  0  0  0  # atno 17395 bound_to 11000

$$$$
