AV-unprocessed.smi:3295|AV-procd|sdf|12635|dock6
  -GOLD-   2272018573D 1   1.00000     0.00000
 Structure written by MMmdl.
 37 38  0  0  0  0  0  0  0  0  1 V2000
  148.7279  140.7285  154.2047 C   0  0  0  0  0  0  0  0  0  0  0  0
  149.9473  139.9504  154.6678 C   0  0  0  0  0  0  0  0  0  0  0  0
  150.2711  138.7209  154.0545 C   0  0  0  0  0  0  0  0  0  0  0  0
  151.3367  137.9710  154.4023 N   0  0  0  0  0  0  0  0  0  0  0  0
  152.1339  138.4316  155.3878 C   0  0  0  0  0  0  0  0  0  0  0  0
  151.9054  139.6436  156.0680 C   0  0  0  0  0  0  0  0  0  0  0  0
  150.7778  140.4235  155.7133 C   0  0  0  0  0  0  0  0  0  0  0  0
  150.4628  141.6714  156.3237 N   0  0  0  0  0  0  0  0  0  0  0  0
  150.6662  142.0688  157.5920 C   0  0  0  0  0  0  0  0  0  0  0  0
  151.1838  141.3910  158.4792 O   0  0  0  0  0  0  0  0  0  0  0  0
  150.2109  143.3149  157.7834 N   0  0  0  0  0  0  0  0  0  0  0  0
  150.2880  144.0580  159.0383 C   0  0  0  0  0  0  0  0  0  0  0  0
  151.7051  144.6157  159.3304 C   0  0  0  0  0  0  0  0  0  0  0  0
  152.0196  145.5761  158.3410 O   0  0  0  0  0  0  0  0  0  0  0  0
  151.8948  145.1869  160.7451 C   0  0  0  0  0  0  0  0  0  0  0  0
  152.1683  143.9647  161.6271 C   0  0  0  0  0  0  0  0  0  0  0  0
  152.7926  142.9075  160.7028 C   0  0  0  0  0  0  0  0  0  0  0  0
  152.7569  143.4978  159.2857 C   0  0  0  0  0  0  0  0  0  0  0  0
  148.2050  140.2056  153.4035 H   0  0  0  0  0  0  0  0  0  0  0  0
  149.0215  141.7098  153.8312 H   0  0  0  0  0  0  0  0  0  0  0  0
  148.0287  140.8669  155.0298 H   0  0  0  0  0  0  0  0  0  0  0  0
  149.6579  138.3247  153.2584 H   0  0  0  0  0  0  0  0  0  0  0  0
  152.9861  137.8175  155.6388 H   0  0  0  0  0  0  0  0  0  0  0  0
  152.6024  139.9515  156.8317 H   0  0  0  0  0  0  0  0  0  0  0  0
  149.9593  142.3195  155.7364 H   0  0  0  0  0  0  0  0  0  0  0  0
  149.7934  143.7942  156.9995 H   0  0  0  0  0  0  0  0  0  0  0  0
  149.5828  144.8840  158.9422 H   0  0  0  0  0  0  0  0  0  0  0  0
  149.9253  143.4599  159.8764 H   0  0  0  0  0  0  0  0  0  0  0  0
  151.5487  145.3601  157.5508 H   0  0  0  0  0  0  0  0  0  0  0  0
  152.7747  145.8322  160.7640 H   0  0  0  0  0  0  0  0  0  0  0  0
  151.0580  145.7868  161.1029 H   0  0  0  0  0  0  0  0  0  0  0  0
  152.8158  144.2101  162.4694 H   0  0  0  0  0  0  0  0  0  0  0  0
  151.2307  143.5860  162.0357 H   0  0  0  0  0  0  0  0  0  0  0  0
  153.8135  142.6642  160.9992 H   0  0  0  0  0  0  0  0  0  0  0  0
  152.2127  141.9850  160.7478 H   0  0  0  0  0  0  0  0  0  0  0  0
  152.5485  142.7466  158.5228 H   0  0  0  0  0  0  0  0  0  0  0  0
  153.7392  143.9176  159.0618 H   0  0  0  0  0  0  0  0  0  0  0  0
  1  2  1  0  0  0  0
  1 19  1  0  0  0  0
  1 20  1  0  0  0  0
  1 21  1  0  0  0  0
  2  7  1  0  0  0  0
  2  3  2  0  0  0  0
  3  4  1  0  0  0  0
  3 22  1  0  0  0  0
  4  5  2  0  0  0  0
  5  6  1  0  0  0  0
  5 23  1  0  0  0  0
  6  7  2  0  0  0  0
  6 24  1  0  0  0  0
  7  8  1  0  0  0  0
  8  9  1  0  0  0  0
  8 25  1  0  0  0  0
  9 10  2  0  0  0  0
  9 11  1  0  0  0  0
 11 12  1  0  0  0  0
 11 26  1  0  0  0  0
 12 13  1  0  0  0  0
 12 27  1  0  0  0  0
 12 28  1  0  0  0  0
 13 18  1  0  0  0  0
 13 14  1  0  0  0  0
 13 15  1  0  0  0  0
 14 29  1  0  0  0  0
 15 16  1  0  0  0  0
 15 30  1  0  0  0  0
 15 31  1  0  0  0  0
 16 17  1  0  0  0  0
 16 32  1  0  0  0  0
 16 33  1  0  0  0  0
 17 18  1  0  0  0  0
 17 34  1  0  0  0  0
 17 35  1  0  0  0  0
 18 36  1  0  0  0  0
 18 37  1  0  0  0  0
M  END
> <s_m_source_file>
AV-unprocessed.smi

> <i_m_source_file_index>
3295

> <i_lp_mmshare_version>
43012

> <i_f3d_flags>
0

> <s_epik_input>
W0NIM11jMVtjSF1uW2NIXVtjSF1jMVtOSF1DKD1PKVtOSF1bQ0gyXUMyKFtPSF0pW0NIMl1bQ0gyXVtDSDJdW0NIMl0y

> <s_epik_cmdline>
J2VwaWtfcHl0aG9uJywgJy1waCcsICc3LjAnLCAnLXRuJywgJzgnLCAnLW1hJywgJzIwMCcsICctbWV0YWxfYmluZGluZycsICctaW1hZScsICc8aW5maWxlLm1hZT4nLCAnLW9tYWUnLCAnPG91dGZpbGUubWFlPic=

> <r_epik_Ionization_Penalty>
0.224243

> <r_epik_Ionization_Penalty_Charging>
0

> <r_epik_Ionization_Penalty_Neutral>
0.224243

> <r_epik_State_Penalty>
0.214648

> <r_epik_Charging_Adjusted_Penalty>
0.214648

> <i_epik_Tot_Q>
0

> <i_epik_Tot_abs_Q>
0

> <r_epik_Metal_State_Penalty>
0.155078

> <b_epik_Metal_Only>
0

> <s_lp_Force_Field>
OPLS_2005

> <r_lp_Energy>
30.8814

> <b_lp_Chiralities_Consistent>
1

> <s_lp_Variant>
AV-unprocessed.smi:3295-1

> <Gold.Version>
5.8.1

> <Gold.Id.Protein>
6NUR|6NUR_protein|mol2

> <Gold.PLP.Fitness>
48.4468

> <Gold.PLP.PLP>
-41.3182

> <Gold.PLP.part.hbond>
-1.5777

> <Gold.PLP.part.metal>
0.0000

> <Gold.PLP.part.buried>
-0.3117

> <Gold.PLP.part.nonpolar>
-38.7765

> <Gold.PLP.part.repulsive>
0.3212

> <Gold.PLP.ligand.clash>
0.0000

> <Gold.PLP.ligand.torsion>
0.3627

> <Gold.PLP.Chemscore.Hbond>
1.0000

> <Gold.PLP.Chemscore.CHOScore>
1.6147

> <Gold.PLP.Chemscore.Metal>
0.0000

> <Gold.Chemscore.Hbonds>
donor molecule, donor type, donor heavy atom, donor atom, acceptor molecule, acceptor atom, score
      L1  H    11    26       P1  8028  1.00
      L1  C     3    22       P1  7948  0.89
      L1  C     3    22       P1  7957  0.36

> <Gold.PLP.Chemscore.Internal.Correction>
0.0097

> <Gold.Rescore>
     Score         DG    S(hbond)    S(metal)    S(lipo)     H(rot)  DE(clash)    DE(int)     intcor
     14.46     -19.01       1.33        0.00     115.26       1.71       2.85       1.70       ----

> <Gold.Chemscore.Fitness>
14.4643

> <Gold.Chemscore.DG>
-19.0134

> <Gold.Chemscore.ZeroCoef>
-5.4800

> <Gold.Chemscore.Hbond>
1.3253

> <Gold.Chemscore.Metal>
0.0000

> <Gold.Chemscore.Lipo>
115.2609

> <Gold.Chemscore.Internal_Hbond>
0.0000

> <Gold.Chemscore.DEClash>
2.8514

> <Gold.Chemscore.DEInternal>
1.6976

> <Gold.Chemscore.Rot>
1.7103

> <Gold.Chemscore.Internal.Correction>
   9.000000E+99

> <Gold.Chemscore.Hbonds>
donor molecule, donor type, donor heavy atom, donor atom, acceptor molecule, acceptor atom, score
      L1  H    11    26       P1  8028  0.94

> <Gold.Chemscore.Hbond.Weighted>
-4.4264

> <Gold.Chemscore.Metal.Weighted>
-0.0000

> <Gold.Chemscore.Lipo.Weighted>
-13.4855

> <Gold.Chemscore.Internal_Hbond.Weighted>
0.0000

> <Gold.Chemscore.DEClash.Weighted>
2.8514

> <Gold.Chemscore.DEInternal.Weighted>
1.6976

> <Gold.Chemscore.Rot.Weighted>
4.3785

> <Gold.Chemscore.Internal.Correction.Weighted>
   9.000000E+99

> <Gold.Protein.RotatedTorsions>
[ 6907 6896 6895 6894 ] final  -47.16 input  -60.11 | X-H torsion
[ 7974 7965 7964 7962 ] final   11.92 input  175.53 | X-H torsion
[ 8008 7997 7996 7995 ] final  119.90 input   59.86 | X-H torsion
[ 10167 10162 10161 10158 ] final   76.98 input  -65.29 | X-H torsion
[ 10718 10713 10712 10709 ] final -173.94 input   66.30 | X-H torsion
[ 10763 10752 10751 10750 ] final   83.99 input  -60.55 | X-H torsion
[ 11005 11000 10999 10996 ] final -176.11 input  -57.11 | X-H torsion

> <Gold.Protein.ActiveResidues>
 VAL166  LYS551  ARG553  GLY616  TRP617  ASP618  TYR619  PRO620  LYS621  CYS622 
 ASP623  PHE694  ASN695  SER759  ASP760  ASP761  ALA762  ILE779  LEU786  VAL792 
 PHE793  MET794  SER795  GLU796  ALA797  LYS798  CYS799  TRP800  GLU811  SER814 

> <Gold.Protein.RotatedAtoms>
  150.9037  134.8450  159.7377 H   0  0  0  0  0  0  0  0  0  0  0  0  # atno 6907 bound_to 6896
  152.4906  134.4464  159.9570 H   0  0  0  0  0  0  0  0  0  0  0  0  # atno 6908 bound_to 6896
  151.4513  133.3577  159.2831 H   0  0  0  0  0  0  0  0  0  0  0  0  # atno 6909 bound_to 6896
  146.2361  139.9413  142.8483 H   0  0  0  0  0  0  0  0  0  0  0  0  # atno 7974 bound_to 7965
  156.2618  140.2842  156.1065 H   0  0  0  0  0  0  0  0  0  0  0  0  # atno 8008 bound_to 7997
  155.1304  140.0393  157.2790 H   0  0  0  0  0  0  0  0  0  0  0  0  # atno 8009 bound_to 7997
  154.6604  140.2565  155.7121 H   0  0  0  0  0  0  0  0  0  0  0  0  # atno 8010 bound_to 7997
  139.9865  144.5789  150.7855 H   0  0  0  0  0  0  0  0  0  0  0  0  # atno 10167 bound_to 10162
  156.7778  130.9472  151.3120 H   0  0  0  0  0  0  0  0  0  0  0  0  # atno 10718 bound_to 10713
  153.1341  135.4671  154.9394 H   0  0  0  0  0  0  0  0  0  0  0  0  # atno 10763 bound_to 10752
  154.7690  135.3153  154.8230 H   0  0  0  0  0  0  0  0  0  0  0  0  # atno 10764 bound_to 10752
  153.8767  135.6898  153.4824 H   0  0  0  0  0  0  0  0  0  0  0  0  # atno 10765 bound_to 10752
  140.4557  134.6301  157.4821 H   0  0  0  0  0  0  0  0  0  0  0  0  # atno 11005 bound_to 11000
  145.1950  140.9829  143.4189 LP  0  0  0  0  0  0  0  0  0  0  0  0  # atno 17320 bound_to 7965
  144.9824  139.3770  143.6255 LP  0  0  0  0  0  0  0  0  0  0  0  0  # atno 17321 bound_to 7965
  140.7470  143.2900  151.3357 LP  0  0  0  0  0  0  0  0  0  0  0  0  # atno 17342 bound_to 10162
  139.6371  144.0609  152.2525 LP  0  0  0  0  0  0  0  0  0  0  0  0  # atno 17343 bound_to 10162
  157.6661  130.9009  149.9935 LP  0  0  0  0  0  0  0  0  0  0  0  0  # atno 17370 bound_to 10713
  156.1237  130.3645  149.9845 LP  0  0  0  0  0  0  0  0  0  0  0  0  # atno 17371 bound_to 10713
  139.9978  134.6884  155.9581 LP  0  0  0  0  0  0  0  0  0  0  0  0  # atno 17394 bound_to 11000
  141.1644  133.6537  156.4428 LP  0  0  0  0  0  0  0  0  0  0  0  0  # atno 17395 bound_to 11000

$$$$
