AV-unprocessed.smi:834|AV-procd|sdf|3885|dock1
  -GOLD-   22720 1343D 1   1.00000     0.00000
 Structure written by MMmdl.
 38 39  0  0  0  0  0  0  0  0  2 V2000
  148.2730  140.2648  153.9484 C   0  0  0  0  0  0  0  0  0  0  0  0
  149.3942  139.3237  154.2273 C   0  0  0  0  0  0  0  0  0  0  0  0
  150.6772  139.6663  154.0884 N   0  0  0  0  0  0  0  0  0  0  0  0
  151.5342  138.6225  154.4052 N   0  0  0  0  0  0  0  0  0  0  0  0
  150.8897  137.5039  154.7664 C   0  0  0  0  0  0  0  0  0  0  0  0
  151.5377  136.3804  155.1156 N   0  5  0  0  0  0  0  0  0  0  0  0
  150.8399  135.2947  155.5201 C   0  0  0  0  0  0  0  0  0  0  0  0
  150.8156  134.8250  156.6602 O   0  0  0  0  0  0  0  0  0  0  0  0
  150.1302  134.7143  154.5419 N   0  0  0  0  0  0  0  0  0  0  0  0
  149.2949  133.5257  154.6802 C   0  0  0  0  0  0  0  0  0  0  0  0
  148.8866  132.9615  153.3050 C   0  0  0  0  0  0  0  0  0  0  0  0
  147.3710  132.8735  153.0991 C   0  0  0  0  0  0  0  0  0  0  0  0
  146.5867  133.2498  153.9712 O   0  0  0  0  0  0  0  0  0  0  0  0
  146.9709  132.3739  151.9198 N   0  0  0  0  0  0  0  0  0  0  0  0
  145.5807  132.2015  151.5068 C   0  0  0  0  0  0  0  0  0  0  0  0
  145.4936  131.8273  150.0145 C   0  0  0  0  0  0  0  0  0  0  0  0
  144.4233  132.7384  149.4108 C   0  0  0  0  0  0  0  0  0  0  0  0
  144.4929  134.0087  150.2518 C   0  0  0  0  0  0  0  0  0  0  0  0
  144.7718  133.5052  151.6682 C   0  0  0  0  0  0  0  0  0  0  0  0
  149.1341  137.6716  154.7612 S   0  0  0  0  0  0  0  0  0  0  0  0
  148.0666  140.2901  152.8785 H   0  0  0  0  0  0  0  0  0  0  0  0
  148.5305  141.2704  154.2817 H   0  0  0  0  0  0  0  0  0  0  0  0
  147.3722  139.9449  154.4722 H   0  0  0  0  0  0  0  0  0  0  0  0
  150.1779  135.1334  153.6249 H   0  0  0  0  0  0  0  0  0  0  0  0
  149.8146  132.7701  155.2723 H   0  0  0  0  0  0  0  0  0  0  0  0
  148.4088  133.8110  155.2480 H   0  0  0  0  0  0  0  0  0  0  0  0
  149.3032  133.5856  152.5133 H   0  0  0  0  0  0  0  0  0  0  0  0
  149.3099  131.9648  153.1732 H   0  0  0  0  0  0  0  0  0  0  0  0
  147.6820  132.0891  151.2618 H   0  0  0  0  0  0  0  0  0  0  0  0
  145.1205  131.4123  152.1046 H   0  0  0  0  0  0  0  0  0  0  0  0
  146.4440  132.0201  149.5143 H   0  0  0  0  0  0  0  0  0  0  0  0
  145.2613  130.7720  149.8670 H   0  0  0  0  0  0  0  0  0  0  0  0
  144.5825  132.9277  148.3488 H   0  0  0  0  0  0  0  0  0  0  0  0
  143.4412  132.2774  149.5241 H   0  0  0  0  0  0  0  0  0  0  0  0
  145.3227  134.6299  149.9119 H   0  0  0  0  0  0  0  0  0  0  0  0
  143.5822  134.6050  150.1903 H   0  0  0  0  0  0  0  0  0  0  0  0
  143.8258  133.2792  152.1619 H   0  0  0  0  0  0  0  0  0  0  0  0
  145.2750  134.2594  152.2749 H   0  0  0  0  0  0  0  0  0  0  0  0
  1  2  1  0  0  0  0
  1 21  1  0  0  0  0
  1 22  1  0  0  0  0
  1 23  1  0  0  0  0
  2 20  1  0  0  0  0
  2  3  2  0  0  0  0
  3  4  1  0  0  0  0
  4  5  2  0  0  0  0
  5  6  1  0  0  0  0
  5 20  1  0  0  0  0
  6  7  1  0  0  0  0
  7  8  2  0  0  0  0
  7  9  1  0  0  0  0
  9 10  1  0  0  0  0
  9 24  1  0  0  0  0
 10 11  1  0  0  0  0
 10 25  1  0  0  0  0
 10 26  1  0  0  0  0
 11 12  1  0  0  0  0
 11 27  1  0  0  0  0
 11 28  1  0  0  0  0
 12 13  2  0  0  0  0
 12 14  1  0  0  0  0
 14 15  1  0  0  0  0
 14 29  1  0  0  0  0
 15 19  1  0  0  0  0
 15 16  1  0  0  0  0
 15 30  1  0  0  0  0
 16 17  1  0  0  0  0
 16 31  1  0  0  0  0
 16 32  1  0  0  0  0
 17 18  1  0  0  0  0
 17 33  1  0  0  0  0
 17 34  1  0  0  0  0
 18 19  1  0  0  0  0
 18 35  1  0  0  0  0
 18 36  1  0  0  0  0
 19 37  1  0  0  0  0
 19 38  1  0  0  0  0
M  CHG  1   6  -1
M  END
> <s_m_source_file>
AV-unprocessed.smi

> <i_m_source_file_index>
834

> <i_lp_mmshare_version>
43012

> <i_f3d_flags>
0

> <s_epik_input>
W0NIM11jMW5uYyhzMSlbTkhdQyg9TylbTkhdW0NIMl1bQ0gyXUMoPU8pW05IXVtDSF0yW0NIMl1bQ0gyXVtDSDJdW0NIMl0y

> <s_epik_cmdline>
J2VwaWtfcHl0aG9uJywgJy1waCcsICc3LjAnLCAnLXRuJywgJzgnLCAnLW1hJywgJzIwMCcsICctbWV0YWxfYmluZGluZycsICctaW1hZScsICc8aW5maWxlLm1hZT4nLCAnLW9tYWUnLCAnPG91dGZpbGUubWFlPic=

> <r_lp_tautomer_probability>
1

> <r_epik_Ionization_Penalty>
3.40129

> <r_epik_Ionization_Penalty_Charging>
3.26946

> <r_epik_Ionization_Penalty_Neutral>
0.131835

> <r_epik_State_Penalty>
3.26707

> <r_epik_Charging_Adjusted_Penalty>
6.53653

> <i_epik_Tot_Q>
-1

> <i_epik_Tot_abs_Q>
1

> <r_epik_Metal_State_Penalty>
0.478667

> <b_epik_Metal_Only>
1

> <s_lp_Force_Field>
OPLS_2005

> <r_lp_Energy>
15.9775

> <b_lp_Chiralities_Consistent>
1

> <s_lp_Variant>
AV-unprocessed.smi:834-2

> <Gold.Version>
5.8.1

> <Gold.Id.Protein>
6NUR|6NUR_protein|mol2

> <Gold.PLP.Fitness>
44.0652

> <Gold.PLP.PLP>
-34.2963

> <Gold.PLP.part.hbond>
-3.2079

> <Gold.PLP.part.metal>
0.0000

> <Gold.PLP.part.buried>
-4.8213

> <Gold.PLP.part.nonpolar>
-26.7174

> <Gold.PLP.part.repulsive>
0.5222

> <Gold.PLP.ligand.clash>
0.0000

> <Gold.PLP.ligand.torsion>
1.1727

> <Gold.PLP.Chemscore.Hbond>
4.0000

> <Gold.PLP.Chemscore.CHOScore>
0.0000

> <Gold.PLP.Chemscore.Metal>
0.0000

> <Gold.Chemscore.Hbonds>
donor molecule, donor type, donor heavy atom, donor atom, acceptor molecule, acceptor atom, score
      L1  H     9    24       P1  7948  0.01
      L1  H    14    29       P1 10747  0.98
      P1  H  7989  7998       L1     3  1.00
      P1  H 10752 10765       L1     6  1.90

> <Gold.PLP.Chemscore.Internal.Correction>
0.1143

> <Gold.Rescore>
     Score         DG    S(hbond)    S(metal)    S(lipo)     H(rot)  DE(clash)    DE(int)     intcor
     15.89     -18.21       2.78        0.00      71.90       1.95       0.04       2.28       ----

> <Gold.Chemscore.Fitness>
15.8868

> <Gold.Chemscore.DG>
-18.2107

> <Gold.Chemscore.ZeroCoef>
-5.4800

> <Gold.Chemscore.Hbond>
2.7841

> <Gold.Chemscore.Metal>
0.0000

> <Gold.Chemscore.Lipo>
71.9008

> <Gold.Chemscore.Internal_Hbond>
0.0000

> <Gold.Chemscore.DEClash>
0.0392

> <Gold.Chemscore.DEInternal>
2.2847

> <Gold.Chemscore.Rot>
1.9455

> <Gold.Chemscore.Internal.Correction>
   9.000000E+99

> <Gold.Chemscore.Hbonds>
donor molecule, donor type, donor heavy atom, donor atom, acceptor molecule, acceptor atom, score
      L1  H    14    29       P1 10747  0.91
      P1  H  7989  7998       L1     3  0.55
      P1  H 10752 10765       L1     6  0.22

> <Gold.Chemscore.Hbond.Weighted>
-9.2988

> <Gold.Chemscore.Metal.Weighted>
-0.0000

> <Gold.Chemscore.Lipo.Weighted>
-8.4124

> <Gold.Chemscore.Internal_Hbond.Weighted>
0.0000

> <Gold.Chemscore.DEClash.Weighted>
0.0392

> <Gold.Chemscore.DEInternal.Weighted>
2.2847

> <Gold.Chemscore.Rot.Weighted>
4.9805

> <Gold.Chemscore.Internal.Correction.Weighted>
   9.000000E+99

> <Gold.Protein.RotatedTorsions>
[ 6907 6896 6895 6894 ] final -171.09 input  -60.11 | X-H torsion
[ 7974 7965 7964 7962 ] final   16.63 input  175.53 | X-H torsion
[ 8008 7997 7996 7995 ] final  177.64 input   59.86 | X-H torsion
[ 10167 10162 10161 10158 ] final  159.73 input  -65.29 | X-H torsion
[ 10718 10713 10712 10709 ] final  -31.23 input   66.30 | X-H torsion
[ 10763 10752 10751 10750 ] final  177.35 input  -60.55 | X-H torsion
[ 11005 11000 10999 10996 ] final  158.04 input  -57.11 | X-H torsion

> <Gold.Protein.ActiveResidues>
 VAL166  LYS551  ARG553  GLY616  TRP617  ASP618  TYR619  PRO620  LYS621  CYS622 
 ASP623  PHE694  ASN695  SER759  ASP760  ASP761  ALA762  ILE779  LEU786  VAL792 
 PHE793  MET794  SER795  GLU796  ALA797  LYS798  CYS799  TRP800  GLU811  SER814 

> <Gold.Protein.RotatedAtoms>
  151.5183  133.3471  159.2896 H   0  0  0  0  0  0  0  0  0  0  0  0  # atno 6907 bound_to 6896
  150.8668  134.8036  159.7136 H   0  0  0  0  0  0  0  0  0  0  0  0  # atno 6908 bound_to 6896
  152.4670  134.5061  159.9791 H   0  0  0  0  0  0  0  0  0  0  0  0  # atno 6909 bound_to 6896
  146.2243  139.8719  142.8586 H   0  0  0  0  0  0  0  0  0  0  0  0  # atno 7974 bound_to 7965
  156.0634  140.1353  156.9914 H   0  0  0  0  0  0  0  0  0  0  0  0  # atno 8008 bound_to 7997
  154.4493  140.0986  156.6622 H   0  0  0  0  0  0  0  0  0  0  0  0  # atno 8009 bound_to 7997
  155.5341  140.3459  155.4435 H   0  0  0  0  0  0  0  0  0  0  0  0  # atno 8010 bound_to 7997
  139.4834  144.4701  151.8587 H   0  0  0  0  0  0  0  0  0  0  0  0  # atno 10167 bound_to 10162
  156.3899  130.4371  149.7403 H   0  0  0  0  0  0  0  0  0  0  0  0  # atno 10718 bound_to 10713
  154.4933  135.2780  155.1479 H   0  0  0  0  0  0  0  0  0  0  0  0  # atno 10763 bound_to 10752
  154.3142  135.6223  153.5482 H   0  0  0  0  0  0  0  0  0  0  0  0  # atno 10764 bound_to 10752
  152.9891  135.5727  154.5359 H   0  0  0  0  0  0  0  0  0  0  0  0  # atno 10765 bound_to 10752
  140.1826  134.8464  157.2821 H   0  0  0  0  0  0  0  0  0  0  0  0  # atno 11005 bound_to 11000
  145.2599  141.0073  143.3832 LP  0  0  0  0  0  0  0  0  0  0  0  0  # atno 17320 bound_to 7965
  144.9307  139.4302  143.6496 LP  0  0  0  0  0  0  0  0  0  0  0  0  # atno 17321 bound_to 7965
  140.4170  144.2294  150.5887 LP  0  0  0  0  0  0  0  0  0  0  0  0  # atno 17342 bound_to 10162
  140.4911  143.2347  151.8817 LP  0  0  0  0  0  0  0  0  0  0  0  0  # atno 17343 bound_to 10162
  156.4460  130.7884  151.2905 LP  0  0  0  0  0  0  0  0  0  0  0  0  # atno 17370 bound_to 10713
  157.7498  131.0110  150.3328 LP  0  0  0  0  0  0  0  0  0  0  0  0  # atno 17371 bound_to 10713
  140.2249  134.3978  155.7548 LP  0  0  0  0  0  0  0  0  0  0  0  0  # atno 17394 bound_to 11000
  141.2223  133.7185  156.8550 LP  0  0  0  0  0  0  0  0  0  0  0  0  # atno 17395 bound_to 11000

$$$$
