#       Name:                AV-unprocessed.smi:2061
#       Creating user name   scv26
#       Creation time:       Fri Mar 27 11:05:00 2020


#       File generated by GOLD software.
#

@<TRIPOS>MOLECULE
AV-unprocessed.smi:2061
    53    54     1
SMALL
NO_CHARGES


@<TRIPOS>ATOM
      1 ****        -4.3792   5.9515  -3.4975 C.3            1 S1                 0.0000
      2 ****        -4.1637   4.9658  -2.4002 C.2            1 S1                 0.0000
      3 ****        -3.0373   4.4427  -1.8315 C.2            1 S1                 0.0000
      4 ****        -3.5524   3.5580  -0.8448 C.2            1 S1                 0.0000
      5 ****        -2.8264   2.8090  -0.0007 N.pl3          1 S1                -1.0000
      6 ****        -2.3374   1.6122  -0.4000 C.2            1 S1                 0.0000
      7 ****        -2.4853   1.0971  -1.5104 O.2            1 S1                 0.0000
      8 ****        -1.6264   0.9811   0.5462 N.am           1 S1                 0.0000
      9 ****        -0.9717  -0.3205   0.4232 C.3            1 S1                 0.0000
     10 ****         0.5804  -0.2267   0.4606 C.3            1 S1                 0.0000
     11 ****         1.0588   0.7177  -0.6719 C.3            1 S1                 0.0000
     12 ****         1.2477  -1.5505   0.4216 N.3            1 S1                 0.0000
     13 ****         2.7097  -1.4454   0.4821 C.3            1 S1                 0.0000
     14 ****         3.4129  -2.8160   0.4622 C.3            1 S1                 0.0000
     15 ****         4.9334  -2.6887   0.6034 C.3            1 S1                 0.0000
     16 ****         2.9301  -3.6040   1.5427 O.3            1 S1                 0.0000
     17 ****         1.5235  -3.8048   1.4872 C.3            1 S1                 0.0000
     18 ****         1.1169  -4.6838   2.6748 C.3            1 S1                 0.0000
     19 ****         0.8145  -2.4370   1.5071 C.3            1 S1                 0.0000
     20 ****        -4.8744   3.5577  -0.8065 N.2            1 S1                 0.0000
     21 ****        -5.2744   4.4538  -1.8049 O.3            1 S1                 0.0000
     22 ****        -4.0798   6.9506  -3.1811 H              1 S1                 0.0000
     23 ****        -5.4282   5.9897  -3.7917 H              1 S1                 0.0000
     24 ****        -3.7923   5.6840  -4.3764 H              1 S1                 0.0000
     25 ****        -2.0088   4.6546  -2.0825 H              1 S1                 0.0000
     26 ****        -1.5344   1.4492   1.4357 H              1 S1                 0.0000
     27 ****        -1.3523  -0.8898   1.2689 H              1 S1                 0.0000
     28 ****        -1.2940  -0.8535  -0.4728 H              1 S1                 0.0000
     29 ****         0.8446   0.2534   1.4041 H              1 S1                 0.0000
     30 ****         0.5500   1.6801  -0.6517 H              1 S1                 0.0000
     31 ****         0.8846   0.2759  -1.6534 H              1 S1                 0.0000
     32 ****         2.1168   0.9621  -0.5928 H              1 S1                 0.0000
     33 ****         3.0881  -0.8834  -0.3698 H              1 S1                 0.0000
     34 ****         3.0022  -0.8975   1.3792 H              1 S1                 0.0000
     35 ****         3.1914  -3.3262  -0.4770 H              1 S1                 0.0000
     36 ****         5.3552  -2.0990  -0.2108 H              1 S1                 0.0000
     37 ****         5.4097  -3.6692   0.5845 H              1 S1                 0.0000
     38 ****         5.2034  -2.2049   1.5427 H              1 S1                 0.0000
     39 ****         1.2763  -4.3306   0.5631 H              1 S1                 0.0000
     40 ****         0.0444  -4.8797   2.6684 H              1 S1                 0.0000
     41 ****         1.3641  -4.2049   3.6227 H              1 S1                 0.0000
     42 ****         1.6307  -5.6449   2.6430 H              1 S1                 0.0000
     43 ****         0.9834  -1.9504   2.4691 H              1 S1                 0.0000
     44 ****        -0.2526  -2.6366   1.4351 H              1 S1                 0.0000
     45 ****        -2.6461   3.1365   0.9268 LP             1 S1                 0.0000
     46 ****        -3.0099   1.5729  -2.2164 LP             1 S1                 0.0000
     47 ****        -2.0807   0.2036  -1.7050 LP             1 S1                 0.0000
     48 ****         0.9743  -1.9421  -0.4569 LP             1 S1                 0.0000
     49 ****         3.1541  -3.1422   2.4010 LP             1 S1                 0.0000
     50 ****         3.3822  -4.4955   1.5160 LP             1 S1                 0.0000
     51 ****        -5.4631   3.0297  -0.1945 LP             1 S1                 0.0000
     52 ****        -5.8301   3.9748  -2.4844 LP             1 S1                 0.0000
     53 ****        -5.8100   5.1940  -1.3982 LP             1 S1                 0.0000
@<TRIPOS>BOND
    1    1    2 1     
    2    1   22 1     
    3    1   23 1     
    4    1   24 1     
    5    2   21 1     
    6    2    3 2     
    7    3    4 1     
    8    3   25 1     
    9    4    5 1     
   10    4   20 2     
   11    5    6 1     
   12    6    7 2     
   13    6    8 am    
   14    8    9 1     
   15    8   26 1     
   16    9   10 1     
   17    9   27 1     
   18    9   28 1     
   19   10   11 1     
   20   10   12 1     
   21   10   29 1     
   22   11   30 1     
   23   11   31 1     
   24   11   32 1     
   25   12   19 1     
   26   12   13 1     
   27   13   14 1     
   28   13   33 1     
   29   13   34 1     
   30   14   15 1     
   31   14   16 1     
   32   14   35 1     
   33   15   36 1     
   34   15   37 1     
   35   15   38 1     
   36   16   17 1     
   37   17   18 1     
   38   17   19 1     
   39   17   39 1     
   40   18   40 1     
   41   18   41 1     
   42   18   42 1     
   43   19   43 1     
   44   19   44 1     
   45   20   21 1     
   46    5   45 1     
   47    7   46 1     
   48    7   47 1     
   49   12   48 1     
   50   16   49 1     
   51   16   50 1     
   52   20   51 1     
   53   21   52 1     
   54   21   53 1     
@<TRIPOS>SUBSTRUCTURE
      1 S1             1
@<TRIPOS>SET
LONE_PAIRS      STATIC     ATOMS    <user>   **** ""
9 45 46 47 48 49 50 51 52 53
DONOR_HYDROGENS      STATIC     ATOMS    <user>   **** ""
1 26
ATOM$BLUE        STATIC     ATOMS    COLORGROUP SYSTEM
9 45 46 47 48 49 50 51 52 53
ATOM$RED        STATIC     ATOMS    COLORGROUP SYSTEM
1 26
