AV-unprocessed.smi:102|AV-procd|sdf|946|dock4
  -GOLD-   2262017473D 1   1.00000     0.00000
 Structure written by MMmdl.
 44 45  0  0  0  0  0  0  0  0  1 V2000
  146.2267  135.8251  161.0904 C   0  0  0  0  0  0  0  0  0  0  0  0
  146.9127  137.0905  160.5924 C   0  0  0  0  0  0  0  0  0  0  0  0
  147.3556  137.9318  161.3745 O   0  0  0  0  0  0  0  0  0  0  0  0
  146.9589  137.1555  159.2526 O   0  0  0  0  0  0  0  0  0  0  0  0
  147.7588  138.1436  158.6236 C   0  0  0  0  0  0  0  0  0  0  0  0
  149.2193  137.9838  159.0861 C   0  0  1  0  0  0  0  0  0  0  0  0
  149.6942  136.6911  158.7084 O   0  0  0  0  0  0  0  0  0  0  0  0
  150.4602  136.7450  157.5361 C   0  0  1  0  0  0  0  0  0  0  0  0
  149.8486  135.8469  156.4785 N   0  0  0  0  0  0  0  0  0  0  0  0
  148.7527  135.0307  156.7312 C   0  0  0  0  0  0  0  0  0  0  0  0
  148.1863  134.2450  155.7852 C   0  0  0  0  0  0  0  0  0  0  0  0
  147.1260  133.4836  156.1042 F   0  0  0  0  0  0  0  0  0  0  0  0
  148.7168  134.2153  154.4254 C   0  0  0  0  0  0  0  0  0  0  0  0
  148.2693  133.5404  153.5003 O   0  0  0  0  0  0  0  0  0  0  0  0
  149.8251  135.0420  154.2201 N   0  0  0  0  0  0  0  0  0  0  0  0
  150.4181  135.8561  155.1862 C   0  0  0  0  0  0  0  0  0  0  0  0
  151.3902  136.5519  154.8961 O   0  0  0  0  0  0  0  0  0  0  0  0
  150.5381  138.2230  157.0996 C   0  0  1  0  0  0  0  0  0  0  0  0
  149.5723  138.5099  156.0866 O   0  0  0  0  0  0  0  0  0  0  0  0
  149.9240  139.1425  154.9548 C   0  0  0  0  0  0  0  0  0  0  0  0
  148.7219  139.4696  154.0796 C   0  0  0  0  0  0  0  0  0  0  0  0
  151.0675  139.4450  154.6148 O   0  0  0  0  0  0  0  0  0  0  0  0
  150.2119  138.9310  158.4075 C   0  0  1  0  0  0  0  0  0  0  0  0
  149.7180  140.2562  158.2433 O   0  0  0  0  0  0  0  0  0  0  0  0
  150.5726  141.2871  158.1203 C   0  0  0  0  0  0  0  0  0  0  0  0
  149.8581  142.6308  158.0739 C   0  0  0  0  0  0  0  0  0  0  0  0
  151.7980  141.2060  158.0368 O   0  0  0  0  0  0  0  0  0  0  0  0
  150.2279  135.0525  153.2943 H   0  0  0  0  0  0  0  0  0  0  0  0
  145.3363  135.6153  160.4976 H   0  0  0  0  0  0  0  0  0  0  0  0
  145.9268  135.9383  162.1324 H   0  0  0  0  0  0  0  0  0  0  0  0
  146.9031  134.9739  161.0151 H   0  0  0  0  0  0  0  0  0  0  0  0
  147.6860  138.0661  157.5388 H   0  0  0  0  0  0  0  0  0  0  0  0
  147.3748  139.1245  158.9051 H   0  0  0  0  0  0  0  0  0  0  0  0
  149.2704  138.1012  160.1691 H   0  0  0  0  0  0  0  0  0  0  0  0
  151.4383  136.3144  157.7588 H   0  0  0  0  0  0  0  0  0  0  0  0
  148.3139  134.9995  157.7158 H   0  0  0  0  0  0  0  0  0  0  0  0
  151.5532  138.4412  156.7647 H   0  0  0  0  0  0  0  0  0  0  0  0
  147.8446  139.6748  154.6935 H   0  0  0  0  0  0  0  0  0  0  0  0
  148.4960  138.6300  153.4220 H   0  0  0  0  0  0  0  0  0  0  0  0
  148.9255  140.3468  153.4654 H   0  0  0  0  0  0  0  0  0  0  0  0
  151.1129  138.9478  159.0233 H   0  0  0  0  0  0  0  0  0  0  0  0
  149.1114  142.6936  158.8655 H   0  0  0  0  0  0  0  0  0  0  0  0
  149.3583  142.7577  157.1134 H   0  0  0  0  0  0  0  0  0  0  0  0
  150.5691  143.4470  158.2042 H   0  0  0  0  0  0  0  0  0  0  0  0
  1  2  1  0  0  0  0
  1 29  1  0  0  0  0
  1 30  1  0  0  0  0
  1 31  1  0  0  0  0
  2  3  2  0  0  0  0
  2  4  1  0  0  0  0
  4  5  1  0  0  0  0
  5  6  1  0  0  0  0
  5 32  1  0  0  0  0
  5 33  1  0  0  0  0
  6 23  1  0  0  0  0
  6  7  1  0  0  0  0
  6 34  1  0  0  0  0
  7  8  1  0  0  0  0
  8  9  1  0  0  0  0
  8 18  1  0  0  0  0
  8 35  1  0  0  0  0
  9 16  1  0  0  0  0
  9 10  1  0  0  0  0
 10 11  2  0  0  0  0
 10 36  1  0  0  0  0
 11 12  1  0  0  0  0
 11 13  1  0  0  0  0
 13 14  2  0  0  0  0
 13 15  1  0  0  0  0
 15 28  1  0  0  0  0
 15 16  1  0  0  0  0
 16 17  2  0  0  0  0
 18 19  1  0  0  0  0
 18 23  1  0  0  0  0
 18 37  1  0  0  0  0
 19 20  1  0  0  0  0
 20 21  1  0  0  0  0
 20 22  2  0  0  0  0
 21 38  1  0  0  0  0
 21 39  1  0  0  0  0
 21 40  1  0  0  0  0
 23 24  1  0  0  0  0
 23 41  1  0  0  0  0
 24 25  1  0  0  0  0
 25 26  1  0  0  0  0
 25 27  2  0  0  0  0
 26 42  1  0  0  0  0
 26 43  1  0  0  0  0
 26 44  1  0  0  0  0
M  END
> <s_m_source_file>
AV-unprocessed.smi

> <i_m_source_file_index>
102

> <i_lp_mmshare_version>
43012

> <i_f3d_flags>
0

> <s_epik_input>
W0NIM11DKD1PKU9bQ0gyXVtDQEBIXTFPW0NASF0oW0NAQEhdKE9DKD1PKVtDSDNdKVtDQEhdMU9DKD1PKVtDSDNdKW4yW2NIXWMoRiljKD1PKVtuSF1jMj1P

> <s_epik_cmdline>
J2VwaWtfcHl0aG9uJywgJy1waCcsICc3LjAnLCAnLXRuJywgJzgnLCAnLW1hJywgJzIwMCcsICctbWV0YWxfYmluZGluZycsICctaW1hZScsICc8aW5maWxlLm1hZT4nLCAnLW9tYWUnLCAnPG91dGZpbGUubWFlPic=

> <r_lp_tautomer_probability>
0.999537

> <r_epik_Ionization_Penalty>
0.058267

> <r_epik_Ionization_Penalty_Charging>
0.058267

> <r_epik_Ionization_Penalty_Neutral>
6.57791e-16

> <r_epik_State_Penalty>
0.0503774

> <r_epik_Charging_Adjusted_Penalty>
0.108644

> <i_epik_Tot_Q>
0

> <i_epik_Tot_abs_Q>
0

> <r_epik_Metal_State_Penalty>
2.6644

> <b_epik_Metal_Only>
0

> <s_epik_Chemistry_Notes>
This compound has an ester and may undergo hydrolysis at high or low pH. This compound contains an acetal/aminal-like group ( X-CH(R)-Y where X, Y are N, S, or O) that may be acid/base labile, releasing an aldehyde.

> <s_lp_Force_Field>
OPLS_2005

> <r_lp_Energy>
16.4745

> <b_lp_Chiralities_Consistent>
1

> <s_lp_Variant>
AV-unprocessed.smi:102-2

> <Gold.Version>
5.8.1

> <Gold.Id.Protein>
6NUR|6NUR_protein|mol2

> <Gold.PLP.Fitness>
38.8542

> <Gold.PLP.PLP>
-26.8221

> <Gold.PLP.part.hbond>
-7.0000

> <Gold.PLP.part.metal>
0.0000

> <Gold.PLP.part.buried>
-2.1247

> <Gold.PLP.part.nonpolar>
-17.5995

> <Gold.PLP.part.repulsive>
0.5527

> <Gold.PLP.ligand.clash>
0.0000

> <Gold.PLP.ligand.torsion>
1.2200

> <Gold.PLP.Chemscore.Hbond>
4.7600

> <Gold.PLP.Chemscore.CHOScore>
0.0000

> <Gold.PLP.Chemscore.Metal>
0.0000

> <Gold.Chemscore.Hbonds>
donor molecule, donor type, donor heavy atom, donor atom, acceptor molecule, acceptor atom, score
      P1  H  6896  6908       L1     7  0.03
      P1  H  6931  6943       L1     3  0.48
      P1  H  6934  6947       L1     3  0.11
      P1  H  7989  7998       L1    22  1.00
      P1  H 10752 10765       L1    17  1.00

> <Gold.PLP.Chemscore.Internal.Correction>
0.1921

> <Gold.Rescore>
     Score         DG    S(hbond)    S(metal)    S(lipo)     H(rot)  DE(clash)    DE(int)     intcor
      8.18     -14.07       4.40        0.00      36.52       4.05       0.49       5.39       ----

> <Gold.Chemscore.Fitness>
8.1818

> <Gold.Chemscore.DG>
-14.0682

> <Gold.Chemscore.ZeroCoef>
-5.4800

> <Gold.Chemscore.Hbond>
4.3979

> <Gold.Chemscore.Metal>
0.0000

> <Gold.Chemscore.Lipo>
36.5169

> <Gold.Chemscore.Internal_Hbond>
0.0000

> <Gold.Chemscore.DEClash>
0.4934

> <Gold.Chemscore.DEInternal>
5.3929

> <Gold.Chemscore.Rot>
4.0520

> <Gold.Chemscore.Internal.Correction>
   9.000000E+99

> <Gold.Chemscore.Hbonds>
donor molecule, donor type, donor heavy atom, donor atom, acceptor molecule, acceptor atom, score
      P1  H  6896  6908       L1     7  0.01
      P1  H  6931  6943       L1     3  0.48
      P1  H  6934  6947       L1     3  0.10
      P1  H  7989  7998       L1    22  1.00
      P1  H 10752 10765       L1    17  0.91

> <Gold.Chemscore.Hbond.Weighted>
-14.6889

> <Gold.Chemscore.Metal.Weighted>
-0.0000

> <Gold.Chemscore.Lipo.Weighted>
-4.2725

> <Gold.Chemscore.Internal_Hbond.Weighted>
0.0000

> <Gold.Chemscore.DEClash.Weighted>
0.4934

> <Gold.Chemscore.DEInternal.Weighted>
5.3929

> <Gold.Chemscore.Rot.Weighted>
10.3732

> <Gold.Chemscore.Internal.Correction.Weighted>
   9.000000E+99

> <Gold.Protein.RotatedTorsions>
[ 6907 6896 6895 6894 ] final  176.47 input  -60.11 | X-H torsion
[ 7974 7965 7964 7962 ] final   23.73 input  175.53 | X-H torsion
[ 8008 7997 7996 7995 ] final  175.71 input   59.86 | X-H torsion
[ 10167 10162 10161 10158 ] final  -12.54 input  -65.29 | X-H torsion
[ 10718 10713 10712 10709 ] final   -6.96 input   66.30 | X-H torsion
[ 10763 10752 10751 10750 ] final  174.64 input  -60.55 | X-H torsion
[ 11005 11000 10999 10996 ] final  120.54 input  -57.11 | X-H torsion

> <Gold.Protein.ActiveResidues>
 VAL166  LYS551  ARG553  GLY616  TRP617  ASP618  TYR619  PRO620  LYS621  CYS622 
 ASP623  PHE694  ASN695  SER759  ASP760  ASP761  ALA762  ILE779  LEU786  VAL792 
 PHE793  MET794  SER795  GLU796  ALA797  LYS798  CYS799  TRP800  GLU811  SER814 

> <Gold.Protein.RotatedAtoms>
  151.7196  133.3314  159.3311 H   0  0  0  0  0  0  0  0  0  0  0  0  # atno 6907 bound_to 6896
  150.7658  134.6460  159.6272 H   0  0  0  0  0  0  0  0  0  0  0  0  # atno 6908 bound_to 6896
  152.3660  134.6806  160.0243 H   0  0  0  0  0  0  0  0  0  0  0  0  # atno 6909 bound_to 6896
  146.1971  139.7703  142.8789 H   0  0  0  0  0  0  0  0  0  0  0  0  # atno 7974 bound_to 7965
  156.0842  140.1402  156.9674 H   0  0  0  0  0  0  0  0  0  0  0  0  # atno 8008 bound_to 7997
  154.4603  140.0946  156.6922 H   0  0  0  0  0  0  0  0  0  0  0  0  # atno 8009 bound_to 7997
  155.5026  140.3451  155.4376 H   0  0  0  0  0  0  0  0  0  0  0  0  # atno 8010 bound_to 7997
  140.7163  143.5521  150.9289 H   0  0  0  0  0  0  0  0  0  0  0  0  # atno 10167 bound_to 10162
  156.7242  130.5160  149.5861 H   0  0  0  0  0  0  0  0  0  0  0  0  # atno 10718 bound_to 10713
  154.4566  135.2766  155.1743 H   0  0  0  0  0  0  0  0  0  0  0  0  # atno 10763 bound_to 10752
  154.3547  135.6142  153.5664 H   0  0  0  0  0  0  0  0  0  0  0  0  # atno 10764 bound_to 10752
  152.9851  135.5820  154.4921 H   0  0  0  0  0  0  0  0  0  0  0  0  # atno 10765 bound_to 10752
  139.9189  134.9635  156.7822 H   0  0  0  0  0  0  0  0  0  0  0  0  # atno 11005 bound_to 11000
  145.3609  141.0325  143.3285 LP  0  0  0  0  0  0  0  0  0  0  0  0  # atno 17320 bound_to 7965
  144.8602  139.5188  143.6815 LP  0  0  0  0  0  0  0  0  0  0  0  0  # atno 17321 bound_to 7965
  139.9246  143.6565  152.3089 LP  0  0  0  0  0  0  0  0  0  0  0  0  # atno 17342 bound_to 10162
  139.6994  144.7637  151.1299 LP  0  0  0  0  0  0  0  0  0  0  0  0  # atno 17343 bound_to 10162
  156.1574  130.6351  151.0674 LP  0  0  0  0  0  0  0  0  0  0  0  0  # atno 17370 bound_to 10713
  157.6886  131.0817  150.7173 LP  0  0  0  0  0  0  0  0  0  0  0  0  # atno 17371 bound_to 10713
  140.6535  133.9710  155.7767 LP  0  0  0  0  0  0  0  0  0  0  0  0  # atno 17394 bound_to 11000
  141.0692  134.0231  157.3550 LP  0  0  0  0  0  0  0  0  0  0  0  0  # atno 17395 bound_to 11000

$$$$
