AV-unprocessed.smi:2203|AV-procd|sdf|8936|dock4
  -GOLD-   2272012153D 1   1.00000     0.00000
 Structure written by MMmdl.
 48 49  0  0  0  0  0  0  0  0  1 V2000
  149.6562  140.9933  156.8854 C   0  0  0  0  0  0  0  0  0  0  0  0
  150.6276  140.5244  157.9306 C   0  0  0  0  0  0  0  0  0  0  0  0
  151.3926  141.4109  158.5435 N   0  0  0  0  0  0  0  0  0  0  0  0
  152.1421  140.6896  159.4027 N   0  0  0  0  0  0  0  0  0  0  0  0
  153.1191  141.3752  160.2358 C   0  0  0  0  0  0  0  0  0  0  0  0
  152.4853  142.4101  161.1909 C   0  0  0  0  0  0  0  0  0  0  0  0
  152.2796  143.7538  160.4765 C   0  0  0  0  0  0  0  0  0  0  0  0
  153.2870  142.5995  162.4909 C   0  0  0  0  0  0  0  0  0  0  0  0
  151.8354  139.3420  159.3414 C   0  0  0  0  0  0  0  0  0  0  0  0
  152.5138  138.3190  160.1956 C   0  0  0  0  0  0  0  0  0  0  0  0
  150.8584  139.1953  158.3930 C   0  0  0  0  0  0  0  0  0  0  0  0
  150.1795  137.9294  157.9322 C   0  0  0  0  0  0  0  0  0  0  0  0
  148.6757  138.0061  158.1999 C   0  0  0  0  0  0  0  0  0  0  0  0
  148.0152  138.9368  157.7394 O   0  0  0  0  0  0  0  0  0  0  0  0
  148.1506  137.0305  158.9574 N   0  0  0  0  0  0  0  0  0  0  0  0
  146.7531  136.9381  159.3614 C   0  0  0  0  0  0  0  0  0  0  0  0
  146.6210  136.4489  160.8128 C   0  0  1  0  0  0  0  0  0  0  0  0
  147.1196  135.0236  161.0353 C   0  0  0  0  0  0  0  0  0  0  0  0
  147.4619  135.0001  162.5167 C   0  0  0  0  0  0  0  0  0  0  0  0
  147.5654  136.4799  162.9003 C   0  0  0  0  0  0  0  0  0  0  0  0
  147.4637  137.1953  161.6763 O   0  0  0  0  0  0  0  0  0  0  0  0
  148.6497  141.0712  157.2965 H   0  0  0  0  0  0  0  0  0  0  0  0
  149.6195  140.3019  156.0439 H   0  0  0  0  0  0  0  0  0  0  0  0
  149.9307  141.9728  156.4920 H   0  0  0  0  0  0  0  0  0  0  0  0
  153.6738  140.6308  160.8095 H   0  0  0  0  0  0  0  0  0  0  0  0
  153.8482  141.8573  159.5843 H   0  0  0  0  0  0  0  0  0  0  0  0
  151.4981  142.0434  161.4726 H   0  0  0  0  0  0  0  0  0  0  0  0
  153.2314  144.1896  160.1711 H   0  0  0  0  0  0  0  0  0  0  0  0
  151.7774  144.4719  161.1253 H   0  0  0  0  0  0  0  0  0  0  0  0
  151.6660  143.6346  159.5831 H   0  0  0  0  0  0  0  0  0  0  0  0
  154.3067  142.9245  162.2822 H   0  0  0  0  0  0  0  0  0  0  0  0
  153.3424  141.6761  163.0676 H   0  0  0  0  0  0  0  0  0  0  0  0
  152.8235  143.3497  163.1320 H   0  0  0  0  0  0  0  0  0  0  0  0
  151.9764  137.3709  160.1749 H   0  0  0  0  0  0  0  0  0  0  0  0
  152.5648  138.6430  161.2349 H   0  0  0  0  0  0  0  0  0  0  0  0
  153.5294  138.1347  159.8452 H   0  0  0  0  0  0  0  0  0  0  0  0
  150.3369  137.7548  156.8675 H   0  0  0  0  0  0  0  0  0  0  0  0
  150.5880  137.0546  158.4395 H   0  0  0  0  0  0  0  0  0  0  0  0
  148.7690  136.3058  159.2912 H   0  0  0  0  0  0  0  0  0  0  0  0
  146.2671  137.9078  159.2423 H   0  0  0  0  0  0  0  0  0  0  0  0
  146.2441  136.2510  158.6848 H   0  0  0  0  0  0  0  0  0  0  0  0
  145.5887  136.5343  161.1582 H   0  0  0  0  0  0  0  0  0  0  0  0
  146.3822  134.2703  160.7566 H   0  0  0  0  0  0  0  0  0  0  0  0
  148.0225  134.8446  160.4498 H   0  0  0  0  0  0  0  0  0  0  0  0
  146.6779  134.5110  163.0957 H   0  0  0  0  0  0  0  0  0  0  0  0
  148.3954  134.4661  162.6968 H   0  0  0  0  0  0  0  0  0  0  0  0
  146.7393  136.7652  163.5531 H   0  0  0  0  0  0  0  0  0  0  0  0
  148.4992  136.7152  163.4116 H   0  0  0  0  0  0  0  0  0  0  0  0
  1  2  1  0  0  0  0
  1 22  1  0  0  0  0
  1 23  1  0  0  0  0
  1 24  1  0  0  0  0
  2 11  1  0  0  0  0
  2  3  2  0  0  0  0
  3  4  1  0  0  0  0
  4  5  1  0  0  0  0
  4  9  1  0  0  0  0
  5  6  1  0  0  0  0
  5 25  1  0  0  0  0
  5 26  1  0  0  0  0
  6  7  1  0  0  0  0
  6  8  1  0  0  0  0
  6 27  1  0  0  0  0
  7 28  1  0  0  0  0
  7 29  1  0  0  0  0
  7 30  1  0  0  0  0
  8 31  1  0  0  0  0
  8 32  1  0  0  0  0
  8 33  1  0  0  0  0
  9 10  1  0  0  0  0
  9 11  2  0  0  0  0
 10 34  1  0  0  0  0
 10 35  1  0  0  0  0
 10 36  1  0  0  0  0
 11 12  1  0  0  0  0
 12 13  1  0  0  0  0
 12 37  1  0  0  0  0
 12 38  1  0  0  0  0
 13 14  2  0  0  0  0
 13 15  1  0  0  0  0
 15 16  1  0  0  0  0
 15 39  1  0  0  0  0
 16 17  1  0  0  0  0
 16 40  1  0  0  0  0
 16 41  1  0  0  0  0
 17 21  1  0  0  0  0
 17 18  1  0  0  0  0
 17 42  1  0  0  0  0
 18 19  1  0  0  0  0
 18 43  1  0  0  0  0
 18 44  1  0  0  0  0
 19 20  1  0  0  0  0
 19 45  1  0  0  0  0
 19 46  1  0  0  0  0
 20 21  1  0  0  0  0
 20 47  1  0  0  0  0
 20 48  1  0  0  0  0
M  END
> <s_m_source_file>
AV-unprocessed.smi

> <i_m_source_file_index>
2203

> <i_lp_mmshare_version>
43012

> <i_f3d_flags>
0

> <s_epik_input>
W0NIM11jMW5uKFtDSDJdW0NIXShbQ0gzXSlbQ0gzXSljKFtDSDNdKWMxW0NIMl1DKD1PKVtOSF1bQ0gyXVtDQEBIXTJbQ0gyXVtDSDJdW0NIMl1PMg==

> <s_epik_cmdline>
J2VwaWtfcHl0aG9uJywgJy1waCcsICc3LjAnLCAnLXRuJywgJzgnLCAnLW1hJywgJzIwMCcsICctbWV0YWxfYmluZGluZycsICctaW1hZScsICc8aW5maWxlLm1hZT4nLCAnLW9tYWUnLCAnPG91dGZpbGUubWFlPic=

> <r_lp_tautomer_probability>
1

> <r_epik_Ionization_Penalty>
0.00306713

> <r_epik_Ionization_Penalty_Charging>
0

> <r_epik_Ionization_Penalty_Neutral>
0.00306713

> <r_epik_State_Penalty>
0.00215672

> <r_epik_Charging_Adjusted_Penalty>
0.00215672

> <i_epik_Tot_Q>
0

> <i_epik_Tot_abs_Q>
0

> <r_epik_Metal_State_Penalty>
-0

> <b_epik_Metal_Only>
0

> <s_lp_Force_Field>
OPLS_2005

> <r_lp_Energy>
15.0648

> <b_lp_Chiralities_Consistent>
1

> <s_lp_Variant>
AV-unprocessed.smi:2203-2

> <Gold.Version>
5.8.1

> <Gold.Id.Protein>
6NUR|6NUR_protein|mol2

> <Gold.PLP.Fitness>
43.6887

> <Gold.PLP.PLP>
-39.9927

> <Gold.PLP.part.hbond>
-2.0000

> <Gold.PLP.part.metal>
0.0000

> <Gold.PLP.part.buried>
-6.3790

> <Gold.PLP.part.nonpolar>
-31.4316

> <Gold.PLP.part.repulsive>
0.1512

> <Gold.PLP.ligand.clash>
0.0000

> <Gold.PLP.ligand.torsion>
0.5110

> <Gold.PLP.Chemscore.Hbond>
1.5592

> <Gold.PLP.Chemscore.CHOScore>
0.0000

> <Gold.PLP.Chemscore.Metal>
0.0000

> <Gold.Chemscore.Hbonds>
donor molecule, donor type, donor heavy atom, donor atom, acceptor molecule, acceptor atom, score
      P1  H  6931  6943       L1    21  0.79
      P1  H  6934  6947       L1    21  0.82

> <Gold.PLP.Chemscore.Internal.Correction>
0.0404

> <Gold.Rescore>
     Score         DG    S(hbond)    S(metal)    S(lipo)     H(rot)  DE(clash)    DE(int)     intcor
     14.26     -16.52       0.72        0.00     109.40       1.63       0.41       1.85       ----

> <Gold.Chemscore.Fitness>
14.2552

> <Gold.Chemscore.DG>
-16.5155

> <Gold.Chemscore.ZeroCoef>
-5.4800

> <Gold.Chemscore.Hbond>
0.7233

> <Gold.Chemscore.Metal>
0.0000

> <Gold.Chemscore.Lipo>
109.4017

> <Gold.Chemscore.Internal_Hbond>
0.0000

> <Gold.Chemscore.DEClash>
0.4148

> <Gold.Chemscore.DEInternal>
1.8455

> <Gold.Chemscore.Rot>
1.6329

> <Gold.Chemscore.Internal.Correction>
   9.000000E+99

> <Gold.Chemscore.Hbonds>
donor molecule, donor type, donor heavy atom, donor atom, acceptor molecule, acceptor atom, score
      P1  H  6931  6943       L1    21  0.13
      P1  H  6934  6947       L1    21  0.23

> <Gold.Chemscore.Hbond.Weighted>
-2.4158

> <Gold.Chemscore.Metal.Weighted>
-0.0000

> <Gold.Chemscore.Lipo.Weighted>
-12.8000

> <Gold.Chemscore.Internal_Hbond.Weighted>
0.0000

> <Gold.Chemscore.DEClash.Weighted>
0.4148

> <Gold.Chemscore.DEInternal.Weighted>
1.8455

> <Gold.Chemscore.Rot.Weighted>
4.1803

> <Gold.Chemscore.Internal.Correction.Weighted>
   9.000000E+99

> <Gold.Protein.RotatedTorsions>
[ 6907 6896 6895 6894 ] final  -58.24 input  -60.11 | X-H torsion
[ 7974 7965 7964 7962 ] final  174.23 input  175.53 | X-H torsion
[ 8008 7997 7996 7995 ] final -150.80 input   59.86 | X-H torsion
[ 10167 10162 10161 10158 ] final   75.88 input  -65.29 | X-H torsion
[ 10718 10713 10712 10709 ] final  174.51 input   66.30 | X-H torsion
[ 10763 10752 10751 10750 ] final  101.87 input  -60.55 | X-H torsion
[ 11005 11000 10999 10996 ] final   56.44 input  -57.11 | X-H torsion

> <Gold.Protein.ActiveResidues>
 VAL166  LYS551  ARG553  GLY616  TRP617  ASP618  TYR619  PRO620  LYS621  CYS622 
 ASP623  PHE694  ASN695  SER759  ASP760  ASP761  ALA762  ILE779  LEU786  VAL792 
 PHE793  MET794  SER795  GLU796  ALA797  LYS798  CYS799  TRP800  GLU811  SER814 

> <Gold.Protein.RotatedAtoms>
  150.8023  134.7124  159.6611 H   0  0  0  0  0  0  0  0  0  0  0  0  # atno 6907 bound_to 6896
  152.4140  134.6071  160.0025 H   0  0  0  0  0  0  0  0  0  0  0  0  # atno 6908 bound_to 6896
  151.6305  133.3295  159.3144 H   0  0  0  0  0  0  0  0  0  0  0  0  # atno 6909 bound_to 6896
  144.7226  139.9766  143.6438 H   0  0  0  0  0  0  0  0  0  0  0  0  # atno 7974 bound_to 7965
  155.6293  140.0690  157.2654 H   0  0  0  0  0  0  0  0  0  0  0  0  # atno 8008 bound_to 7997
  154.4210  140.1770  156.1504 H   0  0  0  0  0  0  0  0  0  0  0  0  # atno 8009 bound_to 7997
  155.9945  140.3342  155.6789 H   0  0  0  0  0  0  0  0  0  0  0  0  # atno 8010 bound_to 7997
  139.9982  144.5706  150.7759 H   0  0  0  0  0  0  0  0  0  0  0  0  # atno 10167 bound_to 10162
  156.9484  131.0023  151.2954 H   0  0  0  0  0  0  0  0  0  0  0  0  # atno 10718 bound_to 10713
  153.3322  135.4030  155.1505 H   0  0  0  0  0  0  0  0  0  0  0  0  # atno 10763 bound_to 10752
  154.8625  135.3613  154.5455 H   0  0  0  0  0  0  0  0  0  0  0  0  # atno 10764 bound_to 10752
  153.5894  135.7074  153.5489 H   0  0  0  0  0  0  0  0  0  0  0  0  # atno 10765 bound_to 10752
  140.0529  134.5711  155.9242 H   0  0  0  0  0  0  0  0  0  0  0  0  # atno 11005 bound_to 11000
  146.0521  139.3521  143.0633 LP  0  0  0  0  0  0  0  0  0  0  0  0  # atno 17320 bound_to 7965
  145.8202  140.9683  143.0903 LP  0  0  0  0  0  0  0  0  0  0  0  0  # atno 17321 bound_to 7965
  140.7429  143.2838  151.3521 LP  0  0  0  0  0  0  0  0  0  0  0  0  # atno 17342 bound_to 10162
  139.6290  144.0757  152.2460 LP  0  0  0  0  0  0  0  0  0  0  0  0  # atno 17343 bound_to 10162
  157.5738  130.8329  149.8428 LP  0  0  0  0  0  0  0  0  0  0  0  0  # atno 17370 bound_to 10713
  156.0373  130.3748  150.1526 LP  0  0  0  0  0  0  0  0  0  0  0  0  # atno 17371 bound_to 10713
  141.1939  133.6580  156.5568 LP  0  0  0  0  0  0  0  0  0  0  0  0  # atno 17394 bound_to 11000
  140.3889  134.7458  157.4709 LP  0  0  0  0  0  0  0  0  0  0  0  0  # atno 17395 bound_to 11000

$$$$
