AV-unprocessed.smi:2021|AV-procd|sdf|8179|dock5
  -GOLD-   2272010433D 1   1.00000     0.00000
 Structure written by MMmdl.
 41 42  0  0  0  0  0  0  0  0  1 V2000
  151.9894  144.9274  158.9155 C   0  0  0  0  0  0  0  0  0  0  0  0
  151.4981  143.4724  158.8280 C   0  0  0  0  0  0  0  0  0  0  0  0
  152.3590  142.5044  159.6579 C   0  0  0  0  0  0  0  0  0  0  0  0
  151.2334  142.9894  157.3804 C   0  0  0  0  0  0  0  0  0  0  0  0
  150.5835  141.6862  157.2055 N   0  0  0  0  0  0  0  0  0  0  0  0
  149.1337  141.7381  157.3722 C   0  0  0  0  0  0  0  0  0  0  0  0
  148.4746  140.3695  157.1307 C   0  0  0  0  0  0  0  0  0  0  0  0
  148.8276  139.8882  155.8394 O   0  0  0  0  0  0  0  0  0  0  0  0
  150.2361  139.7557  155.6657 C   0  0  1  0  0  0  0  0  0  0  0  0
  150.5050  139.2130  154.2519 C   0  0  0  0  0  0  0  0  0  0  0  0
  150.1368  137.8060  154.1371 N   0  0  0  0  0  0  0  0  0  0  0  0
  150.4085  136.8620  155.0488 C   0  0  0  0  0  0  0  0  0  0  0  0
  151.0323  137.0818  156.0870 O   0  0  0  0  0  0  0  0  0  0  0  0
  149.9106  135.6714  154.6778 N   0  0  0  0  0  0  0  0  0  0  0  0
  149.9791  134.4410  155.3780 C   0  0  0  0  0  0  0  0  0  0  0  0
  150.3706  134.4670  156.6574 N   0  0  0  0  0  0  0  0  0  0  0  0
  150.3943  133.1969  157.2208 N   0  0  0  0  0  0  0  0  0  0  0  0
  150.0194  132.2616  156.3428 C   0  0  0  0  0  0  0  0  0  0  0  0
  149.5986  132.8386  154.7400 S   0  0  0  0  0  0  0  0  0  0  0  0
  150.8878  141.1342  155.8884 C   0  0  0  0  0  0  0  0  0  0  0  0
  152.9919  145.0418  158.5034 H   0  0  0  0  0  0  0  0  0  0  0  0
  152.0203  145.2678  159.9509 H   0  0  0  0  0  0  0  0  0  0  0  0
  151.3255  145.5978  158.3689 H   0  0  0  0  0  0  0  0  0  0  0  0
  150.5218  143.4582  159.3144 H   0  0  0  0  0  0  0  0  0  0  0  0
  153.3956  142.4747  159.3287 H   0  0  0  0  0  0  0  0  0  0  0  0
  151.9656  141.4886  159.6088 H   0  0  0  0  0  0  0  0  0  0  0  0
  152.3652  142.7985  160.7078 H   0  0  0  0  0  0  0  0  0  0  0  0
  150.6876  143.7553  156.8276 H   0  0  0  0  0  0  0  0  0  0  0  0
  152.2104  142.9355  156.8979 H   0  0  0  0  0  0  0  0  0  0  0  0
  148.8820  142.0550  158.3814 H   0  0  0  0  0  0  0  0  0  0  0  0
  148.7063  142.4739  156.6893 H   0  0  0  0  0  0  0  0  0  0  0  0
  148.7853  139.6514  157.8910 H   0  0  0  0  0  0  0  0  0  0  0  0
  147.3898  140.4545  157.1953 H   0  0  0  0  0  0  0  0  0  0  0  0
  150.6246  139.0522  156.4045 H   0  0  0  0  0  0  0  0  0  0  0  0
  149.9304  139.7789  153.5180 H   0  0  0  0  0  0  0  0  0  0  0  0
  151.5559  139.3429  153.9882 H   0  0  0  0  0  0  0  0  0  0  0  0
  149.6157  137.5398  153.3146 H   0  0  0  0  0  0  0  0  0  0  0  0
  149.4192  135.6419  153.7967 H   0  0  0  0  0  0  0  0  0  0  0  0
  149.9903  131.2244  156.6418 H   0  0  0  0  0  0  0  0  0  0  0  0
  150.5492  141.8238  155.1133 H   0  0  0  0  0  0  0  0  0  0  0  0
  151.9680  141.0410  155.7706 H   0  0  0  0  0  0  0  0  0  0  0  0
  1  2  1  0  0  0  0
  1 21  1  0  0  0  0
  1 22  1  0  0  0  0
  1 23  1  0  0  0  0
  2  3  1  0  0  0  0
  2  4  1  0  0  0  0
  2 24  1  0  0  0  0
  3 25  1  0  0  0  0
  3 26  1  0  0  0  0
  3 27  1  0  0  0  0
  4  5  1  0  0  0  0
  4 28  1  0  0  0  0
  4 29  1  0  0  0  0
  5 20  1  0  0  0  0
  5  6  1  0  0  0  0
  6  7  1  0  0  0  0
  6 30  1  0  0  0  0
  6 31  1  0  0  0  0
  7  8  1  0  0  0  0
  7 32  1  0  0  0  0
  7 33  1  0  0  0  0
  8  9  1  0  0  0  0
  9 10  1  0  0  0  0
  9 20  1  0  0  0  0
  9 34  1  0  0  0  0
 10 11  1  0  0  0  0
 10 35  1  0  0  0  0
 10 36  1  0  0  0  0
 11 12  1  0  0  0  0
 11 37  1  0  0  0  0
 12 13  2  0  0  0  0
 12 14  1  0  0  0  0
 14 15  1  0  0  0  0
 14 38  1  0  0  0  0
 15 19  1  0  0  0  0
 15 16  2  0  0  0  0
 16 17  1  0  0  0  0
 17 18  2  0  0  0  0
 18 19  1  0  0  0  0
 18 39  1  0  0  0  0
 20 40  1  0  0  0  0
 20 41  1  0  0  0  0
M  END
> <s_m_source_file>
AV-unprocessed.smi

> <i_m_source_file_index>
2021

> <i_lp_mmshare_version>
43012

> <i_f3d_flags>
0

> <s_epik_input>
W0NIM11bQ0hdKFtDSDNdKVtDSDJdTjFbQ0gyXVtDSDJdT1tDQEhdKFtDSDJdMSlbQ0gyXVtOSF1DKD1PKVtOSF1jMm5uW2NIXXMy

> <s_epik_cmdline>
J2VwaWtfcHl0aG9uJywgJy1waCcsICc3LjAnLCAnLXRuJywgJzgnLCAnLW1hJywgJzIwMCcsICctbWV0YWxfYmluZGluZycsICctaW1hZScsICc8aW5maWxlLm1hZT4nLCAnLW9tYWUnLCAnPG91dGZpbGUubWFlPic=

> <r_lp_tautomer_probability>
1

> <r_epik_Ionization_Penalty>
1.11451

> <r_epik_Ionization_Penalty_Charging>
0

> <r_epik_Ionization_Penalty_Neutral>
1.11451

> <r_epik_State_Penalty>
1.17021

> <r_epik_Charging_Adjusted_Penalty>
1.17021

> <i_epik_Tot_Q>
0

> <i_epik_Tot_abs_Q>
0

> <r_epik_Metal_State_Penalty>
1.53642

> <b_epik_Metal_Only>
0

> <s_lp_Force_Field>
OPLS_2005

> <r_lp_Energy>
25.242

> <b_lp_Chiralities_Consistent>
1

> <s_lp_Variant>
AV-unprocessed.smi:2021-5

> <Gold.Version>
5.8.1

> <Gold.Id.Protein>
6NUR|6NUR_protein|mol2

> <Gold.PLP.Fitness>
42.3792

> <Gold.PLP.PLP>
-35.4724

> <Gold.PLP.part.hbond>
-2.9890

> <Gold.PLP.part.metal>
0.0000

> <Gold.PLP.part.buried>
-4.9873

> <Gold.PLP.part.nonpolar>
-28.4247

> <Gold.PLP.part.repulsive>
0.2037

> <Gold.PLP.ligand.clash>
0.0000

> <Gold.PLP.ligand.torsion>
0.4623

> <Gold.PLP.Chemscore.Hbond>
2.5752

> <Gold.PLP.Chemscore.CHOScore>
0.0000

> <Gold.PLP.Chemscore.Metal>
0.0000

> <Gold.Chemscore.Hbonds>
donor molecule, donor type, donor heavy atom, donor atom, acceptor molecule, acceptor atom, score
      L1  H    11    37       P1  7948  1.00
      L1  H    14    38       P1  7948  0.98
      P1  H  6896  6909       L1    17  0.64

> <Gold.PLP.Chemscore.Internal.Correction>
0.1059

> <Gold.Rescore>
     Score         DG    S(hbond)    S(metal)    S(lipo)     H(rot)  DE(clash)    DE(int)     intcor
     12.49     -15.76       1.67        0.00      80.54       1.84       0.08       3.19       ----

> <Gold.Chemscore.Fitness>
12.4854

> <Gold.Chemscore.DG>
-15.7605

> <Gold.Chemscore.ZeroCoef>
-5.4800

> <Gold.Chemscore.Hbond>
1.6680

> <Gold.Chemscore.Metal>
0.0000

> <Gold.Chemscore.Lipo>
80.5396

> <Gold.Chemscore.Internal_Hbond>
0.0000

> <Gold.Chemscore.DEClash>
0.0821

> <Gold.Chemscore.DEInternal>
3.1930

> <Gold.Chemscore.Rot>
1.8413

> <Gold.Chemscore.Internal.Correction>
   9.000000E+99

> <Gold.Chemscore.Hbonds>
donor molecule, donor type, donor heavy atom, donor atom, acceptor molecule, acceptor atom, score
      L1  H    11    37       P1  7948  0.75
      L1  H    14    38       P1  7948  0.40
      P1  H  6896  6909       L1    17  0.34

> <Gold.Chemscore.Hbond.Weighted>
-5.5712

> <Gold.Chemscore.Metal.Weighted>
-0.0000

> <Gold.Chemscore.Lipo.Weighted>
-9.4231

> <Gold.Chemscore.Internal_Hbond.Weighted>
0.0000

> <Gold.Chemscore.DEClash.Weighted>
0.0821

> <Gold.Chemscore.DEInternal.Weighted>
3.1930

> <Gold.Chemscore.Rot.Weighted>
4.7138

> <Gold.Chemscore.Internal.Correction.Weighted>
   9.000000E+99

> <Gold.Protein.RotatedTorsions>
[ 6907 6896 6895 6894 ] final  -32.81 input  -60.11 | X-H torsion
[ 7974 7965 7964 7962 ] final  -67.84 input  175.53 | X-H torsion
[ 8008 7997 7996 7995 ] final  121.75 input   59.86 | X-H torsion
[ 10167 10162 10161 10158 ] final  -95.53 input  -65.29 | X-H torsion
[ 10718 10713 10712 10709 ] final -152.03 input   66.30 | X-H torsion
[ 10763 10752 10751 10750 ] final   38.78 input  -60.55 | X-H torsion
[ 11005 11000 10999 10996 ] final -153.61 input  -57.11 | X-H torsion

> <Gold.Protein.ActiveResidues>
 VAL166  LYS551  ARG553  GLY616  TRP617  ASP618  TYR619  PRO620  LYS621  CYS622 
 ASP623  PHE694  ASN695  SER759  ASP760  ASP761  ALA762  ILE779  LEU786  VAL792 
 PHE793  MET794  SER795  GLU796  ALA797  LYS798  CYS799  TRP800  GLU811  SER814 

> <Gold.Protein.RotatedAtoms>
  151.0739  134.9816  159.8322 H   0  0  0  0  0  0  0  0  0  0  0  0  # atno 6907 bound_to 6896
  152.5412  134.2265  159.8818 H   0  0  0  0  0  0  0  0  0  0  0  0  # atno 6908 bound_to 6896
  151.2291  133.4416  159.2637 H   0  0  0  0  0  0  0  0  0  0  0  0  # atno 6909 bound_to 6896
  145.7241  140.9025  143.0614 H   0  0  0  0  0  0  0  0  0  0  0  0  # atno 7974 bound_to 7965
  156.2699  140.2801  156.1358 H   0  0  0  0  0  0  0  0  0  0  0  0  # atno 8008 bound_to 7997
  155.1006  140.0389  157.2713 H   0  0  0  0  0  0  0  0  0  0  0  0  # atno 8009 bound_to 7997
  154.6818  140.2610  155.6906 H   0  0  0  0  0  0  0  0  0  0  0  0  # atno 8010 bound_to 7997
  140.3032  143.3150  152.0227 H   0  0  0  0  0  0  0  0  0  0  0  0  # atno 10167 bound_to 10162
  156.4671  130.8241  151.2471 H   0  0  0  0  0  0  0  0  0  0  0  0  # atno 10718 bound_to 10713
  152.9989  135.6239  154.2359 H   0  0  0  0  0  0  0  0  0  0  0  0  # atno 10763 bound_to 10752
  154.2101  135.2800  155.2963 H   0  0  0  0  0  0  0  0  0  0  0  0  # atno 10764 bound_to 10752
  154.5614  135.5704  153.7069 H   0  0  0  0  0  0  0  0  0  0  0  0  # atno 10765 bound_to 10752
  140.7063  134.3882  157.5203 H   0  0  0  0  0  0  0  0  0  0  0  0  # atno 11005 bound_to 11000
  144.6909  139.9242  143.7469 LP  0  0  0  0  0  0  0  0  0  0  0  0  # atno 17320 bound_to 7965
  146.0598  139.3592  143.0588 LP  0  0  0  0  0  0  0  0  0  0  0  0  # atno 17321 bound_to 7965
  139.4910  144.6440  151.6816 LP  0  0  0  0  0  0  0  0  0  0  0  0  # atno 17342 bound_to 10162
  140.5633  144.0232  150.6180 LP  0  0  0  0  0  0  0  0  0  0  0  0  # atno 17343 bound_to 10162
  157.7494  131.0088  150.3243 LP  0  0  0  0  0  0  0  0  0  0  0  0  # atno 17370 bound_to 10713
  156.3656  130.3854  149.7216 LP  0  0  0  0  0  0  0  0  0  0  0  0  # atno 17371 bound_to 10713
  139.8883  134.8859  156.2480 LP  0  0  0  0  0  0  0  0  0  0  0  0  # atno 17394 bound_to 11000
  141.0122  133.7089  156.1130 LP  0  0  0  0  0  0  0  0  0  0  0  0  # atno 17395 bound_to 11000

$$$$
