#       Name:                AV-unprocessed.smi:1712
#       Creating user name   scv26
#       Creation time:       Fri Mar 27 08:10:55 2020


#       File generated by GOLD software.
#

@<TRIPOS>MOLECULE
AV-unprocessed.smi:1712
    43    44     1
SMALL
NO_CHARGES


@<TRIPOS>ATOM
      1 ****        -1.3650   0.9079   0.1932 C.3            1 S1                 0.0000
      2 ****        -0.9823  -0.5924   0.1447 C.3            1 S1                 0.0000
      3 ****         0.5567  -0.7659   0.0436 C.3            1 S1                 0.0000
      4 ****         1.1398  -0.0689  -1.1008 N.am           1 S1                 0.0000
      5 ****         1.8695   1.0545  -1.0362 C.2            1 S1                 0.0000
      6 ****         2.1186   1.6447   0.0151 O.2            1 S1                 0.0000
      7 ****         2.2749   1.4445  -2.2555 N.am           1 S1                 0.0000
      8 ****         3.0565   2.5823  -2.5784 C.2            1 S1                 0.0000
      9 ****         3.4452   2.9501  -3.8952 C.2            1 S1                 0.0000
     10 ****         4.1727   4.0580  -3.8929 N.2            1 S1                 0.0000
     11 ****         4.2528   4.4002  -2.5871 N.pl3          1 S1                 0.0000
     12 ****         3.5880   3.5311  -1.7506 C.2            1 S1                 0.0000
     13 ****        -1.5140  -1.3776   1.3081 N.4            1 S1                 1.0000
     14 ****        -2.8472  -0.9508   1.8177 C.3            1 S1                 0.0000
     15 ****        -3.2793  -1.7995   3.0260 C.3            1 S1                 0.0000
     16 ****        -3.2859  -3.1751   2.6752 O.3            1 S1                 0.0000
     17 ****        -1.9922  -3.6197   2.2971 C.3            1 S1                 0.0000
     18 ****        -1.5278  -2.8447   1.0536 C.3            1 S1                 0.0000
     19 ****         4.7598   5.2203  -2.2857 H              1 S1                 0.0000
     20 ****        -0.9695   1.4547  -0.6618 H              1 S1                 0.0000
     21 ****        -0.9820   1.3880   1.0943 H              1 S1                 0.0000
     22 ****        -2.4433   1.0605   0.1537 H              1 S1                 0.0000
     23 ****        -1.4345  -0.9985  -0.7617 H              1 S1                 0.0000
     24 ****         1.0276  -0.4495   0.9761 H              1 S1                 0.0000
     25 ****         0.8283  -1.8117  -0.0847 H              1 S1                 0.0000
     26 ****         0.9860  -0.4807  -2.0099 H              1 S1                 0.0000
     27 ****         1.9950   0.8691  -3.0363 H              1 S1                 0.0000
     28 ****         3.2284   2.4603  -4.8330 H              1 S1                 0.0000
     29 ****         3.5596   3.6673  -0.6796 H              1 S1                 0.0000
     30 ****        -2.8237   0.0877   2.1463 H              1 S1                 0.0000
     31 ****        -3.5879  -1.0284   1.0202 H              1 S1                 0.0000
     32 ****        -2.6159  -1.6319   3.8762 H              1 S1                 0.0000
     33 ****        -4.2815  -1.5129   3.3453 H              1 S1                 0.0000
     34 ****        -1.2898  -3.4937   3.1228 H              1 S1                 0.0000
     35 ****        -2.0370  -4.6866   2.0779 H              1 S1                 0.0000
     36 ****        -2.1913  -3.0634   0.2153 H              1 S1                 0.0000
     37 ****        -0.5404  -3.2085   0.7771 H              1 S1                 0.0000
     38 ****        -0.8695  -1.2191   2.0696 H              1 S1                 0.0000
     39 ****         1.7706   1.2893   0.8826 LP             1 S1                 0.0000
     40 ****         2.6690   2.4795   0.0016 LP             1 S1                 0.0000
     41 ****         4.5714   4.5325  -4.6777 LP             1 S1                 0.0000
     42 ****        -3.9138  -3.3125   1.9092 LP             1 S1                 0.0000
     43 ****        -3.5968  -3.7098   3.4610 LP             1 S1                 0.0000
@<TRIPOS>BOND
    1    1    2 1     
    2    1   20 1     
    3    1   21 1     
    4    1   22 1     
    5    2    3 1     
    6    2   13 1     
    7    2   23 1     
    8    3    4 1     
    9    3   24 1     
   10    3   25 1     
   11    4    5 am    
   12    4   26 1     
   13    5    6 2     
   14    5    7 am    
   15    7    8 1     
   16    7   27 1     
   17    8   12 2     
   18    8    9 1     
   19    9   10 2     
   20    9   28 1     
   21   10   11 1     
   22   11   19 1     
   23   11   12 1     
   24   12   29 1     
   25   13   18 1     
   26   13   14 1     
   27   13   38 1     
   28   14   15 1     
   29   14   30 1     
   30   14   31 1     
   31   15   16 1     
   32   15   32 1     
   33   15   33 1     
   34   16   17 1     
   35   17   18 1     
   36   17   34 1     
   37   17   35 1     
   38   18   36 1     
   39   18   37 1     
   40    6   39 1     
   41    6   40 1     
   42   10   41 1     
   43   16   42 1     
   44   16   43 1     
@<TRIPOS>SUBSTRUCTURE
      1 S1             1
@<TRIPOS>SET
LONE_PAIRS      STATIC     ATOMS    <user>   **** ""
5 39 40 41 42 43
DONOR_HYDROGENS      STATIC     ATOMS    <user>   **** ""
4 26 27 19 38
ATOM$BLUE        STATIC     ATOMS    COLORGROUP SYSTEM
5 39 40 41 42 43
ATOM$RED        STATIC     ATOMS    COLORGROUP SYSTEM
4 26 27 19 38
