#       Name:                AV-unprocessed.smi:2454
#       Creating user name   scv26
#       Creation time:       Fri Mar 27 13:33:27 2020


#       File generated by GOLD software.
#

@<TRIPOS>MOLECULE
AV-unprocessed.smi:2454
    48    49     1
SMALL
NO_CHARGES


@<TRIPOS>ATOM
      1 ****        -7.1556  -2.3415   3.3982 C.3            1 S1                 0.0000
      2 ****        -5.8387  -1.8835   3.6496 O.3            1 S1                 0.0000
      3 ****        -5.6578  -0.5243   3.2895 C.3            1 S1                 0.0000
      4 ****        -4.2414  -0.0647   3.5664 C.ar           1 S1                 0.0000
      5 ****        -3.2266  -0.1945   2.5950 C.ar           1 S1                 0.0000
      6 ****        -1.9319   0.2523   2.9436 C.ar           1 S1                 0.0000
      7 ****        -0.9450   0.1015   1.9254 N.am           1 S1                 0.0000
      8 ****         0.3735   0.3926   1.9069 C.2            1 S1                 0.0000
      9 ****         0.9257   0.8809   2.8915 O.2            1 S1                 0.0000
     10 ****         1.0246   0.1202   0.7640 N.am           1 S1                 0.0000
     11 ****         2.4413   0.3492   0.4973 C.3            1 S1                 0.0000
     12 ****         3.1373  -0.9931   0.2108 C.3            1 S1                 0.0000
     13 ****         4.6118  -0.7865  -0.1654 C.3            1 S1                 0.0000
     14 ****         4.7545   0.1758  -1.3551 C.3            1 S1                 0.0000
     15 ****         4.0726   1.5321  -1.0756 C.3            1 S1                 0.0000
     16 ****         4.2250   2.5112  -2.2580 C.3            1 S1                 0.0000
     17 ****         3.6356   2.0293  -3.3526 F              1 S1                 0.0000
     18 ****         3.6733   3.6858  -1.9529 F              1 S1                 0.0000
     19 ****         5.5164   2.7147  -2.5187 F              1 S1                 0.0000
     20 ****         2.5927   1.3133  -0.6943 C.3            1 S1                 0.0000
     21 ****        -1.7133   0.7801   4.1754 N.ar           1 S1                 0.0000
     22 ****        -2.7442   0.8552   5.0205 C.ar           1 S1                 0.0000
     23 ****        -3.9961   0.4622   4.7847 N.ar           1 S1                 0.0000
     24 ****        -7.2441  -3.3855   3.6984 H              1 S1                 0.0000
     25 ****        -7.4005  -2.2748   2.3375 H              1 S1                 0.0000
     26 ****        -7.8888  -1.7654   3.9642 H              1 S1                 0.0000
     27 ****        -5.8745  -0.3881   2.2287 H              1 S1                 0.0000
     28 ****        -6.3574   0.1059   3.8420 H              1 S1                 0.0000
     29 ****        -3.4358  -0.6224   1.6252 H              1 S1                 0.0000
     30 ****        -1.2955  -0.2897   1.0633 H              1 S1                 0.0000
     31 ****         0.4846  -0.2817   0.0103 H              1 S1                 0.0000
     32 ****         2.9232   0.8041   1.3647 H              1 S1                 0.0000
     33 ****         3.0675  -1.6451   1.0825 H              1 S1                 0.0000
     34 ****         2.6261  -1.5095  -0.6032 H              1 S1                 0.0000
     35 ****         5.1560  -0.3903   0.6929 H              1 S1                 0.0000
     36 ****         5.0707  -1.7458  -0.4062 H              1 S1                 0.0000
     37 ****         5.8123   0.3249  -1.5732 H              1 S1                 0.0000
     38 ****         4.3186  -0.2809  -2.2444 H              1 S1                 0.0000
     39 ****         4.5715   1.9819  -0.2157 H              1 S1                 0.0000
     40 ****         2.0483   0.9210  -1.5547 H              1 S1                 0.0000
     41 ****         2.1286   2.2691  -0.4478 H              1 S1                 0.0000
     42 ****        -2.5432   1.2781   5.9936 H              1 S1                 0.0000
     43 ****        -5.1987  -2.4427   3.1226 LP             1 S1                 0.0000
     44 ****        -5.6448  -1.9851   4.6254 LP             1 S1                 0.0000
     45 ****         0.3974   1.0674   3.7198 LP             1 S1                 0.0000
     46 ****         1.9029   1.0915   2.8636 LP             1 S1                 0.0000
     47 ****        -0.8055   1.1036   4.4422 LP             1 S1                 0.0000
     48 ****        -4.7151   0.5530   5.4737 LP             1 S1                 0.0000
@<TRIPOS>BOND
    1    1    2 1     
    2    1   24 1     
    3    1   25 1     
    4    1   26 1     
    5    2    3 1     
    6    3    4 1     
    7    3   27 1     
    8    3   28 1     
    9    4   23 ar    
   10    4    5 ar    
   11    5    6 ar    
   12    5   29 1     
   13    6    7 1     
   14    6   21 ar    
   15    7    8 am    
   16    7   30 1     
   17    8    9 2     
   18    8   10 am    
   19   10   11 1     
   20   10   31 1     
   21   11   20 1     
   22   11   12 1     
   23   11   32 1     
   24   12   13 1     
   25   12   33 1     
   26   12   34 1     
   27   13   14 1     
   28   13   35 1     
   29   13   36 1     
   30   14   15 1     
   31   14   37 1     
   32   14   38 1     
   33   15   16 1     
   34   15   20 1     
   35   15   39 1     
   36   16   17 1     
   37   16   18 1     
   38   16   19 1     
   39   20   40 1     
   40   20   41 1     
   41   21   22 ar    
   42   22   23 ar    
   43   22   42 1     
   44    2   43 1     
   45    2   44 1     
   46    9   45 1     
   47    9   46 1     
   48   21   47 1     
   49   23   48 1     
@<TRIPOS>SUBSTRUCTURE
      1 S1             1
@<TRIPOS>SET
LONE_PAIRS      STATIC     ATOMS    <user>   **** ""
6 43 44 45 46 47 48
DONOR_HYDROGENS      STATIC     ATOMS    <user>   **** ""
2 30 31
ATOM$BLUE        STATIC     ATOMS    COLORGROUP SYSTEM
6 43 44 45 46 47 48
ATOM$RED        STATIC     ATOMS    COLORGROUP SYSTEM
2 30 31
