AV-unprocessed.smi:1084|AV-procd|sdf|4716|dock6
  -GOLD-   22720 3243D 1   1.00000     0.00000
 Structure written by MMmdl.
 52 54  0  0  0  0  0  0  0  0  1 V2000
  145.4416  136.2222  154.4157 C   0  0  0  0  0  0  0  0  0  0  0  0
  144.8641  136.2571  152.9772 C   0  0  2  0  0  0  0  0  0  0  0  0
  145.4143  137.5139  152.2487 C   0  0  0  0  0  0  0  0  0  0  0  0
  146.8135  137.7748  152.5700 N   0  0  0  0  0  0  0  0  0  0  0  0
  147.2400  138.7317  153.4043 C   0  0  0  0  0  0  0  0  0  0  0  0
  146.4876  139.5212  153.9749 O   0  0  0  0  0  0  0  0  0  0  0  0
  148.5796  138.7224  153.5095 N   0  0  0  0  0  0  0  0  0  0  0  0
  149.3991  139.5114  154.3597 C   0  0  0  0  0  0  0  0  0  0  0  0
  150.6609  139.0030  154.7275 C   0  0  0  0  0  0  0  0  0  0  0  0
  151.4781  139.7547  155.5926 C   0  0  0  0  0  0  0  0  0  0  0  0
  150.9968  140.9942  156.0735 C   0  0  0  0  0  0  0  0  0  0  0  0
  151.7546  141.7900  156.9425 N   0  0  0  0  0  0  0  0  0  0  0  0
  152.0451  141.1413  158.2141 C   0  0  0  0  0  0  0  0  0  0  0  0
  152.9879  142.0240  159.0503 C   0  0  0  0  0  0  0  0  0  0  0  0
  152.4133  143.3179  159.2142 O   0  0  0  0  0  0  0  0  0  0  0  0
  152.2047  143.9733  157.9660 C   0  0  0  0  0  0  0  0  0  0  0  0
  151.2382  143.1430  157.1043 C   0  0  0  0  0  0  0  0  0  0  0  0
  149.7852  141.4837  155.7341 N   0  0  0  0  0  0  0  0  0  0  0  0
  149.0069  140.7590  154.9025 C   0  0  0  0  0  0  0  0  0  0  0  0
  143.3856  136.1683  152.9537 N   0  0  0  0  0  0  0  0  0  0  0  0
  142.7506  137.0913  153.9017 C   0  0  0  0  0  0  0  0  0  0  0  0
  141.2158  136.9893  153.8984 C   0  0  0  0  0  0  0  0  0  0  0  0
  140.8253  135.6538  154.1856 O   0  0  0  0  0  0  0  0  0  0  0  0
  141.3556  134.7300  153.2455 C   0  0  0  0  0  0  0  0  0  0  0  0
  142.8917  134.8164  153.2403 C   0  0  0  0  0  0  0  0  0  0  0  0
  146.5235  136.3471  154.4365 H   0  0  0  0  0  0  0  0  0  0  0  0
  145.2580  135.2703  154.9120 H   0  0  0  0  0  0  0  0  0  0  0  0
  145.0104  137.0125  155.0312 H   0  0  0  0  0  0  0  0  0  0  0  0
  145.2608  135.3861  152.4530 H   0  0  0  0  0  0  0  0  0  0  0  0
  145.3817  137.4011  151.1663 H   0  0  0  0  0  0  0  0  0  0  0  0
  144.7995  138.3805  152.4997 H   0  0  0  0  0  0  0  0  0  0  0  0
  147.5004  137.1743  152.1385 H   0  0  0  0  0  0  0  0  0  0  0  0
  149.0723  138.0923  152.8937 H   0  0  0  0  0  0  0  0  0  0  0  0
  151.0030  138.0499  154.3510 H   0  0  0  0  0  0  0  0  0  0  0  0
  152.4512  139.3831  155.8786 H   0  0  0  0  0  0  0  0  0  0  0  0
  151.1169  140.9686  158.7604 H   0  0  0  0  0  0  0  0  0  0  0  0
  152.5024  140.1672  158.0364 H   0  0  0  0  0  0  0  0  0  0  0  0
  153.1479  141.5787  160.0323 H   0  0  0  0  0  0  0  0  0  0  0  0
  153.9664  142.1070  158.5742 H   0  0  0  0  0  0  0  0  0  0  0  0
  151.7891  144.9643  158.1491 H   0  0  0  0  0  0  0  0  0  0  0  0
  153.1576  144.1162  157.4537 H   0  0  0  0  0  0  0  0  0  0  0  0
  151.1113  143.6093  156.1265 H   0  0  0  0  0  0  0  0  0  0  0  0
  150.2568  143.1130  157.5790 H   0  0  0  0  0  0  0  0  0  0  0  0
  148.0403  141.1920  154.6973 H   0  0  0  0  0  0  0  0  0  0  0  0
  143.1233  136.9008  154.9092 H   0  0  0  0  0  0  0  0  0  0  0  0
  143.0007  138.1228  153.6605 H   0  0  0  0  0  0  0  0  0  0  0  0
  140.7907  137.6537  154.6508 H   0  0  0  0  0  0  0  0  0  0  0  0
  140.8100  137.2981  152.9337 H   0  0  0  0  0  0  0  0  0  0  0  0
  141.0348  133.7239  153.5160 H   0  0  0  0  0  0  0  0  0  0  0  0
  140.9547  134.9376  152.2521 H   0  0  0  0  0  0  0  0  0  0  0  0
  143.2430  134.1097  152.4916 H   0  0  0  0  0  0  0  0  0  0  0  0
  143.2766  134.4781  154.2036 H   0  0  0  0  0  0  0  0  0  0  0  0
  1  2  1  0  0  0  0
  1 26  1  0  0  0  0
  1 27  1  0  0  0  0
  1 28  1  0  0  0  0
  2  3  1  0  0  0  0
  2 20  1  0  0  0  0
  2 29  1  0  0  0  0
  3  4  1  0  0  0  0
  3 30  1  0  0  0  0
  3 31  1  0  0  0  0
  4  5  1  0  0  0  0
  4 32  1  0  0  0  0
  5  6  2  0  0  0  0
  5  7  1  0  0  0  0
  7  8  1  0  0  0  0
  7 33  1  0  0  0  0
  8 19  1  0  0  0  0
  8  9  2  0  0  0  0
  9 10  1  0  0  0  0
  9 34  1  0  0  0  0
 10 11  2  0  0  0  0
 10 35  1  0  0  0  0
 11 12  1  0  0  0  0
 11 18  1  0  0  0  0
 12 17  1  0  0  0  0
 12 13  1  0  0  0  0
 13 14  1  0  0  0  0
 13 36  1  0  0  0  0
 13 37  1  0  0  0  0
 14 15  1  0  0  0  0
 14 38  1  0  0  0  0
 14 39  1  0  0  0  0
 15 16  1  0  0  0  0
 16 17  1  0  0  0  0
 16 40  1  0  0  0  0
 16 41  1  0  0  0  0
 17 42  1  0  0  0  0
 17 43  1  0  0  0  0
 18 19  2  0  0  0  0
 19 44  1  0  0  0  0
 20 25  1  0  0  0  0
 20 21  1  0  0  0  0
 21 22  1  0  0  0  0
 21 45  1  0  0  0  0
 21 46  1  0  0  0  0
 22 23  1  0  0  0  0
 22 47  1  0  0  0  0
 22 48  1  0  0  0  0
 23 24  1  0  0  0  0
 24 25  1  0  0  0  0
 24 49  1  0  0  0  0
 24 50  1  0  0  0  0
 25 51  1  0  0  0  0
 25 52  1  0  0  0  0
M  END
> <s_m_source_file>
AV-unprocessed.smi

> <i_m_source_file_index>
1084

> <i_lp_mmshare_version>
43012

> <i_f3d_flags>
0

> <s_epik_input>
W0NIMl0xW0NIMl1PW0NIMl1bQ0gyXU4xW0NASF0oW0NIM10pW0NIMl1bTkhdQyg9TylbTkhdYzJbY0hdW2NIXWMobltjSF0yKU4zW0NIMl1bQ0gyXU9bQ0gyXVtDSDJdMw==

> <s_epik_cmdline>
J2VwaWtfcHl0aG9uJywgJy1waCcsICc3LjAnLCAnLXRuJywgJzgnLCAnLW1hJywgJzIwMCcsICctbWV0YWxfYmluZGluZycsICctaW1hZScsICc8aW5maWxlLm1hZT4nLCAnLW9tYWUnLCAnPG91dGZpbGUubWFlPic=

> <r_lp_tautomer_probability>
1

> <r_epik_Ionization_Penalty>
0.268053

> <r_epik_Ionization_Penalty_Charging>
0

> <r_epik_Ionization_Penalty_Neutral>
0.268053

> <r_epik_State_Penalty>
0.269834

> <r_epik_Charging_Adjusted_Penalty>
0.269834

> <i_epik_Tot_Q>
0

> <i_epik_Tot_abs_Q>
0

> <r_epik_Metal_State_Penalty>
0.268436

> <b_epik_Metal_Only>
0

> <s_lp_Force_Field>
OPLS_2005

> <r_lp_Energy>
46.8762

> <b_lp_Chiralities_Consistent>
1

> <s_lp_Variant>
AV-unprocessed.smi:1084-1

> <Gold.Version>
5.8.1

> <Gold.Id.Protein>
6NUR|6NUR_protein|mol2

> <Gold.PLP.Fitness>
48.0981

> <Gold.PLP.PLP>
-41.2975

> <Gold.PLP.part.hbond>
-4.0000

> <Gold.PLP.part.metal>
0.0000

> <Gold.PLP.part.buried>
-4.7256

> <Gold.PLP.part.nonpolar>
-34.6770

> <Gold.PLP.part.repulsive>
0.6220

> <Gold.PLP.ligand.clash>
0.0000

> <Gold.PLP.ligand.torsion>
0.7724

> <Gold.PLP.Chemscore.Hbond>
2.7338

> <Gold.PLP.Chemscore.CHOScore>
0.0000

> <Gold.PLP.Chemscore.Metal>
0.0000

> <Gold.Chemscore.Hbonds>
donor molecule, donor type, donor heavy atom, donor atom, acceptor molecule, acceptor atom, score
      L1  H     4    32       P1  7948  1.00
      L1  H     7    33       P1  7948  0.76
      P1  H 11000 11005       L1    23  0.84

> <Gold.PLP.Chemscore.Internal.Correction>
0.1441

> <Gold.Rescore>
     Score         DG    S(hbond)    S(metal)    S(lipo)     H(rot)  DE(clash)    DE(int)     intcor
     19.13     -21.48       2.63        0.00      97.05       1.62       0.59       1.76       ----

> <Gold.Chemscore.Fitness>
19.1256

> <Gold.Chemscore.DG>
-21.4756

> <Gold.Chemscore.ZeroCoef>
-5.4800

> <Gold.Chemscore.Hbond>
2.6318

> <Gold.Chemscore.Metal>
0.0000

> <Gold.Chemscore.Lipo>
97.0547

> <Gold.Chemscore.Internal_Hbond>
0.0000

> <Gold.Chemscore.DEClash>
0.5873

> <Gold.Chemscore.DEInternal>
1.7628

> <Gold.Chemscore.Rot>
1.6211

> <Gold.Chemscore.Internal.Correction>
   9.000000E+99

> <Gold.Chemscore.Hbonds>
donor molecule, donor type, donor heavy atom, donor atom, acceptor molecule, acceptor atom, score
      L1  H     4    32       P1  7948  1.00
      L1  H     7    33       P1  7948  0.73
      P1  H 11000 11005       L1    23  0.27

> <Gold.Chemscore.Hbond.Weighted>
-8.7903

> <Gold.Chemscore.Metal.Weighted>
-0.0000

> <Gold.Chemscore.Lipo.Weighted>
-11.3554

> <Gold.Chemscore.Internal_Hbond.Weighted>
0.0000

> <Gold.Chemscore.DEClash.Weighted>
0.5873

> <Gold.Chemscore.DEInternal.Weighted>
1.7628

> <Gold.Chemscore.Rot.Weighted>
4.1501

> <Gold.Chemscore.Internal.Correction.Weighted>
   9.000000E+99

> <Gold.Protein.RotatedTorsions>
[ 6907 6896 6895 6894 ] final  -78.60 input  -60.11 | X-H torsion
[ 7974 7965 7964 7962 ] final  -75.30 input  175.53 | X-H torsion
[ 8008 7997 7996 7995 ] final  -15.02 input   59.86 | X-H torsion
[ 10167 10162 10161 10158 ] final  111.19 input  -65.29 | X-H torsion
[ 10718 10713 10712 10709 ] final  -26.73 input   66.30 | X-H torsion
[ 10763 10752 10751 10750 ] final  134.54 input  -60.55 | X-H torsion
[ 11005 11000 10999 10996 ] final   38.28 input  -57.11 | X-H torsion

> <Gold.Protein.ActiveResidues>
 VAL166  LYS551  ARG553  GLY616  TRP617  ASP618  TYR619  PRO620  LYS621  CYS622 
 ASP623  PHE694  ASN695  SER759  ASP760  ASP761  ALA762  ILE779  LEU786  VAL792 
 PHE793  MET794  SER795  GLU796  ALA797  LYS798  CYS799  TRP800  GLU811  SER814 

> <Gold.Protein.RotatedAtoms>
  150.6969  134.4248  159.5221 H   0  0  0  0  0  0  0  0  0  0  0  0  # atno 6907 bound_to 6896
  152.1984  134.8607  160.0519 H   0  0  0  0  0  0  0  0  0  0  0  0  # atno 6908 bound_to 6896
  151.9536  133.3638  159.4046 H   0  0  0  0  0  0  0  0  0  0  0  0  # atno 6909 bound_to 6896
  145.6278  140.9346  143.1103 H   0  0  0  0  0  0  0  0  0  0  0  0  # atno 7974 bound_to 7965
  154.5163  140.2207  155.9059 H   0  0  0  0  0  0  0  0  0  0  0  0  # atno 8008 bound_to 7997
  156.1611  140.3142  155.8775 H   0  0  0  0  0  0  0  0  0  0  0  0  # atno 8009 bound_to 7997
  155.3748  140.0469  157.3035 H   0  0  0  0  0  0  0  0  0  0  0  0  # atno 8010 bound_to 7997
  139.6630  144.7128  151.1830 H   0  0  0  0  0  0  0  0  0  0  0  0  # atno 10167 bound_to 10162
  156.4474  130.4477  149.7012 H   0  0  0  0  0  0  0  0  0  0  0  0  # atno 10718 bound_to 10713
  153.8252  135.3111  155.3414 H   0  0  0  0  0  0  0  0  0  0  0  0  # atno 10763 bound_to 10752
  154.7996  135.4734  154.0247 H   0  0  0  0  0  0  0  0  0  0  0  0  # atno 10764 bound_to 10752
  153.1668  135.6871  153.8753 H   0  0  0  0  0  0  0  0  0  0  0  0  # atno 10765 bound_to 10752
  140.2142  134.3719  155.8035 H   0  0  0  0  0  0  0  0  0  0  0  0  # atno 11005 bound_to 11000
  144.7205  139.8046  143.7383 LP  0  0  0  0  0  0  0  0  0  0  0  0  # atno 17320 bound_to 7965
  146.1380  139.4430  143.0127 LP  0  0  0  0  0  0  0  0  0  0  0  0  # atno 17321 bound_to 7965
  140.7588  143.5964  150.8744 LP  0  0  0  0  0  0  0  0  0  0  0  0  # atno 17342 bound_to 10162
  139.9623  143.6150  152.2998 LP  0  0  0  0  0  0  0  0  0  0  0  0  # atno 17343 bound_to 10162
  156.3853  130.7599  151.2596 LP  0  0  0  0  0  0  0  0  0  0  0  0  # atno 17370 bound_to 10713
  157.7504  131.0284  150.4046 LP  0  0  0  0  0  0  0  0  0  0  0  0  # atno 17371 bound_to 10713
  141.2225  133.7159  156.8468 LP  0  0  0  0  0  0  0  0  0  0  0  0  # atno 17394 bound_to 11000
  140.1918  134.8960  157.3069 LP  0  0  0  0  0  0  0  0  0  0  0  0  # atno 17395 bound_to 11000

$$$$
