AV-unprocessed.smi:1232|AV-procd|sdf|5167|dock3
  -GOLD-   22720 4243D 1   1.00000     0.00000
 Structure written by MMmdl.
 53 54  0  0  0  0  0  0  0  0  1 V2000
  146.6592  133.3305  151.9561 C   0  0  0  0  0  0  0  0  0  0  0  0
  146.9919  133.6156  153.4163 C   0  0  0  0  0  0  0  0  0  0  0  0
  146.5380  132.8955  154.3053 O   0  0  0  0  0  0  0  0  0  0  0  0
  147.7833  134.6752  153.6498 N   0  0  0  0  0  0  0  0  0  0  0  0
  148.2033  135.1490  154.9706 C   0  0  2  0  0  0  0  0  0  0  0  0
  147.7995  136.6290  155.1056 C   0  0  0  0  0  0  0  0  0  0  0  0
  147.1283  137.0088  156.0666 O   0  0  0  0  0  0  0  0  0  0  0  0
  148.2226  137.4512  154.1329 N   0  0  0  0  0  0  0  0  0  0  0  0
  148.0059  138.8939  154.1080 C   0  0  0  0  0  0  0  0  0  0  0  0
  148.8910  139.6727  155.0720 C   0  0  0  0  0  0  0  0  0  0  0  0
  148.6654  139.6706  156.4649 C   0  0  0  0  0  0  0  0  0  0  0  0
  149.5146  140.4243  157.2962 C   0  0  0  0  0  0  0  0  0  0  0  0
  150.5754  141.1582  156.7155 C   0  0  0  0  0  0  0  0  0  0  0  0
  151.4301  141.9292  157.5317 N   0  0  0  0  0  0  0  0  0  0  0  0
  151.0873  143.3323  157.7511 C   0  0  0  0  0  0  0  0  0  0  0  0
  152.2626  144.0696  158.4134 C   0  0  0  0  0  0  0  0  0  0  0  0
  152.6348  143.3984  159.6130 O   0  0  0  0  0  0  0  0  0  0  0  0
  153.0689  142.0629  159.3690 C   0  0  1  0  0  0  0  0  0  0  0  0
  153.5303  141.4562  160.6983 C   0  0  0  0  0  0  0  0  0  0  0  0
  151.9157  141.2604  158.7358 C   0  0  0  0  0  0  0  0  0  0  0  0
  150.8029  141.1408  155.3787 N   0  0  0  0  0  0  0  0  0  0  0  0
  149.9823  140.4199  154.5858 C   0  0  0  0  0  0  0  0  0  0  0  0
  149.7474  134.9940  155.0960 C   0  0  0  0  0  0  0  0  0  0  0  0
  150.1649  133.5159  155.2259 C   0  0  0  0  0  0  0  0  0  0  0  0
  150.3425  135.7912  156.2755 C   0  0  0  0  0  0  0  0  0  0  0  0
  145.9533  134.0710  151.5792 H   0  0  0  0  0  0  0  0  0  0  0  0
  146.2103  132.3426  151.8468 H   0  0  0  0  0  0  0  0  0  0  0  0
  147.5591  133.3659  151.3413 H   0  0  0  0  0  0  0  0  0  0  0  0
  148.1029  135.2102  152.8557 H   0  0  0  0  0  0  0  0  0  0  0  0
  147.7140  134.5549  155.7458 H   0  0  0  0  0  0  0  0  0  0  0  0
  148.7639  137.0561  153.3776 H   0  0  0  0  0  0  0  0  0  0  0  0
  148.2041  139.2507  153.0972 H   0  0  0  0  0  0  0  0  0  0  0  0
  146.9555  139.1088  154.3125 H   0  0  0  0  0  0  0  0  0  0  0  0
  147.8550  139.1039  156.8985 H   0  0  0  0  0  0  0  0  0  0  0  0
  149.3514  140.4221  158.3636 H   0  0  0  0  0  0  0  0  0  0  0  0
  150.8443  143.8142  156.8034 H   0  0  0  0  0  0  0  0  0  0  0  0
  150.2026  143.3935  158.3865 H   0  0  0  0  0  0  0  0  0  0  0  0
  153.1165  144.1281  157.7363 H   0  0  0  0  0  0  0  0  0  0  0  0
  151.9762  145.0934  158.6530 H   0  0  0  0  0  0  0  0  0  0  0  0
  153.9189  142.0835  158.6845 H   0  0  0  0  0  0  0  0  0  0  0  0
  153.8831  140.4340  160.5613 H   0  0  0  0  0  0  0  0  0  0  0  0
  152.7187  141.4361  161.4263 H   0  0  0  0  0  0  0  0  0  0  0  0
  154.3483  142.0354  161.1271 H   0  0  0  0  0  0  0  0  0  0  0  0
  151.0887  141.1697  159.4415 H   0  0  0  0  0  0  0  0  0  0  0  0
  152.2598  140.2496  158.5212 H   0  0  0  0  0  0  0  0  0  0  0  0
  150.2025  140.4465  153.5287 H   0  0  0  0  0  0  0  0  0  0  0  0
  150.2086  135.3760  154.1832 H   0  0  0  0  0  0  0  0  0  0  0  0
  149.7203  133.0571  156.1098 H   0  0  0  0  0  0  0  0  0  0  0  0
  151.2476  133.4197  155.3128 H   0  0  0  0  0  0  0  0  0  0  0  0
  149.8638  132.9276  154.3590 H   0  0  0  0  0  0  0  0  0  0  0  0
  149.8897  135.4934  157.2217 H   0  0  0  0  0  0  0  0  0  0  0  0
  150.2000  136.8658  156.1605 H   0  0  0  0  0  0  0  0  0  0  0  0
  151.4171  135.6255  156.3572 H   0  0  0  0  0  0  0  0  0  0  0  0
  1  2  1  0  0  0  0
  1 26  1  0  0  0  0
  1 27  1  0  0  0  0
  1 28  1  0  0  0  0
  2  3  2  0  0  0  0
  2  4  1  0  0  0  0
  4  5  1  0  0  0  0
  4 29  1  0  0  0  0
  5  6  1  0  0  0  0
  5 23  1  0  0  0  0
  5 30  1  0  0  0  0
  6  7  2  0  0  0  0
  6  8  1  0  0  0  0
  8  9  1  0  0  0  0
  8 31  1  0  0  0  0
  9 10  1  0  0  0  0
  9 32  1  0  0  0  0
  9 33  1  0  0  0  0
 10 22  1  0  0  0  0
 10 11  2  0  0  0  0
 11 12  1  0  0  0  0
 11 34  1  0  0  0  0
 12 13  2  0  0  0  0
 12 35  1  0  0  0  0
 13 14  1  0  0  0  0
 13 21  1  0  0  0  0
 14 20  1  0  0  0  0
 14 15  1  0  0  0  0
 15 16  1  0  0  0  0
 15 36  1  0  0  0  0
 15 37  1  0  0  0  0
 16 17  1  0  0  0  0
 16 38  1  0  0  0  0
 16 39  1  0  0  0  0
 17 18  1  0  0  0  0
 18 19  1  0  0  0  0
 18 20  1  0  0  0  0
 18 40  1  0  0  0  0
 19 41  1  0  0  0  0
 19 42  1  0  0  0  0
 19 43  1  0  0  0  0
 20 44  1  0  0  0  0
 20 45  1  0  0  0  0
 21 22  2  0  0  0  0
 22 46  1  0  0  0  0
 23 24  1  0  0  0  0
 23 25  1  0  0  0  0
 23 47  1  0  0  0  0
 24 48  1  0  0  0  0
 24 49  1  0  0  0  0
 24 50  1  0  0  0  0
 25 51  1  0  0  0  0
 25 52  1  0  0  0  0
 25 53  1  0  0  0  0
M  END
> <s_m_source_file>
AV-unprocessed.smi

> <i_m_source_file_index>
1232

> <i_lp_mmshare_version>
43012

> <i_f3d_flags>
0

> <s_epik_input>
W0NIM11DKD1PKVtOSF1bQ0BASF0oW0NIXShbQ0gzXSlbQ0gzXSlDKD1PKVtOSF1bQ0gyXWMxW2NIXVtjSF1jKG5bY0hdMSlOMltDSDJdW0NIMl1PW0NAQEhdKFtDSDNdKVtDSDJdMg==

> <s_epik_cmdline>
J2VwaWtfcHl0aG9uJywgJy1waCcsICc3LjAnLCAnLXRuJywgJzgnLCAnLW1hJywgJzIwMCcsICctbWV0YWxfYmluZGluZycsICctaW1hZScsICc8aW5maWxlLm1hZT4nLCAnLW9tYWUnLCAnPG91dGZpbGUubWFlPic=

> <r_lp_tautomer_probability>
1

> <r_epik_Ionization_Penalty>
0.00557618

> <r_epik_Ionization_Penalty_Charging>
0

> <r_epik_Ionization_Penalty_Neutral>
0.00557618

> <r_epik_State_Penalty>
0.00408363

> <r_epik_Charging_Adjusted_Penalty>
0.00408363

> <i_epik_Tot_Q>
0

> <i_epik_Tot_abs_Q>
0

> <r_epik_Metal_State_Penalty>
-0

> <b_epik_Metal_Only>
0

> <s_lp_Force_Field>
OPLS_2005

> <r_lp_Energy>
17.3881

> <b_lp_Chiralities_Consistent>
1

> <s_lp_Variant>
AV-unprocessed.smi:1232-1

> <Gold.Version>
5.8.1

> <Gold.Id.Protein>
6NUR|6NUR_protein|mol2

> <Gold.PLP.Fitness>
44.7382

> <Gold.PLP.PLP>
-37.5259

> <Gold.PLP.part.hbond>
-3.0000

> <Gold.PLP.part.metal>
0.0000

> <Gold.PLP.part.buried>
-3.2878

> <Gold.PLP.part.nonpolar>
-31.3849

> <Gold.PLP.part.repulsive>
0.1843

> <Gold.PLP.ligand.clash>
0.0000

> <Gold.PLP.ligand.torsion>
1.0608

> <Gold.PLP.Chemscore.Hbond>
1.9920

> <Gold.PLP.Chemscore.CHOScore>
1.0000

> <Gold.PLP.Chemscore.Metal>
0.0000

> <Gold.Chemscore.Hbonds>
donor molecule, donor type, donor heavy atom, donor atom, acceptor molecule, acceptor atom, score
      L1  H     4    29       P1  7948  1.00
      L1  H     8    31       P1  7948  1.00
      L1  C    22    46       P1  7957  1.00

> <Gold.PLP.Chemscore.Internal.Correction>
0.3578

> <Gold.Rescore>
     Score         DG    S(hbond)    S(metal)    S(lipo)     H(rot)  DE(clash)    DE(int)     intcor
     16.47     -17.48       1.95        0.00      93.56       2.13       0.09       0.92       ----

> <Gold.Chemscore.Fitness>
16.4715

> <Gold.Chemscore.DG>
-17.4835

> <Gold.Chemscore.ZeroCoef>
-5.4800

> <Gold.Chemscore.Hbond>
1.9505

> <Gold.Chemscore.Metal>
0.0000

> <Gold.Chemscore.Lipo>
93.5555

> <Gold.Chemscore.Internal_Hbond>
0.0000

> <Gold.Chemscore.DEClash>
0.0901

> <Gold.Chemscore.DEInternal>
0.9219

> <Gold.Chemscore.Rot>
2.1317

> <Gold.Chemscore.Internal.Correction>
   9.000000E+99

> <Gold.Chemscore.Hbonds>
donor molecule, donor type, donor heavy atom, donor atom, acceptor molecule, acceptor atom, score
      L1  H     4    29       P1  7948  0.98
      L1  H     8    31       P1  7948  0.98

> <Gold.Chemscore.Hbond.Weighted>
-6.5147

> <Gold.Chemscore.Metal.Weighted>
-0.0000

> <Gold.Chemscore.Lipo.Weighted>
-10.9460

> <Gold.Chemscore.Internal_Hbond.Weighted>
0.0000

> <Gold.Chemscore.DEClash.Weighted>
0.0901

> <Gold.Chemscore.DEInternal.Weighted>
0.9219

> <Gold.Chemscore.Rot.Weighted>
5.4572

> <Gold.Chemscore.Internal.Correction.Weighted>
   9.000000E+99

> <Gold.Protein.RotatedTorsions>
[ 6907 6896 6895 6894 ] final  161.67 input  -60.11 | X-H torsion
[ 7974 7965 7964 7962 ] final  -82.03 input  175.53 | X-H torsion
[ 8008 7997 7996 7995 ] final  142.70 input   59.86 | X-H torsion
[ 10167 10162 10161 10158 ] final  152.05 input  -65.29 | X-H torsion
[ 10718 10713 10712 10709 ] final  -90.20 input   66.30 | X-H torsion
[ 10763 10752 10751 10750 ] final  141.73 input  -60.55 | X-H torsion
[ 11005 11000 10999 10996 ] final  177.32 input  -57.11 | X-H torsion

> <Gold.Protein.ActiveResidues>
 VAL166  LYS551  ARG553  GLY616  TRP617  ASP618  TYR619  PRO620  LYS621  CYS622 
 ASP623  PHE694  ASN695  SER759  ASP760  ASP761  ALA762  ILE779  LEU786  VAL792 
 PHE793  MET794  SER795  GLU796  ALA797  LYS798  CYS799  TRP800  GLU811  SER814 

> <Gold.Protein.RotatedAtoms>
  151.9521  133.3669  159.4003 H   0  0  0  0  0  0  0  0  0  0  0  0  # atno 6907 bound_to 6896
  150.6979  134.4329  159.5266 H   0  0  0  0  0  0  0  0  0  0  0  0  # atno 6908 bound_to 6896
  152.2004  134.8593  160.0559 H   0  0  0  0  0  0  0  0  0  0  0  0  # atno 6909 bound_to 6896
  145.5387  140.9512  143.1563 H   0  0  0  0  0  0  0  0  0  0  0  0  # atno 7974 bound_to 7965
  156.2944  140.2282  156.4771 H   0  0  0  0  0  0  0  0  0  0  0  0  # atno 8008 bound_to 7997
  154.7885  140.0455  157.1203 H   0  0  0  0  0  0  0  0  0  0  0  0  # atno 8009 bound_to 7997
  154.9673  140.3062  155.5007 H   0  0  0  0  0  0  0  0  0  0  0  0  # atno 8010 bound_to 7997
  139.4835  144.5390  151.7597 H   0  0  0  0  0  0  0  0  0  0  0  0  # atno 10167 bound_to 10162
  155.9987  130.4901  150.5287 H   0  0  0  0  0  0  0  0  0  0  0  0  # atno 10718 bound_to 10713
  153.9441  135.2977  155.3441 H   0  0  0  0  0  0  0  0  0  0  0  0  # atno 10763 bound_to 10752
  154.7461  135.5002  153.9210 H   0  0  0  0  0  0  0  0  0  0  0  0  # atno 10764 bound_to 10752
  153.1027  135.6738  153.9750 H   0  0  0  0  0  0  0  0  0  0  0  0  # atno 10765 bound_to 10752
  140.3828  134.6931  157.4461 H   0  0  0  0  0  0  0  0  0  0  0  0  # atno 11005 bound_to 11000
  144.7588  139.7008  143.7243 LP  0  0  0  0  0  0  0  0  0  0  0  0  # atno 17320 bound_to 7965
  146.1995  139.5282  142.9752 LP  0  0  0  0  0  0  0  0  0  0  0  0  # atno 17321 bound_to 7965
  140.4926  144.1287  150.5953 LP  0  0  0  0  0  0  0  0  0  0  0  0  # atno 17342 bound_to 10162
  140.4153  143.2637  151.9782 LP  0  0  0  0  0  0  0  0  0  0  0  0  # atno 17343 bound_to 10162
  157.3239  131.0687  151.1912 LP  0  0  0  0  0  0  0  0  0  0  0  0  # atno 17370 bound_to 10713
  157.2816  130.6752  149.6068 LP  0  0  0  0  0  0  0  0  0  0  0  0  # atno 17371 bound_to 10713
  140.0465  134.6191  155.8914 LP  0  0  0  0  0  0  0  0  0  0  0  0  # atno 17394 bound_to 11000
  141.1918  133.6573  156.5471 LP  0  0  0  0  0  0  0  0  0  0  0  0  # atno 17395 bound_to 11000

$$$$
