AV-unprocessed.smi:72|AV-procd|sdf|688|dock2
  -GOLD-   2262017 03D 1   1.00000     0.00000
 Structure written by MMmdl.
 29 30  0  0  0  0  0  0  0  0  1 V2000
  153.5373  142.7327  164.2732 N   0  0  0  0  0  0  0  0  0  0  0  0
  153.1943  142.7150  163.0352 C   0  0  0  0  0  0  0  0  0  0  0  0
  153.6170  141.7704  162.0886 N   0  0  0  0  0  0  0  0  0  0  0  0
  153.1914  141.8812  160.8681 C   0  0  0  0  0  0  0  0  0  0  0  0
  152.2955  142.9489  160.4488 N   0  0  0  0  0  0  0  0  0  0  0  0
  151.8237  143.0673  159.0120 C   0  0  1  0  0  0  0  0  0  0  0  0
  152.2798  141.9626  158.2882 O   0  0  0  0  0  0  0  0  0  0  0  0
  151.1819  141.1560  157.8807 C   0  0  2  0  0  0  0  0  0  0  0  0
  151.5138  140.4075  156.5771 C   0  0  0  0  0  0  0  0  0  0  0  0
  152.7620  139.7493  156.6443 O   0  0  0  0  0  0  0  0  0  0  0  0
  149.9620  142.0843  157.8561 C   0  0  1  0  0  0  0  0  0  0  0  0
  148.7934  141.3679  158.2020 O   0  0  0  0  0  0  0  0  0  0  0  0
  150.2869  143.1250  158.9248 C   0  0  2  0  0  0  0  0  0  0  0  0
  149.8381  144.3961  158.5005 O   0  0  0  0  0  0  0  0  0  0  0  0
  151.8480  143.9016  161.3992 C   0  0  0  0  0  0  0  0  0  0  0  0
  151.0682  144.8107  161.1168 O   0  0  0  0  0  0  0  0  0  0  0  0
  152.3242  143.7432  162.6530 N   0  0  0  0  0  0  0  0  0  0  0  0
  152.3103  143.9405  158.5764 H   0  0  0  0  0  0  0  0  0  0  0  0
  151.0410  140.4077  158.6604 H   0  0  0  0  0  0  0  0  0  0  0  0
  149.8427  142.5564  156.8800 H   0  0  0  0  0  0  0  0  0  0  0  0
  149.8474  142.8657  159.8895 H   0  0  0  0  0  0  0  0  0  0  0  0
  153.0975  143.5107  164.7442 H   0  0  0  0  0  0  0  0  0  0  0  0
  153.4756  141.1790  160.0872 H   0  0  0  0  0  0  0  0  0  0  0  0
  150.7324  139.6846  156.3414 H   0  0  0  0  0  0  0  0  0  0  0  0
  151.5535  141.1150  155.7485 H   0  0  0  0  0  0  0  0  0  0  0  0
  152.6589  138.8736  156.3043 H   0  0  0  0  0  0  0  0  0  0  0  0
  149.0534  140.5413  158.5794 H   0  0  0  0  0  0  0  0  0  0  0  0
  149.7563  144.3865  157.5587 H   0  0  0  0  0  0  0  0  0  0  0  0
  152.0264  144.4057  163.3540 H   0  0  0  0  0  0  0  0  0  0  0  0
  1  2  2  0  0  0  0
  1 22  1  0  0  0  0
  2 17  1  0  0  0  0
  2  3  1  0  0  0  0
  3  4  2  0  0  0  0
  4  5  1  0  0  0  0
  4 23  1  0  0  0  0
  5  6  1  0  0  0  0
  5 15  1  0  0  0  0
  6 18  1  0  0  0  0
  6 13  1  0  0  0  0
  6  7  1  0  0  0  0
  7  8  1  0  0  0  0
  8 19  1  0  0  0  0
  8  9  1  0  0  0  0
  8 11  1  0  0  0  0
  9 10  1  0  0  0  0
  9 24  1  0  0  0  0
  9 25  1  0  0  0  0
 10 26  1  0  0  0  0
 11 20  1  0  0  0  0
 11 12  1  0  0  0  0
 11 13  1  0  0  0  0
 12 27  1  0  0  0  0
 13 21  1  0  0  0  0
 13 14  1  0  0  0  0
 14 28  1  0  0  0  0
 15 16  2  0  0  0  0
 15 17  1  0  0  0  0
 17 29  1  0  0  0  0
M  END
> <s_m_source_file>
AV-unprocessed.smi

> <i_m_source_file_index>
72

> <i_lp_mmshare_version>
43012

> <i_f3d_flags>
0

> <s_epik_input>
W05IMl1jMW5bY0hdbihjKD1PKW4xKVtDQEBIXTJPW0NASF0oW0NIMl1bT0hdKVtDQEBIXShbT0hdKVtDQEhdMltPSF0=

> <s_epik_cmdline>
J2VwaWtfcHl0aG9uJywgJy1waCcsICc3LjAnLCAnLXRuJywgJzgnLCAnLW1hJywgJzIwMCcsICctbWV0YWxfYmluZGluZycsICctaW1hZScsICc8aW5maWxlLm1hZT4nLCAnLW9tYWUnLCAnPG91dGZpbGUubWFlPic=

> <r_lp_tautomer_probability>
7.17554e-07

> <r_epik_Ionization_Penalty>
0.0066451

> <r_epik_Ionization_Penalty_Charging>
0.00663793

> <r_epik_Ionization_Penalty_Neutral>
7.17052e-06

> <r_epik_State_Penalty>
0.419231

> <r_epik_Charging_Adjusted_Penalty>
0.425868

> <i_epik_Tot_Q>
0

> <i_epik_Tot_abs_Q>
0

> <r_epik_Metal_State_Penalty>
1.44144

> <b_epik_Metal_Only>
0

> <s_epik_Chemistry_Notes>
This compound contains an acetal/aminal-like group ( X-CH(R)-Y where X, Y are N, S, or O) that may be acid/base labile, releasing an aldehyde.

> <s_lp_Force_Field>
OPLS_2005

> <r_lp_Energy>
38.9387

> <b_lp_Chiralities_Consistent>
1

> <s_lp_Variant>
AV-unprocessed.smi:72-26

> <Gold.Version>
5.8.1

> <Gold.Id.Protein>
6NUR|6NUR_protein|mol2

> <Gold.PLP.Fitness>
38.9540

> <Gold.PLP.PLP>
-33.1895

> <Gold.PLP.part.hbond>
-5.0507

> <Gold.PLP.part.metal>
0.0000

> <Gold.PLP.part.buried>
-5.7004

> <Gold.PLP.part.nonpolar>
-23.0671

> <Gold.PLP.part.repulsive>
1.6322

> <Gold.PLP.ligand.clash>
0.0000

> <Gold.PLP.ligand.torsion>
0.1182

> <Gold.PLP.Chemscore.Hbond>
2.0000

> <Gold.PLP.Chemscore.CHOScore>
0.0000

> <Gold.PLP.Chemscore.Metal>
0.0000

> <Gold.Chemscore.Hbonds>
donor molecule, donor type, donor heavy atom, donor atom, acceptor molecule, acceptor atom, score
      L1  H    14    28       P1  8028  0.75
      P1  H  7997  8009       L1    10  1.00

> <Gold.PLP.Chemscore.Internal.Correction>
0.0009

> <Gold.Rescore>
     Score         DG    S(hbond)    S(metal)    S(lipo)     H(rot)  DE(clash)    DE(int)     intcor
      1.15      -2.44       1.44        0.00      21.65       4.06       0.47       0.81       ----

> <Gold.Chemscore.Fitness>
1.1541

> <Gold.Chemscore.DG>
-2.4401

> <Gold.Chemscore.ZeroCoef>
-5.4800

> <Gold.Chemscore.Hbond>
1.4432

> <Gold.Chemscore.Metal>
0.0000

> <Gold.Chemscore.Lipo>
21.6520

> <Gold.Chemscore.Internal_Hbond>
0.0000

> <Gold.Chemscore.DEClash>
0.4744

> <Gold.Chemscore.DEInternal>
0.8116

> <Gold.Chemscore.Rot>
4.0600

> <Gold.Chemscore.Internal.Correction>
   9.000000E+99

> <Gold.Chemscore.Hbonds>
donor molecule, donor type, donor heavy atom, donor atom, acceptor molecule, acceptor atom, score
      L1  H    14    28       P1  8028  0.12
      P1  H  7997  8009       L1    10  0.55

> <Gold.Chemscore.Hbond.Weighted>
-4.8204

> <Gold.Chemscore.Metal.Weighted>
-0.0000

> <Gold.Chemscore.Lipo.Weighted>
-2.5333

> <Gold.Chemscore.Internal_Hbond.Weighted>
0.0000

> <Gold.Chemscore.DEClash.Weighted>
0.4744

> <Gold.Chemscore.DEInternal.Weighted>
0.8116

> <Gold.Chemscore.Rot.Weighted>
10.3936

> <Gold.Chemscore.Internal.Correction.Weighted>
   9.000000E+99

> <Gold.Protein.RotatedTorsions>
[ 6907 6896 6895 6894 ] final -151.07 input  -60.11 | X-H torsion
[ 7974 7965 7964 7962 ] final  -85.17 input  175.53 | X-H torsion
[ 8008 7997 7996 7995 ] final -168.14 input   59.86 | X-H torsion
[ 10167 10162 10161 10158 ] final -147.20 input  -65.29 | X-H torsion
[ 10718 10713 10712 10709 ] final -119.70 input   66.30 | X-H torsion
[ 10763 10752 10751 10750 ] final   26.28 input  -60.55 | X-H torsion
[ 11005 11000 10999 10996 ] final   -2.22 input  -57.11 | X-H torsion

> <Gold.Protein.ActiveResidues>
 VAL166  LYS551  ARG553  GLY616  TRP617  ASP618  TYR619  PRO620  LYS621  CYS622 
 ASP623  PHE694  ASN695  SER759  ASP760  ASP761  ALA762  ILE779  LEU786  VAL792 
 PHE793  MET794  SER795  GLU796  ALA797  LYS798  CYS799  TRP800  GLU811  SER814 

> <Gold.Protein.RotatedAtoms>
  151.2078  133.4573  159.2597 H   0  0  0  0  0  0  0  0  0  0  0  0  # atno 6907 bound_to 6896
  151.1006  134.9970  159.8457 H   0  0  0  0  0  0  0  0  0  0  0  0  # atno 6908 bound_to 6896
  152.5443  134.2005  159.8763 H   0  0  0  0  0  0  0  0  0  0  0  0  # atno 6909 bound_to 6896
  145.4968  140.9549  143.1782 H   0  0  0  0  0  0  0  0  0  0  0  0  # atno 7974 bound_to 7965
  155.8873  140.1019  157.1443 H   0  0  0  0  0  0  0  0  0  0  0  0  # atno 8008 bound_to 7997
  154.4011  140.1317  156.4335 H   0  0  0  0  0  0  0  0  0  0  0  0  # atno 8009 bound_to 7997
  155.7574  140.3464  155.5183 H   0  0  0  0  0  0  0  0  0  0  0  0  # atno 8010 bound_to 7997
  139.7643  143.8330  152.2613 H   0  0  0  0  0  0  0  0  0  0  0  0  # atno 10167 bound_to 10162
  156.1201  130.6316  150.9448 H   0  0  0  0  0  0  0  0  0  0  0  0  # atno 10718 bound_to 10713
  153.0633  135.6564  154.0412 H   0  0  0  0  0  0  0  0  0  0  0  0  # atno 10763 bound_to 10752
  154.0074  135.2931  155.3397 H   0  0  0  0  0  0  0  0  0  0  0  0  # atno 10764 bound_to 10752
  154.6981  135.5256  153.8555 H   0  0  0  0  0  0  0  0  0  0  0  0  # atno 10765 bound_to 10752
  140.6560  133.9362  155.8408 H   0  0  0  0  0  0  0  0  0  0  0  0  # atno 11005 bound_to 11000
  144.7802  139.6541  143.7157 LP  0  0  0  0  0  0  0  0  0  0  0  0  # atno 17320 bound_to 7965
  146.2250  139.5707  142.9593 LP  0  0  0  0  0  0  0  0  0  0  0  0  # atno 17321 bound_to 7965
  139.8346  144.7238  150.9407 LP  0  0  0  0  0  0  0  0  0  0  0  0  # atno 17342 bound_to 10162
  140.7809  143.4039  151.1104 LP  0  0  0  0  0  0  0  0  0  0  0  0  # atno 17343 bound_to 10162
  157.6384  131.0913  150.8301 LP  0  0  0  0  0  0  0  0  0  0  0  0  # atno 17370 bound_to 10713
  156.8399  130.5044  149.5322 LP  0  0  0  0  0  0  0  0  0  0  0  0  # atno 17371 bound_to 10713
  141.0501  134.0497  157.3794 LP  0  0  0  0  0  0  0  0  0  0  0  0  # atno 17394 bound_to 11000
  139.9029  135.0171  156.7354 LP  0  0  0  0  0  0  0  0  0  0  0  0  # atno 17395 bound_to 11000

$$$$
