AV-unprocessed.smi:3195|AV-procd|sdf|12213|dock4
  -GOLD-   2272018 53D 1   1.00000     0.00000
 Structure written by MMmdl.
 30 31  0  0  0  0  0  0  0  0  1 V2000
  149.6132  140.6214  154.7482 C   0  0  0  0  0  0  0  0  0  0  0  0
  150.6705  139.7803  155.4839 C   0  0  1  0  0  0  0  0  0  0  0  0
  150.9359  140.3596  156.8903 C   0  0  0  0  0  0  0  0  0  0  0  0
  150.7695  139.6389  157.8753 O   0  0  0  0  0  0  0  0  0  0  0  0
  151.3342  141.6450  156.9528 N   0  0  0  0  0  0  0  0  0  0  0  0
  151.6534  142.4234  158.0992 C   0  0  0  0  0  0  0  0  0  0  0  0
  151.9409  141.8781  159.3078 N   0  0  0  0  0  0  0  0  0  0  0  0
  152.2331  142.6872  160.3471 C   0  0  0  0  0  0  0  0  0  0  0  0
  152.2580  144.0896  160.2469 C   0  0  0  0  0  0  0  0  0  0  0  0
  151.9633  144.6694  159.0007 C   0  0  0  0  0  0  0  0  0  0  0  0
  151.6569  143.8293  157.9112 C   0  0  0  0  0  0  0  0  0  0  0  0
  151.3693  144.3871  156.6960 O   0  0  0  0  0  0  0  0  0  0  0  0
  150.2810  138.2843  155.5452 C   0  0  0  0  0  0  0  0  0  0  0  0
  151.3085  137.5881  154.6712 C   0  0  0  0  0  0  0  0  0  0  0  0
  152.4932  138.5379  154.7337 C   0  0  0  0  0  0  0  0  0  0  0  0
  151.8705  139.8133  154.7031 O   0  0  0  0  0  0  0  0  0  0  0  0
  148.6544  140.6043  155.2680 H   0  0  0  0  0  0  0  0  0  0  0  0
  149.4467  140.2433  153.7391 H   0  0  0  0  0  0  0  0  0  0  0  0
  149.9255  141.6628  154.6600 H   0  0  0  0  0  0  0  0  0  0  0  0
  151.4240  142.1242  156.0682 H   0  0  0  0  0  0  0  0  0  0  0  0
  152.4534  142.2013  161.2861 H   0  0  0  0  0  0  0  0  0  0  0  0
  152.4970  144.7025  161.1034 H   0  0  0  0  0  0  0  0  0  0  0  0
  151.9721  145.7430  158.8838 H   0  0  0  0  0  0  0  0  0  0  0  0
  150.4834  144.2209  156.4115 H   0  0  0  0  0  0  0  0  0  0  0  0
  150.3450  137.8885  156.5604 H   0  0  0  0  0  0  0  0  0  0  0  0
  149.2658  138.0951  155.1943 H   0  0  0  0  0  0  0  0  0  0  0  0
  151.5503  136.5814  155.0127 H   0  0  0  0  0  0  0  0  0  0  0  0
  150.9413  137.5226  153.6461 H   0  0  0  0  0  0  0  0  0  0  0  0
  153.0449  138.4150  155.6671 H   0  0  0  0  0  0  0  0  0  0  0  0
  153.1853  138.4071  153.9019 H   0  0  0  0  0  0  0  0  0  0  0  0
  1  2  1  0  0  0  0
  1 17  1  0  0  0  0
  1 18  1  0  0  0  0
  1 19  1  0  0  0  0
  2 16  1  0  0  0  0
  2  3  1  0  0  0  0
  2 13  1  0  0  0  0
  3  4  2  0  0  0  0
  3  5  1  0  0  0  0
  5  6  1  0  0  0  0
  5 20  1  0  0  0  0
  6 11  1  0  0  0  0
  6  7  2  0  0  0  0
  7  8  1  0  0  0  0
  8  9  2  0  0  0  0
  8 21  1  0  0  0  0
  9 10  1  0  0  0  0
  9 22  1  0  0  0  0
 10 11  2  0  0  0  0
 10 23  1  0  0  0  0
 11 12  1  0  0  0  0
 12 24  1  0  0  0  0
 13 14  1  0  0  0  0
 13 25  1  0  0  0  0
 13 26  1  0  0  0  0
 14 15  1  0  0  0  0
 14 27  1  0  0  0  0
 14 28  1  0  0  0  0
 15 16  1  0  0  0  0
 15 29  1  0  0  0  0
 15 30  1  0  0  0  0
M  END
> <s_m_source_file>
AV-unprocessed.smi

> <i_m_source_file_index>
3195

> <i_lp_mmshare_version>
43012

> <i_f3d_flags>
0

> <s_epik_input>
TzFbQ0gyXVtDSDJdW0NIMl1bQ0BAXTEoW0NIM10pQyg9TylbTkhdYzJuW2NIXVtjSF1bY0hdYzJbT0hd

> <s_epik_cmdline>
J2VwaWtfcHl0aG9uJywgJy1waCcsICc3LjAnLCAnLXRuJywgJzgnLCAnLW1hJywgJzIwMCcsICctbWV0YWxfYmluZGluZycsICctaW1hZScsICc8aW5maWxlLm1hZT4nLCAnLW9tYWUnLCAnPG91dGZpbGUubWFlPic=

> <r_lp_tautomer_probability>
0.43658

> <r_epik_Ionization_Penalty>
0.0203228

> <r_epik_Ionization_Penalty_Charging>
0

> <r_epik_Ionization_Penalty_Neutral>
0.0203228

> <r_epik_State_Penalty>
0.430346

> <r_epik_Charging_Adjusted_Penalty>
0.430346

> <i_epik_Tot_Q>
0

> <i_epik_Tot_abs_Q>
0

> <r_epik_Metal_State_Penalty>
0.387439

> <b_epik_Metal_Only>
0

> <s_lp_Force_Field>
OPLS_2005

> <r_lp_Energy>
21.434

> <b_lp_Chiralities_Consistent>
1

> <s_lp_Variant>
AV-unprocessed.smi:3195-1

> <Gold.Version>
5.8.1

> <Gold.Id.Protein>
6NUR|6NUR_protein|mol2

> <Gold.PLP.Fitness>
41.2516

> <Gold.PLP.PLP>
-35.3959

> <Gold.PLP.part.hbond>
-1.8024

> <Gold.PLP.part.metal>
0.0000

> <Gold.PLP.part.buried>
-4.1127

> <Gold.PLP.part.nonpolar>
-29.6573

> <Gold.PLP.part.repulsive>
0.1537

> <Gold.PLP.ligand.clash>
0.0000

> <Gold.PLP.ligand.torsion>
0.0880

> <Gold.PLP.Chemscore.Hbond>
2.0000

> <Gold.PLP.Chemscore.CHOScore>
0.0000

> <Gold.PLP.Chemscore.Metal>
0.0000

> <Gold.Chemscore.Hbonds>
donor molecule, donor type, donor heavy atom, donor atom, acceptor molecule, acceptor atom, score
      L1  H    12    24       P1  8028  1.00
      P1  H  7989  7998       L1    16  0.98

> <Gold.PLP.Chemscore.Internal.Correction>
0.0318

> <Gold.Rescore>
     Score         DG    S(hbond)    S(metal)    S(lipo)     H(rot)  DE(clash)    DE(int)     intcor
     16.14     -17.84       1.92        0.00      82.90       1.46       0.36       1.34       ----

> <Gold.Chemscore.Fitness>
16.1396

> <Gold.Chemscore.DG>
-17.8414

> <Gold.Chemscore.ZeroCoef>
-5.4800

> <Gold.Chemscore.Hbond>
1.9181

> <Gold.Chemscore.Metal>
0.0000

> <Gold.Chemscore.Lipo>
82.8969

> <Gold.Chemscore.Internal_Hbond>
0.0000

> <Gold.Chemscore.DEClash>
0.3584

> <Gold.Chemscore.DEInternal>
1.3434

> <Gold.Chemscore.Rot>
1.4625

> <Gold.Chemscore.Internal.Correction>
   9.000000E+99

> <Gold.Chemscore.Hbonds>
donor molecule, donor type, donor heavy atom, donor atom, acceptor molecule, acceptor atom, score
      L1  H    12    24       P1  8028  0.95
      P1  H  7989  7998       L1    16  0.64

> <Gold.Chemscore.Hbond.Weighted>
-6.4065

> <Gold.Chemscore.Metal.Weighted>
-0.0000

> <Gold.Chemscore.Lipo.Weighted>
-9.6989

> <Gold.Chemscore.Internal_Hbond.Weighted>
0.0000

> <Gold.Chemscore.DEClash.Weighted>
0.3584

> <Gold.Chemscore.DEInternal.Weighted>
1.3434

> <Gold.Chemscore.Rot.Weighted>
3.7440

> <Gold.Chemscore.Internal.Correction.Weighted>
   9.000000E+99

> <Gold.Protein.RotatedTorsions>
[ 6907 6896 6895 6894 ] final  -97.00 input  -60.11 | X-H torsion
[ 7974 7965 7964 7962 ] final   90.66 input  175.53 | X-H torsion
[ 8008 7997 7996 7995 ] final  124.45 input   59.86 | X-H torsion
[ 10167 10162 10161 10158 ] final  122.43 input  -65.29 | X-H torsion
[ 10718 10713 10712 10709 ] final  175.29 input   66.30 | X-H torsion
[ 10763 10752 10751 10750 ] final  -33.25 input  -60.55 | X-H torsion
[ 11005 11000 10999 10996 ] final  133.29 input  -57.11 | X-H torsion

> <Gold.Protein.ActiveResidues>
 VAL166  LYS551  ARG553  GLY616  TRP617  ASP618  TYR619  PRO620  LYS621  CYS622 
 ASP623  PHE694  ASN695  SER759  ASP760  ASP761  ALA762  ILE779  LEU786  VAL792 
 PHE793  MET794  SER795  GLU796  ALA797  LYS798  CYS799  TRP800  GLU811  SER814 

> <Gold.Protein.RotatedAtoms>
  150.7004  134.1417  159.4106 H   0  0  0  0  0  0  0  0  0  0  0  0  # atno 6907 bound_to 6896
  151.9401  135.0215  160.0544 H   0  0  0  0  0  0  0  0  0  0  0  0  # atno 6908 bound_to 6896
  152.2101  133.4870  159.5142 H   0  0  0  0  0  0  0  0  0  0  0  0  # atno 6909 bound_to 6896
  145.5160  139.2278  143.2698 H   0  0  0  0  0  0  0  0  0  0  0  0  # atno 7974 bound_to 7965
  156.2802  140.2739  156.1790 H   0  0  0  0  0  0  0  0  0  0  0  0  # atno 8008 bound_to 7997
  155.0575  140.0386  157.2583 H   0  0  0  0  0  0  0  0  0  0  0  0  # atno 8009 bound_to 7997
  154.7144  140.2675  155.6605 H   0  0  0  0  0  0  0  0  0  0  0  0  # atno 8010 bound_to 7997
  139.5859  144.7006  151.3410 H   0  0  0  0  0  0  0  0  0  0  0  0  # atno 10167 bound_to 10162
  156.9370  130.9989  151.2976 H   0  0  0  0  0  0  0  0  0  0  0  0  # atno 10718 bound_to 10713
  153.8271  135.6869  153.4819 H   0  0  0  0  0  0  0  0  0  0  0  0  # atno 10763 bound_to 10752
  153.1534  135.4609  154.9667 H   0  0  0  0  0  0  0  0  0  0  0  0  # atno 10764 bound_to 10752
  154.7903  135.3299  154.7737 H   0  0  0  0  0  0  0  0  0  0  0  0  # atno 10765 bound_to 10752
  139.9843  134.9537  156.9704 H   0  0  0  0  0  0  0  0  0  0  0  0  # atno 11005 bound_to 11000
  146.2136  140.5970  142.9048 LP  0  0  0  0  0  0  0  0  0  0  0  0  # atno 17320 bound_to 7965
  144.7701  140.5619  143.6676 LP  0  0  0  0  0  0  0  0  0  0  0  0  # atno 17321 bound_to 7965
  140.7131  143.7338  150.7603 LP  0  0  0  0  0  0  0  0  0  0  0  0  # atno 17342 bound_to 10162
  140.0883  143.4902  152.2493 LP  0  0  0  0  0  0  0  0  0  0  0  0  # atno 17343 bound_to 10162
  157.5809  130.8376  149.8522 LP  0  0  0  0  0  0  0  0  0  0  0  0  # atno 17370 bound_to 10713
  156.0421  130.3736  150.1409 LP  0  0  0  0  0  0  0  0  0  0  0  0  # atno 17371 bound_to 10713
  140.5034  134.1074  155.7255 LP  0  0  0  0  0  0  0  0  0  0  0  0  # atno 17394 bound_to 11000
  141.1510  133.8968  157.2097 LP  0  0  0  0  0  0  0  0  0  0  0  0  # atno 17395 bound_to 11000

$$$$
