AV-unprocessed.smi:3315|AV-procd|sdf|12751|dock5
  -GOLD-   2272019 93D 1   1.00000     0.00000
 Structure written by MMmdl.
 37 38  0  0  0  0  0  0  0  0  1 V2000
  141.7227  134.4659  153.0779 C   0  0  0  0  0  0  0  0  0  0  0  0
  142.6230  135.3946  152.4856 O   0  0  0  0  0  0  0  0  0  0  0  0
  143.9181  134.9079  152.1069 C   0  0  1  0  0  0  0  0  0  0  0  0
  143.7991  133.5383  151.4265 C   0  0  0  0  0  0  0  0  0  0  0  0
  144.7284  136.0240  151.4198 C   0  0  0  0  0  0  0  0  0  0  0  0
  145.1026  136.5121  152.8177 C   0  0  2  0  0  0  0  0  0  0  0  0
  146.4776  136.9947  152.8944 N   0  0  0  0  0  0  0  0  0  0  0  0
  146.8556  138.0997  153.5515 C   0  0  0  0  0  0  0  0  0  0  0  0
  146.0723  138.8279  154.1616 O   0  0  0  0  0  0  0  0  0  0  0  0
  148.1818  138.2955  153.4562 N   0  0  0  0  0  0  0  0  0  0  0  0
  148.9442  139.3420  154.0346 C   0  0  0  0  0  0  0  0  0  0  0  0
  148.4361  140.6670  154.0939 C   0  0  0  0  0  0  0  0  0  0  0  0
  149.4476  141.3525  154.7045 C   0  0  0  0  0  0  0  0  0  0  0  0
  150.4849  140.5225  154.9937 O   0  0  0  0  0  0  0  0  0  0  0  0
  150.1552  139.2323  154.5608 N   0  0  0  0  0  0  0  0  0  0  0  0
  144.8827  135.0645  153.3286 C   0  0  0  0  0  0  0  0  0  0  0  0
  144.2531  134.9341  154.7201 C   0  0  0  0  0  0  0  0  0  0  0  0
  146.1143  134.1392  153.3395 C   0  0  0  0  0  0  0  0  0  0  0  0
  140.7447  134.9358  153.1789 H   0  0  0  0  0  0  0  0  0  0  0  0
  142.0433  134.1755  154.0781 H   0  0  0  0  0  0  0  0  0  0  0  0
  141.5953  133.5673  152.4756 H   0  0  0  0  0  0  0  0  0  0  0  0
  144.7754  133.0987  151.2262 H   0  0  0  0  0  0  0  0  0  0  0  0
  143.2950  133.6037  150.4626 H   0  0  0  0  0  0  0  0  0  0  0  0
  143.2451  132.8344  152.0478 H   0  0  0  0  0  0  0  0  0  0  0  0
  145.5759  135.6403  150.8490 H   0  0  0  0  0  0  0  0  0  0  0  0
  144.1580  136.7442  150.8345 H   0  0  0  0  0  0  0  0  0  0  0  0
  144.3645  137.2170  153.2078 H   0  0  0  0  0  0  0  0  0  0  0  0
  147.1821  136.4517  152.4169 H   0  0  0  0  0  0  0  0  0  0  0  0
  148.7028  137.6205  152.9164 H   0  0  0  0  0  0  0  0  0  0  0  0
  147.4891  141.0536  153.7479 H   0  0  0  0  0  0  0  0  0  0  0  0
  149.5758  142.3863  154.9894 H   0  0  0  0  0  0  0  0  0  0  0  0
  144.9797  135.1282  155.5098 H   0  0  0  0  0  0  0  0  0  0  0  0
  143.8484  133.9348  154.8820 H   0  0  0  0  0  0  0  0  0  0  0  0
  143.4377  135.6424  154.8676 H   0  0  0  0  0  0  0  0  0  0  0  0
  146.8270  134.4261  154.1134 H   0  0  0  0  0  0  0  0  0  0  0  0
  146.6515  134.1562  152.3912 H   0  0  0  0  0  0  0  0  0  0  0  0
  145.8332  133.1033  153.5316 H   0  0  0  0  0  0  0  0  0  0  0  0
  1  2  1  0  0  0  0
  1 19  1  0  0  0  0
  1 20  1  0  0  0  0
  1 21  1  0  0  0  0
  2  3  1  0  0  0  0
  3 16  1  0  0  0  0
  3  4  1  0  0  0  0
  3  5  1  0  0  0  0
  4 22  1  0  0  0  0
  4 23  1  0  0  0  0
  4 24  1  0  0  0  0
  5  6  1  0  0  0  0
  5 25  1  0  0  0  0
  5 26  1  0  0  0  0
  6  7  1  0  0  0  0
  6 16  1  0  0  0  0
  6 27  1  0  0  0  0
  7  8  1  0  0  0  0
  7 28  1  0  0  0  0
  8  9  2  0  0  0  0
  8 10  1  0  0  0  0
 10 11  1  0  0  0  0
 10 29  1  0  0  0  0
 11 15  2  0  0  0  0
 11 12  1  0  0  0  0
 12 13  2  0  0  0  0
 12 30  1  0  0  0  0
 13 14  1  0  0  0  0
 13 31  1  0  0  0  0
 14 15  1  0  0  0  0
 16 17  1  0  0  0  0
 16 18  1  0  0  0  0
 17 32  1  0  0  0  0
 17 33  1  0  0  0  0
 17 34  1  0  0  0  0
 18 35  1  0  0  0  0
 18 36  1  0  0  0  0
 18 37  1  0  0  0  0
M  END
> <s_m_source_file>
AV-unprocessed.smi

> <i_m_source_file_index>
3315

> <i_lp_mmshare_version>
43012

> <i_f3d_flags>
0

> <s_epik_input>
W0NIM11PW0NAQF0xKFtDSDNdKVtDSDJdW0NASF0oQzEoW0NIM10pW0NIM10pW05IXUMoPU8pW05IXWMyW2NIXVtjSF1vbjI=

> <s_epik_cmdline>
J2VwaWtfcHl0aG9uJywgJy1waCcsICc3LjAnLCAnLXRuJywgJzgnLCAnLW1hJywgJzIwMCcsICctbWV0YWxfYmluZGluZycsICctaW1hZScsICc8aW5maWxlLm1hZT4nLCAnLW9tYWUnLCAnPG91dGZpbGUubWFlPic=

> <r_lp_tautomer_probability>
1

> <r_epik_Ionization_Penalty>
2.28875e-05

> <r_epik_Ionization_Penalty_Charging>
0

> <r_epik_Ionization_Penalty_Neutral>
2.28875e-05

> <r_epik_State_Penalty>
-0

> <r_epik_Charging_Adjusted_Penalty>
0

> <i_epik_Tot_Q>
0

> <i_epik_Tot_abs_Q>
0

> <r_epik_Metal_State_Penalty>
-0

> <b_epik_Metal_Only>
0

> <s_lp_Force_Field>
OPLS_2005

> <r_lp_Energy>
22.1239

> <b_lp_Chiralities_Consistent>
1

> <s_lp_Variant>
AV-unprocessed.smi:3315-3

> <Gold.Version>
5.8.1

> <Gold.Id.Protein>
6NUR|6NUR_protein|mol2

> <Gold.PLP.Fitness>
34.4521

> <Gold.PLP.PLP>
-24.1678

> <Gold.PLP.part.hbond>
-3.4652

> <Gold.PLP.part.metal>
0.0000

> <Gold.PLP.part.buried>
-1.2497

> <Gold.PLP.part.nonpolar>
-19.6240

> <Gold.PLP.part.repulsive>
0.6012

> <Gold.PLP.ligand.clash>
0.0000

> <Gold.PLP.ligand.torsion>
0.6639

> <Gold.PLP.Chemscore.Hbond>
2.7500

> <Gold.PLP.Chemscore.CHOScore>
0.9967

> <Gold.PLP.Chemscore.Metal>
0.0000

> <Gold.Chemscore.Hbonds>
donor molecule, donor type, donor heavy atom, donor atom, acceptor molecule, acceptor atom, score
      L1  H     7    28       P1  7948  1.00
      L1  H    10    29       P1  7948  1.00
      P1  H  7989  7998       L1    14  0.69
      L1  C    13    31       P1  8028  1.00

> <Gold.PLP.Chemscore.Internal.Correction>
0.3721

> <Gold.Rescore>
     Score         DG    S(hbond)    S(metal)    S(lipo)     H(rot)  DE(clash)    DE(int)     intcor
     13.77     -14.69       1.97        0.00      51.13       1.30       0.04       0.89       ----

> <Gold.Chemscore.Fitness>
13.7669

> <Gold.Chemscore.DG>
-14.6946

> <Gold.Chemscore.ZeroCoef>
-5.4800

> <Gold.Chemscore.Hbond>
1.9670

> <Gold.Chemscore.Metal>
0.0000

> <Gold.Chemscore.Lipo>
51.1336

> <Gold.Chemscore.Internal_Hbond>
0.0000

> <Gold.Chemscore.DEClash>
0.0405

> <Gold.Chemscore.DEInternal>
0.8872

> <Gold.Chemscore.Rot>
1.3038

> <Gold.Chemscore.Internal.Correction>
   9.000000E+99

> <Gold.Chemscore.Hbonds>
donor molecule, donor type, donor heavy atom, donor atom, acceptor molecule, acceptor atom, score
      L1  H     7    28       P1  7948  0.95
      L1  H    10    29       P1  7948  0.99
      P1  H  7989  7998       L1    14  0.02

> <Gold.Chemscore.Hbond.Weighted>
-6.5697

> <Gold.Chemscore.Metal.Weighted>
-0.0000

> <Gold.Chemscore.Lipo.Weighted>
-5.9826

> <Gold.Chemscore.Internal_Hbond.Weighted>
0.0000

> <Gold.Chemscore.DEClash.Weighted>
0.0405

> <Gold.Chemscore.DEInternal.Weighted>
0.8872

> <Gold.Chemscore.Rot.Weighted>
3.3377

> <Gold.Chemscore.Internal.Correction.Weighted>
   9.000000E+99

> <Gold.Protein.RotatedTorsions>
[ 6907 6896 6895 6894 ] final  -29.05 input  -60.11 | X-H torsion
[ 7974 7965 7964 7962 ] final -131.91 input  175.53 | X-H torsion
[ 8008 7997 7996 7995 ] final  135.46 input   59.86 | X-H torsion
[ 10167 10162 10161 10158 ] final  -31.59 input  -65.29 | X-H torsion
[ 10718 10713 10712 10709 ] final   37.42 input   66.30 | X-H torsion
[ 10763 10752 10751 10750 ] final   23.97 input  -60.55 | X-H torsion
[ 11005 11000 10999 10996 ] final  -27.48 input  -57.11 | X-H torsion

> <Gold.Protein.ActiveResidues>
 VAL166  LYS551  ARG553  GLY616  TRP617  ASP618  TYR619  PRO620  LYS621  CYS622 
 ASP623  PHE694  ASN695  SER759  ASP760  ASP761  ALA762  ILE779  LEU786  VAL792 
 PHE793  MET794  SER795  GLU796  ALA797  LYS798  CYS799  TRP800  GLU811  SER814 

> <Gold.Protein.RotatedAtoms>
  151.1245  135.0097  159.8553 H   0  0  0  0  0  0  0  0  0  0  0  0  # atno 6907 bound_to 6896
  152.5449  134.1683  159.8596 H   0  0  0  0  0  0  0  0  0  0  0  0  # atno 6908 bound_to 6896
  151.1744  133.4719  159.2627 H   0  0  0  0  0  0  0  0  0  0  0  0  # atno 6909 bound_to 6896
  144.9334  140.7156  143.4891 H   0  0  0  0  0  0  0  0  0  0  0  0  # atno 7974 bound_to 7965
  156.3003  140.2470  156.3585 H   0  0  0  0  0  0  0  0  0  0  0  0  # atno 8008 bound_to 7997
  154.8899  140.0409  157.1852 H   0  0  0  0  0  0  0  0  0  0  0  0  # atno 8009 bound_to 7997
  154.8608  140.2920  155.5544 H   0  0  0  0  0  0  0  0  0  0  0  0  # atno 8010 bound_to 7997
  140.7234  143.3759  151.1690 H   0  0  0  0  0  0  0  0  0  0  0  0  # atno 10167 bound_to 10162
  157.3467  130.7576  149.6949 H   0  0  0  0  0  0  0  0  0  0  0  0  # atno 10718 bound_to 10713
  153.0799  135.6615  154.0068 H   0  0  0  0  0  0  0  0  0  0  0  0  # atno 10763 bound_to 10752
  153.9692  135.2966  155.3430 H   0  0  0  0  0  0  0  0  0  0  0  0  # atno 10764 bound_to 10752
  154.7195  135.5170  153.8862 H   0  0  0  0  0  0  0  0  0  0  0  0  # atno 10765 bound_to 10752
  140.9123  133.7453  156.0687 H   0  0  0  0  0  0  0  0  0  0  0  0  # atno 11005 bound_to 11000
  145.3105  139.1820  143.4641 LP  0  0  0  0  0  0  0  0  0  0  0  0  # atno 17320 bound_to 7965
  146.3257  140.3108  142.8626 LP  0  0  0  0  0  0  0  0  0  0  0  0  # atno 17321 bound_to 7965
  139.7339  143.9029  152.3028 LP  0  0  0  0  0  0  0  0  0  0  0  0  # atno 17342 bound_to 10162
  139.8827  144.7008  150.8859 LP  0  0  0  0  0  0  0  0  0  0  0  0  # atno 17343 bound_to 10162
  155.9715  130.4152  150.4170 LP  0  0  0  0  0  0  0  0  0  0  0  0  # atno 17370 bound_to 10713
  157.2227  131.0486  151.2537 LP  0  0  0  0  0  0  0  0  0  0  0  0  # atno 17371 bound_to 10713
  140.8094  134.3417  157.5416 LP  0  0  0  0  0  0  0  0  0  0  0  0  # atno 17394 bound_to 11000
  139.8759  134.9245  156.3351 LP  0  0  0  0  0  0  0  0  0  0  0  0  # atno 17395 bound_to 11000

$$$$
