AV-unprocessed.smi:2025|AV-procd|sdf|8200|dock8
  -GOLD-   2272010453D 1   1.00000     0.00000
 Structure written by MMmdl.
 39 40  0  0  0  0  0  0  0  0  1 V2000
  153.2938  142.5516  162.2514 C   0  0  0  0  0  0  0  0  0  0  0  0
  153.2319  142.7209  160.7255 C   0  0  1  0  0  0  0  0  0  0  0  0
  152.9124  141.4265  160.1275 N   0  0  0  0  0  0  0  0  0  0  0  0
  153.7775  140.4191  159.9322 C   0  0  0  0  0  0  0  0  0  0  0  0
  154.9684  140.4784  160.2418 O   0  0  0  0  0  0  0  0  0  0  0  0
  153.2042  139.1648  159.2590 C   0  0  0  0  0  0  0  0  0  0  0  0
  152.5407  139.4503  157.9801 N   0  0  0  0  0  0  0  0  0  0  0  0
  151.3084  140.0784  157.9748 C   0  0  0  0  0  0  0  0  0  0  0  0
  150.6386  140.3950  156.8453 C   0  0  0  0  0  0  0  0  0  0  0  0
  151.1926  140.0781  155.5350 C   0  0  0  0  0  0  0  0  0  0  0  0
  150.6294  140.3609  154.4765 O   0  0  0  0  0  0  0  0  0  0  0  0
  152.4459  139.4238  155.5679 N   0  0  0  0  0  0  0  0  0  0  0  0
  153.0505  139.0995  154.2923 C   0  0  0  0  0  0  0  0  0  0  0  0
  153.1519  139.1119  156.7531 C   0  0  0  0  0  0  0  0  0  0  0  0
  154.2608  138.5721  156.7373 O   0  0  0  0  0  0  0  0  0  0  0  0
  152.1872  143.7711  160.2926 C   0  0  1  0  0  0  0  0  0  0  0  0
  152.1513  144.0549  158.7919 C   0  0  0  0  0  0  0  0  0  0  0  0
  150.7787  144.6687  158.6246 C   0  0  0  0  0  0  0  0  0  0  0  0
  149.9425  143.9197  159.6623 C   0  0  0  0  0  0  0  0  0  0  0  0
  150.8668  143.3116  160.5610 O   0  0  0  0  0  0  0  0  0  0  0  0
  153.5948  143.4770  162.7429 H   0  0  0  0  0  0  0  0  0  0  0  0
  154.0189  141.7867  162.5317 H   0  0  0  0  0  0  0  0  0  0  0  0
  152.3256  142.2580  162.6584 H   0  0  0  0  0  0  0  0  0  0  0  0
  154.2182  143.0474  160.3906 H   0  0  0  0  0  0  0  0  0  0  0  0
  151.9567  141.2884  159.8325 H   0  0  0  0  0  0  0  0  0  0  0  0
  153.9962  138.4274  159.1157 H   0  0  0  0  0  0  0  0  0  0  0  0
  152.4954  138.7042  159.9485 H   0  0  0  0  0  0  0  0  0  0  0  0
  150.8587  140.3376  158.9224 H   0  0  0  0  0  0  0  0  0  0  0  0
  149.6818  140.8917  156.9119 H   0  0  0  0  0  0  0  0  0  0  0  0
  153.8205  138.3374  154.4134 H   0  0  0  0  0  0  0  0  0  0  0  0
  153.4716  140.0251  153.8973 H   0  0  0  0  0  0  0  0  0  0  0  0
  152.2758  138.7000  153.6353 H   0  0  0  0  0  0  0  0  0  0  0  0
  152.3399  144.7060  160.8352 H   0  0  0  0  0  0  0  0  0  0  0  0
  152.9521  144.7172  158.4614 H   0  0  0  0  0  0  0  0  0  0  0  0
  152.2174  143.1253  158.2245 H   0  0  0  0  0  0  0  0  0  0  0  0
  150.8147  145.7306  158.8714 H   0  0  0  0  0  0  0  0  0  0  0  0
  150.3883  144.5692  157.6112 H   0  0  0  0  0  0  0  0  0  0  0  0
  149.2706  144.5929  160.1958 H   0  0  0  0  0  0  0  0  0  0  0  0
  149.3402  143.1394  159.1960 H   0  0  0  0  0  0  0  0  0  0  0  0
  1  2  1  0  0  0  0
  1 21  1  0  0  0  0
  1 22  1  0  0  0  0
  1 23  1  0  0  0  0
  2  3  1  0  0  0  0
  2 16  1  0  0  0  0
  2 24  1  0  0  0  0
  3  4  1  0  0  0  0
  3 25  1  0  0  0  0
  4  5  2  0  0  0  0
  4  6  1  0  0  0  0
  6  7  1  0  0  0  0
  6 26  1  0  0  0  0
  6 27  1  0  0  0  0
  7 14  1  0  0  0  0
  7  8  1  0  0  0  0
  8  9  2  0  0  0  0
  8 28  1  0  0  0  0
  9 10  1  0  0  0  0
  9 29  1  0  0  0  0
 10 11  2  0  0  0  0
 10 12  1  0  0  0  0
 12 13  1  0  0  0  0
 12 14  1  0  0  0  0
 13 30  1  0  0  0  0
 13 31  1  0  0  0  0
 13 32  1  0  0  0  0
 14 15  2  0  0  0  0
 16 20  1  0  0  0  0
 16 17  1  0  0  0  0
 16 33  1  0  0  0  0
 17 18  1  0  0  0  0
 17 34  1  0  0  0  0
 17 35  1  0  0  0  0
 18 19  1  0  0  0  0
 18 36  1  0  0  0  0
 18 37  1  0  0  0  0
 19 20  1  0  0  0  0
 19 38  1  0  0  0  0
 19 39  1  0  0  0  0
M  END
> <s_m_source_file>
AV-unprocessed.smi

> <i_m_source_file_index>
2025

> <i_lp_mmshare_version>
43012

> <i_f3d_flags>
0

> <s_epik_input>
TzFbQ0gyXVtDSDJdW0NIMl1bQ0BIXTFbQ0BIXShbQ0gzXSlbTkhdQyg9TylbQ0gyXW4yW2NIXVtjSF1jKD1PKW4oW0NIM10pYzI9Tw==

> <s_epik_cmdline>
J2VwaWtfcHl0aG9uJywgJy1waCcsICc3LjAnLCAnLXRuJywgJzgnLCAnLW1hJywgJzIwMCcsICctbWV0YWxfYmluZGluZycsICctaW1hZScsICc8aW5maWxlLm1hZT4nLCAnLW9tYWUnLCAnPG91dGZpbGUubWFlPic=

> <r_lp_tautomer_probability>
1

> <r_epik_Ionization_Penalty>
3.54787e-08

> <r_epik_Ionization_Penalty_Charging>
1.24654e-08

> <r_epik_Ionization_Penalty_Neutral>
2.30132e-08

> <r_epik_State_Penalty>
-0

> <r_epik_Charging_Adjusted_Penalty>
1.24654e-08

> <i_epik_Tot_Q>
0

> <i_epik_Tot_abs_Q>
0

> <r_epik_Metal_State_Penalty>
-0

> <b_epik_Metal_Only>
0

> <s_lp_Force_Field>
OPLS_2005

> <r_lp_Energy>
25.8508

> <b_lp_Chiralities_Consistent>
1

> <s_lp_Variant>
AV-unprocessed.smi:2025-4

> <Gold.Version>
5.8.1

> <Gold.Id.Protein>
6NUR|6NUR_protein|mol2

> <Gold.PLP.Fitness>
47.5216

> <Gold.PLP.PLP>
-45.1586

> <Gold.PLP.part.hbond>
-2.6884

> <Gold.PLP.part.metal>
0.0000

> <Gold.PLP.part.buried>
-6.3009

> <Gold.PLP.part.nonpolar>
-36.0471

> <Gold.PLP.part.repulsive>
0.3114

> <Gold.PLP.ligand.clash>
0.0000

> <Gold.PLP.ligand.torsion>
0.5145

> <Gold.PLP.Chemscore.Hbond>
1.1236

> <Gold.PLP.Chemscore.CHOScore>
0.0000

> <Gold.PLP.Chemscore.Metal>
0.0000

> <Gold.Chemscore.Hbonds>
donor molecule, donor type, donor heavy atom, donor atom, acceptor molecule, acceptor atom, score
      P1  H  7989  7998       L1    11  0.89
      P1  H  7997  8009       L1    15  0.10

> <Gold.PLP.Chemscore.Internal.Correction>
0.0213

> <Gold.Rescore>
     Score         DG    S(hbond)    S(metal)    S(lipo)     H(rot)  DE(clash)    DE(int)     intcor
     14.11     -15.62       0.98        0.00      98.69       1.82       0.06       1.45       ----

> <Gold.Chemscore.Fitness>
14.1055

> <Gold.Chemscore.DG>
-15.6225

> <Gold.Chemscore.ZeroCoef>
-5.4800

> <Gold.Chemscore.Hbond>
0.9768

> <Gold.Chemscore.Metal>
0.0000

> <Gold.Chemscore.Lipo>
98.6880

> <Gold.Chemscore.Internal_Hbond>
0.0000

> <Gold.Chemscore.DEClash>
0.0645

> <Gold.Chemscore.DEInternal>
1.4525

> <Gold.Chemscore.Rot>
1.8228

> <Gold.Chemscore.Internal.Correction>
   9.000000E+99

> <Gold.Chemscore.Hbonds>
donor molecule, donor type, donor heavy atom, donor atom, acceptor molecule, acceptor atom, score
      P1  H  7989  7998       L1    11  0.64

> <Gold.Chemscore.Hbond.Weighted>
-3.2625

> <Gold.Chemscore.Metal.Weighted>
-0.0000

> <Gold.Chemscore.Lipo.Weighted>
-11.5465

> <Gold.Chemscore.Internal_Hbond.Weighted>
0.0000

> <Gold.Chemscore.DEClash.Weighted>
0.0645

> <Gold.Chemscore.DEInternal.Weighted>
1.4525

> <Gold.Chemscore.Rot.Weighted>
4.6665

> <Gold.Chemscore.Internal.Correction.Weighted>
   9.000000E+99

> <Gold.Protein.RotatedTorsions>
[ 6907 6896 6895 6894 ] final -109.51 input  -60.11 | X-H torsion
[ 7974 7965 7964 7962 ] final   14.03 input  175.53 | X-H torsion
[ 8008 7997 7996 7995 ] final  133.98 input   59.86 | X-H torsion
[ 10167 10162 10161 10158 ] final    7.45 input  -65.29 | X-H torsion
[ 10718 10713 10712 10709 ] final -110.56 input   66.30 | X-H torsion
[ 10763 10752 10751 10750 ] final   27.04 input  -60.55 | X-H torsion
[ 11005 11000 10999 10996 ] final   44.55 input  -57.11 | X-H torsion

> <Gold.Protein.ActiveResidues>
 VAL166  LYS551  ARG553  GLY616  TRP617  ASP618  TYR619  PRO620  LYS621  CYS622 
 ASP623  PHE694  ASN695  SER759  ASP760  ASP761  ALA762  ILE779  LEU786  VAL792 
 PHE793  MET794  SER795  GLU796  ALA797  LYS798  CYS799  TRP800  GLU811  SER814 

> <Gold.Protein.RotatedAtoms>
  150.7567  133.9518  159.3487 H   0  0  0  0  0  0  0  0  0  0  0  0  # atno 6907 bound_to 6896
  151.7436  135.0847  160.0329 H   0  0  0  0  0  0  0  0  0  0  0  0  # atno 6908 bound_to 6896
  152.3512  133.6145  159.5982 H   0  0  0  0  0  0  0  0  0  0  0  0  # atno 6909 bound_to 6896
  146.2315  139.9102  142.8525 H   0  0  0  0  0  0  0  0  0  0  0  0  # atno 7974 bound_to 7965
  156.2996  140.2507  156.3342 H   0  0  0  0  0  0  0  0  0  0  0  0  # atno 8008 bound_to 7997
  154.9116  140.0403  157.1968 H   0  0  0  0  0  0  0  0  0  0  0  0  # atno 8009 bound_to 7997
  154.8400  140.2889  155.5670 H   0  0  0  0  0  0  0  0  0  0  0  0  # atno 8010 bound_to 7997
  140.6371  143.7861  150.7375 H   0  0  0  0  0  0  0  0  0  0  0  0  # atno 10167 bound_to 10162
  156.0598  130.5822  150.8254 H   0  0  0  0  0  0  0  0  0  0  0  0  # atno 10718 bound_to 10713
  153.0582  135.6546  154.0527 H   0  0  0  0  0  0  0  0  0  0  0  0  # atno 10763 bound_to 10752
  154.0200  135.2920  155.3383 H   0  0  0  0  0  0  0  0  0  0  0  0  # atno 10764 bound_to 10752
  154.6907  135.5284  153.8456 H   0  0  0  0  0  0  0  0  0  0  0  0  # atno 10765 bound_to 10752
  140.1541  134.4424  155.8361 H   0  0  0  0  0  0  0  0  0  0  0  0  # atno 11005 bound_to 11000
  145.2237  140.9945  143.4030 LP  0  0  0  0  0  0  0  0  0  0  0  0  # atno 17320 bound_to 7965
  144.9588  139.4002  143.6366 LP  0  0  0  0  0  0  0  0  0  0  0  0  # atno 17321 bound_to 7965
  140.1484  143.4379  152.2147 LP  0  0  0  0  0  0  0  0  0  0  0  0  # atno 17342 bound_to 10162
  139.5581  144.7387  151.4235 LP  0  0  0  0  0  0  0  0  0  0  0  0  # atno 17343 bound_to 10162
  157.5597  131.0945  150.9577 LP  0  0  0  0  0  0  0  0  0  0  0  0  # atno 17370 bound_to 10713
  156.9817  130.5529  149.5297 LP  0  0  0  0  0  0  0  0  0  0  0  0  # atno 17371 bound_to 10713
  141.2202  133.6885  156.7476 LP  0  0  0  0  0  0  0  0  0  0  0  0  # atno 17394 bound_to 11000
  140.2568  134.8497  157.3721 LP  0  0  0  0  0  0  0  0  0  0  0  0  # atno 17395 bound_to 11000

$$$$
