AV-unprocessed.smi:2990|AV-procd|sdf|11396|dock3
  -GOLD-   2272016323D 1   1.00000     0.00000
 Structure written by MMmdl.
 40 42  0  0  0  0  0  0  0  0  2 V2000
  149.6049  141.1690  154.8080 C   0  0  0  0  0  0  0  0  0  0  0  0
  150.3554  141.6204  156.0159 C   0  0  0  0  0  0  0  0  0  0  0  0
  150.3087  142.8651  156.5696 N   0  3  0  0  0  0  0  0  0  0  0  0
  151.1459  142.9177  157.6854 C   0  0  0  0  0  0  0  0  0  0  0  0
  151.4286  143.9578  158.5654 C   0  0  0  0  0  0  0  0  0  0  0  0
  152.3365  143.6756  159.6075 C   0  0  0  0  0  0  0  0  0  0  0  0
  152.9256  142.4015  159.7438 C   0  0  0  0  0  0  0  0  0  0  0  0
  152.6325  141.3553  158.8440 C   0  0  0  0  0  0  0  0  0  0  0  0
  151.7322  141.6426  157.8185 C   0  0  0  0  0  0  0  0  0  0  0  0
  151.2128  140.8752  156.7706 N   0  0  0  0  0  0  0  0  0  0  0  0
  151.6378  139.4745  156.6287 C   0  0  0  0  0  0  0  0  0  0  0  0
  151.9891  139.0942  155.1760 C   0  0  1  0  0  0  0  0  0  0  0  0
  153.3618  138.7692  155.0854 O   0  0  0  0  0  0  0  0  0  0  0  0
  151.1680  137.8995  154.6711 C   0  0  0  0  0  0  0  0  0  0  0  0
  151.6104  136.7244  155.3378 O   0  0  0  0  0  0  0  0  0  0  0  0
  150.7608  135.6400  155.3813 C   0  0  0  0  0  0  0  0  0  0  0  0
  151.2268  134.4886  156.0493 C   0  0  0  0  0  0  0  0  0  0  0  0
  150.4255  133.3342  156.1414 C   0  0  0  0  0  0  0  0  0  0  0  0
  149.1424  133.3209  155.5640 C   0  0  0  0  0  0  0  0  0  0  0  0
  148.6638  134.4631  154.8960 C   0  0  0  0  0  0  0  0  0  0  0  0
  149.4658  135.6176  154.8036 C   0  0  0  0  0  0  0  0  0  0  0  0
  148.9006  141.9360  154.4852 H   0  0  0  0  0  0  0  0  0  0  0  0
  149.0479  140.2578  155.0269 H   0  0  0  0  0  0  0  0  0  0  0  0
  150.2971  140.9667  153.9905 H   0  0  0  0  0  0  0  0  0  0  0  0
  150.9795  144.9348  158.4625 H   0  0  0  0  0  0  0  0  0  0  0  0
  152.5861  144.4520  160.3163 H   0  0  0  0  0  0  0  0  0  0  0  0
  153.6167  142.2230  160.5547 H   0  0  0  0  0  0  0  0  0  0  0  0
  153.0888  140.3828  158.9556 H   0  0  0  0  0  0  0  0  0  0  0  0
  152.4996  139.3213  157.2792 H   0  0  0  0  0  0  0  0  0  0  0  0
  150.8443  138.8361  157.0190 H   0  0  0  0  0  0  0  0  0  0  0  0
  151.8129  139.9449  154.5173 H   0  0  0  0  0  0  0  0  0  0  0  0
  153.5197  137.9930  155.6002 H   0  0  0  0  0  0  0  0  0  0  0  0
  150.1106  138.0633  154.8869 H   0  0  0  0  0  0  0  0  0  0  0  0
  151.2823  137.7976  153.5905 H   0  0  0  0  0  0  0  0  0  0  0  0
  152.2109  134.4897  156.4948 H   0  0  0  0  0  0  0  0  0  0  0  0
  150.7959  132.4594  156.6552 H   0  0  0  0  0  0  0  0  0  0  0  0
  148.5264  132.4364  155.6337 H   0  0  0  0  0  0  0  0  0  0  0  0
  147.6787  134.4550  154.4531 H   0  0  0  0  0  0  0  0  0  0  0  0
  149.0629  136.4738  154.2847 H   0  0  0  0  0  0  0  0  0  0  0  0
  149.7449  143.6233  156.2071 H   0  0  0  0  0  0  0  0  0  0  0  0
  1  2  1  0  0  0  0
  1 22  1  0  0  0  0
  1 23  1  0  0  0  0
  1 24  1  0  0  0  0
  2 10  1  0  0  0  0
  2  3  2  0  0  0  0
  3  4  1  0  0  0  0
  3 40  1  0  0  0  0
  4  9  2  0  0  0  0
  4  5  1  0  0  0  0
  5  6  2  0  0  0  0
  5 25  1  0  0  0  0
  6  7  1  0  0  0  0
  6 26  1  0  0  0  0
  7  8  2  0  0  0  0
  7 27  1  0  0  0  0
  8  9  1  0  0  0  0
  8 28  1  0  0  0  0
  9 10  1  0  0  0  0
 10 11  1  0  0  0  0
 11 12  1  0  0  0  0
 11 29  1  0  0  0  0
 11 30  1  0  0  0  0
 12 13  1  0  0  0  0
 12 14  1  0  0  0  0
 12 31  1  0  0  0  0
 13 32  1  0  0  0  0
 14 15  1  0  0  0  0
 14 33  1  0  0  0  0
 14 34  1  0  0  0  0
 15 16  1  0  0  0  0
 16 21  1  0  0  0  0
 16 17  2  0  0  0  0
 17 18  1  0  0  0  0
 17 35  1  0  0  0  0
 18 19  2  0  0  0  0
 18 36  1  0  0  0  0
 19 20  1  0  0  0  0
 19 37  1  0  0  0  0
 20 21  2  0  0  0  0
 20 38  1  0  0  0  0
 21 39  1  0  0  0  0
M  CHG  1   3   1
M  END
> <s_m_source_file>
AV-unprocessed.smi

> <i_m_source_file_index>
2990

> <i_lp_mmshare_version>
43012

> <i_f3d_flags>
0

> <s_epik_input>
W2NIXTFbY0hdW2NIXVtjSF1jKGMxMiluKGMobjIpW0NIM10pW0NIMl1bQ0BIXShbT0hdKVtDSDJdT2MzW2NIXVtjSF1bY0hdW2NIXVtjSF0z

> <s_epik_cmdline>
J2VwaWtfcHl0aG9uJywgJy1waCcsICc3LjAnLCAnLXRuJywgJzgnLCAnLW1hJywgJzIwMCcsICctbWV0YWxfYmluZGluZycsICctaW1hZScsICc8aW5maWxlLm1hZT4nLCAnLW9tYWUnLCAnPG91dGZpbGUubWFlPic=

> <r_lp_tautomer_probability>
1

> <r_epik_Ionization_Penalty>
1.00673

> <r_epik_Ionization_Penalty_Charging>
1.00673

> <r_epik_Ionization_Penalty_Neutral>
2.3993e-06

> <r_epik_State_Penalty>
1.05579

> <r_epik_Charging_Adjusted_Penalty>
2.06252

> <i_epik_Tot_Q>
1

> <i_epik_Tot_abs_Q>
1

> <r_epik_Metal_State_Penalty>
5.03947

> <b_epik_Metal_Only>
0

> <s_lp_Force_Field>
OPLS_2005

> <r_lp_Energy>
17.9265

> <b_lp_Chiralities_Consistent>
1

> <s_lp_Variant>
AV-unprocessed.smi:2990-4

> <Gold.Version>
5.8.1

> <Gold.Id.Protein>
6NUR|6NUR_protein|mol2

> <Gold.PLP.Fitness>
53.2630

> <Gold.PLP.PLP>
-44.3230

> <Gold.PLP.part.hbond>
-3.0000

> <Gold.PLP.part.metal>
0.0000

> <Gold.PLP.part.buried>
-5.0818

> <Gold.PLP.part.nonpolar>
-36.7392

> <Gold.PLP.part.repulsive>
0.1333

> <Gold.PLP.ligand.clash>
0.0000

> <Gold.PLP.ligand.torsion>
1.0801

> <Gold.PLP.Chemscore.Hbond>
3.6420

> <Gold.PLP.Chemscore.CHOScore>
0.0000

> <Gold.PLP.Chemscore.Metal>
0.0000

> <Gold.Chemscore.Hbonds>
donor molecule, donor type, donor heavy atom, donor atom, acceptor molecule, acceptor atom, score
      L1  H     3    40       P1  8028  1.82
      P1  H  7997  8010       L1    13  1.00
      P1  H 10752 10765       L1    15  0.45

> <Gold.PLP.Chemscore.Internal.Correction>
0.1741

> <Gold.Rescore>
     Score         DG    S(hbond)    S(metal)    S(lipo)     H(rot)  DE(clash)    DE(int)     intcor
     18.55     -19.63       1.75        0.00     117.18       2.12       0.00       1.07       ----

> <Gold.Chemscore.Fitness>
18.5497

> <Gold.Chemscore.DG>
-19.6266

> <Gold.Chemscore.ZeroCoef>
-5.4800

> <Gold.Chemscore.Hbond>
1.7545

> <Gold.Chemscore.Metal>
0.0000

> <Gold.Chemscore.Lipo>
117.1766

> <Gold.Chemscore.Internal_Hbond>
0.0000

> <Gold.Chemscore.DEClash>
0.0029

> <Gold.Chemscore.DEInternal>
1.0740

> <Gold.Chemscore.Rot>
2.1184

> <Gold.Chemscore.Internal.Correction>
   9.000000E+99

> <Gold.Chemscore.Hbonds>
donor molecule, donor type, donor heavy atom, donor atom, acceptor molecule, acceptor atom, score
      L1  H     3    40       P1  8028  0.87
      P1  H  7997  8010       L1    13  0.37
      P1  H 10752 10765       L1    15  0.02

> <Gold.Chemscore.Hbond.Weighted>
-5.8601

> <Gold.Chemscore.Metal.Weighted>
-0.0000

> <Gold.Chemscore.Lipo.Weighted>
-13.7097

> <Gold.Chemscore.Internal_Hbond.Weighted>
0.0000

> <Gold.Chemscore.DEClash.Weighted>
0.0029

> <Gold.Chemscore.DEInternal.Weighted>
1.0740

> <Gold.Chemscore.Rot.Weighted>
5.4231

> <Gold.Chemscore.Internal.Correction.Weighted>
   9.000000E+99

> <Gold.Protein.RotatedTorsions>
[ 6907 6896 6895 6894 ] final  132.04 input  -60.11 | X-H torsion
[ 7974 7965 7964 7962 ] final    4.87 input  175.53 | X-H torsion
[ 8008 7997 7996 7995 ] final  101.73 input   59.86 | X-H torsion
[ 10167 10162 10161 10158 ] final   70.81 input  -65.29 | X-H torsion
[ 10718 10713 10712 10709 ] final  -79.49 input   66.30 | X-H torsion
[ 10763 10752 10751 10750 ] final  175.50 input  -60.55 | X-H torsion
[ 11005 11000 10999 10996 ] final -148.47 input  -57.11 | X-H torsion

> <Gold.Protein.ActiveResidues>
 VAL166  LYS551  ARG553  GLY616  TRP617  ASP618  TYR619  PRO620  LYS621  CYS622 
 ASP623  PHE694  ASN695  SER759  ASP760  ASP761  ALA762  ILE779  LEU786  VAL792 
 PHE793  MET794  SER795  GLU796  ALA797  LYS798  CYS799  TRP800  GLU811  SER814 

> <Gold.Protein.RotatedAtoms>
  152.3365  133.6018  159.5846 H   0  0  0  0  0  0  0  0  0  0  0  0  # atno 6907 bound_to 6896
  150.7453  133.9788  159.3578 H   0  0  0  0  0  0  0  0  0  0  0  0  # atno 6908 bound_to 6896
  151.7657  135.0800  160.0403 H   0  0  0  0  0  0  0  0  0  0  0  0  # atno 6909 bound_to 6896
  146.2442  140.0469  142.8378 H   0  0  0  0  0  0  0  0  0  0  0  0  # atno 7974 bound_to 7965
  156.1327  140.3193  155.8373 H   0  0  0  0  0  0  0  0  0  0  0  0  # atno 8008 bound_to 7997
  155.4303  140.0518  157.3036 H   0  0  0  0  0  0  0  0  0  0  0  0  # atno 8009 bound_to 7997
  154.4912  140.2093  155.9558 H   0  0  0  0  0  0  0  0  0  0  0  0  # atno 8010 bound_to 7997
  140.0529  144.5297  150.7350 H   0  0  0  0  0  0  0  0  0  0  0  0  # atno 10167 bound_to 10162
  156.0091  130.4547  150.3656 H   0  0  0  0  0  0  0  0  0  0  0  0  # atno 10718 bound_to 10713
  154.4685  135.2770  155.1660 H   0  0  0  0  0  0  0  0  0  0  0  0  # atno 10763 bound_to 10752
  154.3419  135.6168  153.5604 H   0  0  0  0  0  0  0  0  0  0  0  0  # atno 10764 bound_to 10752
  152.9862  135.5790  154.5061 H   0  0  0  0  0  0  0  0  0  0  0  0  # atno 10765 bound_to 10752
  140.7609  134.3299  157.5102 H   0  0  0  0  0  0  0  0  0  0  0  0  # atno 11005 bound_to 11000
  145.1019  140.9351  143.4707 LP  0  0  0  0  0  0  0  0  0  0  0  0  # atno 17320 bound_to 7965
  145.0663  139.3066  143.5854 LP  0  0  0  0  0  0  0  0  0  0  0  0  # atno 17321 bound_to 7965
  140.7208  143.2587  151.4284 LP  0  0  0  0  0  0  0  0  0  0  0  0  # atno 17342 bound_to 10162
  139.5941  144.1434  152.2124 LP  0  0  0  0  0  0  0  0  0  0  0  0  # atno 17343 bound_to 10162
  157.1743  131.0376  151.2780 LP  0  0  0  0  0  0  0  0  0  0  0  0  # atno 17370 bound_to 10713
  157.4201  130.7433  149.6907 LP  0  0  0  0  0  0  0  0  0  0  0  0  # atno 17371 bound_to 10713
  139.8771  134.9201  156.3243 LP  0  0  0  0  0  0  0  0  0  0  0  0  # atno 17394 bound_to 11000
  140.9664  133.7355  156.0473 LP  0  0  0  0  0  0  0  0  0  0  0  0  # atno 17395 bound_to 11000

$$$$
