AV-unprocessed.smi:3317|AV-procd|sdf|12761|dock1
  -GOLD-   2272019 93D 1   1.00000     0.00000
 Structure written by MMmdl.
 36 37  0  0  0  0  0  0  0  0  1 V2000
  151.2688  145.3557  159.9799 C   0  0  0  0  0  0  0  0  0  0  0  0
  151.3507  144.0705  159.3813 O   0  0  0  0  0  0  0  0  0  0  0  0
  152.1866  143.1331  159.9563 C   0  0  0  0  0  0  0  0  0  0  0  0
  152.8875  143.3471  161.1706 C   0  0  0  0  0  0  0  0  0  0  0  0
  153.7153  142.3308  161.6776 C   0  0  0  0  0  0  0  0  0  0  0  0
  153.8153  141.1323  160.9522 C   0  0  0  0  0  0  0  0  0  0  0  0
  153.1565  140.9160  159.7970 N   0  0  0  0  0  0  0  0  0  0  0  0
  152.3536  141.8878  159.2961 C   0  0  0  0  0  0  0  0  0  0  0  0
  151.6271  141.7395  158.0832 N   0  0  0  0  0  0  0  0  0  0  0  0
  151.7602  140.7977  157.1301 C   0  0  0  0  0  0  0  0  0  0  0  0
  152.5789  139.8792  157.1593 O   0  0  0  0  0  0  0  0  0  0  0  0
  150.8222  140.9264  155.9303 C   0  0  0  0  0  0  0  0  0  0  0  0
  149.5220  141.2715  156.3895 O   0  0  0  0  0  0  0  0  0  0  0  0
  148.4992  140.3860  155.9535 C   0  0  0  0  0  0  0  0  0  0  0  0
  148.3627  140.5404  154.4388 C   0  0  0  0  0  0  0  0  0  0  0  0
  147.4966  141.7888  154.2374 C   0  0  0  0  0  0  0  0  0  0  0  0
  146.6882  141.9635  155.5321 C   0  0  0  0  0  0  0  0  0  0  0  0
  147.1268  140.8331  156.4706 C   0  0  0  0  0  0  0  0  0  0  0  0
  150.5702  145.9715  159.4136 H   0  0  0  0  0  0  0  0  0  0  0  0
  152.2355  145.8610  159.9708 H   0  0  0  0  0  0  0  0  0  0  0  0
  150.8998  145.2975  161.0047 H   0  0  0  0  0  0  0  0  0  0  0  0
  152.8072  144.2701  161.7246 H   0  0  0  0  0  0  0  0  0  0  0  0
  154.2603  142.4672  162.5999 H   0  0  0  0  0  0  0  0  0  0  0  0
  154.4404  140.3266  161.3076 H   0  0  0  0  0  0  0  0  0  0  0  0
  150.9093  142.4317  157.9241 H   0  0  0  0  0  0  0  0  0  0  0  0
  151.2081  141.6990  155.2639 H   0  0  0  0  0  0  0  0  0  0  0  0
  150.8062  139.9867  155.3773 H   0  0  0  0  0  0  0  0  0  0  0  0
  148.7354  139.3550  156.2227 H   0  0  0  0  0  0  0  0  0  0  0  0
  149.3258  140.6088  153.9316 H   0  0  0  0  0  0  0  0  0  0  0  0
  147.8411  139.6720  154.0345 H   0  0  0  0  0  0  0  0  0  0  0  0
  148.1313  142.6620  154.0815 H   0  0  0  0  0  0  0  0  0  0  0  0
  146.8539  141.6921  153.3620 H   0  0  0  0  0  0  0  0  0  0  0  0
  146.9146  142.9322  155.9795 H   0  0  0  0  0  0  0  0  0  0  0  0
  145.6138  141.9321  155.3490 H   0  0  0  0  0  0  0  0  0  0  0  0
  146.4260  140.0022  156.3799 H   0  0  0  0  0  0  0  0  0  0  0  0
  147.1289  141.1376  157.5168 H   0  0  0  0  0  0  0  0  0  0  0  0
  1  2  1  0  0  0  0
  1 19  1  0  0  0  0
  1 20  1  0  0  0  0
  1 21  1  0  0  0  0
  2  3  1  0  0  0  0
  3  8  1  0  0  0  0
  3  4  2  0  0  0  0
  4  5  1  0  0  0  0
  4 22  1  0  0  0  0
  5  6  2  0  0  0  0
  5 23  1  0  0  0  0
  6  7  1  0  0  0  0
  6 24  1  0  0  0  0
  7  8  2  0  0  0  0
  8  9  1  0  0  0  0
  9 10  1  0  0  0  0
  9 25  1  0  0  0  0
 10 11  2  0  0  0  0
 10 12  1  0  0  0  0
 12 13  1  0  0  0  0
 12 26  1  0  0  0  0
 12 27  1  0  0  0  0
 13 14  1  0  0  0  0
 14 18  1  0  0  0  0
 14 15  1  0  0  0  0
 14 28  1  0  0  0  0
 15 16  1  0  0  0  0
 15 29  1  0  0  0  0
 15 30  1  0  0  0  0
 16 17  1  0  0  0  0
 16 31  1  0  0  0  0
 16 32  1  0  0  0  0
 17 18  1  0  0  0  0
 17 33  1  0  0  0  0
 17 34  1  0  0  0  0
 18 35  1  0  0  0  0
 18 36  1  0  0  0  0
M  END
> <s_m_source_file>
AV-unprocessed.smi

> <i_m_source_file_index>
3317

> <i_lp_mmshare_version>
43012

> <i_f3d_flags>
0

> <s_epik_input>
W0NIM11PYzFbY0hdW2NIXVtjSF1uYzFbTkhdQyg9TylbQ0gyXU9bQ0hdMltDSDJdW0NIMl1bQ0gyXVtDSDJdMg==

> <s_epik_cmdline>
J2VwaWtfcHl0aG9uJywgJy1waCcsICc3LjAnLCAnLXRuJywgJzgnLCAnLW1hJywgJzIwMCcsICctbWV0YWxfYmluZGluZycsICctaW1hZScsICc8aW5maWxlLm1hZT4nLCAnLW9tYWUnLCAnPG91dGZpbGUubWFlPic=

> <r_lp_tautomer_probability>
1

> <r_epik_Ionization_Penalty>
0.000545986

> <r_epik_Ionization_Penalty_Charging>
0

> <r_epik_Ionization_Penalty_Neutral>
0.000545986

> <r_epik_State_Penalty>
-0

> <r_epik_Charging_Adjusted_Penalty>
0

> <i_epik_Tot_Q>
0

> <i_epik_Tot_abs_Q>
0

> <r_epik_Metal_State_Penalty>
-0

> <b_epik_Metal_Only>
0

> <s_lp_Force_Field>
OPLS_2005

> <r_lp_Energy>
28.4297

> <b_lp_Chiralities_Consistent>
1

> <s_lp_Variant>
AV-unprocessed.smi:3317-1

> <Gold.Version>
5.8.1

> <Gold.Id.Protein>
6NUR|6NUR_protein|mol2

> <Gold.PLP.Fitness>
38.8546

> <Gold.PLP.PLP>
-37.1629

> <Gold.PLP.part.hbond>
-1.0000

> <Gold.PLP.part.metal>
0.0000

> <Gold.PLP.part.buried>
-6.3203

> <Gold.PLP.part.nonpolar>
-29.3203

> <Gold.PLP.part.repulsive>
0.2180

> <Gold.PLP.ligand.clash>
0.0000

> <Gold.PLP.ligand.torsion>
0.6981

> <Gold.PLP.Chemscore.Hbond>
1.0000

> <Gold.PLP.Chemscore.CHOScore>
0.0000

> <Gold.PLP.Chemscore.Metal>
0.0000

> <Gold.Chemscore.Hbonds>
donor molecule, donor type, donor heavy atom, donor atom, acceptor molecule, acceptor atom, score
      P1  H  7997  8008       L1    11  1.00

> <Gold.PLP.Chemscore.Internal.Correction>
0.0879

> <Gold.Rescore>
     Score         DG    S(hbond)    S(metal)    S(lipo)     H(rot)  DE(clash)    DE(int)     intcor
     13.09     -15.14       0.99        0.00      89.50       1.61       0.02       2.03       ----

> <Gold.Chemscore.Fitness>
13.0912

> <Gold.Chemscore.DG>
-15.1436

> <Gold.Chemscore.ZeroCoef>
-5.4800

> <Gold.Chemscore.Hbond>
0.9940

> <Gold.Chemscore.Metal>
0.0000

> <Gold.Chemscore.Lipo>
89.5050

> <Gold.Chemscore.Internal_Hbond>
0.0000

> <Gold.Chemscore.DEClash>
0.0227

> <Gold.Chemscore.DEInternal>
2.0297

> <Gold.Chemscore.Rot>
1.6127

> <Gold.Chemscore.Internal.Correction>
   9.000000E+99

> <Gold.Chemscore.Hbonds>
donor molecule, donor type, donor heavy atom, donor atom, acceptor molecule, acceptor atom, score
      P1  H  7997  8008       L1    11  0.99

> <Gold.Chemscore.Hbond.Weighted>
-3.3201

> <Gold.Chemscore.Metal.Weighted>
-0.0000

> <Gold.Chemscore.Lipo.Weighted>
-10.4721

> <Gold.Chemscore.Internal_Hbond.Weighted>
0.0000

> <Gold.Chemscore.DEClash.Weighted>
0.0227

> <Gold.Chemscore.DEInternal.Weighted>
2.0297

> <Gold.Chemscore.Rot.Weighted>
4.1285

> <Gold.Chemscore.Internal.Correction.Weighted>
   9.000000E+99

> <Gold.Protein.RotatedTorsions>
[ 6907 6896 6895 6894 ] final  115.91 input  -60.11 | X-H torsion
[ 7974 7965 7964 7962 ] final  178.55 input  175.53 | X-H torsion
[ 8008 7997 7996 7995 ] final  -57.12 input   59.86 | X-H torsion
[ 10167 10162 10161 10158 ] final   -2.53 input  -65.29 | X-H torsion
[ 10718 10713 10712 10709 ] final -121.83 input   66.30 | X-H torsion
[ 10763 10752 10751 10750 ] final   24.93 input  -60.55 | X-H torsion
[ 11005 11000 10999 10996 ] final  165.67 input  -57.11 | X-H torsion

> <Gold.Protein.ActiveResidues>
 VAL166  LYS551  ARG553  GLY616  TRP617  ASP618  TYR619  PRO620  LYS621  CYS622 
 ASP623  PHE694  ASN695  SER759  ASP760  ASP761  ALA762  ILE779  LEU786  VAL792 
 PHE793  MET794  SER795  GLU796  ALA797  LYS798  CYS799  TRP800  GLU811  SER814 

> <Gold.Protein.RotatedAtoms>
  152.4712  133.8034  159.6964 H   0  0  0  0  0  0  0  0  0  0  0  0  # atno 6907 bound_to 6896
  150.8702  133.7507  159.2970 H   0  0  0  0  0  0  0  0  0  0  0  0  # atno 6908 bound_to 6896
  151.5044  135.1066  159.9889 H   0  0  0  0  0  0  0  0  0  0  0  0  # atno 6909 bound_to 6896
  144.7155  140.0414  143.6437 H   0  0  0  0  0  0  0  0  0  0  0  0  # atno 7974 bound_to 7965
  154.4255  140.1114  156.5746 H   0  0  0  0  0  0  0  0  0  0  0  0  # atno 8008 bound_to 7997
  155.6176  140.3495  155.4623 H   0  0  0  0  0  0  0  0  0  0  0  0  # atno 8009 bound_to 7997
  156.0050  140.1207  157.0500 H   0  0  0  0  0  0  0  0  0  0  0  0  # atno 8010 bound_to 7997
  140.6855  143.6646  150.8237 H   0  0  0  0  0  0  0  0  0  0  0  0  # atno 10167 bound_to 10162
  156.1369  130.6437  150.9710 H   0  0  0  0  0  0  0  0  0  0  0  0  # atno 10718 bound_to 10713
  153.0728  135.6594  154.0210 H   0  0  0  0  0  0  0  0  0  0  0  0  # atno 10763 bound_to 10752
  153.9851  135.2951  155.3418 H   0  0  0  0  0  0  0  0  0  0  0  0  # atno 10764 bound_to 10752
  154.7108  135.5206  153.8734 H   0  0  0  0  0  0  0  0  0  0  0  0  # atno 10765 bound_to 10752
  140.2585  134.7921  157.3568 H   0  0  0  0  0  0  0  0  0  0  0  0  # atno 11005 bound_to 11000
  146.0020  139.3099  143.0922 LP  0  0  0  0  0  0  0  0  0  0  0  0  # atno 17320 bound_to 7965
  145.8782  140.9379  143.0615 LP  0  0  0  0  0  0  0  0  0  0  0  0  # atno 17321 bound_to 7965
  140.0352  143.5402  152.2742 LP  0  0  0  0  0  0  0  0  0  0  0  0  # atno 17342 bound_to 10162
  139.6209  144.7629  151.2742 LP  0  0  0  0  0  0  0  0  0  0  0  0  # atno 17343 bound_to 10162
  157.6540  131.0892  150.7988 LP  0  0  0  0  0  0  0  0  0  0  0  0  # atno 17370 bound_to 10713
  156.8067  130.4939  149.5361 LP  0  0  0  0  0  0  0  0  0  0  0  0  # atno 17371 bound_to 10713
  140.1488  134.4876  155.7976 LP  0  0  0  0  0  0  0  0  0  0  0  0  # atno 17394 bound_to 11000
  141.2193  133.6854  156.7341 LP  0  0  0  0  0  0  0  0  0  0  0  0  # atno 17395 bound_to 11000

$$$$
