AV-unprocessed.smi:2352|AV-procd|sdf|9378|dock9
  -GOLD-   2272013 03D 1   1.00000     0.00000
 Structure written by MMmdl.
 37 38  0  0  0  0  0  0  0  0  1 V2000
  155.0237  140.4159  163.1779 C   0  0  0  0  0  0  0  0  0  0  0  0
  154.2462  140.9603  161.9925 C   0  0  0  0  0  0  0  0  0  0  0  0
  154.2043  140.1324  160.8669 N   0  0  0  0  0  0  0  0  0  0  0  0
  153.5677  140.5148  159.8086 C   0  0  0  0  0  0  0  0  0  0  0  0
  152.9084  141.7537  159.7514 N   0  0  0  0  0  0  0  0  0  0  0  0
  152.2220  142.0699  158.4872 C   0  0  0  0  0  0  0  0  0  0  0  0
  151.4622  140.8540  157.9119 C   0  0  2  0  0  0  0  0  0  0  0  0
  152.3473  140.1109  157.0968 O   0  0  0  0  0  0  0  0  0  0  0  0
  150.2332  141.2987  157.1329 C   0  0  0  0  0  0  0  0  0  0  0  0
  150.1923  141.1944  155.7253 C   0  0  0  0  0  0  0  0  0  0  0  0
  149.0519  141.6146  155.0138 C   0  0  0  0  0  0  0  0  0  0  0  0
  147.9372  142.1438  155.6998 C   0  0  0  0  0  0  0  0  0  0  0  0
  146.7058  142.6069  154.9348 C   0  0  0  0  0  0  0  0  0  0  0  0
  145.6584  141.8305  155.2148 F   0  0  0  0  0  0  0  0  0  0  0  0
  146.4174  143.8597  155.2853 F   0  0  0  0  0  0  0  0  0  0  0  0
  146.9133  142.5670  153.6181 F   0  0  0  0  0  0  0  0  0  0  0  0
  147.9846  142.2593  157.1057 C   0  0  0  0  0  0  0  0  0  0  0  0
  149.1248  141.8392  157.8177 C   0  0  0  0  0  0  0  0  0  0  0  0
  152.8912  142.6173  160.8079 C   0  0  0  0  0  0  0  0  0  0  0  0
  152.2965  143.6955  160.7520 O   0  0  0  0  0  0  0  0  0  0  0  0
  153.6237  142.1706  162.0038 C   0  0  0  0  0  0  0  0  0  0  0  0
  153.6352  143.1142  163.1999 C   0  0  0  0  0  0  0  0  0  0  0  0
  155.8474  141.0829  163.4337 H   0  0  0  0  0  0  0  0  0  0  0  0
  155.4448  139.4337  162.9598 H   0  0  0  0  0  0  0  0  0  0  0  0
  154.3736  140.3144  164.0473 H   0  0  0  0  0  0  0  0  0  0  0  0
  153.5006  139.9044  158.9063 H   0  0  0  0  0  0  0  0  0  0  0  0
  151.5113  142.8748  158.6853 H   0  0  0  0  0  0  0  0  0  0  0  0
  152.8987  142.4885  157.7388 H   0  0  0  0  0  0  0  0  0  0  0  0
  151.1320  140.1988  158.7191 H   0  0  0  0  0  0  0  0  0  0  0  0
  151.8926  139.3436  156.7840 H   0  0  0  0  0  0  0  0  0  0  0  0
  151.0378  140.7944  155.1847 H   0  0  0  0  0  0  0  0  0  0  0  0
  149.0400  141.5307  153.9371 H   0  0  0  0  0  0  0  0  0  0  0  0
  147.1456  142.6742  157.6447 H   0  0  0  0  0  0  0  0  0  0  0  0
  149.1453  141.9370  158.8934 H   0  0  0  0  0  0  0  0  0  0  0  0
  152.6169  143.2943  163.5463 H   0  0  0  0  0  0  0  0  0  0  0  0
  154.0716  144.0732  162.9185 H   0  0  0  0  0  0  0  0  0  0  0  0
  154.2057  142.7304  164.0440 H   0  0  0  0  0  0  0  0  0  0  0  0
  1  2  1  0  0  0  0
  1 23  1  0  0  0  0
  1 24  1  0  0  0  0
  1 25  1  0  0  0  0
  2 21  2  0  0  0  0
  2  3  1  0  0  0  0
  3  4  2  0  0  0  0
  4  5  1  0  0  0  0
  4 26  1  0  0  0  0
  5  6  1  0  0  0  0
  5 19  1  0  0  0  0
  6  7  1  0  0  0  0
  6 27  1  0  0  0  0
  6 28  1  0  0  0  0
  7  8  1  0  0  0  0
  7  9  1  0  0  0  0
  7 29  1  0  0  0  0
  8 30  1  0  0  0  0
  9 18  1  0  0  0  0
  9 10  2  0  0  0  0
 10 11  1  0  0  0  0
 10 31  1  0  0  0  0
 11 12  2  0  0  0  0
 11 32  1  0  0  0  0
 12 13  1  0  0  0  0
 12 17  1  0  0  0  0
 13 14  1  0  0  0  0
 13 15  1  0  0  0  0
 13 16  1  0  0  0  0
 17 18  2  0  0  0  0
 17 33  1  0  0  0  0
 18 34  1  0  0  0  0
 19 20  2  0  0  0  0
 19 21  1  0  0  0  0
 21 22  1  0  0  0  0
 22 35  1  0  0  0  0
 22 36  1  0  0  0  0
 22 37  1  0  0  0  0
M  END
> <s_m_source_file>
AV-unprocessed.smi

> <i_m_source_file_index>
2352

> <i_lp_mmshare_version>
43012

> <i_f3d_flags>
0

> <s_epik_input>
W0NIM11jMW5bY0hdbihjKD1PKWMxW0NIM10pW0NIMl1bQ0BIXShbT0hdKWMyW2NIXVtjSF1jKEMoRikoRilGKVtjSF1bY0hdMg==

> <s_epik_cmdline>
J2VwaWtfcHl0aG9uJywgJy1waCcsICc3LjAnLCAnLXRuJywgJzgnLCAnLW1hJywgJzIwMCcsICctbWV0YWxfYmluZGluZycsICctaW1hZScsICc8aW5maWxlLm1hZT4nLCAnLW9tYWUnLCAnPG91dGZpbGUubWFlPic=

> <r_lp_tautomer_probability>
1

> <r_epik_Ionization_Penalty>
5.07001e-05

> <r_epik_Ionization_Penalty_Charging>
7.56727e-08

> <r_epik_Ionization_Penalty_Neutral>
5.06244e-05

> <r_epik_State_Penalty>
-0

> <r_epik_Charging_Adjusted_Penalty>
7.56727e-08

> <i_epik_Tot_Q>
0

> <i_epik_Tot_abs_Q>
0

> <r_epik_Metal_State_Penalty>
-0

> <b_epik_Metal_Only>
0

> <s_lp_Force_Field>
OPLS_2005

> <r_lp_Energy>
21.4473

> <b_lp_Chiralities_Consistent>
1

> <s_lp_Variant>
AV-unprocessed.smi:2352-1

> <Gold.Version>
5.8.1

> <Gold.Id.Protein>
6NUR|6NUR_protein|mol2

> <Gold.PLP.Fitness>
46.8066

> <Gold.PLP.PLP>
-45.6270

> <Gold.PLP.part.hbond>
-1.0000

> <Gold.PLP.part.metal>
0.0000

> <Gold.PLP.part.buried>
-3.8193

> <Gold.PLP.part.nonpolar>
-39.2058

> <Gold.PLP.part.repulsive>
0.1048

> <Gold.PLP.ligand.clash>
0.8855

> <Gold.PLP.ligand.torsion>
0.9780

> <Gold.PLP.Chemscore.Hbond>
1.0000

> <Gold.PLP.Chemscore.CHOScore>
0.0000

> <Gold.PLP.Chemscore.Metal>
0.0000

> <Gold.Chemscore.Hbonds>
donor molecule, donor type, donor heavy atom, donor atom, acceptor molecule, acceptor atom, score
      P1  H  7997  8010       L1     8  0.89

> <Gold.PLP.Chemscore.Internal.Correction>
1.0211

> <Gold.Rescore>
     Score         DG    S(hbond)    S(metal)    S(lipo)     H(rot)  DE(clash)    DE(int)     intcor
     10.76     -12.90       0.91        0.00      84.21       2.13       0.05       2.09       ----

> <Gold.Chemscore.Fitness>
10.7555

> <Gold.Chemscore.DG>
-12.9002

> <Gold.Chemscore.ZeroCoef>
-5.4800

> <Gold.Chemscore.Hbond>
0.9079

> <Gold.Chemscore.Metal>
0.0000

> <Gold.Chemscore.Lipo>
84.2108

> <Gold.Chemscore.Internal_Hbond>
0.0000

> <Gold.Chemscore.DEClash>
0.0514

> <Gold.Chemscore.DEInternal>
2.0933

> <Gold.Chemscore.Rot>
2.1347

> <Gold.Chemscore.Internal.Correction>
   9.000000E+99

> <Gold.Chemscore.Hbonds>
donor molecule, donor type, donor heavy atom, donor atom, acceptor molecule, acceptor atom, score
      P1  H  7997  8010       L1     8  0.72

> <Gold.Chemscore.Hbond.Weighted>
-3.0325

> <Gold.Chemscore.Metal.Weighted>
-0.0000

> <Gold.Chemscore.Lipo.Weighted>
-9.8527

> <Gold.Chemscore.Internal_Hbond.Weighted>
0.0000

> <Gold.Chemscore.DEClash.Weighted>
0.0514

> <Gold.Chemscore.DEInternal.Weighted>
2.0933

> <Gold.Chemscore.Rot.Weighted>
5.4649

> <Gold.Chemscore.Internal.Correction.Weighted>
   9.000000E+99

> <Gold.Protein.RotatedTorsions>
[ 6907 6896 6895 6894 ] final   17.81 input  -60.11 | X-H torsion
[ 7974 7965 7964 7962 ] final  -54.44 input  175.53 | X-H torsion
[ 8008 7997 7996 7995 ] final   60.50 input   59.86 | X-H torsion
[ 10167 10162 10161 10158 ] final -132.32 input  -65.29 | X-H torsion
[ 10718 10713 10712 10709 ] final -163.70 input   66.30 | X-H torsion
[ 10763 10752 10751 10750 ] final  -46.34 input  -60.55 | X-H torsion
[ 11005 11000 10999 10996 ] final  -84.95 input  -57.11 | X-H torsion

> <Gold.Protein.ActiveResidues>
 VAL166  LYS551  ARG553  GLY616  TRP617  ASP618  TYR619  PRO620  LYS621  CYS622 
 ASP623  PHE694  ASN695  SER759  ASP760  ASP761  ALA762  ILE779  LEU786  VAL792 
 PHE793  MET794  SER795  GLU796  ALA797  LYS798  CYS799  TRP800  GLU811  SER814 

> <Gold.Protein.RotatedAtoms>
  151.8554  135.0543  160.0463 H   0  0  0  0  0  0  0  0  0  0  0  0  # atno 6907 bound_to 6896
  152.2704  133.5373  159.5444 H   0  0  0  0  0  0  0  0  0  0  0  0  # atno 6908 bound_to 6896
  150.7149  134.0622  159.3877 H   0  0  0  0  0  0  0  0  0  0  0  0  # atno 6909 bound_to 6896
  145.8855  140.8112  142.9818 H   0  0  0  0  0  0  0  0  0  0  0  0  # atno 7974 bound_to 7965
  155.5833  140.3492  155.4546 H   0  0  0  0  0  0  0  0  0  0  0  0  # atno 8008 bound_to 7997
  156.0357  140.1284  157.0235 H   0  0  0  0  0  0  0  0  0  0  0  0  # atno 8009 bound_to 7997
  154.4370  140.1034  156.6149 H   0  0  0  0  0  0  0  0  0  0  0  0  # atno 8010 bound_to 7997
  139.9097  143.6509  152.2578 H   0  0  0  0  0  0  0  0  0  0  0  0  # atno 10167 bound_to 10162
  156.6285  130.8919  151.2972 H   0  0  0  0  0  0  0  0  0  0  0  0  # atno 10718 bound_to 10713
  154.0435  135.6641  153.4792 H   0  0  0  0  0  0  0  0  0  0  0  0  # atno 10763 bound_to 10752
  153.0492  135.5095  154.7820 H   0  0  0  0  0  0  0  0  0  0  0  0  # atno 10764 bound_to 10752
  154.6803  135.3044  154.9588 H   0  0  0  0  0  0  0  0  0  0  0  0  # atno 10765 bound_to 10752
  141.1646  133.7373  156.8943 H   0  0  0  0  0  0  0  0  0  0  0  0  # atno 11005 bound_to 11000
  144.6728  140.1449  143.7434 LP  0  0  0  0  0  0  0  0  0  0  0  0  # atno 17320 bound_to 7965
  145.8972  139.2409  143.1515 LP  0  0  0  0  0  0  0  0  0  0  0  0  # atno 17321 bound_to 7965
  139.6953  144.7642  151.1367 LP  0  0  0  0  0  0  0  0  0  0  0  0  # atno 17342 bound_to 10162
  140.7688  143.5532  150.9181 LP  0  0  0  0  0  0  0  0  0  0  0  0  # atno 17343 bound_to 10162
  157.7207  130.9555  150.1427 LP  0  0  0  0  0  0  0  0  0  0  0  0  # atno 17370 bound_to 10713
  156.2254  130.3677  149.8507 LP  0  0  0  0  0  0  0  0  0  0  0  0  # atno 17371 bound_to 10713
  140.1627  134.9154  157.2735 LP  0  0  0  0  0  0  0  0  0  0  0  0  # atno 17394 bound_to 11000
  140.2593  134.3590  155.7412 LP  0  0  0  0  0  0  0  0  0  0  0  0  # atno 17395 bound_to 11000

$$$$
