AV-unprocessed.smi:1535|AV-procd|sdf|6180|dock5
  -GOLD-   22720 6333D 1   1.00000     0.00000
 Structure written by MMmdl.
 47 48  0  0  0  0  0  0  0  0  2 V2000
  152.9648  143.3810  160.5970 C   0  0  0  0  0  0  0  0  0  0  0  0
  152.3409  142.7230  159.3787 C   0  0  0  0  0  0  0  0  0  0  0  0
  152.8267  141.4666  158.9522 C   0  0  0  0  0  0  0  0  0  0  0  0
  152.2741  140.8213  157.8244 C   0  0  0  0  0  0  0  0  0  0  0  0
  152.5914  139.6086  157.2372 N   0  0  0  0  0  0  0  0  0  0  0  0
  151.7289  139.5654  156.2265 C   0  0  0  0  0  0  0  0  0  0  0  0
  150.8982  140.6160  156.0799 N   0  0  0  0  0  0  0  0  0  0  0  0
  149.8916  140.7998  155.0505 C   0  0  0  0  0  0  0  0  0  0  0  0
  149.5912  139.4989  154.2797 C   0  0  2  0  0  0  0  0  0  0  0  0
  148.6915  139.8087  153.2350 O   0  0  0  0  0  0  0  0  0  0  0  0
  148.9655  138.3906  155.1528 C   0  0  0  0  0  0  0  0  0  0  0  0
  149.4673  137.0462  154.7696 N   0  3  1  0  0  0  0  0  0  0  0  0
  150.9450  136.9554  154.8304 C   0  0  0  0  0  0  0  0  0  0  0  0
  148.8088  135.9400  155.5087 C   0  0  0  0  0  0  0  0  0  0  0  0
  149.5383  134.5950  155.3227 C   0  0  2  0  0  0  0  0  0  0  0  0
  148.8187  133.7013  154.3049 C   0  0  0  0  0  0  0  0  0  0  0  0
  149.7051  133.8959  156.6072 C   0  0  0  0  0  0  0  0  0  0  0  0
  149.8324  133.3484  157.6175 N   0  0  0  0  0  0  0  0  0  0  0  0
  151.2144  141.4733  157.1286 C   0  0  0  0  0  0  0  0  0  0  0  0
  150.7188  142.7211  157.5466 C   0  0  0  0  0  0  0  0  0  0  0  0
  151.2827  143.3520  158.6749 C   0  0  0  0  0  0  0  0  0  0  0  0
  150.7425  144.7005  159.1171 C   0  0  0  0  0  0  0  0  0  0  0  0
  153.7721  142.7743  161.0080 H   0  0  0  0  0  0  0  0  0  0  0  0
  152.2186  143.5193  161.3797 H   0  0  0  0  0  0  0  0  0  0  0  0
  153.3790  144.3552  160.3362 H   0  0  0  0  0  0  0  0  0  0  0  0
  153.6307  140.9857  159.4900 H   0  0  0  0  0  0  0  0  0  0  0  0
  151.7077  138.7264  155.5464 H   0  0  0  0  0  0  0  0  0  0  0  0
  148.9826  141.1813  155.5186 H   0  0  0  0  0  0  0  0  0  0  0  0
  150.2420  141.5752  154.3680 H   0  0  0  0  0  0  0  0  0  0  0  0
  150.5149  139.1395  153.8268 H   0  0  0  0  0  0  0  0  0  0  0  0
  149.1862  140.1209  152.4918 H   0  0  0  0  0  0  0  0  0  0  0  0
  149.1772  138.5501  156.2108 H   0  0  0  0  0  0  0  0  0  0  0  0
  147.8807  138.4474  155.0625 H   0  0  0  0  0  0  0  0  0  0  0  0
  151.2994  137.0375  155.8589 H   0  0  0  0  0  0  0  0  0  0  0  0
  151.4156  137.7459  154.2456 H   0  0  0  0  0  0  0  0  0  0  0  0
  151.2890  136.0026  154.4269 H   0  0  0  0  0  0  0  0  0  0  0  0
  148.7992  136.1750  156.5742 H   0  0  0  0  0  0  0  0  0  0  0  0
  147.7649  135.8642  155.2004 H   0  0  0  0  0  0  0  0  0  0  0  0
  150.5460  134.7726  154.9492 H   0  0  0  0  0  0  0  0  0  0  0  0
  149.3547  132.7624  154.1632 H   0  0  0  0  0  0  0  0  0  0  0  0
  148.7463  134.1903  153.3331 H   0  0  0  0  0  0  0  0  0  0  0  0
  147.8079  133.4600  154.6352 H   0  0  0  0  0  0  0  0  0  0  0  0
  149.9107  143.1895  157.0046 H   0  0  0  0  0  0  0  0  0  0  0  0
  149.9212  145.0290  158.4795 H   0  0  0  0  0  0  0  0  0  0  0  0
  151.5249  145.4583  159.0720 H   0  0  0  0  0  0  0  0  0  0  0  0
  150.3698  144.6469  160.1403 H   0  0  0  0  0  0  0  0  0  0  0  0
  149.2147  136.9165  153.7996 H   0  0  0  0  0  0  0  0  0  0  0  0
  1  2  1  0  0  0  0
  1 23  1  0  0  0  0
  1 24  1  0  0  0  0
  1 25  1  0  0  0  0
  2 21  1  0  0  0  0
  2  3  2  0  0  0  0
  3  4  1  0  0  0  0
  3 26  1  0  0  0  0
  4 19  2  0  0  0  0
  4  5  1  0  0  0  0
  5  6  2  0  0  0  0
  6  7  1  0  0  0  0
  6 27  1  0  0  0  0
  7  8  1  0  0  0  0
  7 19  1  0  0  0  0
  8  9  1  0  0  0  0
  8 28  1  0  0  0  0
  8 29  1  0  0  0  0
  9 10  1  0  0  0  0
  9 11  1  0  0  0  0
  9 30  1  0  0  0  0
 10 31  1  0  0  0  0
 11 12  1  0  0  0  0
 11 32  1  0  0  0  0
 11 33  1  0  0  0  0
 12 13  1  0  0  0  0
 12 14  1  0  0  0  0
 12 47  1  0  0  0  0
 13 34  1  0  0  0  0
 13 35  1  0  0  0  0
 13 36  1  0  0  0  0
 14 15  1  0  0  0  0
 14 37  1  0  0  0  0
 14 38  1  0  0  0  0
 15 16  1  0  0  0  0
 15 17  1  0  0  0  0
 15 39  1  0  0  0  0
 16 40  1  0  0  0  0
 16 41  1  0  0  0  0
 16 42  1  0  0  0  0
 17 18  3  0  0  0  0
 19 20  1  0  0  0  0
 20 21  2  0  0  0  0
 20 43  1  0  0  0  0
 21 22  1  0  0  0  0
 22 44  1  0  0  0  0
 22 45  1  0  0  0  0
 22 46  1  0  0  0  0
M  CHG  1  12   1
M  END
> <s_m_source_file>
AV-unprocessed.smi

> <i_m_source_file_index>
1535

> <i_lp_mmshare_version>
43012

> <i_f3d_flags>
0

> <s_epik_input>
W0NIM11jKFtjSF0xKWMoW0NIM10pW2NIXWMoYzEyKW4oW2NIXW4yKVtDSDJdW0NASF0oW09IXSlbQ0gyXU4oW0NIM10pW0NIMl1bQ0BIXShbQ0gzXSlDI04=

> <s_epik_cmdline>
J2VwaWtfcHl0aG9uJywgJy1waCcsICc3LjAnLCAnLXRuJywgJzgnLCAnLW1hJywgJzIwMCcsICctbWV0YWxfYmluZGluZycsICctaW1hZScsICc8aW5maWxlLm1hZT4nLCAnLW9tYWUnLCAnPG91dGZpbGUubWFlPic=

> <r_epik_Ionization_Penalty>
2.21058

> <r_epik_Ionization_Penalty_Charging>
2.12381

> <r_epik_Ionization_Penalty_Neutral>
0.0867699

> <r_epik_State_Penalty>
2.36208

> <r_epik_Charging_Adjusted_Penalty>
4.48589

> <i_epik_Tot_Q>
1

> <i_epik_Tot_abs_Q>
1

> <r_epik_Metal_State_Penalty>
2.2818

> <b_epik_Metal_Only>
0

> <s_lp_Force_Field>
OPLS_2005

> <r_lp_Energy>
13.2218

> <b_lp_Chiralities_Consistent>
1

> <s_lp_Variant>
AV-unprocessed.smi:1535-11

> <Gold.Version>
5.8.1

> <Gold.Id.Protein>
6NUR|6NUR_protein|mol2

> <Gold.PLP.Fitness>
55.7368

> <Gold.PLP.PLP>
-43.3872

> <Gold.PLP.part.hbond>
-3.5782

> <Gold.PLP.part.metal>
0.0000

> <Gold.PLP.part.buried>
-6.0039

> <Gold.PLP.part.nonpolar>
-35.3984

> <Gold.PLP.part.repulsive>
0.0263

> <Gold.PLP.ligand.clash>
0.0000

> <Gold.PLP.ligand.torsion>
1.4591

> <Gold.PLP.Chemscore.Hbond>
4.9920

> <Gold.PLP.Chemscore.CHOScore>
0.0000

> <Gold.PLP.Chemscore.Metal>
0.0000

> <Gold.Chemscore.Hbonds>
donor molecule, donor type, donor heavy atom, donor atom, acceptor molecule, acceptor atom, score
      L1  H    10    31       P1  7957  0.67
      L1  H    12    47       P1  7948  1.89
      P1  H  6896  6909       L1    18  0.96
      P1  H  7997  8009       L1     5  0.95

> <Gold.PLP.Chemscore.Internal.Correction>
0.2919

> <Gold.Rescore>
     Score         DG    S(hbond)    S(metal)    S(lipo)     H(rot)  DE(clash)    DE(int)     intcor
     20.85     -22.05       3.03        0.00     112.05       2.60       0.05       1.15       ----

> <Gold.Chemscore.Fitness>
20.8496

> <Gold.Chemscore.DG>
-22.0481

> <Gold.Chemscore.ZeroCoef>
-5.4800

> <Gold.Chemscore.Hbond>
3.0308

> <Gold.Chemscore.Metal>
0.0000

> <Gold.Chemscore.Lipo>
112.0452

> <Gold.Chemscore.Internal_Hbond>
0.0000

> <Gold.Chemscore.DEClash>
0.0464

> <Gold.Chemscore.DEInternal>
1.1522

> <Gold.Chemscore.Rot>
2.6031

> <Gold.Chemscore.Internal.Correction>
   9.000000E+99

> <Gold.Chemscore.Hbonds>
donor molecule, donor type, donor heavy atom, donor atom, acceptor molecule, acceptor atom, score
      L1  H    10    31       P1  7957  0.64
      L1  H    12    47       P1  7948  0.89
      P1  H  6896  6909       L1    18  0.86
      P1  H  7997  8009       L1     5  0.10

> <Gold.Chemscore.Hbond.Weighted>
-10.1228

> <Gold.Chemscore.Metal.Weighted>
-0.0000

> <Gold.Chemscore.Lipo.Weighted>
-13.1093

> <Gold.Chemscore.Internal_Hbond.Weighted>
0.0000

> <Gold.Chemscore.DEClash.Weighted>
0.0464

> <Gold.Chemscore.DEInternal.Weighted>
1.1522

> <Gold.Chemscore.Rot.Weighted>
6.6640

> <Gold.Chemscore.Internal.Correction.Weighted>
   9.000000E+99

> <Gold.Protein.RotatedTorsions>
[ 6907 6896 6895 6894 ] final  -25.00 input  -60.11 | X-H torsion
[ 7974 7965 7964 7962 ] final -123.11 input  175.53 | X-H torsion
[ 8008 7997 7996 7995 ] final -163.90 input   59.86 | X-H torsion
[ 10167 10162 10161 10158 ] final -125.33 input  -65.29 | X-H torsion
[ 10718 10713 10712 10709 ] final  -84.24 input   66.30 | X-H torsion
[ 10763 10752 10751 10750 ] final  130.51 input  -60.55 | X-H torsion
[ 11005 11000 10999 10996 ] final   48.86 input  -57.11 | X-H torsion

> <Gold.Protein.ActiveResidues>
 VAL166  LYS551  ARG553  GLY616  TRP617  ASP618  TYR619  PRO620  LYS621  CYS622 
 ASP623  PHE694  ASN695  SER759  ASP760  ASP761  ALA762  ILE779  LEU786  VAL792 
 PHE793  MET794  SER795  GLU796  ALA797  LYS798  CYS799  TRP800  GLU811  SER814 

> <Gold.Protein.RotatedAtoms>
  151.1815  135.0363  159.8794 H   0  0  0  0  0  0  0  0  0  0  0  0  # atno 6907 bound_to 6896
  152.5444  134.1058  159.8347 H   0  0  0  0  0  0  0  0  0  0  0  0  # atno 6908 bound_to 6896
  151.1175  133.5081  159.2635 H   0  0  0  0  0  0  0  0  0  0  0  0  # atno 6909 bound_to 6896
  145.0222  140.7998  143.4374 H   0  0  0  0  0  0  0  0  0  0  0  0  # atno 7974 bound_to 7965
  155.8280  140.0929  157.1810 H   0  0  0  0  0  0  0  0  0  0  0  0  # atno 8008 bound_to 7997
  154.3979  140.1424  156.3640 H   0  0  0  0  0  0  0  0  0  0  0  0  # atno 8009 bound_to 7997
  155.8196  140.3447  155.5509 H   0  0  0  0  0  0  0  0  0  0  0  0  # atno 8010 bound_to 7997
  139.9832  143.5720  152.2370 H   0  0  0  0  0  0  0  0  0  0  0  0  # atno 10167 bound_to 10162
  156.0008  130.4691  150.4380 H   0  0  0  0  0  0  0  0  0  0  0  0  # atno 10718 bound_to 10713
  153.7593  135.3198  155.3334 H   0  0  0  0  0  0  0  0  0  0  0  0  # atno 10763 bound_to 10752
  154.8236  135.4586  154.0854 H   0  0  0  0  0  0  0  0  0  0  0  0  # atno 10764 bound_to 10752
  153.2080  135.6932  153.8232 H   0  0  0  0  0  0  0  0  0  0  0  0  # atno 10765 bound_to 10752
  140.1154  134.4900  155.8642 H   0  0  0  0  0  0  0  0  0  0  0  0  # atno 11005 bound_to 11000
  145.1880  139.2316  143.5257 LP  0  0  0  0  0  0  0  0  0  0  0  0  # atno 17320 bound_to 7965
  146.3487  140.1669  142.8590 LP  0  0  0  0  0  0  0  0  0  0  0  0  # atno 17321 bound_to 7965
  139.6394  144.7653  151.2370 LP  0  0  0  0  0  0  0  0  0  0  0  0  # atno 17342 bound_to 10162
  140.7481  143.6343  150.8394 LP  0  0  0  0  0  0  0  0  0  0  0  0  # atno 17343 bound_to 10162
  157.2423  131.0528  151.2429 LP  0  0  0  0  0  0  0  0  0  0  0  0  # atno 17370 bound_to 10713
  157.3608  130.7130  149.6500 LP  0  0  0  0  0  0  0  0  0  0  0  0  # atno 17371 bound_to 10713
  141.2140  133.6741  156.6786 LP  0  0  0  0  0  0  0  0  0  0  0  0  # atno 17394 bound_to 11000
  140.3035  134.8144  157.4118 LP  0  0  0  0  0  0  0  0  0  0  0  0  # atno 17395 bound_to 11000

$$$$
