AV-unprocessed.smi:661|AV-procd|sdf|3242|dock1
  -GOLD-   22720 0193D 1   1.00000     0.00000
 Structure written by MMmdl.
 31 32  0  0  0  0  0  0  0  0  2 V2000
  147.3984  141.9820  153.9390 C   0  0  0  0  0  0  0  0  0  0  0  0
  148.7919  142.3455  154.1286 N   0  0  0  0  0  0  0  0  0  0  0  0
  149.4975  141.2370  154.7539 C   0  0  0  0  0  0  0  0  0  0  0  0
  150.3299  141.6461  155.9285 C   0  0  0  0  0  0  0  0  0  0  0  0
  150.4504  142.9024  156.4479 N   0  3  0  0  0  0  0  0  0  0  0  0
  151.3288  142.8858  157.5319 C   0  0  0  0  0  0  0  0  0  0  0  0
  151.7646  143.9081  158.3692 C   0  0  0  0  0  0  0  0  0  0  0  0
  152.6754  143.5489  159.3845 C   0  0  0  0  0  0  0  0  0  0  0  0
  153.1181  142.2188  159.5374 C   0  0  0  0  0  0  0  0  0  0  0  0
  152.6684  141.1908  158.6826 C   0  0  0  0  0  0  0  0  0  0  0  0
  151.7672  141.5546  157.6827 C   0  0  0  0  0  0  0  0  0  0  0  0
  151.1239  140.8272  156.6758 N   0  0  0  0  0  0  0  0  0  0  0  0
  151.3773  139.3857  156.5579 C   0  0  0  0  0  0  0  0  0  0  0  0
  151.8563  139.0033  155.1507 C   0  0  0  0  0  0  0  0  0  0  0  0
  153.1463  139.5291  154.9321 O   0  0  0  0  0  0  0  0  0  0  0  0
  146.8549  142.8154  153.4933 H   0  0  0  0  0  0  0  0  0  0  0  0
  146.9252  141.7382  154.8909 H   0  0  0  0  0  0  0  0  0  0  0  0
  147.3060  141.1233  153.2728 H   0  0  0  0  0  0  0  0  0  0  0  0
  148.8196  143.1405  154.7512 H   0  0  0  0  0  0  0  0  0  0  0  0
  148.7764  140.4831  155.0724 H   0  0  0  0  0  0  0  0  0  0  0  0
  150.1577  140.7665  154.0239 H   0  0  0  0  0  0  0  0  0  0  0  0
  151.4279  144.9279  158.2534 H   0  0  0  0  0  0  0  0  0  0  0  0
  153.0422  144.3090  160.0592 H   0  0  0  0  0  0  0  0  0  0  0  0
  153.8166  141.9816  160.3266 H   0  0  0  0  0  0  0  0  0  0  0  0
  153.0139  140.1749  158.8063 H   0  0  0  0  0  0  0  0  0  0  0  0
  152.1020  139.0920  157.3184 H   0  0  0  0  0  0  0  0  0  0  0  0
  150.4499  138.8638  156.7963 H   0  0  0  0  0  0  0  0  0  0  0  0
  151.8897  137.9194  155.0360 H   0  0  0  0  0  0  0  0  0  0  0  0
  151.1803  139.3928  154.3892 H   0  0  0  0  0  0  0  0  0  0  0  0
  153.6017  138.9683  154.3225 H   0  0  0  0  0  0  0  0  0  0  0  0
  149.9670  143.7104  156.0770 H   0  0  0  0  0  0  0  0  0  0  0  0
  1  2  1  0  0  0  0
  1 16  1  0  0  0  0
  1 17  1  0  0  0  0
  1 18  1  0  0  0  0
  2  3  1  0  0  0  0
  2 19  1  0  0  0  0
  3  4  1  0  0  0  0
  3 20  1  0  0  0  0
  3 21  1  0  0  0  0
  4 12  1  0  0  0  0
  4  5  2  0  0  0  0
  5  6  1  0  0  0  0
  5 31  1  0  0  0  0
  6 11  2  0  0  0  0
  6  7  1  0  0  0  0
  7  8  2  0  0  0  0
  7 22  1  0  0  0  0
  8  9  1  0  0  0  0
  8 23  1  0  0  0  0
  9 10  2  0  0  0  0
  9 24  1  0  0  0  0
 10 11  1  0  0  0  0
 10 25  1  0  0  0  0
 11 12  1  0  0  0  0
 12 13  1  0  0  0  0
 13 14  1  0  0  0  0
 13 26  1  0  0  0  0
 13 27  1  0  0  0  0
 14 15  1  0  0  0  0
 14 28  1  0  0  0  0
 14 29  1  0  0  0  0
 15 30  1  0  0  0  0
M  CHG  1   5   1
M  END
> <s_m_source_file>
AV-unprocessed.smi

> <i_m_source_file_index>
661

> <i_lp_mmshare_version>
43012

> <i_f3d_flags>
0

> <s_epik_input>
W0NIM11bTkhdW0NIMl1jKG4xKW4oW0NIMl1bQ0gyXVtPSF0pYyhjMTIpW2NIXVtjSF1bY0hdW2NIXTI=

> <s_epik_cmdline>
J2VwaWtfcHl0aG9uJywgJy1waCcsICc3LjAnLCAnLXRuJywgJzgnLCAnLW1hJywgJzIwMCcsICctbWV0YWxfYmluZGluZycsICctaW1hZScsICc8aW5maWxlLm1hZT4nLCAnLW9tYWUnLCAnPG91dGZpbGUubWFlPic=

> <r_epik_Ionization_Penalty>
1.54621

> <r_epik_Ionization_Penalty_Charging>
0.868283

> <r_epik_Ionization_Penalty_Neutral>
0.677923

> <r_epik_State_Penalty>
2.71647

> <r_epik_Charging_Adjusted_Penalty>
3.58475

> <i_epik_Tot_Q>
1

> <i_epik_Tot_abs_Q>
1

> <r_epik_Metal_State_Penalty>
6.65543

> <b_epik_Metal_Only>
0

> <s_lp_Force_Field>
OPLS_2005

> <r_lp_Energy>
13.6315

> <b_lp_Chiralities_Consistent>
1

> <s_lp_Variant>
AV-unprocessed.smi:661-3

> <Gold.Version>
5.8.1

> <Gold.Id.Protein>
6NUR|6NUR_protein|mol2

> <Gold.PLP.Fitness>
52.0951

> <Gold.PLP.PLP>
-40.1624

> <Gold.PLP.part.hbond>
-4.8552

> <Gold.PLP.part.metal>
0.0000

> <Gold.PLP.part.buried>
-4.7878

> <Gold.PLP.part.nonpolar>
-29.9875

> <Gold.PLP.part.repulsive>
0.0833

> <Gold.PLP.ligand.clash>
0.0000

> <Gold.PLP.ligand.torsion>
0.3925

> <Gold.PLP.Chemscore.Hbond>
4.2184

> <Gold.PLP.Chemscore.CHOScore>
0.0000

> <Gold.PLP.Chemscore.Metal>
0.0000

> <Gold.Chemscore.Hbonds>
donor molecule, donor type, donor heavy atom, donor atom, acceptor molecule, acceptor atom, score
      L1  H     2    19       P1  8028  1.00
      L1  H     5    31       P1  8028  2.00
      P1  H  7997  8010       L1    15  1.00
      P1  H  8011  8017       L1     2  0.22

> <Gold.PLP.Chemscore.Internal.Correction>
0.0626

> <Gold.Rescore>
     Score         DG    S(hbond)    S(metal)    S(lipo)     H(rot)  DE(clash)    DE(int)     intcor
     19.78     -20.31       3.02        0.00      92.28       2.37       0.01       0.51       ----

> <Gold.Chemscore.Fitness>
19.7837

> <Gold.Chemscore.DG>
-20.3062

> <Gold.Chemscore.ZeroCoef>
-5.4800

> <Gold.Chemscore.Hbond>
3.0206

> <Gold.Chemscore.Metal>
0.0000

> <Gold.Chemscore.Lipo>
92.2758

> <Gold.Chemscore.Internal_Hbond>
0.0000

> <Gold.Chemscore.DEClash>
0.0147

> <Gold.Chemscore.DEInternal>
0.5078

> <Gold.Chemscore.Rot>
2.3667

> <Gold.Chemscore.Internal.Correction>
   9.000000E+99

> <Gold.Chemscore.Hbonds>
donor molecule, donor type, donor heavy atom, donor atom, acceptor molecule, acceptor atom, score
      L1  H     2    19       P1  8028  1.00
      L1  H     5    31       P1  8028  0.93
      P1  H  7997  8010       L1    15  0.58
      P1  H  8011  8017       L1     2  0.04

> <Gold.Chemscore.Hbond.Weighted>
-10.0887

> <Gold.Chemscore.Metal.Weighted>
-0.0000

> <Gold.Chemscore.Lipo.Weighted>
-10.7963

> <Gold.Chemscore.Internal_Hbond.Weighted>
0.0000

> <Gold.Chemscore.DEClash.Weighted>
0.0147

> <Gold.Chemscore.DEInternal.Weighted>
0.5078

> <Gold.Chemscore.Rot.Weighted>
6.0588

> <Gold.Chemscore.Internal.Correction.Weighted>
   9.000000E+99

> <Gold.Protein.RotatedTorsions>
[ 6907 6896 6895 6894 ] final  -49.92 input  -60.11 | X-H torsion
[ 7974 7965 7964 7962 ] final -163.82 input  175.53 | X-H torsion
[ 8008 7997 7996 7995 ] final   88.42 input   59.86 | X-H torsion
[ 10167 10162 10161 10158 ] final   -3.47 input  -65.29 | X-H torsion
[ 10718 10713 10712 10709 ] final -122.98 input   66.30 | X-H torsion
[ 10763 10752 10751 10750 ] final -128.58 input  -60.55 | X-H torsion
[ 11005 11000 10999 10996 ] final  121.56 input  -57.11 | X-H torsion

> <Gold.Protein.ActiveResidues>
 VAL166  LYS551  ARG553  GLY616  TRP617  ASP618  TYR619  PRO620  LYS621  CYS622 
 ASP623  PHE694  ASN695  SER759  ASP760  ASP761  ALA762  ILE779  LEU786  VAL792 
 PHE793  MET794  SER795  GLU796  ALA797  LYS798  CYS799  TRP800  GLU811  SER814 

> <Gold.Protein.RotatedAtoms>
  150.8757  134.8139  159.7187 H   0  0  0  0  0  0  0  0  0  0  0  0  # atno 6907 bound_to 6896
  152.4745  134.4875  159.9695 H   0  0  0  0  0  0  0  0  0  0  0  0  # atno 6908 bound_to 6896
  151.4957  133.3476  159.2896 H   0  0  0  0  0  0  0  0  0  0  0  0  # atno 6909 bound_to 6896
  144.7315  140.3051  143.6197 H   0  0  0  0  0  0  0  0  0  0  0  0  # atno 7974 bound_to 7965
  155.9875  140.3372  155.6721 H   0  0  0  0  0  0  0  0  0  0  0  0  # atno 8008 bound_to 7997
  155.6465  140.0701  157.2619 H   0  0  0  0  0  0  0  0  0  0  0  0  # atno 8009 bound_to 7997
  154.4209  140.1733  156.1616 H   0  0  0  0  0  0  0  0  0  0  0  0  # atno 8010 bound_to 7997
  140.6891  143.6536  150.8328 H   0  0  0  0  0  0  0  0  0  0  0  0  # atno 10167 bound_to 10162
  156.1463  130.6502  150.9847 H   0  0  0  0  0  0  0  0  0  0  0  0  # atno 10718 bound_to 10713
  154.8756  135.3923  154.3780 H   0  0  0  0  0  0  0  0  0  0  0  0  # atno 10763 bound_to 10752
  153.4531  135.7028  153.6101 H   0  0  0  0  0  0  0  0  0  0  0  0  # atno 10764 bound_to 10752
  153.4632  135.3807  155.2319 H   0  0  0  0  0  0  0  0  0  0  0  0  # atno 10765 bound_to 10752
  139.9231  134.9639  156.7977 H   0  0  0  0  0  0  0  0  0  0  0  0  # atno 11005 bound_to 11000
  145.7721  139.1861  143.2206 LP  0  0  0  0  0  0  0  0  0  0  0  0  # atno 17320 bound_to 7965
  146.0902  140.7664  142.9599 LP  0  0  0  0  0  0  0  0  0  0  0  0  # atno 17321 bound_to 7965
  140.0247  143.5506  152.2786 LP  0  0  0  0  0  0  0  0  0  0  0  0  # atno 17342 bound_to 10162
  139.6277  144.7639  151.2603 LP  0  0  0  0  0  0  0  0  0  0  0  0  # atno 17343 bound_to 10162
  157.6619  131.0879  150.7817 LP  0  0  0  0  0  0  0  0  0  0  0  0  # atno 17370 bound_to 10713
  156.7889  130.4883  149.5388 LP  0  0  0  0  0  0  0  0  0  0  0  0  # atno 17371 bound_to 10713
  140.6415  133.9814  155.7710 LP  0  0  0  0  0  0  0  0  0  0  0  0  # atno 17394 bound_to 11000
  141.0768  134.0123  157.3446 LP  0  0  0  0  0  0  0  0  0  0  0  0  # atno 17395 bound_to 11000

$$$$
