#       Name:                AV-unprocessed.smi:1278
#       Creating user name   scv26
#       Creation time:       Fri Mar 27 04:48:54 2020


#       File generated by GOLD software.
#

@<TRIPOS>MOLECULE
AV-unprocessed.smi:1278
    42    43     1
SMALL
NO_CHARGES


@<TRIPOS>ATOM
      1 ****        -0.8585   4.0485   0.7066 C.3            1 S1                 0.0000
      2 ****        -1.5483   3.1735  -0.3551 C.3            1 S1                 0.0000
      3 ****        -3.0633   3.0310  -0.1190 C.3            1 S1                 0.0000
      4 ****        -3.3566   2.0915   1.0591 C.3            1 S1                 0.0000
      5 ****        -2.6503   0.7391   0.8759 C.3            1 S1                 0.0000
      6 ****        -1.1877   0.9179   0.6878 N.4            1 S1                 1.0000
      7 ****        -0.4659  -0.3780   0.6530 C.3            1 S1                 0.0000
      8 ****         1.0173  -0.2317   1.0417 C.3            1 S1                 0.0000
      9 ****         1.6958  -1.5219   1.0376 N.am           1 S1                 0.0000
     10 ****         2.1037  -2.1862  -0.0531 C.2            1 S1                 0.0000
     11 ****         1.9137  -1.7042  -1.1723 O.2            1 S1                 0.0000
     12 ****         2.7010  -3.3671   0.2215 N.pl3          1 S1                -1.0000
     13 ****         3.1646  -4.1337  -0.7791 C.2            1 S1                 0.0000
     14 ****         4.4505  -4.1526  -1.1473 N.2            1 S1                 0.0000
     15 ****         4.7124  -5.0239  -2.2062 C.2            1 S1                 0.0000
     16 ****         3.6007  -5.6905  -2.6488 C.2            1 S1                 0.0000
     17 ****         2.1839  -5.2409  -1.7433 S.3            1 S1                 0.0000
     18 ****        -0.8887   1.7846  -0.4851 C.3            1 S1                 0.0000
     19 ****        -0.9106   3.6024   1.6997 H              1 S1                 0.0000
     20 ****        -1.3208   5.0345   0.7613 H              1 S1                 0.0000
     21 ****         0.1954   4.1948   0.4676 H              1 S1                 0.0000
     22 ****        -1.4166   3.6878  -1.3081 H              1 S1                 0.0000
     23 ****        -3.5201   4.0068   0.0501 H              1 S1                 0.0000
     24 ****        -3.5293   2.6272  -1.0188 H              1 S1                 0.0000
     25 ****        -3.0339   2.5519   1.9933 H              1 S1                 0.0000
     26 ****        -4.4322   1.9380   1.1509 H              1 S1                 0.0000
     27 ****        -2.8378   0.1200   1.7542 H              1 S1                 0.0000
     28 ****        -3.0658   0.2073   0.0183 H              1 S1                 0.0000
     29 ****        -0.9289  -1.0694   1.3586 H              1 S1                 0.0000
     30 ****        -0.5757  -0.8298  -0.3341 H              1 S1                 0.0000
     31 ****         1.5451   0.4506   0.3752 H              1 S1                 0.0000
     32 ****         1.0989   0.1892   2.0440 H              1 S1                 0.0000
     33 ****         1.8763  -1.9495   1.9343 H              1 S1                 0.0000
     34 ****         5.7215  -5.1073  -2.5817 H              1 S1                 0.0000
     35 ****         3.5284  -6.4149  -3.4457 H              1 S1                 0.0000
     36 ****        -1.2474   1.2914  -1.3900 H              1 S1                 0.0000
     37 ****         0.1864   1.9081  -0.6100 H              1 S1                 0.0000
     38 ****        -0.8557   1.4052   1.5077 H              1 S1                 0.0000
     39 ****         1.4562  -0.8198  -1.2647 LP             1 S1                 0.0000
     40 ****         2.2170  -2.1978  -1.9874 LP             1 S1                 0.0000
     41 ****         2.7979  -3.6700   1.1696 LP             1 S1                 0.0000
     42 ****         5.1556  -3.5968  -0.7069 LP             1 S1                 0.0000
@<TRIPOS>BOND
    1    1    2 1     
    2    1   19 1     
    3    1   20 1     
    4    1   21 1     
    5    2   18 1     
    6    2    3 1     
    7    2   22 1     
    8    3    4 1     
    9    3   23 1     
   10    3   24 1     
   11    4    5 1     
   12    4   25 1     
   13    4   26 1     
   14    5    6 1     
   15    5   27 1     
   16    5   28 1     
   17    6    7 1     
   18    6   18 1     
   19    6   38 1     
   20    7    8 1     
   21    7   29 1     
   22    7   30 1     
   23    8    9 1     
   24    8   31 1     
   25    8   32 1     
   26    9   10 am    
   27    9   33 1     
   28   10   11 2     
   29   10   12 1     
   30   12   13 1     
   31   13   17 1     
   32   13   14 2     
   33   14   15 1     
   34   15   16 2     
   35   15   34 1     
   36   16   17 1     
   37   16   35 1     
   38   18   36 1     
   39   18   37 1     
   40   11   39 1     
   41   11   40 1     
   42   12   41 1     
   43   14   42 1     
@<TRIPOS>SUBSTRUCTURE
      1 S1             1
@<TRIPOS>SET
LONE_PAIRS      STATIC     ATOMS    <user>   **** ""
4 39 40 41 42
DONOR_HYDROGENS      STATIC     ATOMS    <user>   **** ""
2 38 33
ATOM$BLUE        STATIC     ATOMS    COLORGROUP SYSTEM
4 39 40 41 42
ATOM$RED        STATIC     ATOMS    COLORGROUP SYSTEM
2 38 33
