AV-unprocessed.smi:922|AV-procd|sdf|4173|dock10
  -GOLD-   22720 2 83D 1   1.00000     0.00000
 Structure written by MMmdl.
 32 33  0  0  0  0  0  0  0  0  2 V2000
  147.0297  142.6015  154.3719 C   0  0  0  0  0  0  0  0  0  0  0  0
  147.4532  141.1782  154.7483 C   0  0  2  0  0  0  0  0  0  0  0  0
  148.7747  140.7742  154.0685 C   0  0  0  0  0  0  0  0  0  0  0  0
  149.0864  139.3801  154.3538 N   0  0  0  0  0  0  0  0  0  0  0  0
  150.2959  138.9159  154.8735 C   0  0  0  0  0  0  0  0  0  0  0  0
  150.8521  137.6304  154.3831 C   0  0  0  0  0  0  0  0  0  0  0  0
  151.9498  137.1452  154.8094 N   0  0  0  0  0  0  0  0  0  0  0  0
  152.7291  137.8386  155.8088 N   0  5  0  0  0  0  0  0  0  0  0  0
  152.2849  139.0244  156.3236 C   0  0  0  0  0  0  0  0  0  0  0  0
  152.9166  139.6374  157.1829 O   0  0  0  0  0  0  0  0  0  0  0  0
  151.0152  139.5725  155.8274 C   0  0  0  0  0  0  0  0  0  0  0  0
  150.4566  141.0473  156.5485 Cl  0  0  0  0  0  0  0  0  0  0  0  0
  148.0090  138.5038  153.9099 C   0  0  0  0  0  0  0  0  0  0  0  0
  146.6675  138.8938  154.5714 C   0  0  0  0  0  0  0  0  0  0  0  0
  145.5145  138.1484  153.8819 C   0  0  0  0  0  0  0  0  0  0  0  0
  146.6509  138.5708  156.0811 C   0  0  0  0  0  0  0  0  0  0  0  0
  146.4166  140.2852  154.3381 O   0  0  0  0  0  0  0  0  0  0  0  0
  147.7823  143.3280  154.6792 H   0  0  0  0  0  0  0  0  0  0  0  0
  146.0912  142.8693  154.8578 H   0  0  0  0  0  0  0  0  0  0  0  0
  146.8879  142.6999  153.2953 H   0  0  0  0  0  0  0  0  0  0  0  0
  147.5605  141.1378  155.8314 H   0  0  0  0  0  0  0  0  0  0  0  0
  148.6902  140.8950  152.9877 H   0  0  0  0  0  0  0  0  0  0  0  0
  149.5891  141.4258  154.3849 H   0  0  0  0  0  0  0  0  0  0  0  0
  150.2616  137.1155  153.6209 H   0  0  0  0  0  0  0  0  0  0  0  0
  147.9331  138.5766  152.8242 H   0  0  0  0  0  0  0  0  0  0  0  0
  148.2406  137.4626  154.1382 H   0  0  0  0  0  0  0  0  0  0  0  0
  145.6222  137.0681  153.9863 H   0  0  0  0  0  0  0  0  0  0  0  0
  145.4788  138.3758  152.8161 H   0  0  0  0  0  0  0  0  0  0  0  0
  144.5513  138.4289  154.3091 H   0  0  0  0  0  0  0  0  0  0  0  0
  146.7314  137.4966  156.2500 H   0  0  0  0  0  0  0  0  0  0  0  0
  145.7243  138.9091  156.5451 H   0  0  0  0  0  0  0  0  0  0  0  0
  147.4775  139.0358  156.6172 H   0  0  0  0  0  0  0  0  0  0  0  0
  1  2  1  0  0  0  0
  1 18  1  0  0  0  0
  1 19  1  0  0  0  0
  1 20  1  0  0  0  0
  2 17  1  0  0  0  0
  2  3  1  0  0  0  0
  2 21  1  0  0  0  0
  3  4  1  0  0  0  0
  3 22  1  0  0  0  0
  3 23  1  0  0  0  0
  4  5  1  0  0  0  0
  4 13  1  0  0  0  0
  5 11  2  0  0  0  0
  5  6  1  0  0  0  0
  6  7  2  0  0  0  0
  6 24  1  0  0  0  0
  7  8  1  0  0  0  0
  8  9  1  0  0  0  0
  9 10  2  0  0  0  0
  9 11  1  0  0  0  0
 11 12  1  0  0  0  0
 13 14  1  0  0  0  0
 13 25  1  0  0  0  0
 13 26  1  0  0  0  0
 14 15  1  0  0  0  0
 14 16  1  0  0  0  0
 14 17  1  0  0  0  0
 15 27  1  0  0  0  0
 15 28  1  0  0  0  0
 15 29  1  0  0  0  0
 16 30  1  0  0  0  0
 16 31  1  0  0  0  0
 16 32  1  0  0  0  0
M  CHG  1   8  -1
M  END
> <s_m_source_file>
AV-unprocessed.smi

> <i_m_source_file_index>
922

> <i_lp_mmshare_version>
43012

> <i_f3d_flags>
0

> <s_epik_input>
W0NIM11bQ0BASF0oTzEpW0NIMl1OKFtDSDJdQzEoW0NIM10pW0NIM10pYzJbY0hdbltuSF1jKD1PKWMyQ2w=

> <s_epik_cmdline>
J2VwaWtfcHl0aG9uJywgJy1waCcsICc3LjAnLCAnLXRuJywgJzgnLCAnLW1hJywgJzIwMCcsICctbWV0YWxfYmluZGluZycsICctaW1hZScsICc8aW5maWxlLm1hZT4nLCAnLW9tYWUnLCAnPG91dGZpbGUubWFlPic=

> <r_lp_tautomer_probability>
1

> <r_epik_Ionization_Penalty>
2.48086

> <r_epik_Ionization_Penalty_Charging>
0.00187014

> <r_epik_Ionization_Penalty_Neutral>
2.47899

> <r_epik_State_Penalty>
0.0455822

> <r_epik_Charging_Adjusted_Penalty>
0.0474524

> <i_epik_Tot_Q>
-1

> <i_epik_Tot_abs_Q>
1

> <r_epik_Metal_State_Penalty>
0.000768086

> <b_epik_Metal_Only>
0

> <s_lp_Force_Field>
OPLS_2005

> <r_lp_Energy>
41.3096

> <b_lp_Chiralities_Consistent>
1

> <s_lp_Variant>
AV-unprocessed.smi:922-1

> <Gold.Version>
5.8.1

> <Gold.Id.Protein>
6NUR|6NUR_protein|mol2

> <Gold.PLP.Fitness>
33.4228

> <Gold.PLP.PLP>
-24.3645

> <Gold.PLP.part.hbond>
-2.4031

> <Gold.PLP.part.metal>
0.0000

> <Gold.PLP.part.buried>
-0.5950

> <Gold.PLP.part.nonpolar>
-22.7223

> <Gold.PLP.part.repulsive>
0.2277

> <Gold.PLP.ligand.clash>
0.0000

> <Gold.PLP.ligand.torsion>
0.4974

> <Gold.PLP.Chemscore.Hbond>
1.9760

> <Gold.PLP.Chemscore.CHOScore>
1.0564

> <Gold.PLP.Chemscore.Metal>
0.0000

> <Gold.Chemscore.Hbonds>
donor molecule, donor type, donor heavy atom, donor atom, acceptor molecule, acceptor atom, score
      P1  H  7997  8009       L1    10  1.00
      P1  H 10752 10764       L1     7  0.96
      L1  C     6    24       P1  7948  0.85
      L1  C     6    24       P1  7949  0.22

> <Gold.PLP.Chemscore.Internal.Correction>
0.9558

> <Gold.Rescore>
     Score         DG    S(hbond)    S(metal)    S(lipo)     H(rot)  DE(clash)    DE(int)     intcor
     15.08     -17.04       1.49        0.00      56.22       0.00       0.43       1.53       ----

> <Gold.Chemscore.Fitness>
15.0785

> <Gold.Chemscore.DG>
-17.0356

> <Gold.Chemscore.ZeroCoef>
-5.4800

> <Gold.Chemscore.Hbond>
1.4905

> <Gold.Chemscore.Metal>
0.0000

> <Gold.Chemscore.Lipo>
56.2154

> <Gold.Chemscore.Internal_Hbond>
0.0000

> <Gold.Chemscore.DEClash>
0.4266

> <Gold.Chemscore.DEInternal>
1.5305

> <Gold.Chemscore.Rot>
0.0000

> <Gold.Chemscore.Internal.Correction>
   9.000000E+99

> <Gold.Chemscore.Hbonds>
donor molecule, donor type, donor heavy atom, donor atom, acceptor molecule, acceptor atom, score
      P1  H  7997  8009       L1    10  0.48
      P1  H 10752 10764       L1     7  0.37

> <Gold.Chemscore.Hbond.Weighted>
-4.9784

> <Gold.Chemscore.Metal.Weighted>
-0.0000

> <Gold.Chemscore.Lipo.Weighted>
-6.5772

> <Gold.Chemscore.Internal_Hbond.Weighted>
0.0000

> <Gold.Chemscore.DEClash.Weighted>
0.4266

> <Gold.Chemscore.DEInternal.Weighted>
1.5305

> <Gold.Chemscore.Rot.Weighted>
0.0000

> <Gold.Chemscore.Internal.Correction.Weighted>
   9.000000E+99

> <Gold.Protein.RotatedTorsions>
[ 6907 6896 6895 6894 ] final   87.82 input  -60.11 | X-H torsion
[ 7974 7965 7964 7962 ] final   26.80 input  175.53 | X-H torsion
[ 8008 7997 7996 7995 ] final -165.12 input   59.86 | X-H torsion
[ 10167 10162 10161 10158 ] final   96.89 input  -65.29 | X-H torsion
[ 10718 10713 10712 10709 ] final  -82.95 input   66.30 | X-H torsion
[ 10763 10752 10751 10750 ] final  -64.53 input  -60.55 | X-H torsion
[ 11005 11000 10999 10996 ] final   93.48 input  -57.11 | X-H torsion

> <Gold.Protein.ActiveResidues>
 VAL166  LYS551  ARG553  GLY616  TRP617  ASP618  TYR619  PRO620  LYS621  CYS622 
 ASP623  PHE694  ASN695  SER759  ASP760  ASP761  ALA762  ILE779  LEU786  VAL792 
 PHE793  MET794  SER795  GLU796  ALA797  LYS798  CYS799  TRP800  GLU811  SER814 

> <Gold.Protein.RotatedAtoms>
  152.5417  134.2216  159.8789 H   0  0  0  0  0  0  0  0  0  0  0  0  # atno 6907 bound_to 6896
  151.2193  133.4504  159.2608 H   0  0  0  0  0  0  0  0  0  0  0  0  # atno 6908 bound_to 6896
  151.0821  134.9877  159.8417 H   0  0  0  0  0  0  0  0  0  0  0  0  # atno 6909 bound_to 6896
  146.1818  139.7279  142.8895 H   0  0  0  0  0  0  0  0  0  0  0  0  # atno 7974 bound_to 7965
  155.8453  140.0954  157.1709 H   0  0  0  0  0  0  0  0  0  0  0  0  # atno 8008 bound_to 7997
  154.3983  140.1393  156.3840 H   0  0  0  0  0  0  0  0  0  0  0  0  # atno 8009 bound_to 7997
  155.8020  140.3452  155.5410 H   0  0  0  0  0  0  0  0  0  0  0  0  # atno 8010 bound_to 7997
  139.7852  144.6873  150.9968 H   0  0  0  0  0  0  0  0  0  0  0  0  # atno 10167 bound_to 10162
  156.0025  130.4650  150.4183 H   0  0  0  0  0  0  0  0  0  0  0  0  # atno 10718 bound_to 10713
  154.3314  135.6176  153.5553 H   0  0  0  0  0  0  0  0  0  0  0  0  # atno 10763 bound_to 10752
  152.9811  135.5748  154.4957 H   0  0  0  0  0  0  0  0  0  0  0  0  # atno 10764 bound_to 10752
  154.4644  135.2857  155.1666 H   0  0  0  0  0  0  0  0  0  0  0  0  # atno 10765 bound_to 10752
  139.8809  134.8792  156.3723 H   0  0  0  0  0  0  0  0  0  0  0  0  # atno 11005 bound_to 11000
  145.4053  141.0390  143.3047 LP  0  0  0  0  0  0  0  0  0  0  0  0  # atno 17320 bound_to 7965
  144.8329  139.5599  143.6935 LP  0  0  0  0  0  0  0  0  0  0  0  0  # atno 17321 bound_to 7965
  140.7819  143.4440  151.0509 LP  0  0  0  0  0  0  0  0  0  0  0  0  # atno 17342 bound_to 10162
  139.8119  143.7939  152.3172 LP  0  0  0  0  0  0  0  0  0  0  0  0  # atno 17343 bound_to 10162
  157.2241  131.0489  151.2530 LP  0  0  0  0  0  0  0  0  0  0  0  0  # atno 17370 bound_to 10713
  157.3773  130.7212  149.6605 LP  0  0  0  0  0  0  0  0  0  0  0  0  # atno 17371 bound_to 10713
  140.9455  133.7486  156.0203 LP  0  0  0  0  0  0  0  0  0  0  0  0  # atno 17394 bound_to 11000
  140.8168  134.3335  157.5394 LP  0  0  0  0  0  0  0  0  0  0  0  0  # atno 17395 bound_to 11000

$$$$
