AV-unprocessed.smi:109|AV-procd|sdf|1056|dock5
  -GOLD-   2262018123D 1   1.00000     0.00000
 Structure written by MMmdl.
 58 61  0  0  0  0  0  0  0  0  1 V2000
  156.2652  140.1301  159.2141 O   0  0  0  0  0  0  0  0  0  0  0  0
  155.4644  140.8273  160.1438 C   0  0  0  0  0  0  0  0  0  0  0  0
  154.0488  140.2288  160.1659 C   0  0  0  0  0  0  0  0  0  0  0  0
  153.0491  141.0136  159.2876 C   0  0  1  0  0  0  0  0  0  0  0  0
  151.7618  140.3195  159.2603 N   0  0  0  0  0  0  0  0  0  0  0  0
  150.8147  140.6212  158.3445 C   0  0  0  0  0  0  0  0  0  0  0  0
  149.7479  141.4013  158.6603 N   0  0  0  0  0  0  0  0  0  0  0  0
  148.8287  141.6858  157.7327 C   0  0  0  0  0  0  0  0  0  0  0  0
  148.7848  141.3009  156.4550 N   0  0  0  0  0  0  0  0  0  0  0  0
  149.8556  140.5180  156.1345 C   0  0  0  0  0  0  0  0  0  0  0  0
  150.9049  140.1355  157.0150 C   0  0  0  0  0  0  0  0  0  0  0  0
  151.8170  139.3350  156.3400 N   0  0  0  0  0  0  0  0  0  0  0  0
  151.3309  139.2550  155.1302 C   0  0  0  0  0  0  0  0  0  0  0  0
  150.1548  139.9436  154.9183 N   0  0  0  0  0  0  0  0  0  0  0  0
  149.3382  140.0663  153.6678 C   0  0  2  0  0  0  0  0  0  0  0  0
  148.6741  141.2950  153.7183 O   0  0  0  0  0  0  0  0  0  0  0  0
  147.2595  141.1099  153.7369 C   0  0  2  0  0  0  0  0  0  0  0  0
  146.5739  142.2004  154.5791 C   0  0  0  0  0  0  0  0  0  0  0  0
  146.7350  143.4642  153.9709 O   0  0  0  0  0  0  0  0  0  0  0  0
  147.0301  139.6497  154.1578 C   0  0  2  0  0  0  0  0  0  0  0  0
  146.9405  139.5114  155.5659 O   0  0  0  0  0  0  0  0  0  0  0  0
  148.2608  138.9693  153.5726 C   0  0  2  0  0  0  0  0  0  0  0  0
  148.5783  137.7388  154.2002 O   0  0  0  0  0  0  0  0  0  0  0  0
  152.8643  142.4975  159.7101 C   0  0  0  0  0  0  0  0  0  0  0  0
  152.2135  142.6482  161.1020 C   0  0  0  0  0  0  0  0  0  0  0  0
  152.1414  144.1229  161.5312 C   0  0  0  0  0  0  0  0  0  0  0  0
  151.3954  144.9702  160.4888 C   0  0  0  0  0  0  0  0  0  0  0  0
  152.0329  144.8263  159.0980 C   0  0  0  0  0  0  0  0  0  0  0  0
  152.1067  143.3522  158.6683 C   0  0  0  0  0  0  0  0  0  0  0  0
  150.0669  140.0393  152.8569 H   0  0  0  0  0  0  0  0  0  0  0  0
  146.9356  141.2140  152.6997 H   0  0  0  0  0  0  0  0  0  0  0  0
  146.1112  139.2512  153.7263 H   0  0  0  0  0  0  0  0  0  0  0  0
  148.0874  138.7830  152.5120 H   0  0  0  0  0  0  0  0  0  0  0  0
  156.5817  139.3394  159.6238 H   0  0  0  0  0  0  0  0  0  0  0  0
  155.9259  140.7605  161.1295 H   0  0  0  0  0  0  0  0  0  0  0  0
  155.4398  141.8811  159.8650 H   0  0  0  0  0  0  0  0  0  0  0  0
  154.0912  139.1863  159.8478 H   0  0  0  0  0  0  0  0  0  0  0  0
  153.7055  140.2176  161.1996 H   0  0  0  0  0  0  0  0  0  0  0  0
  153.4606  141.0100  158.2777 H   0  0  0  0  0  0  0  0  0  0  0  0
  151.5873  139.6966  160.0359 H   0  0  0  0  0  0  0  0  0  0  0  0
  148.0124  142.3125  158.0604 H   0  0  0  0  0  0  0  0  0  0  0  0
  151.8247  138.6870  154.3562 H   0  0  0  0  0  0  0  0  0  0  0  0
  145.5135  141.9927  154.7231 H   0  0  0  0  0  0  0  0  0  0  0  0
  147.0247  142.2396  155.5710 H   0  0  0  0  0  0  0  0  0  0  0  0
  147.5400  143.8473  154.2844 H   0  0  0  0  0  0  0  0  0  0  0  0
  146.0281  139.4407  155.8019 H   0  0  0  0  0  0  0  0  0  0  0  0
  148.6533  137.0732  153.5341 H   0  0  0  0  0  0  0  0  0  0  0  0
  153.8627  142.9276  159.8031 H   0  0  0  0  0  0  0  0  0  0  0  0
  151.2061  142.2332  161.1018 H   0  0  0  0  0  0  0  0  0  0  0  0
  152.7812  142.0824  161.8416 H   0  0  0  0  0  0  0  0  0  0  0  0
  151.6464  144.2041  162.4992 H   0  0  0  0  0  0  0  0  0  0  0  0
  153.1505  144.5142  161.6665 H   0  0  0  0  0  0  0  0  0  0  0  0
  150.3507  144.6597  160.4457 H   0  0  0  0  0  0  0  0  0  0  0  0
  151.3947  146.0177  160.7916 H   0  0  0  0  0  0  0  0  0  0  0  0
  151.4610  145.3977  158.3663 H   0  0  0  0  0  0  0  0  0  0  0  0
  153.0360  145.2545  159.1088 H   0  0  0  0  0  0  0  0  0  0  0  0
  152.5953  143.2843  157.6958 H   0  0  0  0  0  0  0  0  0  0  0  0
  151.0937  142.9724  158.5335 H   0  0  0  0  0  0  0  0  0  0  0  0
  1  2  1  0  0  0  0
  1 34  1  0  0  0  0
  2  3  1  0  0  0  0
  2 35  1  0  0  0  0
  2 36  1  0  0  0  0
  3  4  1  0  0  0  0
  3 37  1  0  0  0  0
  3 38  1  0  0  0  0
  4  5  1  0  0  0  0
  4 24  1  0  0  0  0
  4 39  1  0  0  0  0
  5  6  1  0  0  0  0
  5 40  1  0  0  0  0
  6 11  1  0  0  0  0
  6  7  2  0  0  0  0
  7  8  1  0  0  0  0
  8  9  2  0  0  0  0
  8 41  1  0  0  0  0
  9 10  1  0  0  0  0
 10 14  1  0  0  0  0
 10 11  2  0  0  0  0
 11 12  1  0  0  0  0
 12 13  2  0  0  0  0
 13 14  1  0  0  0  0
 13 42  1  0  0  0  0
 14 15  1  0  0  0  0
 15 30  1  0  0  0  0
 15 22  1  0  0  0  0
 15 16  1  0  0  0  0
 16 17  1  0  0  0  0
 17 31  1  0  0  0  0
 17 18  1  0  0  0  0
 17 20  1  0  0  0  0
 18 19  1  0  0  0  0
 18 43  1  0  0  0  0
 18 44  1  0  0  0  0
 19 45  1  0  0  0  0
 20 32  1  0  0  0  0
 20 21  1  0  0  0  0
 20 22  1  0  0  0  0
 21 46  1  0  0  0  0
 22 33  1  0  0  0  0
 22 23  1  0  0  0  0
 23 47  1  0  0  0  0
 24 29  1  0  0  0  0
 24 25  1  0  0  0  0
 24 48  1  0  0  0  0
 25 26  1  0  0  0  0
 25 49  1  0  0  0  0
 25 50  1  0  0  0  0
 26 27  1  0  0  0  0
 26 51  1  0  0  0  0
 26 52  1  0  0  0  0
 27 28  1  0  0  0  0
 27 53  1  0  0  0  0
 27 54  1  0  0  0  0
 28 29  1  0  0  0  0
 28 55  1  0  0  0  0
 28 56  1  0  0  0  0
 29 57  1  0  0  0  0
 29 58  1  0  0  0  0
M  END
> <s_m_source_file>
AV-unprocessed.smi

> <i_m_source_file_index>
109

> <i_lp_mmshare_version>
43012

> <i_f3d_flags>
0

> <s_epik_input>
W0NIMl0xW0NIMl1bQ0gyXVtDSDJdW0NIMl1bQ0hdMVtDQEhdKFtDSDJdW0NIMl1bT0hdKVtOSF1jKG5bY0hdbjIpYyhjMjMpbltjSF1uM1tDQEBIXTRPW0NASF0oW0NIMl1bT0hdKVtDQEBIXShbT0hdKVtDQEhdNFtPSF0=

> <s_epik_cmdline>
J2VwaWtfcHl0aG9uJywgJy1waCcsICc3LjAnLCAnLXRuJywgJzgnLCAnLW1hJywgJzIwMCcsICctbWV0YWxfYmluZGluZycsICctaW1hZScsICc8aW5maWxlLm1hZT4nLCAnLW9tYWUnLCAnPG91dGZpbGUubWFlPic=

> <r_lp_tautomer_probability>
1

> <r_epik_Ionization_Penalty>
0.000793976

> <r_epik_Ionization_Penalty_Charging>
0

> <r_epik_Ionization_Penalty_Neutral>
0.000793976

> <r_epik_State_Penalty>
-0

> <r_epik_Charging_Adjusted_Penalty>
0

> <i_epik_Tot_Q>
0

> <i_epik_Tot_abs_Q>
0

> <r_epik_Metal_State_Penalty>
-0

> <b_epik_Metal_Only>
0

> <s_epik_Chemistry_Notes>
This compound contains an acetal/aminal-like group ( X-CH(R)-Y where X, Y are N, S, or O) that may be acid/base labile, releasing an aldehyde.

> <s_lp_Force_Field>
OPLS_2005

> <r_lp_Energy>
58.3807

> <b_lp_Chiralities_Consistent>
1

> <s_lp_Variant>
AV-unprocessed.smi:109-26

> <Gold.Version>
5.8.1

> <Gold.Id.Protein>
6NUR|6NUR_protein|mol2

> <Gold.PLP.Fitness>
59.2566

> <Gold.PLP.PLP>
-50.8386

> <Gold.PLP.part.hbond>
-5.4052

> <Gold.PLP.part.metal>
0.0000

> <Gold.PLP.part.buried>
3.0343

> <Gold.PLP.part.nonpolar>
-50.3135

> <Gold.PLP.part.repulsive>
1.8683

> <Gold.PLP.ligand.clash>
0.0000

> <Gold.PLP.ligand.torsion>
1.9416

> <Gold.PLP.Chemscore.Hbond>
3.8484

> <Gold.PLP.Chemscore.CHOScore>
0.0000

> <Gold.PLP.Chemscore.Metal>
0.0000

> <Gold.Chemscore.Hbonds>
donor molecule, donor type, donor heavy atom, donor atom, acceptor molecule, acceptor atom, score
      L1  H    19    45       P1  8028  0.77
      L1  H    23    47       P1  7948  1.00
      P1  H  7997  8008       L1     1  0.91
      P1  H  8011  8017       L1    16  0.66

> <Gold.PLP.Chemscore.Internal.Correction>
0.7558

> <Gold.Rescore>
     Score         DG    S(hbond)    S(metal)    S(lipo)     H(rot)  DE(clash)    DE(int)     intcor
      8.51     -15.00       2.74        0.00     122.70       5.47       2.19       4.31       ----

> <Gold.Chemscore.Fitness>
8.5064

> <Gold.Chemscore.DG>
-14.9985

> <Gold.Chemscore.ZeroCoef>
-5.4800

> <Gold.Chemscore.Hbond>
2.7413

> <Gold.Chemscore.Metal>
0.0000

> <Gold.Chemscore.Lipo>
122.7012

> <Gold.Chemscore.Internal_Hbond>
0.0000

> <Gold.Chemscore.DEClash>
2.1854

> <Gold.Chemscore.DEInternal>
4.3068

> <Gold.Chemscore.Rot>
5.4662

> <Gold.Chemscore.Internal.Correction>
   9.000000E+99

> <Gold.Chemscore.Hbonds>
donor molecule, donor type, donor heavy atom, donor atom, acceptor molecule, acceptor atom, score
      L1  H    19    45       P1  8028  0.11
      L1  H    23    47       P1  7948  1.00
      P1  H  7997  8008       L1     1  0.81
      P1  H  8011  8017       L1    16  0.20

> <Gold.Chemscore.Hbond.Weighted>
-9.1559

> <Gold.Chemscore.Metal.Weighted>
-0.0000

> <Gold.Chemscore.Lipo.Weighted>
-14.3560

> <Gold.Chemscore.Internal_Hbond.Weighted>
0.0000

> <Gold.Chemscore.DEClash.Weighted>
2.1854

> <Gold.Chemscore.DEInternal.Weighted>
4.3068

> <Gold.Chemscore.Rot.Weighted>
13.9935

> <Gold.Chemscore.Internal.Correction.Weighted>
   9.000000E+99

> <Gold.Protein.RotatedTorsions>
[ 6907 6896 6895 6894 ] final   -1.52 input  -60.11 | X-H torsion
[ 7974 7965 7964 7962 ] final -147.99 input  175.53 | X-H torsion
[ 8008 7997 7996 7995 ] final -165.35 input   59.86 | X-H torsion
[ 10167 10162 10161 10158 ] final   -1.98 input  -65.29 | X-H torsion
[ 10718 10713 10712 10709 ] final -125.39 input   66.30 | X-H torsion
[ 10763 10752 10751 10750 ] final  155.87 input  -60.55 | X-H torsion
[ 11005 11000 10999 10996 ] final -143.15 input  -57.11 | X-H torsion

> <Gold.Protein.ActiveResidues>
 VAL166  LYS551  ARG553  GLY616  TRP617  ASP618  TYR619  PRO620  LYS621  CYS622 
 ASP623  PHE694  ASN695  SER759  ASP760  ASP761  ALA762  ILE779  LEU786  VAL792 
 PHE793  MET794  SER795  GLU796  ALA797  LYS798  CYS799  TRP800  GLU811  SER814 

> <Gold.Protein.RotatedAtoms>
  151.5447  135.1068  159.9934 H   0  0  0  0  0  0  0  0  0  0  0  0  # atno 6907 bound_to 6896
  152.4519  133.7642  159.6774 H   0  0  0  0  0  0  0  0  0  0  0  0  # atno 6908 bound_to 6896
  150.8450  133.7809  159.3071 H   0  0  0  0  0  0  0  0  0  0  0  0  # atno 6909 bound_to 6896
  144.8058  140.5255  143.5676 H   0  0  0  0  0  0  0  0  0  0  0  0  # atno 7974 bound_to 7965
  155.8486  140.0959  157.1689 H   0  0  0  0  0  0  0  0  0  0  0  0  # atno 8008 bound_to 7997
  154.3984  140.1387  156.3878 H   0  0  0  0  0  0  0  0  0  0  0  0  # atno 8009 bound_to 7997
  155.7986  140.3453  155.5392 H   0  0  0  0  0  0  0  0  0  0  0  0  # atno 8010 bound_to 7997
  140.6832  143.6711  150.8184 H   0  0  0  0  0  0  0  0  0  0  0  0  # atno 10167 bound_to 10162
  156.1671  130.6642  151.0130 H   0  0  0  0  0  0  0  0  0  0  0  0  # atno 10718 bound_to 10713
  154.1753  135.2802  155.3068 H   0  0  0  0  0  0  0  0  0  0  0  0  # atno 10763 bound_to 10752
  154.6044  135.5519  153.7410 H   0  0  0  0  0  0  0  0  0  0  0  0  # atno 10764 bound_to 10752
  153.0153  135.6399  154.1893 H   0  0  0  0  0  0  0  0  0  0  0  0  # atno 10765 bound_to 10752
  140.8154  134.2695  157.4923 H   0  0  0  0  0  0  0  0  0  0  0  0  # atno 11005 bound_to 11000
  145.5443  139.1475  143.3430 LP  0  0  0  0  0  0  0  0  0  0  0  0  # atno 17320 bound_to 7965
  146.2348  140.5582  142.8959 LP  0  0  0  0  0  0  0  0  0  0  0  0  # atno 17321 bound_to 7965
  140.0414  143.5342  152.2716 LP  0  0  0  0  0  0  0  0  0  0  0  0  # atno 17342 bound_to 10162
  139.6171  144.7621  151.2823 LP  0  0  0  0  0  0  0  0  0  0  0  0  # atno 17343 bound_to 10162
  157.6776  131.0846  150.7455 LP  0  0  0  0  0  0  0  0  0  0  0  0  # atno 17370 bound_to 10713
  156.7515  130.4770  149.5455 LP  0  0  0  0  0  0  0  0  0  0  0  0  # atno 17371 bound_to 10713
  139.8711  134.9506  156.4060 LP  0  0  0  0  0  0  0  0  0  0  0  0  # atno 17394 bound_to 11000
  140.9155  133.7682  155.9842 LP  0  0  0  0  0  0  0  0  0  0  0  0  # atno 17395 bound_to 11000

$$$$
