AV-unprocessed.smi:1419|AV-procd|sdf|5780|dock10
  -GOLD-   22720 5423D 1   1.00000     0.00000
 Structure written by MMmdl.
 41 42  0  0  0  0  0  0  0  0  1 V2000
  148.3602  140.8043  157.0587 C   0  0  0  0  0  0  0  0  0  0  0  0
  149.1233  141.6884  156.0634 C   0  0  2  0  0  0  0  0  0  0  0  0
  149.6573  140.8647  154.8720 C   0  0  0  0  0  0  0  0  0  0  0  0
  150.7272  139.9591  155.2513 N   0  0  0  0  0  0  0  0  0  0  0  0
  150.5944  138.6633  155.7332 C   0  0  0  0  0  0  0  0  0  0  0  0
  151.8683  138.2006  155.9735 C   0  0  0  0  0  0  0  0  0  0  0  0
  152.7949  139.1855  155.6403 N   0  0  0  0  0  0  0  0  0  0  0  0
  152.0459  140.1956  155.2171 C   0  0  0  0  0  0  0  0  0  0  0  0
  150.2243  142.3540  156.7590 N   0  0  0  0  0  0  0  0  0  0  0  0
  151.0852  141.7698  157.6113 C   0  0  0  0  0  0  0  0  0  0  0  0
  151.0957  140.5536  157.8061 O   0  0  0  0  0  0  0  0  0  0  0  0
  151.9351  142.6257  158.2299 N   0  0  0  0  0  0  0  0  0  0  0  0
  151.7428  144.0712  158.4079 C   0  0  0  0  0  0  0  0  0  0  0  0
  151.3153  144.3169  159.8694 C   0  0  2  0  0  0  0  0  0  0  0  0
  151.1332  145.8063  160.1786 C   0  0  0  0  0  0  0  0  0  0  0  0
  152.3197  143.7997  160.7423 O   0  0  0  0  0  0  0  0  0  0  0  0
  152.5798  142.4069  160.5647 C   0  0  2  0  0  0  0  0  0  0  0  0
  153.6578  141.9873  161.5694 C   0  0  0  0  0  0  0  0  0  0  0  0
  153.0121  142.1586  159.1051 C   0  0  0  0  0  0  0  0  0  0  0  0
  147.5129  140.3149  156.5776 H   0  0  0  0  0  0  0  0  0  0  0  0
  147.9707  141.3936  157.8897 H   0  0  0  0  0  0  0  0  0  0  0  0
  149.0020  140.0261  157.4734 H   0  0  0  0  0  0  0  0  0  0  0  0
  148.4172  142.4292  155.6843 H   0  0  0  0  0  0  0  0  0  0  0  0
  148.8528  140.2829  154.4195 H   0  0  0  0  0  0  0  0  0  0  0  0
  150.0372  141.5297  154.0953 H   0  0  0  0  0  0  0  0  0  0  0  0
  149.6316  138.1935  155.8694 H   0  0  0  0  0  0  0  0  0  0  0  0
  152.1864  137.2423  156.3566 H   0  0  0  0  0  0  0  0  0  0  0  0
  152.4656  141.1338  154.8848 H   0  0  0  0  0  0  0  0  0  0  0  0
  150.2958  143.3535  156.6374 H   0  0  0  0  0  0  0  0  0  0  0  0
  152.6817  144.5863  158.1983 H   0  0  0  0  0  0  0  0  0  0  0  0
  151.0134  144.5065  157.7250 H   0  0  0  0  0  0  0  0  0  0  0  0
  150.3740  143.8022  160.0689 H   0  0  0  0  0  0  0  0  0  0  0  0
  150.3632  146.2477  159.5455 H   0  0  0  0  0  0  0  0  0  0  0  0
  152.0592  146.3586  160.0155 H   0  0  0  0  0  0  0  0  0  0  0  0
  150.8351  145.9545  161.2167 H   0  0  0  0  0  0  0  0  0  0  0  0
  151.6675  141.8465  160.7782 H   0  0  0  0  0  0  0  0  0  0  0  0
  153.8828  140.9243  161.4808 H   0  0  0  0  0  0  0  0  0  0  0  0
  153.3298  142.1734  162.5922 H   0  0  0  0  0  0  0  0  0  0  0  0
  154.5836  142.5408  161.4098 H   0  0  0  0  0  0  0  0  0  0  0  0
  153.2484  141.1042  158.9536 H   0  0  0  0  0  0  0  0  0  0  0  0
  153.9291  142.7053  158.8794 H   0  0  0  0  0  0  0  0  0  0  0  0
  1  2  1  0  0  0  0
  1 20  1  0  0  0  0
  1 21  1  0  0  0  0
  1 22  1  0  0  0  0
  2  3  1  0  0  0  0
  2  9  1  0  0  0  0
  2 23  1  0  0  0  0
  3  4  1  0  0  0  0
  3 24  1  0  0  0  0
  3 25  1  0  0  0  0
  4  8  1  0  0  0  0
  4  5  1  0  0  0  0
  5  6  2  0  0  0  0
  5 26  1  0  0  0  0
  6  7  1  0  0  0  0
  6 27  1  0  0  0  0
  7  8  2  0  0  0  0
  8 28  1  0  0  0  0
  9 10  1  0  0  0  0
  9 29  1  0  0  0  0
 10 11  2  0  0  0  0
 10 12  1  0  0  0  0
 12 19  1  0  0  0  0
 12 13  1  0  0  0  0
 13 14  1  0  0  0  0
 13 30  1  0  0  0  0
 13 31  1  0  0  0  0
 14 15  1  0  0  0  0
 14 16  1  0  0  0  0
 14 32  1  0  0  0  0
 15 33  1  0  0  0  0
 15 34  1  0  0  0  0
 15 35  1  0  0  0  0
 16 17  1  0  0  0  0
 17 18  1  0  0  0  0
 17 19  1  0  0  0  0
 17 36  1  0  0  0  0
 18 37  1  0  0  0  0
 18 38  1  0  0  0  0
 18 39  1  0  0  0  0
 19 40  1  0  0  0  0
 19 41  1  0  0  0  0
M  END
> <s_m_source_file>
AV-unprocessed.smi

> <i_m_source_file_index>
1419

> <i_lp_mmshare_version>
43012

> <i_f3d_flags>
0

> <s_epik_input>
W2NIXTFuW2NIXVtjSF1uMVtDSDJdW0NAQEhdKFtDSDNdKVtOSF1DKD1PKU4yW0NIMl1bQ0BASF0oW0NIM10pT1tDQEBIXShbQ0gzXSlbQ0gyXTI=

> <s_epik_cmdline>
J2VwaWtfcHl0aG9uJywgJy1waCcsICc3LjAnLCAnLXRuJywgJzgnLCAnLW1hJywgJzIwMCcsICctbWV0YWxfYmluZGluZycsICctaW1hZScsICc8aW5maWxlLm1hZT4nLCAnLW9tYWUnLCAnPG91dGZpbGUubWFlPic=

> <r_lp_tautomer_probability>
1

> <r_epik_Ionization_Penalty>
0.625124

> <r_epik_Ionization_Penalty_Charging>
0.625093

> <r_epik_Ionization_Penalty_Neutral>
3.17415e-05

> <r_epik_State_Penalty>
0.641455

> <r_epik_Charging_Adjusted_Penalty>
1.26655

> <i_epik_Tot_Q>
0

> <i_epik_Tot_abs_Q>
0

> <r_epik_Metal_State_Penalty>
0.307717

> <b_epik_Metal_Only>
0

> <s_lp_Force_Field>
OPLS_2005

> <r_lp_Energy>
27.7679

> <b_lp_Chiralities_Consistent>
1

> <s_lp_Variant>
AV-unprocessed.smi:1419-7

> <Gold.Version>
5.8.1

> <Gold.Id.Protein>
6NUR|6NUR_protein|mol2

> <Gold.PLP.Fitness>
39.6060

> <Gold.PLP.PLP>
-37.1250

> <Gold.PLP.part.hbond>
-2.0000

> <Gold.PLP.part.metal>
0.0000

> <Gold.PLP.part.buried>
1.1421

> <Gold.PLP.part.nonpolar>
-35.0866

> <Gold.PLP.part.repulsive>
0.1193

> <Gold.PLP.ligand.clash>
0.0000

> <Gold.PLP.ligand.torsion>
0.7086

> <Gold.PLP.Chemscore.Hbond>
1.2730

> <Gold.PLP.Chemscore.CHOScore>
0.0000

> <Gold.PLP.Chemscore.Metal>
0.0000

> <Gold.Chemscore.Hbonds>
donor molecule, donor type, donor heavy atom, donor atom, acceptor molecule, acceptor atom, score
      L1  H     9    29       P1  8028  0.37
      P1  H  7997  8010       L1     7  1.00

> <Gold.PLP.Chemscore.Internal.Correction>
0.0792

> <Gold.Rescore>
     Score         DG    S(hbond)    S(metal)    S(lipo)     H(rot)  DE(clash)    DE(int)     intcor
      7.50     -17.40       1.65        0.00      89.34       1.58       3.05       6.84       ----

> <Gold.Chemscore.Fitness>
7.5006

> <Gold.Chemscore.DG>
-17.3966

> <Gold.Chemscore.ZeroCoef>
-5.4800

> <Gold.Chemscore.Hbond>
1.6468

> <Gold.Chemscore.Metal>
0.0000

> <Gold.Chemscore.Lipo>
89.3443

> <Gold.Chemscore.Internal_Hbond>
0.0000

> <Gold.Chemscore.DEClash>
3.0543

> <Gold.Chemscore.DEInternal>
6.8418

> <Gold.Chemscore.Rot>
1.5769

> <Gold.Chemscore.Internal.Correction>
   9.000000E+99

> <Gold.Chemscore.Hbonds>
donor molecule, donor type, donor heavy atom, donor atom, acceptor molecule, acceptor atom, score
      L1  H     9    29       P1  8028  0.35
      P1  H  7997  8010       L1     7  0.37

> <Gold.Chemscore.Hbond.Weighted>
-5.5003

> <Gold.Chemscore.Metal.Weighted>
-0.0000

> <Gold.Chemscore.Lipo.Weighted>
-10.4533

> <Gold.Chemscore.Internal_Hbond.Weighted>
0.0000

> <Gold.Chemscore.DEClash.Weighted>
3.0543

> <Gold.Chemscore.DEInternal.Weighted>
6.8418

> <Gold.Chemscore.Rot.Weighted>
4.0369

> <Gold.Chemscore.Internal.Correction.Weighted>
   9.000000E+99

> <Gold.Protein.RotatedTorsions>
[ 6907 6896 6895 6894 ] final  160.87 input  -60.11 | X-H torsion
[ 7974 7965 7964 7962 ] final    6.44 input  175.53 | X-H torsion
[ 8008 7997 7996 7995 ] final   68.91 input   59.86 | X-H torsion
[ 10167 10162 10161 10158 ] final  127.99 input  -65.29 | X-H torsion
[ 10718 10713 10712 10709 ] final  170.35 input   66.30 | X-H torsion
[ 10763 10752 10751 10750 ] final  111.63 input  -60.55 | X-H torsion
[ 11005 11000 10999 10996 ] final   78.09 input  -57.11 | X-H torsion

> <Gold.Protein.ActiveResidues>
 VAL166  LYS551  ARG553  GLY616  TRP617  ASP618  TYR619  PRO620  LYS621  CYS622 
 ASP623  PHE694  ASN695  SER759  ASP760  ASP761  ALA762  ILE779  LEU786  VAL792 
 PHE793  MET794  SER795  GLU796  ALA797  LYS798  CYS799  TRP800  GLU811  SER814 

> <Gold.Protein.RotatedAtoms>
  151.9642  133.3705  159.4046 H   0  0  0  0  0  0  0  0  0  0  0  0  # atno 6907 bound_to 6896
  150.6959  134.4209  159.5213 H   0  0  0  0  0  0  0  0  0  0  0  0  # atno 6908 bound_to 6896
  152.1902  134.8678  160.0569 H   0  0  0  0  0  0  0  0  0  0  0  0  # atno 6909 bound_to 6896
  146.2434  140.0233  142.8396 H   0  0  0  0  0  0  0  0  0  0  0  0  # atno 7974 bound_to 7965
  155.7155  140.3494  155.4993 H   0  0  0  0  0  0  0  0  0  0  0  0  # atno 8008 bound_to 7997
  155.9317  140.1085  157.1149 H   0  0  0  0  0  0  0  0  0  0  0  0  # atno 8009 bound_to 7997
  154.4086  140.1230  156.4798 H   0  0  0  0  0  0  0  0  0  0  0  0  # atno 8010 bound_to 7997
  139.5550  144.6842  151.4210 H   0  0  0  0  0  0  0  0  0  0  0  0  # atno 10167 bound_to 10162
  157.0094  131.0200  151.2807 H   0  0  0  0  0  0  0  0  0  0  0  0  # atno 10718 bound_to 10713
  153.4662  135.3711  155.2365 H   0  0  0  0  0  0  0  0  0  0  0  0  # atno 10763 bound_to 10752
  154.8757  135.3920  154.3867 H   0  0  0  0  0  0  0  0  0  0  0  0  # atno 10764 bound_to 10752
  153.4448  135.7084  153.6211 H   0  0  0  0  0  0  0  0  0  0  0  0  # atno 10765 bound_to 10752
  139.9227  134.7735  156.1604 H   0  0  0  0  0  0  0  0  0  0  0  0  # atno 11005 bound_to 11000
  145.1221  140.9469  143.4594 LP  0  0  0  0  0  0  0  0  0  0  0  0  # atno 17320 bound_to 7965
  145.0470  139.3212  143.5947 LP  0  0  0  0  0  0  0  0  0  0  0  0  # atno 17321 bound_to 7965
  140.6821  143.8058  150.7135 LP  0  0  0  0  0  0  0  0  0  0  0  0  # atno 17342 bound_to 10162
  140.1515  143.4354  152.2128 LP  0  0  0  0  0  0  0  0  0  0  0  0  # atno 17343 bound_to 10162
  157.5331  130.8071  149.7940 LP  0  0  0  0  0  0  0  0  0  0  0  0  # atno 17370 bound_to 10713
  156.0141  130.3820  150.2166 LP  0  0  0  0  0  0  0  0  0  0  0  0  # atno 17371 bound_to 10713
  141.0761  133.6775  156.2239 LP  0  0  0  0  0  0  0  0  0  0  0  0  # atno 17394 bound_to 11000
  140.6426  134.5150  157.5571 LP  0  0  0  0  0  0  0  0  0  0  0  0  # atno 17395 bound_to 11000

$$$$
