#       Name:                AV-unprocessed.smi:2253
#       Creating user name   scv26
#       Creation time:       Fri Mar 27 12:32:28 2020


#       File generated by GOLD software.
#

@<TRIPOS>MOLECULE
AV-unprocessed.smi:2253
    55    57     1
SMALL
NO_CHARGES


@<TRIPOS>ATOM
      1 ****        -3.7780  -4.7114   0.0652 C.3            1 S1                 0.0000
      2 ****        -4.0630  -3.2613   0.1134 N.4            1 S1                 1.0000
      3 ****        -3.7176  -2.5766  -1.1569 C.3            1 S1                 0.0000
      4 ****        -4.0920  -1.0843  -1.1043 C.3            1 S1                 0.0000
      5 ****        -3.3983  -0.3557   0.0755 C.3            1 S1                 0.0000
      6 ****        -1.9297  -0.2332  -0.0762 N.3            1 S1                 0.0000
      7 ****        -1.3327   0.5074   1.0482 C.3            1 S1                 0.0000
      8 ****         0.2013   0.5603   0.9475 C.3            1 S1                 0.0000
      9 ****         0.6441   1.2353  -0.3556 C.3            1 S1                 0.0000
     10 ****         2.0950   1.1812  -0.5094 N.am           1 S1                 0.0000
     11 ****         2.9623   2.0376   0.0496 C.2            1 S1                 0.0000
     12 ****         2.6163   2.9728   0.7705 O.2            1 S1                 0.0000
     13 ****         4.2273   1.7324  -0.2889 N.am           1 S1                 0.0000
     14 ****         5.4452   2.3845   0.0546 C.ar           1 S1                 0.0000
     15 ****         5.5595   3.4553   0.9756 C.ar           1 S1                 0.0000
     16 ****         6.8350   4.0034   1.2199 C.ar           1 S1                 0.0000
     17 ****         7.9626   3.5609   0.6250 N.ar           1 S1                 0.0000
     18 ****         7.8520   2.5373  -0.2473 C.ar           1 S1                 0.0000
     19 ****         6.6258   1.9187  -0.5631 C.ar           1 S1                 0.0000
     20 ****         6.5872   0.8939  -1.4490 F              1 S1                 0.0000
     21 ****        -0.0378   0.5142  -1.5208 C.3            1 S1                 0.0000
     22 ****        -1.5630   0.4587  -1.3236 C.3            1 S1                 0.0000
     23 ****        -3.8241  -1.1135   1.3594 C.3            1 S1                 0.0000
     24 ****        -3.4494  -2.6052   1.2943 C.3            1 S1                 0.0000
     25 ****        -2.7099  -4.8962  -0.0570 H              1 S1                 0.0000
     26 ****        -4.3034  -5.1800  -0.7675 H              1 S1                 0.0000
     27 ****        -4.1070  -5.1996   0.9830 H              1 S1                 0.0000
     28 ****        -2.6516  -2.6910  -1.3596 H              1 S1                 0.0000
     29 ****        -4.2492  -3.0554  -1.9802 H              1 S1                 0.0000
     30 ****        -3.9194  -0.6057  -2.0659 H              1 S1                 0.0000
     31 ****        -5.1717  -1.0100  -0.9662 H              1 S1                 0.0000
     32 ****        -3.8011   0.6571   0.1287 H              1 S1                 0.0000
     33 ****        -1.7446   1.5170   1.0919 H              1 S1                 0.0000
     34 ****        -1.5557   0.0302   1.9986 H              1 S1                 0.0000
     35 ****         0.6043   1.0996   1.8054 H              1 S1                 0.0000
     36 ****         0.6042  -0.4523   1.0024 H              1 S1                 0.0000
     37 ****         0.3173   2.2771  -0.3531 H              1 S1                 0.0000
     38 ****         2.4632   0.4414  -1.0890 H              1 S1                 0.0000
     39 ****         4.3343   0.9394  -0.9044 H              1 S1                 0.0000
     40 ****         4.7132   3.8667   1.5016 H              1 S1                 0.0000
     41 ****         6.9517   4.8204   1.9163 H              1 S1                 0.0000
     42 ****         8.7686   2.2002  -0.7082 H              1 S1                 0.0000
     43 ****         0.1921   1.0219  -2.4584 H              1 S1                 0.0000
     44 ****         0.3519  -0.5008  -1.6152 H              1 S1                 0.0000
     45 ****        -1.9580  -0.0630  -2.1915 H              1 S1                 0.0000
     46 ****        -1.9848   1.4651  -1.3320 H              1 S1                 0.0000
     47 ****        -3.4464  -0.6602   2.2731 H              1 S1                 0.0000
     48 ****        -4.9080  -1.0389   1.4591 H              1 S1                 0.0000
     49 ****        -3.7909  -3.1046   2.2017 H              1 S1                 0.0000
     50 ****        -2.3649  -2.7208   1.2594 H              1 S1                 0.0000
     51 ****        -5.0628  -3.1690   0.2238 H              1 S1                 0.0000
     52 ****        -1.5756  -1.1682  -0.0961 LP             1 S1                 0.0000
     53 ****         1.6468   3.1227   0.9641 LP             1 S1                 0.0000
     54 ****         3.3047   3.5829   1.1627 LP             1 S1                 0.0000
     55 ****         8.8498   3.9773   0.8238 LP             1 S1                 0.0000
@<TRIPOS>BOND
    1    1    2 1     
    2    1   25 1     
    3    1   26 1     
    4    1   27 1     
    5    2   24 1     
    6    2    3 1     
    7    2   51 1     
    8    3    4 1     
    9    3   28 1     
   10    3   29 1     
   11    4    5 1     
   12    4   30 1     
   13    4   31 1     
   14    5    6 1     
   15    5   23 1     
   16    5   32 1     
   17    6   22 1     
   18    6    7 1     
   19    7    8 1     
   20    7   33 1     
   21    7   34 1     
   22    8    9 1     
   23    8   35 1     
   24    8   36 1     
   25    9   10 1     
   26    9   21 1     
   27    9   37 1     
   28   10   11 am    
   29   10   38 1     
   30   11   12 2     
   31   11   13 am    
   32   13   14 1     
   33   13   39 1     
   34   14   19 ar    
   35   14   15 ar    
   36   15   16 ar    
   37   15   40 1     
   38   16   17 ar    
   39   16   41 1     
   40   17   18 ar    
   41   18   19 ar    
   42   18   42 1     
   43   19   20 1     
   44   21   22 1     
   45   21   43 1     
   46   21   44 1     
   47   22   45 1     
   48   22   46 1     
   49   23   24 1     
   50   23   47 1     
   51   23   48 1     
   52   24   49 1     
   53   24   50 1     
   54    6   52 1     
   55   12   53 1     
   56   12   54 1     
   57   17   55 1     
@<TRIPOS>SUBSTRUCTURE
      1 S1             1
@<TRIPOS>SET
LONE_PAIRS      STATIC     ATOMS    <user>   **** ""
4 52 53 54 55
DONOR_HYDROGENS      STATIC     ATOMS    <user>   **** ""
3 51 38 39
ATOM$BLUE        STATIC     ATOMS    COLORGROUP SYSTEM
4 52 53 54 55
ATOM$RED        STATIC     ATOMS    COLORGROUP SYSTEM
3 51 38 39
