AV-unprocessed.smi:2596|AV-procd|sdf|10169|dock8
  -GOLD-   2272014183D 1   1.00000     0.00000
 Structure written by MMmdl.
 32 33  0  0  0  0  0  0  0  0  1 V2000
  149.7977  140.0970  157.2249 O   0  0  0  0  0  0  0  0  0  0  0  0
  149.7341  141.2580  156.8222 C   0  0  0  0  0  0  0  0  0  0  0  0
  151.0170  142.0734  156.6307 C   0  0  0  0  0  0  0  0  0  0  0  0
  151.7183  142.2946  157.9058 N   0  0  0  0  0  0  0  0  0  0  0  0
  151.4801  143.5179  158.5642 C   0  0  0  0  0  0  0  0  0  0  0  0
  152.0598  143.8102  159.7384 C   0  0  0  0  0  0  0  0  0  0  0  0
  151.8132  144.9794  160.3512 F   0  0  0  0  0  0  0  0  0  0  0  0
  152.9491  142.8420  160.3323 C   0  0  0  0  0  0  0  0  0  0  0  0
  153.1816  141.6690  159.7103 C   0  0  0  0  0  0  0  0  0  0  0  0
  152.5501  141.3388  158.4265 C   0  0  0  0  0  0  0  0  0  0  0  0
  152.7566  140.2679  157.8556 O   0  0  0  0  0  0  0  0  0  0  0  0
  148.5803  141.8879  156.5508 N   0  0  0  0  0  0  0  0  0  0  0  0
  147.2482  141.3326  156.7549 C   0  0  0  0  0  0  0  0  0  0  0  0
  146.4029  141.4876  155.4938 C   0  0  0  0  0  0  0  0  0  0  0  0
  147.0780  141.7600  154.1400 C   0  0  0  0  0  0  0  0  0  0  0  0
  145.8716  142.6250  153.7661 C   0  0  0  0  0  0  0  0  0  0  0  0
  145.6049  142.7800  155.2660 C   0  0  0  0  0  0  0  0  0  0  0  0
  151.6691  141.5637  155.9188 H   0  0  0  0  0  0  0  0  0  0  0  0
  150.7641  143.0225  156.1552 H   0  0  0  0  0  0  0  0  0  0  0  0
  150.7985  144.1887  158.0613 H   0  0  0  0  0  0  0  0  0  0  0  0
  153.4287  143.0571  161.2760 H   0  0  0  0  0  0  0  0  0  0  0  0
  153.8495  140.9526  160.1657 H   0  0  0  0  0  0  0  0  0  0  0  0
  148.6280  142.8407  156.2201 H   0  0  0  0  0  0  0  0  0  0  0  0
  147.3585  140.2774  157.0049 H   0  0  0  0  0  0  0  0  0  0  0  0
  146.7588  141.7971  157.6126 H   0  0  0  0  0  0  0  0  0  0  0  0
  145.7254  140.6386  155.3792 H   0  0  0  0  0  0  0  0  0  0  0  0
  147.9981  142.3393  154.2336 H   0  0  0  0  0  0  0  0  0  0  0  0
  147.2221  140.8765  153.5172 H   0  0  0  0  0  0  0  0  0  0  0  0
  146.1163  143.5516  153.2462 H   0  0  0  0  0  0  0  0  0  0  0  0
  145.0904  142.0629  153.2519 H   0  0  0  0  0  0  0  0  0  0  0  0
  144.5543  142.7244  155.5524 H   0  0  0  0  0  0  0  0  0  0  0  0
  146.0912  143.6600  155.6902 H   0  0  0  0  0  0  0  0  0  0  0  0
  1  2  2  0  0  0  0
  2  3  1  0  0  0  0
  2 12  1  0  0  0  0
  3  4  1  0  0  0  0
  3 18  1  0  0  0  0
  3 19  1  0  0  0  0
  4 10  1  0  0  0  0
  4  5  1  0  0  0  0
  5  6  2  0  0  0  0
  5 20  1  0  0  0  0
  6  7  1  0  0  0  0
  6  8  1  0  0  0  0
  8  9  2  0  0  0  0
  8 21  1  0  0  0  0
  9 10  1  0  0  0  0
  9 22  1  0  0  0  0
 10 11  2  0  0  0  0
 12 13  1  0  0  0  0
 12 23  1  0  0  0  0
 13 14  1  0  0  0  0
 13 24  1  0  0  0  0
 13 25  1  0  0  0  0
 14 17  1  0  0  0  0
 14 15  1  0  0  0  0
 14 26  1  0  0  0  0
 15 16  1  0  0  0  0
 15 27  1  0  0  0  0
 15 28  1  0  0  0  0
 16 17  1  0  0  0  0
 16 29  1  0  0  0  0
 16 30  1  0  0  0  0
 17 31  1  0  0  0  0
 17 32  1  0  0  0  0
M  END
> <s_m_source_file>
AV-unprocessed.smi

> <i_m_source_file_index>
2596

> <i_lp_mmshare_version>
43012

> <i_f3d_flags>
0

> <s_epik_input>
W0NIMl0xW0NIMl1bQ0gyXVtDSF0xW0NIMl1bTkhdQyg9TylbQ0gyXW4yW2NIXWMoRilbY0hdW2NIXWMyPU8=

> <s_epik_cmdline>
J2VwaWtfcHl0aG9uJywgJy1waCcsICc3LjAnLCAnLXRuJywgJzgnLCAnLW1hJywgJzIwMCcsICctbWV0YWxfYmluZGluZycsICctaW1hZScsICc8aW5maWxlLm1hZT4nLCAnLW9tYWUnLCAnPG91dGZpbGUubWFlPic=

> <r_lp_tautomer_probability>
1

> <r_epik_Ionization_Penalty>
2.75493e-07

> <r_epik_Ionization_Penalty_Charging>
2.56191e-07

> <r_epik_Ionization_Penalty_Neutral>
1.93017e-08

> <r_epik_State_Penalty>
-0

> <r_epik_Charging_Adjusted_Penalty>
2.56191e-07

> <i_epik_Tot_Q>
0

> <i_epik_Tot_abs_Q>
0

> <r_epik_Metal_State_Penalty>
-0

> <b_epik_Metal_Only>
0

> <s_lp_Force_Field>
OPLS_2005

> <r_lp_Energy>
22.7993

> <b_lp_Chiralities_Consistent>
1

> <s_lp_Variant>
AV-unprocessed.smi:2596-1

> <Gold.Version>
5.8.1

> <Gold.Id.Protein>
6NUR|6NUR_protein|mol2

> <Gold.PLP.Fitness>
44.3412

> <Gold.PLP.PLP>
-40.3099

> <Gold.PLP.part.hbond>
-2.0000

> <Gold.PLP.part.metal>
0.0000

> <Gold.PLP.part.buried>
-5.3314

> <Gold.PLP.part.nonpolar>
-31.6291

> <Gold.PLP.part.repulsive>
0.0239

> <Gold.PLP.ligand.clash>
0.0000

> <Gold.PLP.ligand.torsion>
0.8509

> <Gold.PLP.Chemscore.Hbond>
1.8892

> <Gold.PLP.Chemscore.CHOScore>
0.0000

> <Gold.PLP.Chemscore.Metal>
0.0000

> <Gold.Chemscore.Hbonds>
donor molecule, donor type, donor heavy atom, donor atom, acceptor molecule, acceptor atom, score
      L1  H    12    23       P1  8028  1.00
      P1  H  7997  8010       L1    11  0.96

> <Gold.PLP.Chemscore.Internal.Correction>
0.0654

> <Gold.Rescore>
     Score         DG    S(hbond)    S(metal)    S(lipo)     H(rot)  DE(clash)    DE(int)     intcor
     15.75     -16.26       1.85        0.00      76.69       1.71       0.04       0.46       ----

> <Gold.Chemscore.Fitness>
15.7529

> <Gold.Chemscore.DG>
-16.2557

> <Gold.Chemscore.ZeroCoef>
-5.4800

> <Gold.Chemscore.Hbond>
1.8488

> <Gold.Chemscore.Metal>
0.0000

> <Gold.Chemscore.Lipo>
76.6898

> <Gold.Chemscore.Internal_Hbond>
0.0000

> <Gold.Chemscore.DEClash>
0.0417

> <Gold.Chemscore.DEInternal>
0.4610

> <Gold.Chemscore.Rot>
1.7078

> <Gold.Chemscore.Internal.Correction>
   9.000000E+99

> <Gold.Chemscore.Hbonds>
donor molecule, donor type, donor heavy atom, donor atom, acceptor molecule, acceptor atom, score
      L1  H    12    23       P1  8028  0.96
      P1  H  7997  8010       L1    11  0.85

> <Gold.Chemscore.Hbond.Weighted>
-6.1749

> <Gold.Chemscore.Metal.Weighted>
-0.0000

> <Gold.Chemscore.Lipo.Weighted>
-8.9727

> <Gold.Chemscore.Internal_Hbond.Weighted>
0.0000

> <Gold.Chemscore.DEClash.Weighted>
0.0417

> <Gold.Chemscore.DEInternal.Weighted>
0.4610

> <Gold.Chemscore.Rot.Weighted>
4.3719

> <Gold.Chemscore.Internal.Correction.Weighted>
   9.000000E+99

> <Gold.Protein.RotatedTorsions>
[ 6907 6896 6895 6894 ] final  -54.48 input  -60.11 | X-H torsion
[ 7974 7965 7964 7962 ] final  161.49 input  175.53 | X-H torsion
[ 8008 7997 7996 7995 ] final   50.30 input   59.86 | X-H torsion
[ 10167 10162 10161 10158 ] final  -12.92 input  -65.29 | X-H torsion
[ 10718 10713 10712 10709 ] final -151.04 input   66.30 | X-H torsion
[ 10763 10752 10751 10750 ] final -175.95 input  -60.55 | X-H torsion
[ 11005 11000 10999 10996 ] final  126.72 input  -57.11 | X-H torsion

> <Gold.Protein.ActiveResidues>
 VAL166  LYS551  ARG553  GLY616  TRP617  ASP618  TYR619  PRO620  LYS621  CYS622 
 ASP623  PHE694  ASN695  SER759  ASP760  ASP761  ALA762  ILE779  LEU786  VAL792 
 PHE793  MET794  SER795  GLU796  ALA797  LYS798  CYS799  TRP800  GLU811  SER814 

> <Gold.Protein.RotatedAtoms>
  150.8334  134.7598  159.6872 H   0  0  0  0  0  0  0  0  0  0  0  0  # atno 6907 bound_to 6896
  152.4435  134.5539  159.9884 H   0  0  0  0  0  0  0  0  0  0  0  0  # atno 6908 bound_to 6896
  151.5694  133.3354  159.3022 H   0  0  0  0  0  0  0  0  0  0  0  0  # atno 6909 bound_to 6896
  144.7683  139.7905  143.6306 H   0  0  0  0  0  0  0  0  0  0  0  0  # atno 7974 bound_to 7965
  155.4165  140.3444  155.4268 H   0  0  0  0  0  0  0  0  0  0  0  0  # atno 8008 bound_to 7997
  156.1418  140.1544  156.8940 H   0  0  0  0  0  0  0  0  0  0  0  0  # atno 8009 bound_to 7997
  154.4977  140.0823  156.7713 H   0  0  0  0  0  0  0  0  0  0  0  0  # atno 8010 bound_to 7997
  140.7171  143.5481  150.9332 H   0  0  0  0  0  0  0  0  0  0  0  0  # atno 10167 bound_to 10162
  156.4541  130.8182  151.2413 H   0  0  0  0  0  0  0  0  0  0  0  0  # atno 10718 bound_to 10713
  154.5782  135.2834  155.0759 H   0  0  0  0  0  0  0  0  0  0  0  0  # atno 10763 bound_to 10752
  154.2105  135.6408  153.5118 H   0  0  0  0  0  0  0  0  0  0  0  0  # atno 10764 bound_to 10752
  153.0079  135.5490  154.6427 H   0  0  0  0  0  0  0  0  0  0  0  0  # atno 10765 bound_to 10752
  139.9471  134.9628  156.8749 H   0  0  0  0  0  0  0  0  0  0  0  0  # atno 11005 bound_to 11000
  146.1809  139.5002  142.9867 LP  0  0  0  0  0  0  0  0  0  0  0  0  # atno 17320 bound_to 7965
  145.6401  141.0286  143.1816 LP  0  0  0  0  0  0  0  0  0  0  0  0  # atno 17321 bound_to 7965
  139.9205  143.6612  152.3098 LP  0  0  0  0  0  0  0  0  0  0  0  0  # atno 17342 bound_to 10162
  139.7027  144.7632  151.1246 LP  0  0  0  0  0  0  0  0  0  0  0  0  # atno 17343 bound_to 10162
  157.7501  131.0128  150.3400 LP  0  0  0  0  0  0  0  0  0  0  0  0  # atno 17370 bound_to 10713
  156.3785  130.3876  149.7120 LP  0  0  0  0  0  0  0  0  0  0  0  0  # atno 17371 bound_to 10713
  140.5809  134.0353  155.7464 LP  0  0  0  0  0  0  0  0  0  0  0  0  # atno 17394 bound_to 11000
  141.1124  133.9595  157.2886 LP  0  0  0  0  0  0  0  0  0  0  0  0  # atno 17395 bound_to 11000

$$$$
