AV-unprocessed.smi:678|AV-procd|sdf|3313|dock6
  -GOLD-   22720 0273D 1   1.00000     0.00000
 Structure written by MMmdl.
 51 52  0  0  0  0  0  0  0  0  2 V2000
  147.9067  132.3485  161.1375 C   0  0  0  0  0  0  0  0  0  0  0  0
  147.7005  133.8369  161.3583 C   0  0  0  0  0  0  0  0  0  0  0  0
  147.2946  134.3235  162.5512 C   0  0  0  0  0  0  0  0  0  0  0  0
  147.0991  135.7389  162.7516 C   0  0  0  0  0  0  0  0  0  0  0  0
  147.3340  136.5633  161.7209 C   0  0  0  0  0  0  0  0  0  0  0  0
  147.7606  136.0827  160.4689 N   0  0  0  0  0  0  0  0  0  0  0  0
  147.9845  137.0802  159.4085 C   0  0  0  0  0  0  0  0  0  0  0  0
  149.4434  137.1247  158.9349 C   0  0  0  0  0  0  0  0  0  0  0  0
  150.2523  136.2799  159.3207 O   0  0  0  0  0  0  0  0  0  0  0  0
  149.7624  138.1190  158.0929 N   0  0  0  0  0  0  0  0  0  0  0  0
  151.1024  138.3888  157.5831 C   0  0  0  0  0  0  0  0  0  0  0  0
  151.1431  139.7023  156.7808 C   0  0  2  0  0  0  0  0  0  0  0  0
  150.9815  140.9376  157.6880 C   0  0  0  0  0  0  0  0  0  0  0  0
  150.9733  142.1822  156.8788 N   0  3  2  0  0  0  0  0  0  0  0  0
  150.8707  143.4224  157.6904 C   0  0  0  0  0  0  0  0  0  0  0  0
  152.1847  143.7869  158.4152 C   0  0  0  0  0  0  0  0  0  0  0  0
  152.4748  142.7844  159.5422 C   0  0  0  0  0  0  0  0  0  0  0  0
  152.1574  145.2218  158.9680 C   0  0  0  0  0  0  0  0  0  0  0  0
  149.9309  142.1080  155.8278 C   0  0  0  0  0  0  0  0  0  0  0  0
  150.1081  140.8365  154.9826 C   0  0  0  0  0  0  0  0  0  0  0  0
  150.0792  139.6995  155.8338 O   0  0  0  0  0  0  0  0  0  0  0  0
  147.9564  134.7485  160.2277 C   0  0  0  0  0  0  0  0  0  0  0  0
  148.3238  134.3419  159.1230 O   0  0  0  0  0  0  0  0  0  0  0  0
  147.6842  131.7778  162.0397 H   0  0  0  0  0  0  0  0  0  0  0  0
  148.9403  132.1442  160.8563 H   0  0  0  0  0  0  0  0  0  0  0  0
  147.2553  131.9869  160.3414 H   0  0  0  0  0  0  0  0  0  0  0  0
  147.1094  133.6479  163.3735 H   0  0  0  0  0  0  0  0  0  0  0  0
  146.7685  136.1233  163.7052 H   0  0  0  0  0  0  0  0  0  0  0  0
  147.2049  137.6338  161.7865 H   0  0  0  0  0  0  0  0  0  0  0  0
  147.3541  136.8784  158.5416 H   0  0  0  0  0  0  0  0  0  0  0  0
  147.6783  138.0667  159.7622 H   0  0  0  0  0  0  0  0  0  0  0  0
  149.0311  138.7586  157.8168 H   0  0  0  0  0  0  0  0  0  0  0  0
  151.8332  138.4059  158.3935 H   0  0  0  0  0  0  0  0  0  0  0  0
  151.3787  137.5552  156.9370 H   0  0  0  0  0  0  0  0  0  0  0  0
  152.0979  139.7627  156.2544 H   0  0  0  0  0  0  0  0  0  0  0  0
  150.0534  140.8659  158.2576 H   0  0  0  0  0  0  0  0  0  0  0  0
  151.7973  140.9606  158.4094 H   0  0  0  0  0  0  0  0  0  0  0  0
  150.5964  144.2561  157.0421 H   0  0  0  0  0  0  0  0  0  0  0  0
  150.0538  143.3144  158.4057 H   0  0  0  0  0  0  0  0  0  0  0  0
  153.0140  143.7132  157.7126 H   0  0  0  0  0  0  0  0  0  0  0  0
  151.6990  142.8111  160.3083 H   0  0  0  0  0  0  0  0  0  0  0  0
  153.4273  143.0022  160.0265 H   0  0  0  0  0  0  0  0  0  0  0  0
  152.5294  141.7650  159.1590 H   0  0  0  0  0  0  0  0  0  0  0  0
  151.3406  145.3584  159.6775 H   0  0  0  0  0  0  0  0  0  0  0  0
  152.0329  145.9551  158.1710 H   0  0  0  0  0  0  0  0  0  0  0  0
  153.0876  145.4606  159.4843 H   0  0  0  0  0  0  0  0  0  0  0  0
  148.9428  142.1132  156.2912 H   0  0  0  0  0  0  0  0  0  0  0  0
  149.9890  142.9860  155.1836 H   0  0  0  0  0  0  0  0  0  0  0  0
  149.3013  140.7530  154.2543 H   0  0  0  0  0  0  0  0  0  0  0  0
  151.0433  140.8644  154.4209 H   0  0  0  0  0  0  0  0  0  0  0  0
  151.8586  142.2275  156.3942 H   0  0  0  0  0  0  0  0  0  0  0  0
  1  2  1  0  0  0  0
  1 24  1  0  0  0  0
  1 25  1  0  0  0  0
  1 26  1  0  0  0  0
  2 22  1  0  0  0  0
  2  3  2  0  0  0  0
  3  4  1  0  0  0  0
  3 27  1  0  0  0  0
  4  5  2  0  0  0  0
  4 28  1  0  0  0  0
  5  6  1  0  0  0  0
  5 29  1  0  0  0  0
  6  7  1  0  0  0  0
  6 22  1  0  0  0  0
  7  8  1  0  0  0  0
  7 30  1  0  0  0  0
  7 31  1  0  0  0  0
  8  9  2  0  0  0  0
  8 10  1  0  0  0  0
 10 11  1  0  0  0  0
 10 32  1  0  0  0  0
 11 12  1  0  0  0  0
 11 33  1  0  0  0  0
 11 34  1  0  0  0  0
 12 21  1  0  0  0  0
 12 13  1  0  0  0  0
 12 35  1  0  0  0  0
 13 14  1  0  0  0  0
 13 36  1  0  0  0  0
 13 37  1  0  0  0  0
 14 15  1  0  0  0  0
 14 19  1  0  0  0  0
 14 51  1  0  0  0  0
 15 16  1  0  0  0  0
 15 38  1  0  0  0  0
 15 39  1  0  0  0  0
 16 17  1  0  0  0  0
 16 18  1  0  0  0  0
 16 40  1  0  0  0  0
 17 41  1  0  0  0  0
 17 42  1  0  0  0  0
 17 43  1  0  0  0  0
 18 44  1  0  0  0  0
 18 45  1  0  0  0  0
 18 46  1  0  0  0  0
 19 20  1  0  0  0  0
 19 47  1  0  0  0  0
 19 48  1  0  0  0  0
 20 21  1  0  0  0  0
 20 49  1  0  0  0  0
 20 50  1  0  0  0  0
 22 23  2  0  0  0  0
M  CHG  1  14   1
M  END
> <s_m_source_file>
AV-unprocessed.smi

> <i_m_source_file_index>
678

> <i_lp_mmshare_version>
43012

> <i_f3d_flags>
0

> <s_epik_input>
W0NIM11jMVtjSF1bY0hdW2NIXW4oYzE9TylbQ0gyXUMoPU8pW05IXVtDSDJdW0NAQEhdMltDSDJdTihbQ0gyXVtDSDJdTzIpW0NIMl1bQ0hdKFtDSDNdKVtDSDNd

> <s_epik_cmdline>
J2VwaWtfcHl0aG9uJywgJy1waCcsICc3LjAnLCAnLXRuJywgJzgnLCAnLW1hJywgJzIwMCcsICctbWV0YWxfYmluZGluZycsICctaW1hZScsICc8aW5maWxlLm1hZT4nLCAnLW9tYWUnLCAnPG91dGZpbGUubWFlPic=

> <r_lp_tautomer_probability>
1

> <r_epik_Ionization_Penalty>
0.0975937

> <r_epik_Ionization_Penalty_Charging>
0.0975937

> <r_epik_Ionization_Penalty_Neutral>
6.27044e-08

> <r_epik_State_Penalty>
0.0877056

> <r_epik_Charging_Adjusted_Penalty>
0.185299

> <i_epik_Tot_Q>
1

> <i_epik_Tot_abs_Q>
1

> <r_epik_Metal_State_Penalty>
0.0877109

> <b_epik_Metal_Only>
0

> <s_lp_Force_Field>
OPLS_2005

> <r_lp_Energy>
27.0363

> <b_lp_Chiralities_Consistent>
1

> <s_lp_Variant>
AV-unprocessed.smi:678-1

> <Gold.Version>
5.8.1

> <Gold.Id.Protein>
6NUR|6NUR_protein|mol2

> <Gold.PLP.Fitness>
47.2699

> <Gold.PLP.PLP>
-44.9154

> <Gold.PLP.part.hbond>
-1.3166

> <Gold.PLP.part.metal>
0.0000

> <Gold.PLP.part.buried>
-0.0774

> <Gold.PLP.part.nonpolar>
-43.5729

> <Gold.PLP.part.repulsive>
0.1811

> <Gold.PLP.ligand.clash>
0.0000

> <Gold.PLP.ligand.torsion>
0.3776

> <Gold.PLP.Chemscore.Hbond>
1.0000

> <Gold.PLP.Chemscore.CHOScore>
0.0000

> <Gold.PLP.Chemscore.Metal>
0.0000

> <Gold.Chemscore.Hbonds>
donor molecule, donor type, donor heavy atom, donor atom, acceptor molecule, acceptor atom, score
      P1  H  6896  6907       L1     9  1.00

> <Gold.PLP.Chemscore.Internal.Correction>
0.1097

> <Gold.Rescore>
     Score         DG    S(hbond)    S(metal)    S(lipo)     H(rot)  DE(clash)    DE(int)     intcor
     16.72     -18.53       0.99        0.00     124.61       1.89       0.39       1.42       ----

> <Gold.Chemscore.Fitness>
16.7177

> <Gold.Chemscore.DG>
-18.5280

> <Gold.Chemscore.ZeroCoef>
-5.4800

> <Gold.Chemscore.Hbond>
0.9879

> <Gold.Chemscore.Metal>
0.0000

> <Gold.Chemscore.Lipo>
124.6093

> <Gold.Chemscore.Internal_Hbond>
0.0000

> <Gold.Chemscore.DEClash>
0.3882

> <Gold.Chemscore.DEInternal>
1.4220

> <Gold.Chemscore.Rot>
1.8871

> <Gold.Chemscore.Internal.Correction>
   9.000000E+99

> <Gold.Chemscore.Hbonds>
donor molecule, donor type, donor heavy atom, donor atom, acceptor molecule, acceptor atom, score
      P1  H  6896  6907       L1     9  0.97

> <Gold.Chemscore.Hbond.Weighted>
-3.2996

> <Gold.Chemscore.Metal.Weighted>
-0.0000

> <Gold.Chemscore.Lipo.Weighted>
-14.5793

> <Gold.Chemscore.Internal_Hbond.Weighted>
0.0000

> <Gold.Chemscore.DEClash.Weighted>
0.3882

> <Gold.Chemscore.DEInternal.Weighted>
1.4220

> <Gold.Chemscore.Rot.Weighted>
4.8309

> <Gold.Chemscore.Internal.Correction.Weighted>
   9.000000E+99

> <Gold.Protein.RotatedTorsions>
[ 6907 6896 6895 6894 ] final  -48.97 input  -60.11 | X-H torsion
[ 7974 7965 7964 7962 ] final  -44.71 input  175.53 | X-H torsion
[ 8008 7997 7996 7995 ] final  -94.52 input   59.86 | X-H torsion
[ 10167 10162 10161 10158 ] final   78.72 input  -65.29 | X-H torsion
[ 10718 10713 10712 10709 ] final  -51.77 input   66.30 | X-H torsion
[ 10763 10752 10751 10750 ] final  134.64 input  -60.55 | X-H torsion
[ 11005 11000 10999 10996 ] final  -93.81 input  -57.11 | X-H torsion

> <Gold.Protein.ActiveResidues>
 VAL166  LYS551  ARG553  GLY616  TRP617  ASP618  TYR619  PRO620  LYS621  CYS622 
 ASP623  PHE694  ASN695  SER759  ASP760  ASP761  ALA762  ILE779  LEU786  VAL792 
 PHE793  MET794  SER795  GLU796  ALA797  LYS798  CYS799  TRP800  GLU811  SER814 

> <Gold.Protein.RotatedAtoms>
  150.8852  134.8249  159.7253 H   0  0  0  0  0  0  0  0  0  0  0  0  # atno 6907 bound_to 6896
  152.4803  134.4733  159.9652 H   0  0  0  0  0  0  0  0  0  0  0  0  # atno 6908 bound_to 6896
  151.4803  133.3509  159.2872 H   0  0  0  0  0  0  0  0  0  0  0  0  # atno 6909 bound_to 6896
  145.9894  140.7198  142.9324 H   0  0  0  0  0  0  0  0  0  0  0  0  # atno 7974 bound_to 7965
  154.7495  140.0488  157.0881 H   0  0  0  0  0  0  0  0  0  0  0  0  # atno 8008 bound_to 7997
  155.0075  140.3132  155.4823 H   0  0  0  0  0  0  0  0  0  0  0  0  # atno 8009 bound_to 7997
  156.2882  140.2190  156.5187 H   0  0  0  0  0  0  0  0  0  0  0  0  # atno 8010 bound_to 7997
  139.9679  144.5915  150.8012 H   0  0  0  0  0  0  0  0  0  0  0  0  # atno 10167 bound_to 10162
  156.1680  130.4149  149.9691 H   0  0  0  0  0  0  0  0  0  0  0  0  # atno 10718 bound_to 10713
  153.8269  135.3109  155.3415 H   0  0  0  0  0  0  0  0  0  0  0  0  # atno 10763 bound_to 10752
  154.7989  135.4738  154.0232 H   0  0  0  0  0  0  0  0  0  0  0  0  # atno 10764 bound_to 10752
  153.1659  135.6869  153.8767 H   0  0  0  0  0  0  0  0  0  0  0  0  # atno 10765 bound_to 10752
  141.1487  133.7913  157.0211 H   0  0  0  0  0  0  0  0  0  0  0  0  # atno 11005 bound_to 11000
  144.6884  140.3043  143.7258 LP  0  0  0  0  0  0  0  0  0  0  0  0  # atno 17320 bound_to 7965
  145.7653  139.1838  143.2243 LP  0  0  0  0  0  0  0  0  0  0  0  0  # atno 17321 bound_to 7965
  140.7532  143.3003  151.3097 LP  0  0  0  0  0  0  0  0  0  0  0  0  # atno 17342 bound_to 10162
  139.6504  144.0374  152.2622 LP  0  0  0  0  0  0  0  0  0  0  0  0  # atno 17343 bound_to 10162
  156.7499  130.9111  151.3637 LP  0  0  0  0  0  0  0  0  0  0  0  0  # atno 17370 bound_to 10713
  157.6782  130.9114  150.0202 LP  0  0  0  0  0  0  0  0  0  0  0  0  # atno 17371 bound_to 10713
  140.0815  134.9645  157.1632 LP  0  0  0  0  0  0  0  0  0  0  0  0  # atno 17394 bound_to 11000
  140.3570  134.2536  155.7191 LP  0  0  0  0  0  0  0  0  0  0  0  0  # atno 17395 bound_to 11000

$$$$
