AV-unprocessed.smi:2798|AV-procd|sdf|10788|dock2
  -GOLD-   2272015223D 1   1.00000     0.00000
 Structure written by MMmdl.
 29 31  0  0  0  0  0  0  0  0  1 V2000
  151.1923  136.3619  154.5126 N   0  0  0  0  0  0  0  0  0  0  0  0
  151.0727  137.4584  154.8628 C   0  0  0  0  0  0  0  0  0  0  0  0
  150.9226  138.8351  155.3031 C   0  0  0  0  0  0  0  0  0  0  0  0
  149.9379  139.6522  154.7094 C   0  0  0  0  0  0  0  0  0  0  0  0
  149.8073  140.9829  155.1505 C   0  0  0  0  0  0  0  0  0  0  0  0
  150.6647  141.4553  156.1713 C   0  0  0  0  0  0  0  0  0  0  0  0
  150.6149  142.7611  156.6823 N   0  0  0  0  0  0  0  0  0  0  0  0
  151.5568  143.2198  157.6963 C   0  0  1  0  0  0  0  0  0  0  0  0
  151.3535  144.6894  158.0890 C   0  0  0  0  0  0  0  0  0  0  0  0
  151.1533  144.5889  159.6062 C   0  0  2  0  0  0  0  0  0  0  0  0
  152.4382  144.1785  160.3381 C   0  0  0  0  0  0  0  0  0  0  0  0
  152.5490  142.6996  159.9683 C   0  0  0  0  0  0  0  0  0  0  0  0
  151.3373  142.5126  159.0451 C   0  0  1  0  0  0  0  0  0  0  0  0
  150.4130  143.3836  159.6773 O   0  0  0  0  0  0  0  0  0  0  0  0
  151.6165  140.5547  156.6939 C   0  0  0  0  0  0  0  0  0  0  0  0
  151.7472  139.2771  156.2770 N   0  0  0  0  0  0  0  0  0  0  0  0
  149.2925  139.2720  153.9305 H   0  0  0  0  0  0  0  0  0  0  0  0
  149.0563  141.6151  154.7011 H   0  0  0  0  0  0  0  0  0  0  0  0
  150.0565  143.4549  156.2052 H   0  0  0  0  0  0  0  0  0  0  0  0
  152.5735  143.0320  157.3492 H   0  0  0  0  0  0  0  0  0  0  0  0
  152.2042  145.3172  157.8221 H   0  0  0  0  0  0  0  0  0  0  0  0
  150.4625  145.1124  157.6222 H   0  0  0  0  0  0  0  0  0  0  0  0
  150.6502  145.4517  160.0432 H   0  0  0  0  0  0  0  0  0  0  0  0
  153.3014  144.7626  160.0172 H   0  0  0  0  0  0  0  0  0  0  0  0
  152.3272  144.2951  161.4167 H   0  0  0  0  0  0  0  0  0  0  0  0
  153.4912  142.4534  159.4777 H   0  0  0  0  0  0  0  0  0  0  0  0
  152.4551  142.0762  160.8582 H   0  0  0  0  0  0  0  0  0  0  0  0
  151.0060  141.4763  158.9668 H   0  0  0  0  0  0  0  0  0  0  0  0
  152.2955  140.8662  157.4743 H   0  0  0  0  0  0  0  0  0  0  0  0
  1  2  3  0  0  0  0
  2  3  1  0  0  0  0
  3 16  1  0  0  0  0
  3  4  2  0  0  0  0
  4  5  1  0  0  0  0
  4 17  1  0  0  0  0
  5  6  2  0  0  0  0
  5 18  1  0  0  0  0
  6  7  1  0  0  0  0
  6 15  1  0  0  0  0
  7  8  1  0  0  0  0
  7 19  1  0  0  0  0
  8 13  1  0  0  0  0
  8  9  1  0  0  0  0
  8 20  1  0  0  0  0
  9 10  1  0  0  0  0
  9 21  1  0  0  0  0
  9 22  1  0  0  0  0
 10 14  1  0  0  0  0
 10 11  1  0  0  0  0
 10 23  1  0  0  0  0
 11 12  1  0  0  0  0
 11 24  1  0  0  0  0
 11 25  1  0  0  0  0
 12 13  1  0  0  0  0
 12 26  1  0  0  0  0
 12 27  1  0  0  0  0
 13 14  1  0  0  0  0
 13 28  1  0  0  0  0
 15 16  2  0  0  0  0
 15 29  1  0  0  0  0
M  END
> <s_m_source_file>
AV-unprocessed.smi

> <i_m_source_file_index>
2798

> <i_lp_mmshare_version>
43012

> <i_f3d_flags>
0

> <s_epik_input>
TiNDYzFbY0hdW2NIXWMoW2NIXW4xKVtOSF1bQ0BIXShbQ0gyXVtDQEBIXTIzKVtDQEBIXShPMylbQ0gyXVtDSDJdMg==

> <s_epik_cmdline>
J2VwaWtfcHl0aG9uJywgJy1waCcsICc3LjAnLCAnLXRuJywgJzgnLCAnLW1hJywgJzIwMCcsICctbWV0YWxfYmluZGluZycsICctaW1hZScsICc8aW5maWxlLm1hZT4nLCAnLW9tYWUnLCAnPG91dGZpbGUubWFlPic=

> <r_lp_tautomer_probability>
1

> <r_epik_Ionization_Penalty>
2.201e-07

> <r_epik_Ionization_Penalty_Charging>
0

> <r_epik_Ionization_Penalty_Neutral>
2.201e-07

> <r_epik_State_Penalty>
-0

> <r_epik_Charging_Adjusted_Penalty>
0

> <i_epik_Tot_Q>
0

> <i_epik_Tot_abs_Q>
0

> <r_epik_Metal_State_Penalty>
-0

> <b_epik_Metal_Only>
0

> <s_lp_Force_Field>
OPLS_2005

> <r_lp_Energy>
43.4695

> <b_lp_Chiralities_Consistent>
1

> <s_lp_Variant>
AV-unprocessed.smi:2798-4

> <Gold.Version>
5.8.1

> <Gold.Id.Protein>
6NUR|6NUR_protein|mol2

> <Gold.PLP.Fitness>
43.5325

> <Gold.PLP.PLP>
-37.5764

> <Gold.PLP.part.hbond>
-3.0000

> <Gold.PLP.part.metal>
0.0000

> <Gold.PLP.part.buried>
-5.7011

> <Gold.PLP.part.nonpolar>
-30.1848

> <Gold.PLP.part.repulsive>
1.4981

> <Gold.PLP.ligand.clash>
0.0000

> <Gold.PLP.ligand.torsion>
0.0319

> <Gold.PLP.Chemscore.Hbond>
2.0000

> <Gold.PLP.Chemscore.CHOScore>
0.0000

> <Gold.PLP.Chemscore.Metal>
0.0000

> <Gold.Chemscore.Hbonds>
donor molecule, donor type, donor heavy atom, donor atom, acceptor molecule, acceptor atom, score
      L1  H     7    19       P1  8028  1.00
      P1  H 10752 10765       L1     1  1.00

> <Gold.PLP.Chemscore.Internal.Correction>
0.0198

> <Gold.Rescore>
     Score         DG    S(hbond)    S(metal)    S(lipo)     H(rot)  DE(clash)    DE(int)     intcor
     21.32     -21.48       2.00        0.00     101.58       1.00       0.10       0.05       ----

> <Gold.Chemscore.Fitness>
21.3246

> <Gold.Chemscore.DG>
-21.4762

> <Gold.Chemscore.ZeroCoef>
-5.4800

> <Gold.Chemscore.Hbond>
1.9975

> <Gold.Chemscore.Metal>
0.0000

> <Gold.Chemscore.Lipo>
101.5761

> <Gold.Chemscore.Internal_Hbond>
0.0000

> <Gold.Chemscore.DEClash>
0.1024

> <Gold.Chemscore.DEInternal>
0.0491

> <Gold.Chemscore.Rot>
1.0000

> <Gold.Chemscore.Internal.Correction>
   9.000000E+99

> <Gold.Chemscore.Hbonds>
donor molecule, donor type, donor heavy atom, donor atom, acceptor molecule, acceptor atom, score
      L1  H     7    19       P1  8028  1.00
      P1  H 10752 10765       L1     1  0.97

> <Gold.Chemscore.Hbond.Weighted>
-6.6717

> <Gold.Chemscore.Metal.Weighted>
-0.0000

> <Gold.Chemscore.Lipo.Weighted>
-11.8844

> <Gold.Chemscore.Internal_Hbond.Weighted>
0.0000

> <Gold.Chemscore.DEClash.Weighted>
0.1024

> <Gold.Chemscore.DEInternal.Weighted>
0.0491

> <Gold.Chemscore.Rot.Weighted>
2.5600

> <Gold.Chemscore.Internal.Correction.Weighted>
   9.000000E+99

> <Gold.Protein.RotatedTorsions>
[ 6907 6896 6895 6894 ] final   32.23 input  -60.11 | X-H torsion
[ 7974 7965 7964 7962 ] final   78.44 input  175.53 | X-H torsion
[ 8008 7997 7996 7995 ] final -166.05 input   59.86 | X-H torsion
[ 10167 10162 10161 10158 ] final  -15.93 input  -65.29 | X-H torsion
[ 10718 10713 10712 10709 ] final   98.08 input   66.30 | X-H torsion
[ 10763 10752 10751 10750 ] final  172.86 input  -60.55 | X-H torsion
[ 11005 11000 10999 10996 ] final  -49.25 input  -57.11 | X-H torsion

> <Gold.Protein.ActiveResidues>
 VAL166  LYS551  ARG553  GLY616  TRP617  ASP618  TYR619  PRO620  LYS621  CYS622 
 ASP623  PHE694  ASN695  SER759  ASP760  ASP761  ALA762  ILE779  LEU786  VAL792 
 PHE793  MET794  SER795  GLU796  ALA797  LYS798  CYS799  TRP800  GLU811  SER814 

> <Gold.Protein.RotatedAtoms>
  152.0716  134.9530  160.0574 H   0  0  0  0  0  0  0  0  0  0  0  0  # atno 6907 bound_to 6896
  152.0854  133.4168  159.4528 H   0  0  0  0  0  0  0  0  0  0  0  0  # atno 6908 bound_to 6896
  150.6836  134.2854  159.4688 H   0  0  0  0  0  0  0  0  0  0  0  0  # atno 6909 bound_to 6896
  145.6772  139.2513  143.1835 H   0  0  0  0  0  0  0  0  0  0  0  0  # atno 7974 bound_to 7965
  155.8584  140.0974  157.1630 H   0  0  0  0  0  0  0  0  0  0  0  0  # atno 8008 bound_to 7997
  154.3989  140.1370  156.3992 H   0  0  0  0  0  0  0  0  0  0  0  0  # atno 8009 bound_to 7997
  155.7884  140.3456  155.5338 H   0  0  0  0  0  0  0  0  0  0  0  0  # atno 8010 bound_to 7997
  140.7226  143.5168  150.9682 H   0  0  0  0  0  0  0  0  0  0  0  0  # atno 10167 bound_to 10162
  157.6902  131.0629  150.4742 H   0  0  0  0  0  0  0  0  0  0  0  0  # atno 10718 bound_to 10713
  154.4320  135.2760  155.1906 H   0  0  0  0  0  0  0  0  0  0  0  0  # atno 10763 bound_to 10752
  154.3808  135.6088  153.5793 H   0  0  0  0  0  0  0  0  0  0  0  0  # atno 10764 bound_to 10752
  152.9836  135.5880  154.4633 H   0  0  0  0  0  0  0  0  0  0  0  0  # atno 10765 bound_to 10752
  141.0748  133.6669  156.3559 H   0  0  0  0  0  0  0  0  0  0  0  0  # atno 11005 bound_to 11000
  146.0995  140.7560  142.9556 LP  0  0  0  0  0  0  0  0  0  0  0  0  # atno 17320 bound_to 7965
  144.7038  140.3765  143.7135 LP  0  0  0  0  0  0  0  0  0  0  0  0  # atno 17321 bound_to 7965
  139.8883  143.6985  152.3148 LP  0  0  0  0  0  0  0  0  0  0  0  0  # atno 17342 bound_to 10162
  139.7291  144.7586  151.0830 LP  0  0  0  0  0  0  0  0  0  0  0  0  # atno 17343 bound_to 10162
  156.5077  130.4132  149.6318 LP  0  0  0  0  0  0  0  0  0  0  0  0  # atno 17370 bound_to 10713
  156.3269  130.7310  151.2233 LP  0  0  0  0  0  0  0  0  0  0  0  0  # atno 17371 bound_to 10713
  140.5596  134.5947  157.5430 LP  0  0  0  0  0  0  0  0  0  0  0  0  # atno 17394 bound_to 11000
  139.9561  134.7533  156.0339 LP  0  0  0  0  0  0  0  0  0  0  0  0  # atno 17395 bound_to 11000

$$$$
