AV-unprocessed.smi:1413|AV-procd|sdf|5749|dock2
  -GOLD-   22720 5383D 1   1.00000     0.00000
 Structure written by MMmdl.
 53 55  0  0  0  0  0  0  0  0  1 V2000
  153.4095  141.2770  160.6370 C   0  0  0  0  0  0  0  0  0  0  0  0
  153.0023  141.9148  159.3047 C   0  0  1  0  0  0  0  0  0  0  0  0
  152.0499  141.0107  158.4987 C   0  0  0  0  0  0  0  0  0  0  0  0
  151.5842  141.7004  157.2990 N   0  0  0  0  0  0  0  0  0  0  0  0
  150.9348  140.8903  156.3421 C   0  0  0  0  0  0  0  0  0  0  0  0
  151.6798  139.9793  155.5561 C   0  0  0  0  0  0  0  0  0  0  0  0
  151.0138  139.1865  154.6012 C   0  0  0  0  0  0  0  0  0  0  0  0
  149.6153  139.3284  154.4499 C   0  0  0  0  0  0  0  0  0  0  0  0
  148.8308  138.5753  153.5361 N   0  0  0  0  0  0  0  0  0  0  0  0
  147.4950  138.5756  153.3905 C   0  0  0  0  0  0  0  0  0  0  0  0
  146.7102  139.2680  154.0383 O   0  0  0  0  0  0  0  0  0  0  0  0
  147.1142  137.6990  152.4497 N   0  0  0  0  0  0  0  0  0  0  0  0
  145.7368  137.3906  152.0675 C   0  0  2  0  0  0  0  0  0  0  0  0
  144.9321  137.0841  153.3395 C   0  0  0  0  0  0  0  0  0  0  0  0
  145.6988  136.2151  151.0688 C   0  0  2  0  0  0  0  0  0  0  0  0
  144.2972  135.7355  150.6838 C   0  0  0  0  0  0  0  0  0  0  0  0
  144.5693  134.3147  150.2475 C   0  0  0  0  0  0  0  0  0  0  0  0
  145.6299  133.8789  151.2534 C   0  0  0  0  0  0  0  0  0  0  0  0
  146.3281  135.0638  151.6280 O   0  0  0  0  0  0  0  0  0  0  0  0
  148.9574  140.2498  155.2879 C   0  0  0  0  0  0  0  0  0  0  0  0
  149.5923  141.0143  156.2002 N   0  0  0  0  0  0  0  0  0  0  0  0
  151.0194  143.0196  157.5749 C   0  0  0  0  0  0  0  0  0  0  0  0
  152.0050  143.8658  158.4020 C   0  0  1  0  0  0  0  0  0  0  0  0
  151.4015  145.2129  158.8135 C   0  0  0  0  0  0  0  0  0  0  0  0
  152.3534  143.1522  159.5851 O   0  0  0  0  0  0  0  0  0  0  0  0
  153.9228  140.3286  160.4780 H   0  0  0  0  0  0  0  0  0  0  0  0
  152.5382  141.0860  161.2643 H   0  0  0  0  0  0  0  0  0  0  0  0
  154.0831  141.9306  161.1920 H   0  0  0  0  0  0  0  0  0  0  0  0
  153.9048  142.1080  158.7219 H   0  0  0  0  0  0  0  0  0  0  0  0
  152.5634  140.0821  158.2529 H   0  0  0  0  0  0  0  0  0  0  0  0
  151.1837  140.7427  159.1053 H   0  0  0  0  0  0  0  0  0  0  0  0
  152.7502  139.8886  155.6640 H   0  0  0  0  0  0  0  0  0  0  0  0
  151.5833  138.4823  154.0145 H   0  0  0  0  0  0  0  0  0  0  0  0
  149.3366  137.8930  152.9906 H   0  0  0  0  0  0  0  0  0  0  0  0
  147.8370  137.1817  151.9710 H   0  0  0  0  0  0  0  0  0  0  0  0
  145.2802  138.2611  151.5932 H   0  0  0  0  0  0  0  0  0  0  0  0
  143.8862  136.8825  153.1067 H   0  0  0  0  0  0  0  0  0  0  0  0
  144.9547  137.9274  154.0307 H   0  0  0  0  0  0  0  0  0  0  0  0
  145.3295  136.2135  153.8621 H   0  0  0  0  0  0  0  0  0  0  0  0
  146.2434  136.4779  150.1600 H   0  0  0  0  0  0  0  0  0  0  0  0
  143.6365  135.7371  151.5519 H   0  0  0  0  0  0  0  0  0  0  0  0
  143.8375  136.3412  149.9023 H   0  0  0  0  0  0  0  0  0  0  0  0
  143.6816  133.6818  150.2613 H   0  0  0  0  0  0  0  0  0  0  0  0
  144.9812  134.3060  149.2375 H   0  0  0  0  0  0  0  0  0  0  0  0
  145.1617  133.4590  152.1445 H   0  0  0  0  0  0  0  0  0  0  0  0
  146.3080  133.1306  150.8427 H   0  0  0  0  0  0  0  0  0  0  0  0
  147.8877  140.3862  155.2205 H   0  0  0  0  0  0  0  0  0  0  0  0
  150.7975  143.5349  156.6395 H   0  0  0  0  0  0  0  0  0  0  0  0
  150.0787  142.9021  158.1149 H   0  0  0  0  0  0  0  0  0  0  0  0
  152.9077  144.0540  157.8179 H   0  0  0  0  0  0  0  0  0  0  0  0
  151.1266  145.8038  157.9395 H   0  0  0  0  0  0  0  0  0  0  0  0
  152.1127  145.7962  159.3989 H   0  0  0  0  0  0  0  0  0  0  0  0
  150.5055  145.0753  159.4195 H   0  0  0  0  0  0  0  0  0  0  0  0
  1  2  1  0  0  0  0
  1 26  1  0  0  0  0
  1 27  1  0  0  0  0
  1 28  1  0  0  0  0
  2 25  1  0  0  0  0
  2  3  1  0  0  0  0
  2 29  1  0  0  0  0
  3  4  1  0  0  0  0
  3 30  1  0  0  0  0
  3 31  1  0  0  0  0
  4  5  1  0  0  0  0
  4 22  1  0  0  0  0
  5 21  1  0  0  0  0
  5  6  2  0  0  0  0
  6  7  1  0  0  0  0
  6 32  1  0  0  0  0
  7  8  2  0  0  0  0
  7 33  1  0  0  0  0
  8  9  1  0  0  0  0
  8 20  1  0  0  0  0
  9 10  1  0  0  0  0
  9 34  1  0  0  0  0
 10 11  2  0  0  0  0
 10 12  1  0  0  0  0
 12 13  1  0  0  0  0
 12 35  1  0  0  0  0
 13 14  1  0  0  0  0
 13 15  1  0  0  0  0
 13 36  1  0  0  0  0
 14 37  1  0  0  0  0
 14 38  1  0  0  0  0
 14 39  1  0  0  0  0
 15 19  1  0  0  0  0
 15 16  1  0  0  0  0
 15 40  1  0  0  0  0
 16 17  1  0  0  0  0
 16 41  1  0  0  0  0
 16 42  1  0  0  0  0
 17 18  1  0  0  0  0
 17 43  1  0  0  0  0
 17 44  1  0  0  0  0
 18 19  1  0  0  0  0
 18 45  1  0  0  0  0
 18 46  1  0  0  0  0
 20 21  2  0  0  0  0
 20 47  1  0  0  0  0
 22 23  1  0  0  0  0
 22 48  1  0  0  0  0
 22 49  1  0  0  0  0
 23 24  1  0  0  0  0
 23 25  1  0  0  0  0
 23 50  1  0  0  0  0
 24 51  1  0  0  0  0
 24 52  1  0  0  0  0
 24 53  1  0  0  0  0
M  END
> <s_m_source_file>
AV-unprocessed.smi

> <i_m_source_file_index>
1413

> <i_lp_mmshare_version>
43012

> <i_f3d_flags>
0

> <s_epik_input>
W0NIM11bQ0BASF0xW0NIMl1OKFtDSDJdW0NASF0oTzEpW0NIM10pYzJbY0hdW2NIXWMoW2NIXW4yKVtOSF1DKD1PKVtOSF1bQ0BIXShbQ0gzXSlbQ0BASF0zW0NIMl1bQ0gyXVtDSDJdTzM=

> <s_epik_cmdline>
J2VwaWtfcHl0aG9uJywgJy1waCcsICc3LjAnLCAnLXRuJywgJzgnLCAnLW1hJywgJzIwMCcsICctbWV0YWxfYmluZGluZycsICctaW1hZScsICc8aW5maWxlLm1hZT4nLCAnLW9tYWUnLCAnPG91dGZpbGUubWFlPic=

> <r_lp_tautomer_probability>
1

> <r_epik_Ionization_Penalty>
0.00271172

> <r_epik_Ionization_Penalty_Charging>
0

> <r_epik_Ionization_Penalty_Neutral>
0.00271172

> <r_epik_State_Penalty>
0.00186503

> <r_epik_Charging_Adjusted_Penalty>
0.00186503

> <i_epik_Tot_Q>
0

> <i_epik_Tot_abs_Q>
0

> <r_epik_Metal_State_Penalty>
-0

> <b_epik_Metal_Only>
0

> <s_lp_Force_Field>
OPLS_2005

> <r_lp_Energy>
33.7461

> <b_lp_Chiralities_Consistent>
1

> <s_lp_Variant>
AV-unprocessed.smi:1413-2

> <Gold.Version>
5.8.1

> <Gold.Id.Protein>
6NUR|6NUR_protein|mol2

> <Gold.PLP.Fitness>
51.8816

> <Gold.PLP.PLP>
-47.0334

> <Gold.PLP.part.hbond>
-2.7772

> <Gold.PLP.part.metal>
0.0000

> <Gold.PLP.part.buried>
-5.9455

> <Gold.PLP.part.nonpolar>
-40.6798

> <Gold.PLP.part.repulsive>
1.2320

> <Gold.PLP.ligand.clash>
0.0000

> <Gold.PLP.ligand.torsion>
0.5999

> <Gold.PLP.Chemscore.Hbond>
1.8960

> <Gold.PLP.Chemscore.CHOScore>
0.0000

> <Gold.PLP.Chemscore.Metal>
0.0000

> <Gold.Chemscore.Hbonds>
donor molecule, donor type, donor heavy atom, donor atom, acceptor molecule, acceptor atom, score
      L1  H     9    34       P1  7948  0.80
      L1  H    12    35       P1  7948  0.80

> <Gold.PLP.Chemscore.Internal.Correction>
0.3600

> <Gold.Rescore>
     Score         DG    S(hbond)    S(metal)    S(lipo)     H(rot)  DE(clash)    DE(int)     intcor
     19.61     -22.50       1.86        0.00     121.94       1.35       0.82       2.07       ----

> <Gold.Chemscore.Fitness>
19.6085

> <Gold.Chemscore.DG>
-22.4962

> <Gold.Chemscore.ZeroCoef>
-5.4800

> <Gold.Chemscore.Hbond>
1.8558

> <Gold.Chemscore.Metal>
0.0000

> <Gold.Chemscore.Lipo>
121.9351

> <Gold.Chemscore.Internal_Hbond>
0.0000

> <Gold.Chemscore.DEClash>
0.8205

> <Gold.Chemscore.DEInternal>
2.0672

> <Gold.Chemscore.Rot>
1.3471

> <Gold.Chemscore.Internal.Correction>
   9.000000E+99

> <Gold.Chemscore.Hbonds>
donor molecule, donor type, donor heavy atom, donor atom, acceptor molecule, acceptor atom, score
      L1  H     9    34       P1  7948  0.72
      L1  H    12    35       P1  7948  0.78

> <Gold.Chemscore.Hbond.Weighted>
-6.1983

> <Gold.Chemscore.Metal.Weighted>
-0.0000

> <Gold.Chemscore.Lipo.Weighted>
-14.2664

> <Gold.Chemscore.Internal_Hbond.Weighted>
0.0000

> <Gold.Chemscore.DEClash.Weighted>
0.8205

> <Gold.Chemscore.DEInternal.Weighted>
2.0672

> <Gold.Chemscore.Rot.Weighted>
3.4485

> <Gold.Chemscore.Internal.Correction.Weighted>
   9.000000E+99

> <Gold.Protein.RotatedTorsions>
[ 6907 6896 6895 6894 ] final    2.42 input  -60.11 | X-H torsion
[ 7974 7965 7964 7962 ] final  -41.51 input  175.53 | X-H torsion
[ 8008 7997 7996 7995 ] final  -69.83 input   59.86 | X-H torsion
[ 10167 10162 10161 10158 ] final -106.12 input  -65.29 | X-H torsion
[ 10718 10713 10712 10709 ] final  -36.50 input   66.30 | X-H torsion
[ 10763 10752 10751 10750 ] final  -86.92 input  -60.55 | X-H torsion
[ 11005 11000 10999 10996 ] final  166.66 input  -57.11 | X-H torsion

> <Gold.Protein.ActiveResidues>
 VAL166  LYS551  ARG553  GLY616  TRP617  ASP618  TYR619  PRO620  LYS621  CYS622 
 ASP623  PHE694  ASN695  SER759  ASP760  ASP761  ALA762  ILE779  LEU786  VAL792 
 PHE793  MET794  SER795  GLU796  ALA797  LYS798  CYS799  TRP800  GLU811  SER814 

> <Gold.Protein.RotatedAtoms>
  151.6085  135.1042  160.0075 H   0  0  0  0  0  0  0  0  0  0  0  0  # atno 6907 bound_to 6896
  152.4220  133.7129  159.6499 H   0  0  0  0  0  0  0  0  0  0  0  0  # atno 6908 bound_to 6896
  150.8108  133.8352  159.3205 H   0  0  0  0  0  0  0  0  0  0  0  0  # atno 6909 bound_to 6896
  146.0204  140.6857  142.9181 H   0  0  0  0  0  0  0  0  0  0  0  0  # atno 7974 bound_to 7965
  154.4967  140.0846  156.7711 H   0  0  0  0  0  0  0  0  0  0  0  0  # atno 8008 bound_to 7997
  155.4100  140.3441  155.4245 H   0  0  0  0  0  0  0  0  0  0  0  0  # atno 8009 bound_to 7997
  156.1403  140.1527  156.8919 H   0  0  0  0  0  0  0  0  0  0  0  0  # atno 8010 bound_to 7997
  140.1912  143.3890  152.1204 H   0  0  0  0  0  0  0  0  0  0  0  0  # atno 10167 bound_to 10162
  156.3261  130.4272  149.7915 H   0  0  0  0  0  0  0  0  0  0  0  0  # atno 10718 bound_to 10713
  154.6279  135.5432  153.7647 H   0  0  0  0  0  0  0  0  0  0  0  0  # atno 10763 bound_to 10752
  153.0270  135.6428  154.1345 H   0  0  0  0  0  0  0  0  0  0  0  0  # atno 10764 bound_to 10752
  154.1276  135.2916  155.3173 H   0  0  0  0  0  0  0  0  0  0  0  0  # atno 10765 bound_to 10752
  140.2687  134.7844  157.3656 H   0  0  0  0  0  0  0  0  0  0  0  0  # atno 11005 bound_to 11000
  144.6987  140.3555  143.7174 LP  0  0  0  0  0  0  0  0  0  0  0  0  # atno 17320 bound_to 7965
  145.7203  139.1708  143.2488 LP  0  0  0  0  0  0  0  0  0  0  0  0  # atno 17321 bound_to 7965
  139.5255  144.7096  151.5246 LP  0  0  0  0  0  0  0  0  0  0  0  0  # atno 17342 bound_to 10162
  140.6454  143.8805  150.6732 LP  0  0  0  0  0  0  0  0  0  0  0  0  # atno 17343 bound_to 10162
  156.5205  130.8213  151.3202 LP  0  0  0  0  0  0  0  0  0  0  0  0  # atno 17370 bound_to 10713
  157.7421  130.9884  150.2495 LP  0  0  0  0  0  0  0  0  0  0  0  0  # atno 17371 bound_to 10713
  140.1394  134.4991  155.8043 LP  0  0  0  0  0  0  0  0  0  0  0  0  # atno 17394 bound_to 11000
  141.2180  133.6819  156.7183 LP  0  0  0  0  0  0  0  0  0  0  0  0  # atno 17395 bound_to 11000

$$$$
