#       Name:                AV-unprocessed.smi:2340
#       Creating user name   scv26
#       Creation time:       Fri Mar 27 12:57:15 2020


#       File generated by GOLD software.
#

@<TRIPOS>MOLECULE
AV-unprocessed.smi:2340
    45    46     1
SMALL
NO_CHARGES


@<TRIPOS>ATOM
      1 ****        -2.7299   1.3619  -3.6300 C.3            1 S1                 0.0000
      2 ****        -2.9260   1.1035  -2.1693 C.2            1 S1                 0.0000
      3 ****        -3.6290   0.0719  -1.5992 C.2            1 S1                 0.0000
      4 ****        -3.5978   0.1484   0.1409 S.3            1 S1                 0.0000
      5 ****        -2.6149   1.6048   0.0297 C.2            1 S1                 0.0000
      6 ****        -2.1022   2.3434   1.2291 C.3            1 S1                 0.0000
      7 ****        -2.6650   3.7693   1.3132 C.3            1 S1                 0.0000
      8 ****        -0.5666   2.2941   1.3495 C.3            1 S1                 0.0000
      9 ****        -0.0737   0.9206   1.3051 N.am           1 S1                 0.0000
     10 ****         1.0872   0.5334   0.7616 C.2            1 S1                 0.0000
     11 ****         1.9077   1.3005   0.2580 O.2            1 S1                 0.0000
     12 ****         1.2454  -0.7948   0.8306 N.am           1 S1                 0.0000
     13 ****         2.3994  -1.5228   0.3145 C.3            1 S1                 0.0000
     14 ****         3.5956  -1.4647   1.2449 C.3            1 S1                 0.0000
     15 ****         4.3728  -2.7177   0.8503 C.3            1 S1                 0.0000
     16 ****         3.4137  -3.6437   0.3470 O.3            1 S1                 0.0000
     17 ****         2.1323  -3.0290   0.2607 C.3            1 S1                 0.0000
     18 ****         1.3997  -3.4899  -1.0046 C.3            1 S1                 0.0000
     19 ****        -2.3554   1.9670  -1.2305 N.2            1 S1                 0.0000
     20 ****        -3.2500   0.6222  -4.2392 H              1 S1                 0.0000
     21 ****        -1.6737   1.3251  -3.8972 H              1 S1                 0.0000
     22 ****        -3.1090   2.3449  -3.9105 H              1 S1                 0.0000
     23 ****        -4.1607  -0.7263  -2.0955 H              1 S1                 0.0000
     24 ****        -2.4951   1.8147   2.0988 H              1 S1                 0.0000
     25 ****        -3.7553   3.7604   1.3238 H              1 S1                 0.0000
     26 ****        -2.3441   4.3730   0.4636 H              1 S1                 0.0000
     27 ****        -2.3299   4.2699   2.2218 H              1 S1                 0.0000
     28 ****        -0.1255   2.8810   0.5416 H              1 S1                 0.0000
     29 ****        -0.2438   2.7535   2.2844 H              1 S1                 0.0000
     30 ****        -0.6746   0.2098   1.6958 H              1 S1                 0.0000
     31 ****         0.5147  -1.3425   1.2609 H              1 S1                 0.0000
     32 ****         2.6820  -1.1573  -0.6750 H              1 S1                 0.0000
     33 ****         4.1797  -0.5503   1.1369 H              1 S1                 0.0000
     34 ****         3.2753  -1.5432   2.2851 H              1 S1                 0.0000
     35 ****         5.0803  -2.4897   0.0523 H              1 S1                 0.0000
     36 ****         4.9315  -3.1378   1.6869 H              1 S1                 0.0000
     37 ****         1.5697  -3.3357   1.1445 H              1 S1                 0.0000
     38 ****         0.4211  -3.0161  -1.0850 H              1 S1                 0.0000
     39 ****         1.2486  -4.5694  -0.9953 H              1 S1                 0.0000
     40 ****         1.9674  -3.2409  -1.9016 H              1 S1                 0.0000
     41 ****         1.7259   2.2836   0.2372 LP             1 S1                 0.0000
     42 ****         2.7560   0.9405  -0.1303 LP             1 S1                 0.0000
     43 ****         3.3613  -4.4311   0.9612 LP             1 S1                 0.0000
     44 ****         3.6953  -3.9488  -0.5627 LP             1 S1                 0.0000
     45 ****        -1.8115   2.7696  -1.4751 LP             1 S1                 0.0000
@<TRIPOS>BOND
    1    1    2 1     
    2    1   20 1     
    3    1   21 1     
    4    1   22 1     
    5    2   19 1     
    6    2    3 2     
    7    3    4 1     
    8    3   23 1     
    9    4    5 1     
   10    5    6 1     
   11    5   19 2     
   12    6    7 1     
   13    6    8 1     
   14    6   24 1     
   15    7   25 1     
   16    7   26 1     
   17    7   27 1     
   18    8    9 1     
   19    8   28 1     
   20    8   29 1     
   21    9   10 am    
   22    9   30 1     
   23   10   11 2     
   24   10   12 am    
   25   12   13 1     
   26   12   31 1     
   27   13   17 1     
   28   13   14 1     
   29   13   32 1     
   30   14   15 1     
   31   14   33 1     
   32   14   34 1     
   33   15   16 1     
   34   15   35 1     
   35   15   36 1     
   36   16   17 1     
   37   17   18 1     
   38   17   37 1     
   39   18   38 1     
   40   18   39 1     
   41   18   40 1     
   42   11   41 1     
   43   11   42 1     
   44   16   43 1     
   45   16   44 1     
   46   19   45 1     
@<TRIPOS>SUBSTRUCTURE
      1 S1             1
@<TRIPOS>SET
LONE_PAIRS      STATIC     ATOMS    <user>   **** ""
5 41 42 43 44 45
DONOR_HYDROGENS      STATIC     ATOMS    <user>   **** ""
2 30 31
ATOM$BLUE        STATIC     ATOMS    COLORGROUP SYSTEM
5 41 42 43 44 45
ATOM$RED        STATIC     ATOMS    COLORGROUP SYSTEM
2 30 31
