AV-unprocessed.smi:2446|AV-procd|sdf|9645|dock7
  -GOLD-   2272013283D 1   1.00000     0.00000
 Structure written by MMmdl.
 40 41  0  0  0  0  0  0  0  0  2 V2000
  147.0618  140.0297  152.2160 C   0  0  0  0  0  0  0  0  0  0  0  0
  147.7230  140.3668  153.5415 C   0  0  0  0  0  0  0  0  0  0  0  0
  147.8603  141.7187  153.9250 C   0  0  0  0  0  0  0  0  0  0  0  0
  148.4418  142.0340  155.1013 N   0  3  0  0  0  0  0  0  0  0  0  0
  148.9071  141.1015  155.9581 C   0  0  0  0  0  0  0  0  0  0  0  0
  148.8007  139.7343  155.6349 C   0  0  0  0  0  0  0  0  0  0  0  0
  148.2126  139.3509  154.4022 C   0  0  0  0  0  0  0  0  0  0  0  0
  148.0525  137.9934  154.0055 N   0  0  0  0  0  0  0  0  0  0  0  0
  147.6973  136.9270  154.7487 C   0  0  0  0  0  0  0  0  0  0  0  0
  147.4041  136.9708  155.9412 O   0  0  0  0  0  0  0  0  0  0  0  0
  147.6955  135.7620  154.0752 N   0  0  0  0  0  0  0  0  0  0  0  0
  147.3641  134.4193  154.5652 C   0  0  2  0  0  0  0  0  0  0  0  0
  148.6331  133.5472  154.6174 C   0  0  0  0  0  0  0  0  0  0  0  0
  149.1388  133.1722  153.2141 C   0  0  0  0  0  0  0  0  0  0  0  0
  148.0370  132.4973  152.3826 C   0  0  0  0  0  0  0  0  0  0  0  0
  146.7760  133.3807  152.2834 C   0  0  1  0  0  0  0  0  0  0  0  0
  145.6707  132.7202  151.4340 C   0  0  0  0  0  0  0  0  0  0  0  0
  144.5836  133.4909  151.3873 F   0  0  0  0  0  0  0  0  0  0  0  0
  146.1105  132.5192  150.1916 F   0  0  0  0  0  0  0  0  0  0  0  0
  145.3397  131.5383  151.9538 F   0  0  0  0  0  0  0  0  0  0  0  0
  146.2744  133.7484  153.6983 C   0  0  0  0  0  0  0  0  0  0  0  0
  146.7104  140.9287  151.7088 H   0  0  0  0  0  0  0  0  0  0  0  0
  146.2041  139.3743  152.3714 H   0  0  0  0  0  0  0  0  0  0  0  0
  147.7680  139.5251  151.5562 H   0  0  0  0  0  0  0  0  0  0  0  0
  147.5228  142.5551  153.3302 H   0  0  0  0  0  0  0  0  0  0  0  0
  149.3430  141.4736  156.8740 H   0  0  0  0  0  0  0  0  0  0  0  0
  149.1616  139.0079  156.3465 H   0  0  0  0  0  0  0  0  0  0  0  0
  148.3266  137.7886  153.0557 H   0  0  0  0  0  0  0  0  0  0  0  0
  147.9399  135.8155  153.0966 H   0  0  0  0  0  0  0  0  0  0  0  0
  146.9935  134.5068  155.5878 H   0  0  0  0  0  0  0  0  0  0  0  0
  149.4202  134.0564  155.1752 H   0  0  0  0  0  0  0  0  0  0  0  0
  148.4149  132.6329  155.1709 H   0  0  0  0  0  0  0  0  0  0  0  0
  149.4924  134.0648  152.6967 H   0  0  0  0  0  0  0  0  0  0  0  0
  149.9987  132.5069  153.2980 H   0  0  0  0  0  0  0  0  0  0  0  0
  148.4215  132.2791  151.3858 H   0  0  0  0  0  0  0  0  0  0  0  0
  147.7817  131.5360  152.8305 H   0  0  0  0  0  0  0  0  0  0  0  0
  147.0592  134.3050  151.7772 H   0  0  0  0  0  0  0  0  0  0  0  0
  145.9341  132.8433  154.2026 H   0  0  0  0  0  0  0  0  0  0  0  0
  145.3995  134.3945  153.6279 H   0  0  0  0  0  0  0  0  0  0  0  0
  148.5282  143.0183  155.3560 H   0  0  0  0  0  0  0  0  0  0  0  0
  1  2  1  0  0  0  0
  1 22  1  0  0  0  0
  1 23  1  0  0  0  0
  1 24  1  0  0  0  0
  2  7  1  0  0  0  0
  2  3  2  0  0  0  0
  3  4  1  0  0  0  0
  3 25  1  0  0  0  0
  4  5  2  0  0  0  0
  4 40  1  0  0  0  0
  5  6  1  0  0  0  0
  5 26  1  0  0  0  0
  6  7  2  0  0  0  0
  6 27  1  0  0  0  0
  7  8  1  0  0  0  0
  8  9  1  0  0  0  0
  8 28  1  0  0  0  0
  9 10  2  0  0  0  0
  9 11  1  0  0  0  0
 11 12  1  0  0  0  0
 11 29  1  0  0  0  0
 12 21  1  0  0  0  0
 12 13  1  0  0  0  0
 12 30  1  0  0  0  0
 13 14  1  0  0  0  0
 13 31  1  0  0  0  0
 13 32  1  0  0  0  0
 14 15  1  0  0  0  0
 14 33  1  0  0  0  0
 14 34  1  0  0  0  0
 15 16  1  0  0  0  0
 15 35  1  0  0  0  0
 15 36  1  0  0  0  0
 16 17  1  0  0  0  0
 16 21  1  0  0  0  0
 16 37  1  0  0  0  0
 17 18  1  0  0  0  0
 17 19  1  0  0  0  0
 17 20  1  0  0  0  0
 21 38  1  0  0  0  0
 21 39  1  0  0  0  0
M  CHG  1   4   1
M  END
> <s_m_source_file>
AV-unprocessed.smi

> <i_m_source_file_index>
2446

> <i_lp_mmshare_version>
43012

> <i_f3d_flags>
0

> <s_epik_input>
W0NIM11jMVtjSF1uW2NIXVtjSF1jMVtOSF1DKD1PKVtOSF1bQ0BASF0yW0NIMl1bQ0gyXVtDSDJdW0NAQEhdKEMoRikoRilGKVtDSDJdMg==

> <s_epik_cmdline>
J2VwaWtfcHl0aG9uJywgJy1waCcsICc3LjAnLCAnLXRuJywgJzgnLCAnLW1hJywgJzIwMCcsICctbWV0YWxfYmluZGluZycsICctaW1hZScsICc8aW5maWxlLm1hZT4nLCAnLW9tYWUnLCAnPG91dGZpbGUubWFlPic=

> <r_epik_Ionization_Penalty>
0.736582

> <r_epik_Ionization_Penalty_Charging>
0.736562

> <r_epik_Ionization_Penalty_Neutral>
1.98379e-05

> <r_epik_State_Penalty>
0.762314

> <r_epik_Charging_Adjusted_Penalty>
1.49888

> <i_epik_Tot_Q>
1

> <i_epik_Tot_abs_Q>
1

> <r_epik_Metal_State_Penalty>
0.914579

> <b_epik_Metal_Only>
0

> <s_lp_Force_Field>
OPLS_2005

> <r_lp_Energy>
31.0639

> <b_lp_Chiralities_Consistent>
1

> <s_lp_Variant>
AV-unprocessed.smi:2446-5

> <Gold.Version>
5.8.1

> <Gold.Id.Protein>
6NUR|6NUR_protein|mol2

> <Gold.PLP.Fitness>
40.6406

> <Gold.PLP.PLP>
-29.9033

> <Gold.PLP.part.hbond>
-3.0000

> <Gold.PLP.part.metal>
0.0000

> <Gold.PLP.part.buried>
3.0608

> <Gold.PLP.part.nonpolar>
-29.2727

> <Gold.PLP.part.repulsive>
0.1845

> <Gold.PLP.ligand.clash>
0.0000

> <Gold.PLP.ligand.torsion>
0.4030

> <Gold.PLP.Chemscore.Hbond>
3.8406

> <Gold.PLP.Chemscore.CHOScore>
0.0000

> <Gold.PLP.Chemscore.Metal>
0.0000

> <Gold.Chemscore.Hbonds>
donor molecule, donor type, donor heavy atom, donor atom, acceptor molecule, acceptor atom, score
      L1  H     4    40       P1  8028  2.00
      L1  H     8    28       P1  7948  0.81
      L1  H    11    29       P1  7948  1.00

> <Gold.PLP.Chemscore.Internal.Correction>
0.0215

> <Gold.Rescore>
     Score         DG    S(hbond)    S(metal)    S(lipo)     H(rot)  DE(clash)    DE(int)     intcor
     18.11     -20.61       2.83        0.00      70.51       1.00       2.15       0.35       ----

> <Gold.Chemscore.Fitness>
18.1101

> <Gold.Chemscore.DG>
-20.6059

> <Gold.Chemscore.ZeroCoef>
-5.4800

> <Gold.Chemscore.Hbond>
2.8251

> <Gold.Chemscore.Metal>
0.0000

> <Gold.Chemscore.Lipo>
70.5125

> <Gold.Chemscore.Internal_Hbond>
0.0000

> <Gold.Chemscore.DEClash>
2.1502

> <Gold.Chemscore.DEInternal>
0.3456

> <Gold.Chemscore.Rot>
1.0000

> <Gold.Chemscore.Internal.Correction>
   9.000000E+99

> <Gold.Chemscore.Hbonds>
donor molecule, donor type, donor heavy atom, donor atom, acceptor molecule, acceptor atom, score
      L1  H     4    40       P1  8028  1.00
      L1  H     8    28       P1  7948  0.76
      L1  H    11    29       P1  7948  0.97

> <Gold.Chemscore.Hbond.Weighted>
-9.4360

> <Gold.Chemscore.Metal.Weighted>
-0.0000

> <Gold.Chemscore.Lipo.Weighted>
-8.2500

> <Gold.Chemscore.Internal_Hbond.Weighted>
0.0000

> <Gold.Chemscore.DEClash.Weighted>
2.1502

> <Gold.Chemscore.DEInternal.Weighted>
0.3456

> <Gold.Chemscore.Rot.Weighted>
2.5600

> <Gold.Chemscore.Internal.Correction.Weighted>
   9.000000E+99

> <Gold.Protein.RotatedTorsions>
[ 6907 6896 6895 6894 ] final   89.62 input  -60.11 | X-H torsion
[ 7974 7965 7964 7962 ] final -117.53 input  175.53 | X-H torsion
[ 8008 7997 7996 7995 ] final -179.77 input   59.86 | X-H torsion
[ 10167 10162 10161 10158 ] final  -81.66 input  -65.29 | X-H torsion
[ 10718 10713 10712 10709 ] final -163.67 input   66.30 | X-H torsion
[ 10763 10752 10751 10750 ] final  -25.28 input  -60.55 | X-H torsion
[ 11005 11000 10999 10996 ] final -103.37 input  -57.11 | X-H torsion

> <Gold.Protein.ActiveResidues>
 VAL166  LYS551  ARG553  GLY616  TRP617  ASP618  TYR619  PRO620  LYS621  CYS622 
 ASP623  PHE694  ASN695  SER759  ASP760  ASP761  ALA762  ILE779  LEU786  VAL792 
 PHE793  MET794  SER795  GLU796  ALA797  LYS798  CYS799  TRP800  GLU811  SER814 

> <Gold.Protein.RotatedAtoms>
  152.5438  134.1938  159.8684 H   0  0  0  0  0  0  0  0  0  0  0  0  # atno 6907 bound_to 6896
  151.1932  133.4648  159.2602 H   0  0  0  0  0  0  0  0  0  0  0  0  # atno 6908 bound_to 6896
  151.1063  135.0013  159.8528 H   0  0  0  0  0  0  0  0  0  0  0  0  # atno 6909 bound_to 6896
  145.0842  140.8446  143.4021 H   0  0  0  0  0  0  0  0  0  0  0  0  # atno 7974 bound_to 7965
  156.0343  140.1289  157.0224 H   0  0  0  0  0  0  0  0  0  0  0  0  # atno 8008 bound_to 7997
  154.4363  140.1043  156.6215 H   0  0  0  0  0  0  0  0  0  0  0  0  # atno 8009 bound_to 7997
  155.5760  140.3467  155.4530 H   0  0  0  0  0  0  0  0  0  0  0  0  # atno 8010 bound_to 7997
  140.4391  143.2521  151.8651 H   0  0  0  0  0  0  0  0  0  0  0  0  # atno 10167 bound_to 10162
  156.6281  130.8918  151.2972 H   0  0  0  0  0  0  0  0  0  0  0  0  # atno 10718 bound_to 10713
  153.6974  135.6958  153.5073 H   0  0  0  0  0  0  0  0  0  0  0  0  # atno 10763 bound_to 10752
  153.2368  135.4319  155.0654 H   0  0  0  0  0  0  0  0  0  0  0  0  # atno 10764 bound_to 10752
  154.8355  135.3498  154.6514 H   0  0  0  0  0  0  0  0  0  0  0  0  # atno 10765 bound_to 10752
  141.1149  133.8635  157.1477 H   0  0  0  0  0  0  0  0  0  0  0  0  # atno 11005 bound_to 11000
  145.1142  139.2736  143.5621 LP  0  0  0  0  0  0  0  0  0  0  0  0  # atno 17320 bound_to 7965
  146.3531  140.0747  142.8621 LP  0  0  0  0  0  0  0  0  0  0  0  0  # atno 17321 bound_to 7965
  139.4788  144.5249  151.8749 LP  0  0  0  0  0  0  0  0  0  0  0  0  # atno 17342 bound_to 10162
  140.4339  144.2079  150.5888 LP  0  0  0  0  0  0  0  0  0  0  0  0  # atno 17343 bound_to 10162
  157.7208  130.9556  150.1432 LP  0  0  0  0  0  0  0  0  0  0  0  0  # atno 17370 bound_to 10713
  156.2257  130.3677  149.8503 LP  0  0  0  0  0  0  0  0  0  0  0  0  # atno 17371 bound_to 10713
  140.0064  135.0006  157.0302 LP  0  0  0  0  0  0  0  0  0  0  0  0  # atno 17394 bound_to 11000
  140.4675  134.1421  155.7199 LP  0  0  0  0  0  0  0  0  0  0  0  0  # atno 17395 bound_to 11000

$$$$
