#       Name:                AV-unprocessed.smi:3281
#       Creating user name   scv26
#       Creation time:       Fri Mar 27 18:48:02 2020


#       File generated by GOLD software.
#

@<TRIPOS>MOLECULE
AV-unprocessed.smi:3281
    38    39     1
SMALL
NO_CHARGES


@<TRIPOS>ATOM
      1 ****        -4.1355   2.2196   3.1226 C.3            1 S1                 0.0000
      2 ****        -3.8087   1.2478   1.9837 C.3            1 S1                 0.0000
      3 ****        -2.5112   0.5334   2.1727 C.2            1 S1                 0.0000
      4 ****        -2.3222  -0.7733   2.5493 C.2            1 S1                 0.0000
      5 ****        -0.9799  -1.1500   2.6307 N.2            1 S1                 0.0000
      6 ****        -0.1494  -0.1474   2.3346 C.2            1 S1                 0.0000
      7 ****         1.3384  -0.2933   2.3070 C.3            1 S1                 0.0000
      8 ****         1.8738  -0.8041   0.9597 C.3            1 S1                 0.0000
      9 ****         1.6415   0.1828  -0.0867 N.3            1 S1                 0.0000
     10 ****         2.0428  -0.3036  -1.4003 C.3            1 S1                 0.0000
     11 ****         0.9230  -1.1793  -2.0061 C.3            1 S1                 0.0000
     12 ****         1.2817  -1.7151  -3.4017 C.3            1 S1                 0.0000
     13 ****         1.5271  -0.5911  -4.4173 C.3            1 S1                 0.0000
     14 ****         2.9313   0.4423  -3.9215 S.3            1 S1                 0.0000
     15 ****         2.3366   0.9262  -2.2782 C.3            1 S1                 0.0000
     16 ****        -0.9871   1.3429   1.9137 S.3            1 S1                 0.0000
     17 ****        -5.0912   2.7141   2.9481 H              1 S1                 0.0000
     18 ****        -3.3728   2.9933   3.2139 H              1 S1                 0.0000
     19 ****        -4.2000   1.6976   4.0776 H              1 S1                 0.0000
     20 ****        -4.6151   0.5195   1.8914 H              1 S1                 0.0000
     21 ****        -3.7859   1.7924   1.0394 H              1 S1                 0.0000
     22 ****        -3.0844  -1.5049   2.7741 H              1 S1                 0.0000
     23 ****         1.7916   0.6670   2.5562 H              1 S1                 0.0000
     24 ****         1.6306  -0.9839   3.0989 H              1 S1                 0.0000
     25 ****         2.9455  -0.9909   1.0364 H              1 S1                 0.0000
     26 ****         1.3982  -1.7536   0.7152 H              1 S1                 0.0000
     27 ****         2.1631   1.0189   0.1352 H              1 S1                 0.0000
     28 ****         2.9616  -0.8842  -1.3041 H              1 S1                 0.0000
     29 ****         0.7126  -2.0303  -1.3586 H              1 S1                 0.0000
     30 ****        -0.0047  -0.6078  -2.0646 H              1 S1                 0.0000
     31 ****         2.1644  -2.3524  -3.3371 H              1 S1                 0.0000
     32 ****         0.4718  -2.3510  -3.7600 H              1 S1                 0.0000
     33 ****         1.7319  -1.0102  -5.4025 H              1 S1                 0.0000
     34 ****         0.6397   0.0353  -4.5138 H              1 S1                 0.0000
     35 ****         1.4425   1.5405  -2.3945 H              1 S1                 0.0000
     36 ****         3.0984   1.5541  -1.8143 H              1 S1                 0.0000
     37 ****        -0.6748  -2.0684   2.8827 LP             1 S1                 0.0000
     38 ****         0.6603   0.3720  -0.1242 LP             1 S1                 0.0000
@<TRIPOS>BOND
    1    1    2 1     
    2    1   17 1     
    3    1   18 1     
    4    1   19 1     
    5    2    3 1     
    6    2   20 1     
    7    2   21 1     
    8    3   16 1     
    9    3    4 2     
   10    4    5 1     
   11    4   22 1     
   12    5    6 2     
   13    6    7 1     
   14    6   16 1     
   15    7    8 1     
   16    7   23 1     
   17    7   24 1     
   18    8    9 1     
   19    8   25 1     
   20    8   26 1     
   21    9   10 1     
   22    9   27 1     
   23   10   15 1     
   24   10   11 1     
   25   10   28 1     
   26   11   12 1     
   27   11   29 1     
   28   11   30 1     
   29   12   13 1     
   30   12   31 1     
   31   12   32 1     
   32   13   14 1     
   33   13   33 1     
   34   13   34 1     
   35   14   15 1     
   36   15   35 1     
   37   15   36 1     
   38    5   37 1     
   39    9   38 1     
@<TRIPOS>SUBSTRUCTURE
      1 S1             1
@<TRIPOS>SET
LONE_PAIRS      STATIC     ATOMS    <user>   **** ""
2 37 38
DONOR_HYDROGENS      STATIC     ATOMS    <user>   **** ""
1 27
ATOM$BLUE        STATIC     ATOMS    COLORGROUP SYSTEM
2 37 38
ATOM$RED        STATIC     ATOMS    COLORGROUP SYSTEM
1 27
