#       Name:                AV-unprocessed.smi:1817
#       Creating user name   scv26
#       Creation time:       Fri Mar 27 09:04:42 2020


#       File generated by GOLD software.
#

@<TRIPOS>MOLECULE
AV-unprocessed.smi:1817
    48    49     1
SMALL
NO_CHARGES


@<TRIPOS>ATOM
      1 ****        -4.5525   1.2361   3.0505 C.3            1 S1                 0.0000
      2 ****        -3.9344   1.5793   1.6878 C.3            1 S1                 0.0000
      3 ****        -2.4734   1.5834   1.6589 N.3            1 S1                 0.0000
      4 ****        -1.9786   2.1187   0.3932 C.3            1 S1                 0.0000
      5 ****        -0.4403   2.1557   0.3540 C.3            1 S1                 0.0000
      6 ****         0.1499   0.8222   0.5303 N.3            1 S1                 0.0000
      7 ****         1.6284   0.8442   0.4848 C.3            1 S1                 0.0000
      8 ****         2.1966   1.4734  -0.8074 C.3            1 S1                 0.0000
      9 ****         2.2873  -0.5461   0.6873 C.3            1 S1                 0.0000
     10 ****         1.7957  -1.5420  -0.2645 N.am           1 S1                 0.0000
     11 ****         2.4225  -1.9675  -1.3708 C.2            1 S1                 0.0000
     12 ****         3.5365  -1.5243  -1.6595 O.2            1 S1                 0.0000
     13 ****         1.7159  -2.8774  -2.0799 N.pl3          1 S1                -1.0000
     14 ****         2.2202  -3.3788  -3.2195 C.2            1 S1                 0.0000
     15 ****         2.7924  -4.5920  -3.2780 N.2            1 S1                 0.0000
     16 ****         3.2457  -4.9216  -4.5483 N.2            1 S1                 0.0000
     17 ****         2.9962  -3.9460  -5.4213 C.2            1 S1                 0.0000
     18 ****         2.1797  -2.5393  -4.7729 S.3            1 S1                 0.0000
     19 ****        -0.3658   0.2744   1.7926 C.3            1 S1                 0.0000
     20 ****        -1.9049   0.2465   1.8327 C.3            1 S1                 0.0000
     21 ****        -5.6357   1.3549   3.0200 H              1 S1                 0.0000
     22 ****        -4.1698   1.8936   3.8318 H              1 S1                 0.0000
     23 ****        -4.3486   0.2067   3.3439 H              1 S1                 0.0000
     24 ****        -4.3196   0.8964   0.9291 H              1 S1                 0.0000
     25 ****        -4.2930   2.5707   1.4081 H              1 S1                 0.0000
     26 ****        -2.3510   1.5190  -0.4392 H              1 S1                 0.0000
     27 ****        -2.3626   3.1286   0.2451 H              1 S1                 0.0000
     28 ****        -0.1514   2.5760  -0.6080 H              1 S1                 0.0000
     29 ****        -0.0676   2.8357   1.1216 H              1 S1                 0.0000
     30 ****         1.9783   1.4685   1.3082 H              1 S1                 0.0000
     31 ****         3.2802   1.3639  -0.8562 H              1 S1                 0.0000
     32 ****         1.9973   2.5429  -0.8654 H              1 S1                 0.0000
     33 ****         1.7790   1.0041  -1.6989 H              1 S1                 0.0000
     34 ****         3.3734  -0.4574   0.6322 H              1 S1                 0.0000
     35 ****         2.1017  -0.9204   1.6931 H              1 S1                 0.0000
     36 ****         0.8833  -1.9311  -0.0774 H              1 S1                 0.0000
     37 ****         3.2909  -4.0571  -6.4540 H              1 S1                 0.0000
     38 ****        -0.0206  -0.7485   1.9331 H              1 S1                 0.0000
     39 ****         0.0141   0.8544   2.6352 H              1 S1                 0.0000
     40 ****        -2.2169  -0.1742   2.7880 H              1 S1                 0.0000
     41 ****        -2.2790  -0.4248   1.0578 H              1 S1                 0.0000
     42 ****        -2.1872   2.1610   2.4234 LP             1 S1                 0.0000
     43 ****        -0.1153   0.2308  -0.2312 LP             1 S1                 0.0000
     44 ****         3.9736  -0.8466  -1.0681 LP             1 S1                 0.0000
     45 ****         4.0027  -1.8426  -2.4849 LP             1 S1                 0.0000
     46 ****         0.8185  -3.1767  -1.7558 LP             1 S1                 0.0000
     47 ****         2.8829  -5.1969  -2.4868 LP             1 S1                 0.0000
     48 ****         3.7013  -5.7814  -4.7787 LP             1 S1                 0.0000
@<TRIPOS>BOND
    1    1    2 1     
    2    1   21 1     
    3    1   22 1     
    4    1   23 1     
    5    2    3 1     
    6    2   24 1     
    7    2   25 1     
    8    3   20 1     
    9    3    4 1     
   10    4    5 1     
   11    4   26 1     
   12    4   27 1     
   13    5    6 1     
   14    5   28 1     
   15    5   29 1     
   16    6    7 1     
   17    6   19 1     
   18    7    8 1     
   19    7    9 1     
   20    7   30 1     
   21    8   31 1     
   22    8   32 1     
   23    8   33 1     
   24    9   10 1     
   25    9   34 1     
   26    9   35 1     
   27   10   11 am    
   28   10   36 1     
   29   11   12 2     
   30   11   13 1     
   31   13   14 1     
   32   14   18 1     
   33   14   15 2     
   34   15   16 1     
   35   16   17 2     
   36   17   18 1     
   37   17   37 1     
   38   19   20 1     
   39   19   38 1     
   40   19   39 1     
   41   20   40 1     
   42   20   41 1     
   43    3   42 1     
   44    6   43 1     
   45   12   44 1     
   46   12   45 1     
   47   13   46 1     
   48   15   47 1     
   49   16   48 1     
@<TRIPOS>SUBSTRUCTURE
      1 S1             1
@<TRIPOS>SET
LONE_PAIRS      STATIC     ATOMS    <user>   **** ""
7 42 43 44 45 46 47 48
DONOR_HYDROGENS      STATIC     ATOMS    <user>   **** ""
1 36
ATOM$BLUE        STATIC     ATOMS    COLORGROUP SYSTEM
7 42 43 44 45 46 47 48
ATOM$RED        STATIC     ATOMS    COLORGROUP SYSTEM
1 36
