AV-unprocessed.smi:347|AV-procd|sdf|2394|dock9
  -GOLD-   2262022323D 1   1.00000     0.00000
 Structure written by MMmdl.
 45 46  0  0  0  0  0  0  0  0  2 V2000
  153.5950  139.0784  154.8273 C   0  0  0  0  0  0  0  0  0  0  0  0
  152.1343  138.8142  154.6958 C   0  0  0  0  0  0  0  0  0  0  0  0
  151.4163  137.6929  154.3880 C   0  0  0  0  0  0  0  0  0  0  0  0
  150.0726  138.1499  154.4374 C   0  0  0  0  0  0  0  0  0  0  0  0
  148.9940  137.2671  154.1765 N   0  0  0  0  0  0  0  0  0  0  0  0
  148.0398  136.8654  155.0330 C   0  0  0  0  0  0  0  0  0  0  0  0
  147.9298  137.2384  156.2010 O   0  0  0  0  0  0  0  0  0  0  0  0
  147.2068  135.9879  154.4547 N   0  0  0  0  0  0  0  0  0  0  0  0
  146.0676  135.3405  155.1020 C   0  0  0  0  0  0  0  0  0  0  0  0
  146.3375  133.8836  155.5257 C   0  0  0  0  0  0  0  0  0  0  0  0
  146.3294  132.8493  154.3721 C   0  0  0  0  0  0  0  0  0  0  0  0
  147.6502  132.8524  153.5710 C   0  0  0  0  0  0  0  0  0  0  0  0
  146.1973  131.4453  154.9944 C   0  0  0  0  0  0  0  0  0  0  0  0
  145.1474  133.0391  153.4844 N   0  3  0  0  0  0  0  0  0  0  0  0
  144.7483  134.4096  153.0545 C   0  0  0  0  0  0  0  0  0  0  0  0
  145.5782  134.8882  151.8424 C   0  0  0  0  0  0  0  0  0  0  0  0
  143.2865  134.3146  152.5755 C   0  0  0  0  0  0  0  0  0  0  0  0
  144.7985  135.4119  154.2375 C   0  0  0  0  0  0  0  0  0  0  0  0
  149.9780  139.4335  154.7479 N   0  0  0  0  0  0  0  0  0  0  0  0
  151.2990  139.8662  154.9140 O   0  0  0  0  0  0  0  0  0  0  0  0
  154.1466  138.1495  154.9727 H   0  0  0  0  0  0  0  0  0  0  0  0
  153.7979  139.7281  155.6788 H   0  0  0  0  0  0  0  0  0  0  0  0
  153.9807  139.5643  153.9311 H   0  0  0  0  0  0  0  0  0  0  0  0
  151.7953  136.7069  154.1644 H   0  0  0  0  0  0  0  0  0  0  0  0
  148.9544  136.8909  153.2410 H   0  0  0  0  0  0  0  0  0  0  0  0
  147.3721  135.7509  153.4872 H   0  0  0  0  0  0  0  0  0  0  0  0
  145.8682  135.9178  156.0071 H   0  0  0  0  0  0  0  0  0  0  0  0
  147.2663  133.8098  156.0929 H   0  0  0  0  0  0  0  0  0  0  0  0
  145.5533  133.6140  156.2351 H   0  0  0  0  0  0  0  0  0  0  0  0
  148.4870  132.5559  154.2044 H   0  0  0  0  0  0  0  0  0  0  0  0
  147.9139  133.8220  153.1623 H   0  0  0  0  0  0  0  0  0  0  0  0
  147.6103  132.1484  152.7391 H   0  0  0  0  0  0  0  0  0  0  0  0
  147.0201  131.2341  155.6788 H   0  0  0  0  0  0  0  0  0  0  0  0
  146.2006  130.6666  154.2303 H   0  0  0  0  0  0  0  0  0  0  0  0
  145.2699  131.3408  155.5591 H   0  0  0  0  0  0  0  0  0  0  0  0
  145.2537  132.4559  152.6666 H   0  0  0  0  0  0  0  0  0  0  0  0
  145.1731  135.8166  151.4383 H   0  0  0  0  0  0  0  0  0  0  0  0
  145.5624  134.1527  151.0372 H   0  0  0  0  0  0  0  0  0  0  0  0
  146.6184  135.0907  152.0743 H   0  0  0  0  0  0  0  0  0  0  0  0
  142.9044  135.2876  152.2642 H   0  0  0  0  0  0  0  0  0  0  0  0
  142.6291  133.9440  153.3634 H   0  0  0  0  0  0  0  0  0  0  0  0
  143.1869  133.6371  151.7262 H   0  0  0  0  0  0  0  0  0  0  0  0
  143.9550  135.2077  154.8991 H   0  0  0  0  0  0  0  0  0  0  0  0
  144.6420  136.4310  153.8803 H   0  0  0  0  0  0  0  0  0  0  0  0
  144.3609  132.6858  154.0103 H   0  0  0  0  0  0  0  0  0  0  0  0
  1  2  1  0  0  0  0
  1 21  1  0  0  0  0
  1 22  1  0  0  0  0
  1 23  1  0  0  0  0
  2 20  1  0  0  0  0
  2  3  2  0  0  0  0
  3  4  1  0  0  0  0
  3 24  1  0  0  0  0
  4  5  1  0  0  0  0
  4 19  2  0  0  0  0
  5  6  1  0  0  0  0
  5 25  1  0  0  0  0
  6  7  2  0  0  0  0
  6  8  1  0  0  0  0
  8  9  1  0  0  0  0
  8 26  1  0  0  0  0
  9 18  1  0  0  0  0
  9 10  1  0  0  0  0
  9 27  1  0  0  0  0
 10 11  1  0  0  0  0
 10 28  1  0  0  0  0
 10 29  1  0  0  0  0
 11 12  1  0  0  0  0
 11 13  1  0  0  0  0
 11 14  1  0  0  0  0
 12 30  1  0  0  0  0
 12 31  1  0  0  0  0
 12 32  1  0  0  0  0
 13 33  1  0  0  0  0
 13 34  1  0  0  0  0
 13 35  1  0  0  0  0
 14 15  1  0  0  0  0
 14 36  1  0  0  0  0
 14 45  1  0  0  0  0
 15 16  1  0  0  0  0
 15 17  1  0  0  0  0
 15 18  1  0  0  0  0
 16 37  1  0  0  0  0
 16 38  1  0  0  0  0
 16 39  1  0  0  0  0
 17 40  1  0  0  0  0
 17 41  1  0  0  0  0
 17 42  1  0  0  0  0
 18 43  1  0  0  0  0
 18 44  1  0  0  0  0
 19 20  1  0  0  0  0
M  CHG  1  14   1
M  END
> <s_m_source_file>
AV-unprocessed.smi

> <i_m_source_file_index>
347

> <i_lp_mmshare_version>
43012

> <i_f3d_flags>
0

> <s_epik_input>
W0NIM11jMVtjSF1jKG5vMSlbTkhdQyg9TylbTkhdW0NIXShbQ0gyXUMyKFtDSDNdKVtDSDNdKVtDSDJdQyhbTkhdMikoW0NIM10pW0NIM10=

> <s_epik_cmdline>
J2VwaWtfcHl0aG9uJywgJy1waCcsICc3LjAnLCAnLXRuJywgJzgnLCAnLW1hJywgJzIwMCcsICctbWV0YWxfYmluZGluZycsICctaW1hZScsICc8aW5maWxlLm1hZT4nLCAnLW9tYWUnLCAnPG91dGZpbGUubWFlPic=

> <r_lp_tautomer_probability>
1

> <r_epik_Ionization_Penalty>
0.000125139

> <r_epik_Ionization_Penalty_Charging>
0.000103024

> <r_epik_Ionization_Penalty_Neutral>
2.21147e-05

> <r_epik_State_Penalty>
-0

> <r_epik_Charging_Adjusted_Penalty>
0.000103024

> <i_epik_Tot_Q>
1

> <i_epik_Tot_abs_Q>
1

> <r_epik_Metal_State_Penalty>
-0

> <b_epik_Metal_Only>
0

> <s_lp_Force_Field>
OPLS_2005

> <r_lp_Energy>
23.9758

> <b_lp_Chiralities_Consistent>
1

> <s_lp_Variant>
AV-unprocessed.smi:347-1

> <Gold.Version>
5.8.1

> <Gold.Id.Protein>
6NUR|6NUR_protein|mol2

> <Gold.PLP.Fitness>
32.6819

> <Gold.PLP.PLP>
-22.2941

> <Gold.PLP.part.hbond>
-3.5012

> <Gold.PLP.part.metal>
0.0000

> <Gold.PLP.part.buried>
-1.8329

> <Gold.PLP.part.nonpolar>
-19.0638

> <Gold.PLP.part.repulsive>
0.1797

> <Gold.PLP.ligand.clash>
0.0000

> <Gold.PLP.ligand.torsion>
0.8062

> <Gold.PLP.Chemscore.Hbond>
3.9947

> <Gold.PLP.Chemscore.CHOScore>
0.0000

> <Gold.PLP.Chemscore.Metal>
0.0000

> <Gold.Chemscore.Hbonds>
donor molecule, donor type, donor heavy atom, donor atom, acceptor molecule, acceptor atom, score
      L1  H     5    25       P1  7948  0.96
      L1  H     8    26       P1  7948  0.22
      L1  H    14    45       P1 10957  1.82
      P1  H  7989  7998       L1    20  1.00

> <Gold.PLP.Chemscore.Internal.Correction>
0.0162

> <Gold.Rescore>
     Score         DG    S(hbond)    S(metal)    S(lipo)     H(rot)  DE(clash)    DE(int)     intcor
     14.37     -16.35       2.29        0.00      49.35       1.00       1.20       0.78       ----

> <Gold.Chemscore.Fitness>
14.3685

> <Gold.Chemscore.DG>
-16.3524

> <Gold.Chemscore.ZeroCoef>
-5.4800

> <Gold.Chemscore.Hbond>
2.2931

> <Gold.Chemscore.Metal>
0.0000

> <Gold.Chemscore.Lipo>
49.3462

> <Gold.Chemscore.Internal_Hbond>
0.0000

> <Gold.Chemscore.DEClash>
1.2035

> <Gold.Chemscore.DEInternal>
0.7804

> <Gold.Chemscore.Rot>
1.0000

> <Gold.Chemscore.Internal.Correction>
   9.000000E+99

> <Gold.Chemscore.Hbonds>
donor molecule, donor type, donor heavy atom, donor atom, acceptor molecule, acceptor atom, score
      L1  H     5    25       P1  7948  0.91
      L1  H     8    26       P1  7948  0.23
      L1  H    14    45       P1 10957  0.68
      P1  H  7989  7998       L1    20  0.17

> <Gold.Chemscore.Hbond.Weighted>
-7.6589

> <Gold.Chemscore.Metal.Weighted>
-0.0000

> <Gold.Chemscore.Lipo.Weighted>
-5.7735

> <Gold.Chemscore.Internal_Hbond.Weighted>
0.0000

> <Gold.Chemscore.DEClash.Weighted>
1.2035

> <Gold.Chemscore.DEInternal.Weighted>
0.7804

> <Gold.Chemscore.Rot.Weighted>
2.5600

> <Gold.Chemscore.Internal.Correction.Weighted>
   9.000000E+99

> <Gold.Protein.RotatedTorsions>
[ 6907 6896 6895 6894 ] final    7.11 input  -60.11 | X-H torsion
[ 7974 7965 7964 7962 ] final   94.98 input  175.53 | X-H torsion
[ 8008 7997 7996 7995 ] final  127.75 input   59.86 | X-H torsion
[ 10167 10162 10161 10158 ] final  -67.67 input  -65.29 | X-H torsion
[ 10718 10713 10712 10709 ] final  -18.18 input   66.30 | X-H torsion
[ 10763 10752 10751 10750 ] final  -10.65 input  -60.55 | X-H torsion
[ 11005 11000 10999 10996 ] final  111.84 input  -57.11 | X-H torsion

> <Gold.Protein.ActiveResidues>
 VAL166  LYS551  ARG553  GLY616  TRP617  ASP618  TYR619  PRO620  LYS621  CYS622 
 ASP623  PHE694  ASN695  SER759  ASP760  ASP761  ALA762  ILE779  LEU786  VAL792 
 PHE793  MET794  SER795  GLU796  ALA797  LYS798  CYS799  TRP800  GLU811  SER814 

> <Gold.Protein.RotatedAtoms>
  151.6845  135.0956  160.0221 H   0  0  0  0  0  0  0  0  0  0  0  0  # atno 6907 bound_to 6896
  152.3815  133.6549  159.6174 H   0  0  0  0  0  0  0  0  0  0  0  0  # atno 6908 bound_to 6896
  150.7751  133.9022  159.3386 H   0  0  0  0  0  0  0  0  0  0  0  0  # atno 6909 bound_to 6896
  145.4583  139.2288  143.3001 H   0  0  0  0  0  0  0  0  0  0  0  0  # atno 7974 bound_to 7965
  156.2898  140.2661  156.2324 H   0  0  0  0  0  0  0  0  0  0  0  0  # atno 8008 bound_to 7997
  155.0059  140.0387  157.2397 H   0  0  0  0  0  0  0  0  0  0  0  0  # atno 8009 bound_to 7997
  154.7561  140.2752  155.6257 H   0  0  0  0  0  0  0  0  0  0  0  0  # atno 8010 bound_to 7997
  140.5565  143.2312  151.6810 H   0  0  0  0  0  0  0  0  0  0  0  0  # atno 10167 bound_to 10162
  156.5631  130.4730  149.6397 H   0  0  0  0  0  0  0  0  0  0  0  0  # atno 10718 bound_to 10713
  153.4723  135.7017  153.5986 H   0  0  0  0  0  0  0  0  0  0  0  0  # atno 10763 bound_to 10752
  153.4234  135.3820  155.2126 H   0  0  0  0  0  0  0  0  0  0  0  0  # atno 10764 bound_to 10752
  154.8725  135.3933  154.4163 H   0  0  0  0  0  0  0  0  0  0  0  0  # atno 10765 bound_to 10752
  139.8913  134.9517  156.6494 H   0  0  0  0  0  0  0  0  0  0  0  0  # atno 11005 bound_to 11000
  146.2465  140.5349  142.8911 LP  0  0  0  0  0  0  0  0  0  0  0  0  # atno 17320 bound_to 7965
  144.8018  140.6228  143.6473 LP  0  0  0  0  0  0  0  0  0  0  0  0  # atno 17321 bound_to 7965
  139.5050  144.3732  152.0449 LP  0  0  0  0  0  0  0  0  0  0  0  0  # atno 17342 bound_to 10162
  140.2854  144.3813  150.6105 LP  0  0  0  0  0  0  0  0  0  0  0  0  # atno 17343 bound_to 10162
  156.2781  130.7055  151.1872 LP  0  0  0  0  0  0  0  0  0  0  0  0  # atno 17370 bound_to 10713
  157.7364  131.0562  150.5414 LP  0  0  0  0  0  0  0  0  0  0  0  0  # atno 17371 bound_to 10713
  140.7532  133.8880  155.8362 LP  0  0  0  0  0  0  0  0  0  0  0  0  # atno 17394 bound_to 11000
  140.9983  134.1184  157.4342 LP  0  0  0  0  0  0  0  0  0  0  0  0  # atno 17395 bound_to 11000

$$$$
