#       Name:                AV-unprocessed.smi:2492
#       Creating user name   scv26
#       Creation time:       Fri Mar 27 13:44:36 2020


#       File generated by GOLD software.
#

@<TRIPOS>MOLECULE
AV-unprocessed.smi:2492
    39    40     1
SMALL
NO_CHARGES


@<TRIPOS>ATOM
      1 ****        -2.3764  -4.0849  -1.1501 C.3            1 S1                 0.0000
      2 ****        -3.4621  -3.3417   0.0963 S.3            1 S1                 0.0000
      3 ****        -2.2984  -2.1923   0.8853 C.3            1 S1                 0.0000
      4 ****        -2.8850  -1.5205   2.1238 C.3            1 S1                 0.0000
      5 ****        -2.0024  -0.2893   2.3383 C.3            1 S1                 0.0000
      6 ****        -1.4983   0.1238   0.9418 C.3            1 S1                 0.0000
      7 ****        -0.0506   0.3243   0.9517 N.am           1 S1                 0.0000
      8 ****         0.6606   0.9760   0.0200 C.2            1 S1                 0.0000
      9 ****         0.0903   1.4653  -0.9578 O.2            1 S1                 0.0000
     10 ****         1.9874   1.0177   0.2784 N.pl3          1 S1                -1.0000
     11 ****         2.8173   1.6435  -0.5723 C.2            1 S1                 0.0000
     12 ****         3.2893   2.8836  -0.4371 N.2            1 S1                 0.0000
     13 ****         4.0728   3.0063  -1.5417 C.2            1 S1                 0.0000
     14 ****         4.8400   4.2440  -1.8584 C.3            1 S1                 0.0000
     15 ****         4.1265   1.9449  -2.3324 N.2            1 S1                 0.0000
     16 ****         3.2894   1.0246  -1.6858 O.3            1 S1                 0.0000
     17 ****        -1.9072  -1.0160  -0.0127 C.3            1 S1                 0.0000
     18 ****        -2.9183  -4.8437  -1.7145 H              1 S1                 0.0000
     19 ****        -1.5167  -4.5564  -0.6739 H              1 S1                 0.0000
     20 ****        -2.0175  -3.3284  -1.8480 H              1 S1                 0.0000
     21 ****        -1.4003  -2.7402   1.1750 H              1 S1                 0.0000
     22 ****        -3.9101  -1.2028   1.9267 H              1 S1                 0.0000
     23 ****        -2.9014  -2.1799   2.9919 H              1 S1                 0.0000
     24 ****        -2.5432   0.5165   2.8355 H              1 S1                 0.0000
     25 ****        -1.1663  -0.5610   2.9850 H              1 S1                 0.0000
     26 ****        -1.9901   1.0494   0.6370 H              1 S1                 0.0000
     27 ****         0.4571  -0.0595   1.7352 H              1 S1                 0.0000
     28 ****         5.8957   4.1004  -1.6279 H              1 S1                 0.0000
     29 ****         4.4693   5.0862  -1.2733 H              1 S1                 0.0000
     30 ****         4.7443   4.4919  -2.9158 H              1 S1                 0.0000
     31 ****        -1.1255  -1.2859  -0.7240 H              1 S1                 0.0000
     32 ****        -2.7714  -0.6951  -0.5959 H              1 S1                 0.0000
     33 ****        -0.9009   1.3758  -1.0551 LP             1 S1                 0.0000
     34 ****         0.6191   1.9515  -1.6535 LP             1 S1                 0.0000
     35 ****         2.3505   0.5828   1.1024 LP             1 S1                 0.0000
     36 ****         3.1130   3.5496   0.2877 LP             1 S1                 0.0000
     37 ****         4.6391   1.8284  -3.1831 LP             1 S1                 0.0000
     38 ****         2.5313   0.7676  -2.2852 LP             1 S1                 0.0000
     39 ****         3.8063   0.2067  -1.4329 LP             1 S1                 0.0000
@<TRIPOS>BOND
    1    1    2 1     
    2    1   18 1     
    3    1   19 1     
    4    1   20 1     
    5    2    3 1     
    6    3   17 1     
    7    3    4 1     
    8    3   21 1     
    9    4    5 1     
   10    4   22 1     
   11    4   23 1     
   12    5    6 1     
   13    5   24 1     
   14    5   25 1     
   15    6    7 1     
   16    6   17 1     
   17    6   26 1     
   18    7    8 am    
   19    7   27 1     
   20    8    9 2     
   21    8   10 1     
   22   10   11 1     
   23   11   16 1     
   24   11   12 2     
   25   12   13 1     
   26   13   14 1     
   27   13   15 2     
   28   14   28 1     
   29   14   29 1     
   30   14   30 1     
   31   15   16 1     
   32   17   31 1     
   33   17   32 1     
   34    9   33 1     
   35    9   34 1     
   36   10   35 1     
   37   12   36 1     
   38   15   37 1     
   39   16   38 1     
   40   16   39 1     
@<TRIPOS>SUBSTRUCTURE
      1 S1             1
@<TRIPOS>SET
LONE_PAIRS      STATIC     ATOMS    <user>   **** ""
7 33 34 35 36 37 38 39
DONOR_HYDROGENS      STATIC     ATOMS    <user>   **** ""
1 27
ATOM$BLUE        STATIC     ATOMS    COLORGROUP SYSTEM
7 33 34 35 36 37 38 39
ATOM$RED        STATIC     ATOMS    COLORGROUP SYSTEM
1 27
