AV-unprocessed.smi:1824|AV-procd|sdf|7412|dock9
  -GOLD-   22720 9 93D 1   1.00000     0.00000
 Structure written by MMmdl.
 45 47  0  0  0  0  0  0  0  0  2 V2000
  152.2205  143.1811  163.2246 C   0  0  0  0  0  0  0  0  0  0  0  0
  152.5729  143.1413  161.7340 C   0  0  1  0  0  0  0  0  0  0  0  0
  152.9294  141.7208  161.2600 C   0  0  0  0  0  0  0  0  0  0  0  0
  153.1854  141.6725  159.8259 N   0  0  0  0  0  0  0  0  0  0  0  0
  153.5720  140.3240  159.4078 C   0  0  0  0  0  0  0  0  0  0  0  0
  152.4450  139.4789  158.7810 C   0  0  1  0  0  0  0  0  0  0  0  0
  152.7312  139.3027  157.4076 O   0  0  0  0  0  0  0  0  0  0  0  0
  152.3250  138.1018  159.4612 C   0  0  0  0  0  0  0  0  0  0  0  0
  153.6319  137.4875  159.7366 N   0  0  0  0  0  0  0  0  0  0  0  0
  154.6783  137.2642  158.8962 C   0  0  0  0  0  0  0  0  0  0  0  0
  155.6663  136.6668  159.6183 N   0  3  0  0  0  0  0  0  0  0  0  0
  155.2459  136.5067  160.9405 C   0  0  0  0  0  0  0  0  0  0  0  0
  155.8928  135.9545  162.0411 C   0  0  0  0  0  0  0  0  0  0  0  0
  155.1813  135.9478  163.2588 C   0  0  0  0  0  0  0  0  0  0  0  0
  155.7641  135.4208  164.3615 F   0  0  0  0  0  0  0  0  0  0  0  0
  153.8775  136.4794  163.3498 C   0  0  0  0  0  0  0  0  0  0  0  0
  153.2309  136.4554  164.5393 F   0  0  0  0  0  0  0  0  0  0  0  0
  153.2318  137.0364  162.2263 C   0  0  0  0  0  0  0  0  0  0  0  0
  153.9405  137.0351  161.0254 C   0  0  0  0  0  0  0  0  0  0  0  0
  152.0035  142.1665  159.1206 C   0  0  0  0  0  0  0  0  0  0  0  0
  151.5842  143.5776  159.5791 C   0  0  2  0  0  0  0  0  0  0  0  0
  152.5200  144.6849  159.0653 C   0  0  0  0  0  0  0  0  0  0  0  0
  151.4460  143.6164  161.0002 O   0  0  0  0  0  0  0  0  0  0  0  0
  153.0567  142.8395  163.8350 H   0  0  0  0  0  0  0  0  0  0  0  0
  151.3628  142.5449  163.4447 H   0  0  0  0  0  0  0  0  0  0  0  0
  151.9722  144.1951  163.5386 H   0  0  0  0  0  0  0  0  0  0  0  0
  153.4211  143.8054  161.5650 H   0  0  0  0  0  0  0  0  0  0  0  0
  153.8095  141.3746  161.8032 H   0  0  0  0  0  0  0  0  0  0  0  0
  152.1183  141.0360  161.5135 H   0  0  0  0  0  0  0  0  0  0  0  0
  154.3849  140.3890  158.6826 H   0  0  0  0  0  0  0  0  0  0  0  0
  153.9866  139.7925  160.2658 H   0  0  0  0  0  0  0  0  0  0  0  0
  151.4848  139.9854  158.8681 H   0  0  0  0  0  0  0  0  0  0  0  0
  152.8817  138.3821  157.2531 H   0  0  0  0  0  0  0  0  0  0  0  0
  151.7499  138.1627  160.3854 H   0  0  0  0  0  0  0  0  0  0  0  0
  151.7823  137.4152  158.8103 H   0  0  0  0  0  0  0  0  0  0  0  0
  154.7178  137.5157  157.8460 H   0  0  0  0  0  0  0  0  0  0  0  0
  156.8916  135.5486  161.9768 H   0  0  0  0  0  0  0  0  0  0  0  0
  152.2364  137.4459  162.3107 H   0  0  0  0  0  0  0  0  0  0  0  0
  152.1731  142.1860  158.0452 H   0  0  0  0  0  0  0  0  0  0  0  0
  151.1710  141.4812  159.2873 H   0  0  0  0  0  0  0  0  0  0  0  0
  150.5947  143.7830  159.1701 H   0  0  0  0  0  0  0  0  0  0  0  0
  152.5183  144.7185  157.9757 H   0  0  0  0  0  0  0  0  0  0  0  0
  153.5508  144.5312  159.3838 H   0  0  0  0  0  0  0  0  0  0  0  0
  152.2006  145.6626  159.4262 H   0  0  0  0  0  0  0  0  0  0  0  0
  156.5609  136.3907  159.2339 H   0  0  0  0  0  0  0  0  0  0  0  0
  1  2  1  0  0  0  0
  1 24  1  0  0  0  0
  1 25  1  0  0  0  0
  1 26  1  0  0  0  0
  2 23  1  0  0  0  0
  2  3  1  0  0  0  0
  2 27  1  0  0  0  0
  3  4  1  0  0  0  0
  3 28  1  0  0  0  0
  3 29  1  0  0  0  0
  4  5  1  0  0  0  0
  4 20  1  0  0  0  0
  5  6  1  0  0  0  0
  5 30  1  0  0  0  0
  5 31  1  0  0  0  0
  6  7  1  0  0  0  0
  6  8  1  0  0  0  0
  6 32  1  0  0  0  0
  7 33  1  0  0  0  0
  8  9  1  0  0  0  0
  8 34  1  0  0  0  0
  8 35  1  0  0  0  0
  9 19  1  0  0  0  0
  9 10  1  0  0  0  0
 10 11  2  0  0  0  0
 10 36  1  0  0  0  0
 11 12  1  0  0  0  0
 11 45  1  0  0  0  0
 12 19  2  0  0  0  0
 12 13  1  0  0  0  0
 13 14  2  0  0  0  0
 13 37  1  0  0  0  0
 14 15  1  0  0  0  0
 14 16  1  0  0  0  0
 16 17  1  0  0  0  0
 16 18  2  0  0  0  0
 18 19  1  0  0  0  0
 18 38  1  0  0  0  0
 20 21  1  0  0  0  0
 20 39  1  0  0  0  0
 20 40  1  0  0  0  0
 21 22  1  0  0  0  0
 21 23  1  0  0  0  0
 21 41  1  0  0  0  0
 22 42  1  0  0  0  0
 22 43  1  0  0  0  0
 22 44  1  0  0  0  0
M  CHG  1  11   1
M  END
> <s_m_source_file>
AV-unprocessed.smi

> <i_m_source_file_index>
1824

> <i_lp_mmshare_version>
43012

> <i_f3d_flags>
0

> <s_epik_input>
W0NIM11bQ0BASF0xW0NIMl1OKFtDSDJdW0NASF0oTzEpW0NIM10pW0NIMl1bQ0BIXShbT0hdKVtDSDJdbihbY0hdbjIpYyhjMjMpW2NIXWMoRiljKEYpW2NIXTM=

> <s_epik_cmdline>
J2VwaWtfcHl0aG9uJywgJy1waCcsICc3LjAnLCAnLXRuJywgJzgnLCAnLW1hJywgJzIwMCcsICctbWV0YWxfYmluZGluZycsICctaW1hZScsICc8aW5maWxlLm1hZT4nLCAnLW9tYWUnLCAnPG91dGZpbGUubWFlPic=

> <r_epik_Ionization_Penalty>
2.58709

> <r_epik_Ionization_Penalty_Charging>
2.37273

> <r_epik_Ionization_Penalty_Neutral>
0.214359

> <r_epik_State_Penalty>
2.71799

> <r_epik_Charging_Adjusted_Penalty>
5.09071

> <i_epik_Tot_Q>
1

> <i_epik_Tot_abs_Q>
1

> <r_epik_Metal_State_Penalty>
6.80217

> <b_epik_Metal_Only>
0

> <s_lp_Force_Field>
OPLS_2005

> <r_lp_Energy>
35.189

> <b_lp_Chiralities_Consistent>
1

> <s_lp_Variant>
AV-unprocessed.smi:1824-20

> <Gold.Version>
5.8.1

> <Gold.Id.Protein>
6NUR|6NUR_protein|mol2

> <Gold.PLP.Fitness>
41.7377

> <Gold.PLP.PLP>
-41.8239

> <Gold.PLP.part.hbond>
-1.0000

> <Gold.PLP.part.metal>
0.0000

> <Gold.PLP.part.buried>
-2.3305

> <Gold.PLP.part.nonpolar>
-38.4168

> <Gold.PLP.part.repulsive>
0.1358

> <Gold.PLP.ligand.clash>
0.1912

> <Gold.PLP.ligand.torsion>
1.4524

> <Gold.PLP.Chemscore.Hbond>
1.0000

> <Gold.PLP.Chemscore.CHOScore>
0.0000

> <Gold.PLP.Chemscore.Metal>
0.0000

> <Gold.Chemscore.Hbonds>
donor molecule, donor type, donor heavy atom, donor atom, acceptor molecule, acceptor atom, score
      P1  H  7997  8010       L1     7  1.00

> <Gold.PLP.Chemscore.Internal.Correction>
0.0098

> <Gold.Rescore>
     Score         DG    S(hbond)    S(metal)    S(lipo)     H(rot)  DE(clash)    DE(int)     intcor
     14.94     -17.25       0.89        0.00     125.99       2.32       0.71       1.61       ----

> <Gold.Chemscore.Fitness>
14.9353

> <Gold.Chemscore.DG>
-17.2502

> <Gold.Chemscore.ZeroCoef>
-5.4800

> <Gold.Chemscore.Hbond>
0.8894

> <Gold.Chemscore.Metal>
0.0000

> <Gold.Chemscore.Lipo>
125.9936

> <Gold.Chemscore.Internal_Hbond>
0.0000

> <Gold.Chemscore.DEClash>
0.7067

> <Gold.Chemscore.DEInternal>
1.6082

> <Gold.Chemscore.Rot>
2.3210

> <Gold.Chemscore.Internal.Correction>
   9.000000E+99

> <Gold.Chemscore.Hbonds>
donor molecule, donor type, donor heavy atom, donor atom, acceptor molecule, acceptor atom, score
      P1  H  7997  8010       L1     7  0.29

> <Gold.Chemscore.Hbond.Weighted>
-2.9706

> <Gold.Chemscore.Metal.Weighted>
-0.0000

> <Gold.Chemscore.Lipo.Weighted>
-14.7413

> <Gold.Chemscore.Internal_Hbond.Weighted>
0.0000

> <Gold.Chemscore.DEClash.Weighted>
0.7067

> <Gold.Chemscore.DEInternal.Weighted>
1.6082

> <Gold.Chemscore.Rot.Weighted>
5.9416

> <Gold.Chemscore.Internal.Correction.Weighted>
   9.000000E+99

> <Gold.Protein.RotatedTorsions>
[ 6907 6896 6895 6894 ] final -115.43 input  -60.11 | X-H torsion
[ 7974 7965 7964 7962 ] final   78.87 input  175.53 | X-H torsion
[ 8008 7997 7996 7995 ] final   60.19 input   59.86 | X-H torsion
[ 10167 10162 10161 10158 ] final  108.24 input  -65.29 | X-H torsion
[ 10718 10713 10712 10709 ] final -148.00 input   66.30 | X-H torsion
[ 10763 10752 10751 10750 ] final  -71.26 input  -60.55 | X-H torsion
[ 11005 11000 10999 10996 ] final -103.31 input  -57.11 | X-H torsion

> <Gold.Protein.ActiveResidues>
 VAL166  LYS551  ARG553  GLY616  TRP617  ASP618  TYR619  PRO620  LYS621  CYS622 
 ASP623  PHE694  ASN695  SER759  ASP760  ASP761  ALA762  ILE779  LEU786  VAL792 
 PHE793  MET794  SER795  GLU796  ALA797  LYS798  CYS799  TRP800  GLU811  SER814 

> <Gold.Protein.RotatedAtoms>
  150.7978  133.8659  159.3244 H   0  0  0  0  0  0  0  0  0  0  0  0  # atno 6907 bound_to 6896
  151.6479  135.1003  160.0164 H   0  0  0  0  0  0  0  0  0  0  0  0  # atno 6908 bound_to 6896
  152.4061  133.6852  159.6393 H   0  0  0  0  0  0  0  0  0  0  0  0  # atno 6909 bound_to 6896
  145.6716  139.2498  143.1865 H   0  0  0  0  0  0  0  0  0  0  0  0  # atno 7974 bound_to 7965
  155.5784  140.3491  155.4533 H   0  0  0  0  0  0  0  0  0  0  0  0  # atno 8008 bound_to 7997
  156.0392  140.1292  157.0200 H   0  0  0  0  0  0  0  0  0  0  0  0  # atno 8009 bound_to 7997
  154.4384  140.1027  156.6197 H   0  0  0  0  0  0  0  0  0  0  0  0  # atno 8010 bound_to 7997
  139.6862  144.7113  151.1429 H   0  0  0  0  0  0  0  0  0  0  0  0  # atno 10167 bound_to 10162
  156.4147  130.7999  151.2218 H   0  0  0  0  0  0  0  0  0  0  0  0  # atno 10718 bound_to 10713
  154.4292  135.5968  153.6058 H   0  0  0  0  0  0  0  0  0  0  0  0  # atno 10763 bound_to 10752
  152.9798  135.5971  154.3860 H   0  0  0  0  0  0  0  0  0  0  0  0  # atno 10764 bound_to 10752
  154.3695  135.2841  155.2253 H   0  0  0  0  0  0  0  0  0  0  0  0  # atno 10765 bound_to 10752
  141.1151  133.8630  157.1470 H   0  0  0  0  0  0  0  0  0  0  0  0  # atno 11005 bound_to 11000
  146.1041  140.7509  142.9535 LP  0  0  0  0  0  0  0  0  0  0  0  0  # atno 17320 bound_to 7965
  144.7055  140.3833  143.7122 LP  0  0  0  0  0  0  0  0  0  0  0  0  # atno 17321 bound_to 7965
  140.7668  143.5626  150.9082 LP  0  0  0  0  0  0  0  0  0  0  0  0  # atno 17342 bound_to 10162
  139.9301  143.6503  152.3078 LP  0  0  0  0  0  0  0  0  0  0  0  0  # atno 17343 bound_to 10162
  157.7507  131.0247  150.3887 LP  0  0  0  0  0  0  0  0  0  0  0  0  # atno 17370 bound_to 10713
  156.4192  130.3949  149.6837 LP  0  0  0  0  0  0  0  0  0  0  0  0  # atno 17371 bound_to 10713
  140.0068  135.0005  157.0310 LP  0  0  0  0  0  0  0  0  0  0  0  0  # atno 17394 bound_to 11000
  140.4668  134.1427  155.7198 LP  0  0  0  0  0  0  0  0  0  0  0  0  # atno 17395 bound_to 11000

$$$$
