#       Name:                AV-unprocessed.smi:1857
#       Creating user name   scv26
#       Creation time:       Fri Mar 27 09:25:36 2020


#       File generated by GOLD software.
#

@<TRIPOS>MOLECULE
AV-unprocessed.smi:1857
    50    51     1
SMALL
NO_CHARGES


@<TRIPOS>ATOM
      1 ****        -4.1807  -3.9726   0.4084 C.3            1 S1                 0.0000
      2 ****        -2.9744  -3.1075   0.8460 C.3            1 S1                 0.0000
      3 ****        -2.5489  -3.5851   2.2485 C.3            1 S1                 0.0000
      4 ****        -1.8604  -3.3867  -0.1862 C.3            1 S1                 0.0000
      5 ****        -3.3648  -1.6379   0.8869 C.2            1 S1                 0.0000
      6 ****        -4.6243  -1.2059   0.8499 N.2            1 S1                 0.0000
      7 ****        -4.5322   0.1614   0.9771 N.2            1 S1                 0.0000
      8 ****        -3.2979   0.5345   1.1145 N.2            1 S1                 0.0000
      9 ****        -2.5344  -0.5876   1.0712 N.pl3          1 S1                 0.0000
     10 ****        -1.0935  -0.4516   1.2422 C.3            1 S1                 0.0000
     11 ****        -0.4118   0.0430  -0.0385 C.2            1 S1                 0.0000
     12 ****        -0.6503  -0.4962  -1.1195 O.2            1 S1                 0.0000
     13 ****         0.4350   1.0755   0.0990 N.am           1 S1                 0.0000
     14 ****         1.1792   1.7160  -0.9840 C.3            1 S1                 0.0000
     15 ****         2.4592   0.9048  -1.2855 C.3            1 S1                 0.0000
     16 ****         3.5172   1.6328  -2.1307 C.3            1 S1                 0.0000
     17 ****         4.4922   2.4606  -1.2746 C.3            1 S1                 0.0000
     18 ****         3.8981   3.7454  -0.6767 C.3            1 S1                 0.0000
     19 ****         2.6396   3.5375   0.1845 C.3            1 S1                 0.0000
     20 ****         1.3933   3.2092  -0.6555 C.3            1 S1                 0.0000
     21 ****        -3.9190  -5.0305   0.3631 H              1 S1                 0.0000
     22 ****        -4.5412  -3.6856  -0.5804 H              1 S1                 0.0000
     23 ****        -5.0167  -3.8830   1.1035 H              1 S1                 0.0000
     24 ****        -3.3527  -3.4444   2.9722 H              1 S1                 0.0000
     25 ****        -1.6793  -3.0477   2.6229 H              1 S1                 0.0000
     26 ****        -2.2941  -4.6454   2.2452 H              1 S1                 0.0000
     27 ****        -1.6736  -4.4569  -0.2831 H              1 S1                 0.0000
     28 ****        -0.9066  -2.9400   0.0797 H              1 S1                 0.0000
     29 ****        -2.1364  -3.0151  -1.1737 H              1 S1                 0.0000
     30 ****        -0.9125   0.2512   2.0574 H              1 S1                 0.0000
     31 ****        -0.6530  -1.3927   1.5594 H              1 S1                 0.0000
     32 ****         0.5687   1.4552   1.0249 H              1 S1                 0.0000
     33 ****         0.5527   1.6958  -1.8778 H              1 S1                 0.0000
     34 ****         2.9169   0.5613  -0.3565 H              1 S1                 0.0000
     35 ****         2.1635  -0.0049  -1.8099 H              1 S1                 0.0000
     36 ****         4.1017   0.8791  -2.6596 H              1 S1                 0.0000
     37 ****         3.0513   2.2448  -2.9039 H              1 S1                 0.0000
     38 ****         4.8967   1.8391  -0.4749 H              1 S1                 0.0000
     39 ****         5.3483   2.7372  -1.8908 H              1 S1                 0.0000
     40 ****         4.6646   4.2197  -0.0628 H              1 S1                 0.0000
     41 ****         3.6834   4.4557  -1.4760 H              1 S1                 0.0000
     42 ****         2.8071   2.7839   0.9550 H              1 S1                 0.0000
     43 ****         2.4483   4.4696   0.7171 H              1 S1                 0.0000
     44 ****         1.4337   3.7781  -1.5851 H              1 S1                 0.0000
     45 ****         0.5084   3.5871  -0.1411 H              1 S1                 0.0000
     46 ****        -5.4545  -1.7546   0.7513 LP             1 S1                 0.0000
     47 ****        -5.3140   0.7848   0.9651 LP             1 S1                 0.0000
     48 ****        -2.9700   1.4721   1.2305 LP             1 S1                 0.0000
     49 ****        -1.2921  -1.2617  -1.1657 LP             1 S1                 0.0000
     50 ****        -0.2022  -0.1687  -1.9513 LP             1 S1                 0.0000
@<TRIPOS>BOND
    1    1    2 1     
    2    1   21 1     
    3    1   22 1     
    4    1   23 1     
    5    2    3 1     
    6    2    4 1     
    7    2    5 1     
    8    3   24 1     
    9    3   25 1     
   10    3   26 1     
   11    4   27 1     
   12    4   28 1     
   13    4   29 1     
   14    5    9 1     
   15    5    6 2     
   16    6    7 1     
   17    7    8 2     
   18    8    9 1     
   19    9   10 1     
   20   10   11 1     
   21   10   30 1     
   22   10   31 1     
   23   11   12 2     
   24   11   13 am    
   25   13   14 1     
   26   13   32 1     
   27   14   20 1     
   28   14   15 1     
   29   14   33 1     
   30   15   16 1     
   31   15   34 1     
   32   15   35 1     
   33   16   17 1     
   34   16   36 1     
   35   16   37 1     
   36   17   18 1     
   37   17   38 1     
   38   17   39 1     
   39   18   19 1     
   40   18   40 1     
   41   18   41 1     
   42   19   20 1     
   43   19   42 1     
   44   19   43 1     
   45   20   44 1     
   46   20   45 1     
   47    6   46 1     
   48    7   47 1     
   49    8   48 1     
   50   12   49 1     
   51   12   50 1     
@<TRIPOS>SUBSTRUCTURE
      1 S1             1
@<TRIPOS>SET
LONE_PAIRS      STATIC     ATOMS    <user>   **** ""
5 46 47 48 49 50
DONOR_HYDROGENS      STATIC     ATOMS    <user>   **** ""
1 32
ATOM$BLUE        STATIC     ATOMS    COLORGROUP SYSTEM
5 46 47 48 49 50
ATOM$RED        STATIC     ATOMS    COLORGROUP SYSTEM
1 32
