AV-unprocessed.smi:530|AV-procd|sdf|2842|dock10
  -GOLD-   2262023333D 1   1.00000     0.00000
 Structure written by MMmdl.
 35 37  0  0  0  0  0  0  0  0  1 V2000
  151.2707  145.0252  160.0639 C   0  0  0  0  0  0  0  0  0  0  0  0
  151.8953  143.6697  160.1619 C   0  0  0  0  0  0  0  0  0  0  0  0
  152.7975  143.3689  161.0968 N   0  0  0  0  0  0  0  0  0  0  0  0
  153.0890  142.0464  160.8221 C   0  0  0  0  0  0  0  0  0  0  0  0
  153.9776  141.1497  161.4575 C   0  0  0  0  0  0  0  0  0  0  0  0
  154.1066  139.8239  160.9938 C   0  0  0  0  0  0  0  0  0  0  0  0
  153.3503  139.3761  159.8912 C   0  0  0  0  0  0  0  0  0  0  0  0
  152.4606  140.2538  159.2425 C   0  0  0  0  0  0  0  0  0  0  0  0
  152.3370  141.5764  159.7084 C   0  0  0  0  0  0  0  0  0  0  0  0
  151.5765  142.6685  159.3046 N   0  0  0  0  0  0  0  0  0  0  0  0
  150.6410  142.6942  158.1883 C   0  0  0  0  0  0  0  0  0  0  0  0
  151.3503  142.5969  156.8230 C   0  0  2  0  0  0  0  0  0  0  0  0
  151.1699  143.7982  156.0980 O   0  0  0  0  0  0  0  0  0  0  0  0
  150.8851  141.3774  156.0427 C   0  0  0  0  0  0  0  0  0  0  0  0
  149.6613  141.4166  155.3405 C   0  0  0  0  0  0  0  0  0  0  0  0
  149.2248  140.2942  154.6102 C   0  0  0  0  0  0  0  0  0  0  0  0
  150.0108  139.1266  154.5760 C   0  0  0  0  0  0  0  0  0  0  0  0
  151.2350  139.0831  155.2699 C   0  0  0  0  0  0  0  0  0  0  0  0
  151.6721  140.2055  155.9999 C   0  0  0  0  0  0  0  0  0  0  0  0
  151.7082  145.7024  160.7982 H   0  0  0  0  0  0  0  0  0  0  0  0
  150.1992  144.9595  160.2530 H   0  0  0  0  0  0  0  0  0  0  0  0
  151.4303  145.4468  159.0716 H   0  0  0  0  0  0  0  0  0  0  0  0
  154.5605  141.4824  162.3034 H   0  0  0  0  0  0  0  0  0  0  0  0
  154.7887  139.1470  161.4868 H   0  0  0  0  0  0  0  0  0  0  0  0
  153.4539  138.3589  159.5431 H   0  0  0  0  0  0  0  0  0  0  0  0
  151.8804  139.9155  158.3969 H   0  0  0  0  0  0  0  0  0  0  0  0
  149.9559  141.8543  158.3097 H   0  0  0  0  0  0  0  0  0  0  0  0
  150.0281  143.5941  158.2410 H   0  0  0  0  0  0  0  0  0  0  0  0
  152.4234  142.4988  156.9919 H   0  0  0  0  0  0  0  0  0  0  0  0
  150.2814  143.8232  155.7770 H   0  0  0  0  0  0  0  0  0  0  0  0
  149.0525  142.3087  155.3580 H   0  0  0  0  0  0  0  0  0  0  0  0
  148.2871  140.3291  154.0755 H   0  0  0  0  0  0  0  0  0  0  0  0
  149.6759  138.2655  154.0164 H   0  0  0  0  0  0  0  0  0  0  0  0
  151.8396  138.1887  155.2415 H   0  0  0  0  0  0  0  0  0  0  0  0
  152.6149  140.1642  156.5257 H   0  0  0  0  0  0  0  0  0  0  0  0
  1  2  1  0  0  0  0
  1 20  1  0  0  0  0
  1 21  1  0  0  0  0
  1 22  1  0  0  0  0
  2 10  1  0  0  0  0
  2  3  2  0  0  0  0
  3  4  1  0  0  0  0
  4  9  2  0  0  0  0
  4  5  1  0  0  0  0
  5  6  2  0  0  0  0
  5 23  1  0  0  0  0
  6  7  1  0  0  0  0
  6 24  1  0  0  0  0
  7  8  2  0  0  0  0
  7 25  1  0  0  0  0
  8  9  1  0  0  0  0
  8 26  1  0  0  0  0
  9 10  1  0  0  0  0
 10 11  1  0  0  0  0
 11 12  1  0  0  0  0
 11 27  1  0  0  0  0
 11 28  1  0  0  0  0
 12 13  1  0  0  0  0
 12 14  1  0  0  0  0
 12 29  1  0  0  0  0
 13 30  1  0  0  0  0
 14 19  1  0  0  0  0
 14 15  2  0  0  0  0
 15 16  1  0  0  0  0
 15 31  1  0  0  0  0
 16 17  2  0  0  0  0
 16 32  1  0  0  0  0
 17 18  1  0  0  0  0
 17 33  1  0  0  0  0
 18 19  2  0  0  0  0
 18 34  1  0  0  0  0
 19 35  1  0  0  0  0
M  END
> <s_m_source_file>
AV-unprocessed.smi

> <i_m_source_file_index>
530

> <i_lp_mmshare_version>
43012

> <i_f3d_flags>
0

> <s_epik_input>
W2NIXTFbY0hdW2NIXVtjSF1jKGMxMiluKGMobjIpW0NIM10pW0NIMl1bQ0BIXShbT0hdKWMzW2NIXVtjSF1bY0hdW2NIXVtjSF0z

> <s_epik_cmdline>
J2VwaWtfcHl0aG9uJywgJy1waCcsICc3LjAnLCAnLXRuJywgJzgnLCAnLW1hJywgJzIwMCcsICctbWV0YWxfYmluZGluZycsICctaW1hZScsICc8aW5maWxlLm1hZT4nLCAnLW9tYWUnLCAnPG91dGZpbGUubWFlPic=

> <r_epik_Ionization_Penalty>
0.129663

> <r_epik_Ionization_Penalty_Charging>
0

> <r_epik_Ionization_Penalty_Neutral>
0.129663

> <r_epik_State_Penalty>
0.119073

> <r_epik_Charging_Adjusted_Penalty>
0.119073

> <i_epik_Tot_Q>
0

> <i_epik_Tot_abs_Q>
0

> <r_epik_Metal_State_Penalty>
0.000131867

> <b_epik_Metal_Only>
0

> <s_lp_Force_Field>
OPLS_2005

> <r_lp_Energy>
11.6946

> <b_lp_Chiralities_Consistent>
1

> <s_lp_Variant>
AV-unprocessed.smi:530-1

> <Gold.Version>
5.8.1

> <Gold.Id.Protein>
6NUR|6NUR_protein|mol2

> <Gold.PLP.Fitness>
45.5935

> <Gold.PLP.PLP>
-45.1512

> <Gold.PLP.part.hbond>
-0.6021

> <Gold.PLP.part.metal>
0.0000

> <Gold.PLP.part.buried>
-4.2237

> <Gold.PLP.part.nonpolar>
-40.0219

> <Gold.PLP.part.repulsive>
0.0679

> <Gold.PLP.ligand.clash>
0.0000

> <Gold.PLP.ligand.torsion>
1.2920

> <Gold.PLP.Chemscore.Hbond>
1.0000

> <Gold.PLP.Chemscore.CHOScore>
0.0000

> <Gold.PLP.Chemscore.Metal>
0.0000

> <Gold.Chemscore.Hbonds>
donor molecule, donor type, donor heavy atom, donor atom, acceptor molecule, acceptor atom, score
      L1  H    13    30       P1  8028  0.90

> <Gold.PLP.Chemscore.Internal.Correction>
0.0262

> <Gold.Rescore>
     Score         DG    S(hbond)    S(metal)    S(lipo)     H(rot)  DE(clash)    DE(int)     intcor
     16.81     -18.09       0.91        0.00     119.00       1.70       0.02       1.26       ----

> <Gold.Chemscore.Fitness>
16.8114

> <Gold.Chemscore.DG>
-18.0878

> <Gold.Chemscore.ZeroCoef>
-5.4800

> <Gold.Chemscore.Hbond>
0.9101

> <Gold.Chemscore.Metal>
0.0000

> <Gold.Chemscore.Lipo>
119.0031

> <Gold.Chemscore.Internal_Hbond>
0.0000

> <Gold.Chemscore.DEClash>
0.0186

> <Gold.Chemscore.DEInternal>
1.2578

> <Gold.Chemscore.Rot>
1.7013

> <Gold.Chemscore.Internal.Correction>
   9.000000E+99

> <Gold.Chemscore.Hbonds>
donor molecule, donor type, donor heavy atom, donor atom, acceptor molecule, acceptor atom, score
      L1  H    13    30       P1  8028  0.88

> <Gold.Chemscore.Hbond.Weighted>
-3.0398

> <Gold.Chemscore.Metal.Weighted>
-0.0000

> <Gold.Chemscore.Lipo.Weighted>
-13.9234

> <Gold.Chemscore.Internal_Hbond.Weighted>
0.0000

> <Gold.Chemscore.DEClash.Weighted>
0.0186

> <Gold.Chemscore.DEInternal.Weighted>
1.2578

> <Gold.Chemscore.Rot.Weighted>
4.3554

> <Gold.Chemscore.Internal.Correction.Weighted>
   9.000000E+99

> <Gold.Protein.RotatedTorsions>
[ 6907 6896 6895 6894 ] final  -30.76 input  -60.11 | X-H torsion
[ 7974 7965 7964 7962 ] final  -32.85 input  175.53 | X-H torsion
[ 8008 7997 7996 7995 ] final  -66.47 input   59.86 | X-H torsion
[ 10167 10162 10161 10158 ] final   76.45 input  -65.29 | X-H torsion
[ 10718 10713 10712 10709 ] final -163.98 input   66.30 | X-H torsion
[ 10763 10752 10751 10750 ] final  -88.35 input  -60.55 | X-H torsion
[ 11005 11000 10999 10996 ] final -147.33 input  -57.11 | X-H torsion

> <Gold.Protein.ActiveResidues>
 VAL166  LYS551  ARG553  GLY616  TRP617  ASP618  TYR619  PRO620  LYS621  CYS622 
 ASP623  PHE694  ASN695  SER759  ASP760  ASP761  ALA762  ILE779  LEU786  VAL792 
 PHE793  MET794  SER795  GLU796  ALA797  LYS798  CYS799  TRP800  GLU811  SER814 

> <Gold.Protein.RotatedAtoms>
  151.1012  134.9973  159.8449 H   0  0  0  0  0  0  0  0  0  0  0  0  # atno 6907 bound_to 6896
  152.5437  134.1948  159.8698 H   0  0  0  0  0  0  0  0  0  0  0  0  # atno 6908 bound_to 6896
  151.1991  133.4577  159.2629 H   0  0  0  0  0  0  0  0  0  0  0  0  # atno 6909 bound_to 6896
  146.0957  140.5844  142.8844 H   0  0  0  0  0  0  0  0  0  0  0  0  # atno 7974 bound_to 7965
  154.4737  140.0912  156.7208 H   0  0  0  0  0  0  0  0  0  0  0  0  # atno 8008 bound_to 7997
  155.4655  140.3462  155.4300 H   0  0  0  0  0  0  0  0  0  0  0  0  # atno 8009 bound_to 7997
  156.1081  140.1440  156.9364 H   0  0  0  0  0  0  0  0  0  0  0  0  # atno 8010 bound_to 7997
  139.9921  144.5749  150.7809 H   0  0  0  0  0  0  0  0  0  0  0  0  # atno 10167 bound_to 10162
  156.6324  130.8935  151.2980 H   0  0  0  0  0  0  0  0  0  0  0  0  # atno 10718 bound_to 10713
  154.6436  135.5380  153.7818 H   0  0  0  0  0  0  0  0  0  0  0  0  # atno 10763 bound_to 10752
  153.0347  135.6465  154.1123 H   0  0  0  0  0  0  0  0  0  0  0  0  # atno 10764 bound_to 10752
  154.1046  135.2931  155.3224 H   0  0  0  0  0  0  0  0  0  0  0  0  # atno 10765 bound_to 10752
  140.7727  134.3170  157.5070 H   0  0  0  0  0  0  0  0  0  0  0  0  # atno 11005 bound_to 11000
  144.7394  140.4899  143.6880 LP  0  0  0  0  0  0  0  0  0  0  0  0  # atno 17320 bound_to 7965
  145.5952  139.1499  143.3160 LP  0  0  0  0  0  0  0  0  0  0  0  0  # atno 17321 bound_to 7965
  140.7451  143.2870  151.3435 LP  0  0  0  0  0  0  0  0  0  0  0  0  # atno 17342 bound_to 10162
  139.6332  144.0680  152.2494 LP  0  0  0  0  0  0  0  0  0  0  0  0  # atno 17343 bound_to 10162
  157.7196  130.9541  150.1385 LP  0  0  0  0  0  0  0  0  0  0  0  0  # atno 17370 bound_to 10713
  156.2224  130.3675  149.8541 LP  0  0  0  0  0  0  0  0  0  0  0  0  # atno 17371 bound_to 10713
  139.8753  134.9271  156.3416 LP  0  0  0  0  0  0  0  0  0  0  0  0  # atno 17394 bound_to 11000
  140.9558  133.7421  156.0333 LP  0  0  0  0  0  0  0  0  0  0  0  0  # atno 17395 bound_to 11000

$$$$
