AV-unprocessed.smi:3248|AV-procd|sdf|12413|dock7
  -GOLD-   2272018293D 1   1.00000     0.00000
 Structure written by MMmdl.
 38 39  0  0  0  0  0  0  0  0  1 V2000
  150.8086  143.6081  158.5679 C   0  0  0  0  0  0  0  0  0  0  0  0
  151.4291  142.2052  158.6729 C   0  0  2  0  0  0  0  0  0  0  0  0
  152.8790  142.2213  159.2085 C   0  0  0  0  0  0  0  0  0  0  0  0
  152.9657  142.5818  160.6122 N   0  0  0  0  0  0  0  0  0  0  0  0
  153.5538  141.8789  161.6431 C   0  0  0  0  0  0  0  0  0  0  0  0
  153.3721  142.6045  162.7853 C   0  0  0  0  0  0  0  0  0  0  0  0
  152.6480  143.7487  162.3471 C   0  0  0  0  0  0  0  0  0  0  0  0
  152.4018  143.7295  161.0472 N   0  0  0  0  0  0  0  0  0  0  0  0
  151.3826  141.5635  157.3622 N   0  0  0  0  0  0  0  0  0  0  0  0
  150.2662  141.2626  156.6763 C   0  0  0  0  0  0  0  0  0  0  0  0
  149.1426  141.5536  157.0862 O   0  0  0  0  0  0  0  0  0  0  0  0
  150.5142  140.7256  155.4558 N   0  0  0  0  0  0  0  0  0  0  0  0
  151.6416  139.8045  155.2459 C   0  0  0  0  0  0  0  0  0  0  0  0
  151.1192  138.3604  155.3773 C   0  0  0  0  0  0  0  0  0  0  0  0
  150.0765  138.1334  154.4317 O   0  0  0  0  0  0  0  0  0  0  0  0
  148.9844  139.0414  154.5634 C   0  0  0  0  0  0  0  0  0  0  0  0
  149.5015  140.4858  154.4084 C   0  0  1  0  0  0  0  0  0  0  0  0
  148.3598  141.5212  154.3327 C   0  0  0  0  0  0  0  0  0  0  0  0
  150.7423  144.0904  159.5434 H   0  0  0  0  0  0  0  0  0  0  0  0
  149.7971  143.5592  158.1636 H   0  0  0  0  0  0  0  0  0  0  0  0
  151.3972  144.2543  157.9159 H   0  0  0  0  0  0  0  0  0  0  0  0
  150.8087  141.6262  159.3598 H   0  0  0  0  0  0  0  0  0  0  0  0
  153.3456  141.2434  159.0824 H   0  0  0  0  0  0  0  0  0  0  0  0
  153.4815  142.9283  158.6362 H   0  0  0  0  0  0  0  0  0  0  0  0
  154.0475  140.9321  161.4798 H   0  0  0  0  0  0  0  0  0  0  0  0
  153.7043  142.3557  163.7822 H   0  0  0  0  0  0  0  0  0  0  0  0
  152.2941  144.5852  162.9313 H   0  0  0  0  0  0  0  0  0  0  0  0
  152.2696  141.3349  156.9377 H   0  0  0  0  0  0  0  0  0  0  0  0
  152.0691  139.9627  154.2547 H   0  0  0  0  0  0  0  0  0  0  0  0
  152.4621  139.9573  155.9476 H   0  0  0  0  0  0  0  0  0  0  0  0
  151.9241  137.6492  155.1912 H   0  0  0  0  0  0  0  0  0  0  0  0
  150.7518  138.1698  156.3871 H   0  0  0  0  0  0  0  0  0  0  0  0
  148.2503  138.8139  153.7903 H   0  0  0  0  0  0  0  0  0  0  0  0
  148.4908  138.8992  155.5262 H   0  0  0  0  0  0  0  0  0  0  0  0
  150.0149  140.5536  153.4476 H   0  0  0  0  0  0  0  0  0  0  0  0
  147.7865  141.3877  153.4150 H   0  0  0  0  0  0  0  0  0  0  0  0
  148.7478  142.5403  154.3281 H   0  0  0  0  0  0  0  0  0  0  0  0
  147.6543  141.4263  155.1578 H   0  0  0  0  0  0  0  0  0  0  0  0
  1  2  1  0  0  0  0
  1 19  1  0  0  0  0
  1 20  1  0  0  0  0
  1 21  1  0  0  0  0
  2  3  1  0  0  0  0
  2  9  1  0  0  0  0
  2 22  1  0  0  0  0
  3  4  1  0  0  0  0
  3 23  1  0  0  0  0
  3 24  1  0  0  0  0
  4  8  1  0  0  0  0
  4  5  1  0  0  0  0
  5  6  2  0  0  0  0
  5 25  1  0  0  0  0
  6  7  1  0  0  0  0
  6 26  1  0  0  0  0
  7  8  2  0  0  0  0
  7 27  1  0  0  0  0
  9 10  1  0  0  0  0
  9 28  1  0  0  0  0
 10 11  2  0  0  0  0
 10 12  1  0  0  0  0
 12 17  1  0  0  0  0
 12 13  1  0  0  0  0
 13 14  1  0  0  0  0
 13 29  1  0  0  0  0
 13 30  1  0  0  0  0
 14 15  1  0  0  0  0
 14 31  1  0  0  0  0
 14 32  1  0  0  0  0
 15 16  1  0  0  0  0
 16 17  1  0  0  0  0
 16 33  1  0  0  0  0
 16 34  1  0  0  0  0
 17 18  1  0  0  0  0
 17 35  1  0  0  0  0
 18 36  1  0  0  0  0
 18 37  1  0  0  0  0
 18 38  1  0  0  0  0
M  END
> <s_m_source_file>
AV-unprocessed.smi

> <i_m_source_file_index>
3248

> <i_lp_mmshare_version>
43012

> <i_f3d_flags>
0

> <s_epik_input>
bjFbY0hdW2NIXVtjSF1uMVtDSDJdW0NAQEhdKFtDSDNdKVtOSF1DKD1PKU4yW0NIMl1bQ0gyXU9bQ0gyXVtDQEhdMltDSDNd

> <s_epik_cmdline>
J2VwaWtfcHl0aG9uJywgJy1waCcsICc3LjAnLCAnLXRuJywgJzgnLCAnLW1hJywgJzIwMCcsICctbWV0YWxfYmluZGluZycsICctaW1hZScsICc8aW5maWxlLm1hZT4nLCAnLW9tYWUnLCAnPG91dGZpbGUubWFlPic=

> <r_lp_tautomer_probability>
1

> <r_epik_Ionization_Penalty>
4.45233e-05

> <r_epik_Ionization_Penalty_Charging>
0

> <r_epik_Ionization_Penalty_Neutral>
4.45233e-05

> <r_epik_State_Penalty>
-0

> <r_epik_Charging_Adjusted_Penalty>
0

> <i_epik_Tot_Q>
0

> <i_epik_Tot_abs_Q>
0

> <r_epik_Metal_State_Penalty>
-0

> <b_epik_Metal_Only>
0

> <s_lp_Force_Field>
OPLS_2005

> <r_lp_Energy>
31.5175

> <b_lp_Chiralities_Consistent>
1

> <s_lp_Variant>
AV-unprocessed.smi:3248-1

> <Gold.Version>
5.8.1

> <Gold.Id.Protein>
6NUR|6NUR_protein|mol2

> <Gold.PLP.Fitness>
40.2003

> <Gold.PLP.PLP>
-40.4845

> <Gold.PLP.part.hbond>
0.0000

> <Gold.PLP.part.metal>
0.0000

> <Gold.PLP.part.buried>
-2.0409

> <Gold.PLP.part.nonpolar>
-38.1411

> <Gold.PLP.part.repulsive>
0.4838

> <Gold.PLP.ligand.clash>
0.0000

> <Gold.PLP.ligand.torsion>
0.3652

> <Gold.PLP.Chemscore.Hbond>
0.0000

> <Gold.PLP.Chemscore.CHOScore>
0.0000

> <Gold.PLP.Chemscore.Metal>
0.0000

> <Gold.PLP.Chemscore.Internal.Correction>
0.4461

> <Gold.Rescore>
     Score         DG    S(hbond)    S(metal)    S(lipo)     H(rot)  DE(clash)    DE(int)     intcor
     11.19     -13.32       0.00        0.00      98.04       1.42       0.27       1.86       ----

> <Gold.Chemscore.Fitness>
11.1866

> <Gold.Chemscore.DG>
-13.3174

> <Gold.Chemscore.ZeroCoef>
-5.4800

> <Gold.Chemscore.Hbond>
0.0000

> <Gold.Chemscore.Metal>
0.0000

> <Gold.Chemscore.Lipo>
98.0375

> <Gold.Chemscore.Internal_Hbond>
0.0000

> <Gold.Chemscore.DEClash>
0.2740

> <Gold.Chemscore.DEInternal>
1.8568

> <Gold.Chemscore.Rot>
1.4191

> <Gold.Chemscore.Internal.Correction>
   9.000000E+99

> <Gold.Chemscore.Hbond.Weighted>
-0.0000

> <Gold.Chemscore.Metal.Weighted>
-0.0000

> <Gold.Chemscore.Lipo.Weighted>
-11.4704

> <Gold.Chemscore.Internal_Hbond.Weighted>
0.0000

> <Gold.Chemscore.DEClash.Weighted>
0.2740

> <Gold.Chemscore.DEInternal.Weighted>
1.8568

> <Gold.Chemscore.Rot.Weighted>
3.6330

> <Gold.Chemscore.Internal.Correction.Weighted>
   9.000000E+99

> <Gold.Protein.RotatedTorsions>
[ 6907 6896 6895 6894 ] final -105.12 input  -60.11 | X-H torsion
[ 7974 7965 7964 7962 ] final  147.53 input  175.53 | X-H torsion
[ 8008 7997 7996 7995 ] final -100.33 input   59.86 | X-H torsion
[ 10167 10162 10161 10158 ] final   37.49 input  -65.29 | X-H torsion
[ 10718 10713 10712 10709 ] final   86.11 input   66.30 | X-H torsion
[ 10763 10752 10751 10750 ] final  -61.84 input  -60.55 | X-H torsion
[ 11005 11000 10999 10996 ] final   85.05 input  -57.11 | X-H torsion

> <Gold.Protein.ActiveResidues>
 VAL166  LYS551  ARG553  GLY616  TRP617  ASP618  TYR619  PRO620  LYS621  CYS622 
 ASP623  PHE694  ASN695  SER759  ASP760  ASP761  ALA762  ILE779  LEU786  VAL792 
 PHE793  MET794  SER795  GLU796  ALA797  LYS798  CYS799  TRP800  GLU811  SER814 

> <Gold.Protein.RotatedAtoms>
  150.7321  134.0175  159.3689 H   0  0  0  0  0  0  0  0  0  0  0  0  # atno 6907 bound_to 6896
  151.8138  135.0671  160.0425 H   0  0  0  0  0  0  0  0  0  0  0  0  # atno 6908 bound_to 6896
  152.3054  133.5661  159.5682 H   0  0  0  0  0  0  0  0  0  0  0  0  # atno 6909 bound_to 6896
  144.8584  139.6040  143.5941 H   0  0  0  0  0  0  0  0  0  0  0  0  # atno 7974 bound_to 7965
  154.8271  140.0441  157.1451 H   0  0  0  0  0  0  0  0  0  0  0  0  # atno 8008 bound_to 7997
  154.9194  140.3024  155.5204 H   0  0  0  0  0  0  0  0  0  0  0  0  # atno 8009 bound_to 7997
  156.2984  140.2343  156.4242 H   0  0  0  0  0  0  0  0  0  0  0  0  # atno 8010 bound_to 7997
  140.4027  144.1701  150.6134 H   0  0  0  0  0  0  0  0  0  0  0  0  # atno 10167 bound_to 10162
  157.6924  131.0202  150.2923 H   0  0  0  0  0  0  0  0  0  0  0  0  # atno 10718 bound_to 10713
  154.2907  135.6254  153.5384 H   0  0  0  0  0  0  0  0  0  0  0  0  # atno 10763 bound_to 10752
  152.9853  135.5655  154.5393 H   0  0  0  0  0  0  0  0  0  0  0  0  # atno 10764 bound_to 10752
  154.5003  135.2871  155.1401 H   0  0  0  0  0  0  0  0  0  0  0  0  # atno 10765 bound_to 10752
  139.8982  134.8259  156.2529 H   0  0  0  0  0  0  0  0  0  0  0  0  # atno 11005 bound_to 11000
  146.2841  139.6957  142.9208 LP  0  0  0  0  0  0  0  0  0  0  0  0  # atno 17320 bound_to 7965
  145.4360  141.0419  143.2884 LP  0  0  0  0  0  0  0  0  0  0  0  0  # atno 17321 bound_to 7965
  140.4722  143.2409  151.9073 LP  0  0  0  0  0  0  0  0  0  0  0  0  # atno 17342 bound_to 10162
  139.4784  144.5358  151.8601 LP  0  0  0  0  0  0  0  0  0  0  0  0  # atno 17343 bound_to 10162
  156.3452  130.3822  149.7375 LP  0  0  0  0  0  0  0  0  0  0  0  0  # atno 17370 bound_to 10713
  156.4871  130.8068  151.3079 LP  0  0  0  0  0  0  0  0  0  0  0  0  # atno 17371 bound_to 10713
  141.0212  133.7040  156.1272 LP  0  0  0  0  0  0  0  0  0  0  0  0  # atno 17394 bound_to 11000
  140.7230  134.4337  157.5573 LP  0  0  0  0  0  0  0  0  0  0  0  0  # atno 17395 bound_to 11000

$$$$
