AV-unprocessed.smi:1355|AV-procd|sdf|5536|dock2
  -GOLD-   22720 5123D 1   1.00000     0.00000
 Structure written by MMmdl.
 32 33  0  0  0  0  0  0  0  0  1 V2000
  150.0383  138.9741  154.3718 C   0  0  0  0  0  0  0  0  0  0  0  0
  150.1721  140.3482  154.6990 O   0  0  0  0  0  0  0  0  0  0  0  0
  150.3610  140.6004  156.0842 C   0  0  0  0  0  0  0  0  0  0  0  0
  151.3045  141.7912  156.3252 C   0  0  0  0  0  0  0  0  0  0  0  0
  151.7150  141.8722  157.7182 N   0  0  0  0  0  0  0  0  0  0  0  0
  152.1881  140.8828  158.5195 C   0  0  0  0  0  0  0  0  0  0  0  0
  152.3505  139.4672  158.0360 C   0  0  2  0  0  0  0  0  0  0  0  0
  151.5069  138.4815  158.8557 C   0  0  0  0  0  0  0  0  0  0  0  0
  153.6953  139.0341  158.0806 O   0  0  0  0  0  0  0  0  0  0  0  0
  152.4689  141.2447  159.7738 N   0  0  0  0  0  0  0  0  0  0  0  0
  152.1746  142.5935  159.7789 C   0  0  0  0  0  0  0  0  0  0  0  0
  152.2732  143.5517  160.8130 C   0  0  0  0  0  0  0  0  0  0  0  0
  151.9110  144.8943  160.5787 C   0  0  0  0  0  0  0  0  0  0  0  0
  151.4457  145.2970  159.3100 C   0  0  0  0  0  0  0  0  0  0  0  0
  151.3391  144.3579  158.2664 C   0  0  0  0  0  0  0  0  0  0  0  0
  151.7019  143.0188  158.5057 C   0  0  0  0  0  0  0  0  0  0  0  0
  149.8446  138.8747  153.3039 H   0  0  0  0  0  0  0  0  0  0  0  0
  149.2039  138.5190  154.9067 H   0  0  0  0  0  0  0  0  0  0  0  0
  150.9456  138.4130  154.5949 H   0  0  0  0  0  0  0  0  0  0  0  0
  149.3810  140.8277  156.5049 H   0  0  0  0  0  0  0  0  0  0  0  0
  150.7160  139.7049  156.5973 H   0  0  0  0  0  0  0  0  0  0  0  0
  152.2009  141.7063  155.7115 H   0  0  0  0  0  0  0  0  0  0  0  0
  150.8263  142.7258  156.0331 H   0  0  0  0  0  0  0  0  0  0  0  0
  152.0530  139.4098  156.9895 H   0  0  0  0  0  0  0  0  0  0  0  0
  150.4482  138.7375  158.8102 H   0  0  0  0  0  0  0  0  0  0  0  0
  151.8033  138.4832  159.9052 H   0  0  0  0  0  0  0  0  0  0  0  0
  151.6154  137.4637  158.4796 H   0  0  0  0  0  0  0  0  0  0  0  0
  153.7293  138.1363  157.7879 H   0  0  0  0  0  0  0  0  0  0  0  0
  152.6291  143.2532  161.7880 H   0  0  0  0  0  0  0  0  0  0  0  0
  151.9899  145.6186  161.3761 H   0  0  0  0  0  0  0  0  0  0  0  0
  151.1707  146.3276  159.1390 H   0  0  0  0  0  0  0  0  0  0  0  0
  150.9832  144.6638  157.2937 H   0  0  0  0  0  0  0  0  0  0  0  0
  1  2  1  0  0  0  0
  1 17  1  0  0  0  0
  1 18  1  0  0  0  0
  1 19  1  0  0  0  0
  2  3  1  0  0  0  0
  3  4  1  0  0  0  0
  3 20  1  0  0  0  0
  3 21  1  0  0  0  0
  4  5  1  0  0  0  0
  4 22  1  0  0  0  0
  4 23  1  0  0  0  0
  5 16  1  0  0  0  0
  5  6  1  0  0  0  0
  6  7  1  0  0  0  0
  6 10  2  0  0  0  0
  7  8  1  0  0  0  0
  7  9  1  0  0  0  0
  7 24  1  0  0  0  0
  8 25  1  0  0  0  0
  8 26  1  0  0  0  0
  8 27  1  0  0  0  0
  9 28  1  0  0  0  0
 10 11  1  0  0  0  0
 11 16  2  0  0  0  0
 11 12  1  0  0  0  0
 12 13  2  0  0  0  0
 12 29  1  0  0  0  0
 13 14  1  0  0  0  0
 13 30  1  0  0  0  0
 14 15  2  0  0  0  0
 14 31  1  0  0  0  0
 15 16  1  0  0  0  0
 15 32  1  0  0  0  0
M  END
> <s_m_source_file>
AV-unprocessed.smi

> <i_m_source_file_index>
1355

> <i_lp_mmshare_version>
43012

> <i_f3d_flags>
0

> <s_epik_input>
W0NIM11PW0NIMl1bQ0gyXW4oYyhuMSlbQ0BIXShbQ0gzXSlbT0hdKWMoYzEyKVtjSF1bY0hdW2NIXVtjSF0y

> <s_epik_cmdline>
J2VwaWtfcHl0aG9uJywgJy1waCcsICc3LjAnLCAnLXRuJywgJzgnLCAnLW1hJywgJzIwMCcsICctbWV0YWxfYmluZGluZycsICctaW1hZScsICc8aW5maWxlLm1hZT4nLCAnLW9tYWUnLCAnPG91dGZpbGUubWFlPic=

> <r_epik_Ionization_Penalty>
0.055138

> <r_epik_Ionization_Penalty_Charging>
0

> <r_epik_Ionization_Penalty_Neutral>
0.055138

> <r_epik_State_Penalty>
0.0474756

> <r_epik_Charging_Adjusted_Penalty>
0.0474756

> <i_epik_Tot_Q>
0

> <i_epik_Tot_abs_Q>
0

> <r_epik_Metal_State_Penalty>
4.94275e-05

> <b_epik_Metal_Only>
0

> <s_lp_Force_Field>
OPLS_2005

> <r_lp_Energy>
9.14497

> <b_lp_Chiralities_Consistent>
1

> <s_lp_Variant>
AV-unprocessed.smi:1355-1

> <Gold.Version>
5.8.1

> <Gold.Id.Protein>
6NUR|6NUR_protein|mol2

> <Gold.PLP.Fitness>
42.1560

> <Gold.PLP.PLP>
-36.9744

> <Gold.PLP.part.hbond>
-2.0000

> <Gold.PLP.part.metal>
0.0000

> <Gold.PLP.part.buried>
-6.6282

> <Gold.PLP.part.nonpolar>
-28.5300

> <Gold.PLP.part.repulsive>
0.0890

> <Gold.PLP.ligand.clash>
0.0000

> <Gold.PLP.ligand.torsion>
0.4132

> <Gold.PLP.Chemscore.Hbond>
2.0000

> <Gold.PLP.Chemscore.CHOScore>
0.0000

> <Gold.PLP.Chemscore.Metal>
0.0000

> <Gold.Chemscore.Hbonds>
donor molecule, donor type, donor heavy atom, donor atom, acceptor molecule, acceptor atom, score
      P1  H  7989  7998       L1     2  1.00
      P1  H  7997  8010       L1     9  1.00

> <Gold.PLP.Chemscore.Internal.Correction>
0.0081

> <Gold.Rescore>
     Score         DG    S(hbond)    S(metal)    S(lipo)     H(rot)  DE(clash)    DE(int)     intcor
     14.79     -16.36       1.34        0.00      99.40       2.04       0.08       1.49       ----

> <Gold.Chemscore.Fitness>
14.7923

> <Gold.Chemscore.DG>
-16.3608

> <Gold.Chemscore.ZeroCoef>
-5.4800

> <Gold.Chemscore.Hbond>
1.3384

> <Gold.Chemscore.Metal>
0.0000

> <Gold.Chemscore.Lipo>
99.4035

> <Gold.Chemscore.Internal_Hbond>
0.0000

> <Gold.Chemscore.DEClash>
0.0760

> <Gold.Chemscore.DEInternal>
1.4924

> <Gold.Chemscore.Rot>
2.0390

> <Gold.Chemscore.Internal.Correction>
   9.000000E+99

> <Gold.Chemscore.Hbonds>
donor molecule, donor type, donor heavy atom, donor atom, acceptor molecule, acceptor atom, score
      P1  H  7989  7998       L1     2  0.27
      P1  H  7997  8010       L1     9  0.35

> <Gold.Chemscore.Hbond.Weighted>
-4.4704

> <Gold.Chemscore.Metal.Weighted>
-0.0000

> <Gold.Chemscore.Lipo.Weighted>
-11.6302

> <Gold.Chemscore.Internal_Hbond.Weighted>
0.0000

> <Gold.Chemscore.DEClash.Weighted>
0.0760

> <Gold.Chemscore.DEInternal.Weighted>
1.4924

> <Gold.Chemscore.Rot.Weighted>
5.2199

> <Gold.Chemscore.Internal.Correction.Weighted>
   9.000000E+99

> <Gold.Protein.RotatedTorsions>
[ 6907 6896 6895 6894 ] final  140.11 input  -60.11 | X-H torsion
[ 7974 7965 7964 7962 ] final  143.22 input  175.53 | X-H torsion
[ 8008 7997 7996 7995 ] final   43.07 input   59.86 | X-H torsion
[ 10167 10162 10161 10158 ] final   25.75 input  -65.29 | X-H torsion
[ 10718 10713 10712 10709 ] final  177.40 input   66.30 | X-H torsion
[ 10763 10752 10751 10750 ] final  -18.87 input  -60.55 | X-H torsion
[ 11005 11000 10999 10996 ] final  147.61 input  -57.11 | X-H torsion

> <Gold.Protein.ActiveResidues>
 VAL166  LYS551  ARG553  GLY616  TRP617  ASP618  TYR619  PRO620  LYS621  CYS622 
 ASP623  PHE694  ASN695  SER759  ASP760  ASP761  ALA762  ILE779  LEU786  VAL792 
 PHE793  MET794  SER795  GLU796  ALA797  LYS798  CYS799  TRP800  GLU811  SER814 

> <Gold.Protein.RotatedAtoms>
  152.2469  133.5182  159.5302 H   0  0  0  0  0  0  0  0  0  0  0  0  # atno 6907 bound_to 6896
  150.7081  134.1013  159.3976 H   0  0  0  0  0  0  0  0  0  0  0  0  # atno 6908 bound_to 6896
  151.8933  135.0408  160.0550 H   0  0  0  0  0  0  0  0  0  0  0  0  # atno 6909 bound_to 6896
  144.8940  139.5517  143.5785 H   0  0  0  0  0  0  0  0  0  0  0  0  # atno 7974 bound_to 7965
  155.2966  140.3382  155.4249 H   0  0  0  0  0  0  0  0  0  0  0  0  # atno 8008 bound_to 7997
  156.2021  140.1737  156.7917 H   0  0  0  0  0  0  0  0  0  0  0  0  # atno 8009 bound_to 7997
  154.5572  140.0694  156.8746 H   0  0  0  0  0  0  0  0  0  0  0  0  # atno 8010 bound_to 7997
  140.5080  144.0206  150.6360 H   0  0  0  0  0  0  0  0  0  0  0  0  # atno 10167 bound_to 10162
  156.9059  130.9894  151.3028 H   0  0  0  0  0  0  0  0  0  0  0  0  # atno 10718 bound_to 10713
  153.5960  135.7001  153.5404 H   0  0  0  0  0  0  0  0  0  0  0  0  # atno 10763 bound_to 10752
  153.3138  135.4093  155.1358 H   0  0  0  0  0  0  0  0  0  0  0  0  # atno 10764 bound_to 10752
  154.8592  135.3678  154.5493 H   0  0  0  0  0  0  0  0  0  0  0  0  # atno 10765 bound_to 10752
  140.0890  134.9052  157.1621 H   0  0  0  0  0  0  0  0  0  0  0  0  # atno 11005 bound_to 11000
  146.3070  139.7615  142.9048 LP  0  0  0  0  0  0  0  0  0  0  0  0  # atno 17320 bound_to 7965
  145.3733  141.0346  143.3219 LP  0  0  0  0  0  0  0  0  0  0  0  0  # atno 17321 bound_to 7965
  140.3521  143.2957  152.0475 LP  0  0  0  0  0  0  0  0  0  0  0  0  # atno 17342 bound_to 10162
  139.4888  144.6366  151.6963 LP  0  0  0  0  0  0  0  0  0  0  0  0  # atno 17343 bound_to 10162
  157.5997  130.8504  149.8784 LP  0  0  0  0  0  0  0  0  0  0  0  0  # atno 17370 bound_to 10713
  156.0559  130.3708  150.1092 LP  0  0  0  0  0  0  0  0  0  0  0  0  # atno 17371 bound_to 10713
  140.3379  134.2737  155.7217 LP  0  0  0  0  0  0  0  0  0  0  0  0  # atno 17394 bound_to 11000
  141.2072  133.7812  157.0133 LP  0  0  0  0  0  0  0  0  0  0  0  0  # atno 17395 bound_to 11000

$$$$
