AV-unprocessed.smi:1158|AV-procd|sdf|4912|dock1
  -GOLD-   22720 3493D 1   1.00000     0.00000
 Structure written by MMmdl.
 43 44  0  0  0  0  0  0  0  0  2 V2000
  148.4479  140.5116  154.0370 C   0  0  0  0  0  0  0  0  0  0  0  0
  149.1818  139.3044  153.8626 O   0  0  0  0  0  0  0  0  0  0  0  0
  150.2825  139.0788  154.6673 C   0  0  0  0  0  0  0  0  0  0  0  0
  150.9511  140.1516  155.1606 N   0  0  0  0  0  0  0  0  0  0  0  0
  152.0288  139.9339  155.9416 C   0  0  0  0  0  0  0  0  0  0  0  0
  152.4988  138.6480  156.2640 C   0  0  0  0  0  0  0  0  0  0  0  0
  151.8073  137.5336  155.7541 C   0  0  0  0  0  0  0  0  0  0  0  0
  150.6640  137.7449  154.9452 C   0  0  0  0  0  0  0  0  0  0  0  0
  149.8987  136.6945  154.3656 N   0  0  0  0  0  0  0  0  0  0  0  0
  149.7725  135.4202  154.7732 C   0  0  0  0  0  0  0  0  0  0  0  0
  150.3288  134.9238  155.7522 O   0  0  0  0  0  0  0  0  0  0  0  0
  148.9360  134.7385  153.9771 N   0  0  0  0  0  0  0  0  0  0  0  0
  148.5598  133.3389  154.1562 C   0  0  2  0  0  0  0  0  0  0  0  0
  149.8040  132.4354  154.2046 C   0  0  0  0  0  0  0  0  0  0  0  0
  149.4075  130.9530  154.2981 C   0  0  0  0  0  0  0  0  0  0  0  0
  148.5258  130.5537  153.1696 N   0  3  1  0  0  0  0  0  0  0  0  0
  148.2430  129.0942  153.1772 C   0  0  0  0  0  0  0  0  0  0  0  0
  147.3156  128.6485  152.0331 C   0  0  0  0  0  0  0  0  0  0  0  0
  147.7424  127.4841  151.5462 F   0  0  0  0  0  0  0  0  0  0  0  0
  146.0564  128.4981  152.4414 F   0  0  0  0  0  0  0  0  0  0  0  0
  147.3002  131.3952  153.1154 C   0  0  0  0  0  0  0  0  0  0  0  0
  147.6494  132.8894  153.0033 C   0  0  0  0  0  0  0  0  0  0  0  0
  147.6229  140.5370  153.3254 H   0  0  0  0  0  0  0  0  0  0  0  0
  149.0707  141.3881  153.8526 H   0  0  0  0  0  0  0  0  0  0  0  0
  148.0221  140.5789  155.0390 H   0  0  0  0  0  0  0  0  0  0  0  0
  152.5352  140.8113  156.3161 H   0  0  0  0  0  0  0  0  0  0  0  0
  153.3729  138.5189  156.8851 H   0  0  0  0  0  0  0  0  0  0  0  0
  152.1768  136.5465  155.9824 H   0  0  0  0  0  0  0  0  0  0  0  0
  149.3202  136.9695  153.5851 H   0  0  0  0  0  0  0  0  0  0  0  0
  148.5202  135.2274  153.1977 H   0  0  0  0  0  0  0  0  0  0  0  0
  148.0051  133.2351  155.0910 H   0  0  0  0  0  0  0  0  0  0  0  0
  150.4138  132.5931  153.3136 H   0  0  0  0  0  0  0  0  0  0  0  0
  150.4302  132.6991  155.0578 H   0  0  0  0  0  0  0  0  0  0  0  0
  150.3128  130.3447  154.2943 H   0  0  0  0  0  0  0  0  0  0  0  0
  148.8997  130.7584  155.2442 H   0  0  0  0  0  0  0  0  0  0  0  0
  149.1869  128.5619  153.0494 H   0  0  0  0  0  0  0  0  0  0  0  0
  147.8494  128.7836  154.1462 H   0  0  0  0  0  0  0  0  0  0  0  0
  147.3184  129.3589  151.2057 H   0  0  0  0  0  0  0  0  0  0  0  0
  146.6884  131.1228  152.2576 H   0  0  0  0  0  0  0  0  0  0  0  0
  146.6948  131.2170  154.0055 H   0  0  0  0  0  0  0  0  0  0  0  0
  146.7331  133.4812  152.9986 H   0  0  0  0  0  0  0  0  0  0  0  0
  148.1417  133.0746  152.0473 H   0  0  0  0  0  0  0  0  0  0  0  0
  149.0492  130.7392  152.3259 H   0  0  0  0  0  0  0  0  0  0  0  0
  1  2  1  0  0  0  0
  1 23  1  0  0  0  0
  1 24  1  0  0  0  0
  1 25  1  0  0  0  0
  2  3  1  0  0  0  0
  3  8  1  0  0  0  0
  3  4  2  0  0  0  0
  4  5  1  0  0  0  0
  5  6  2  0  0  0  0
  5 26  1  0  0  0  0
  6  7  1  0  0  0  0
  6 27  1  0  0  0  0
  7  8  2  0  0  0  0
  7 28  1  0  0  0  0
  8  9  1  0  0  0  0
  9 10  1  0  0  0  0
  9 29  1  0  0  0  0
 10 11  2  0  0  0  0
 10 12  1  0  0  0  0
 12 13  1  0  0  0  0
 12 30  1  0  0  0  0
 13 22  1  0  0  0  0
 13 14  1  0  0  0  0
 13 31  1  0  0  0  0
 14 15  1  0  0  0  0
 14 32  1  0  0  0  0
 14 33  1  0  0  0  0
 15 16  1  0  0  0  0
 15 34  1  0  0  0  0
 15 35  1  0  0  0  0
 16 17  1  0  0  0  0
 16 21  1  0  0  0  0
 16 43  1  0  0  0  0
 17 18  1  0  0  0  0
 17 36  1  0  0  0  0
 17 37  1  0  0  0  0
 18 19  1  0  0  0  0
 18 20  1  0  0  0  0
 18 38  1  0  0  0  0
 21 22  1  0  0  0  0
 21 39  1  0  0  0  0
 21 40  1  0  0  0  0
 22 41  1  0  0  0  0
 22 42  1  0  0  0  0
M  CHG  1  16   1
M  END
> <s_m_source_file>
AV-unprocessed.smi

> <i_m_source_file_index>
1158

> <i_lp_mmshare_version>
43012

> <i_f3d_flags>
0

> <s_epik_input>
W0NIM11PYzFuW2NIXVtjSF1bY0hdYzFbTkhdQyg9TylbTkhdW0NIXTJbQ0gyXVtDSDJdTihbQ0gyXVtDSF0oRilGKVtDSDJdW0NIMl0y

> <s_epik_cmdline>
J2VwaWtfcHl0aG9uJywgJy1waCcsICc3LjAnLCAnLXRuJywgJzgnLCAnLW1hJywgJzIwMCcsICctbWV0YWxfYmluZGluZycsICctaW1hZScsICc8aW5maWxlLm1hZT4nLCAnLW9tYWUnLCAnPG91dGZpbGUubWFlPic=

> <r_lp_tautomer_probability>
1

> <r_epik_Ionization_Penalty>
0.802109

> <r_epik_Ionization_Penalty_Charging>
0.802031

> <r_epik_Ionization_Penalty_Neutral>
7.83352e-05

> <r_epik_State_Penalty>
0.833408

> <r_epik_Charging_Adjusted_Penalty>
1.63544

> <i_epik_Tot_Q>
1

> <i_epik_Tot_abs_Q>
1

> <r_epik_Metal_State_Penalty>
0.833416

> <b_epik_Metal_Only>
0

> <s_lp_Force_Field>
OPLS_2005

> <r_lp_Energy>
21.1994

> <b_lp_Chiralities_Consistent>
1

> <s_lp_Variant>
AV-unprocessed.smi:1158-2

> <Gold.Version>
5.8.1

> <Gold.Id.Protein>
6NUR|6NUR_protein|mol2

> <Gold.PLP.Fitness>
47.9644

> <Gold.PLP.PLP>
-39.8396

> <Gold.PLP.part.hbond>
-4.3246

> <Gold.PLP.part.metal>
0.0000

> <Gold.PLP.part.buried>
-4.1729

> <Gold.PLP.part.nonpolar>
-33.3199

> <Gold.PLP.part.repulsive>
1.6732

> <Gold.PLP.ligand.clash>
0.0000

> <Gold.PLP.ligand.torsion>
1.0810

> <Gold.PLP.Chemscore.Hbond>
3.3840

> <Gold.PLP.Chemscore.CHOScore>
0.0000

> <Gold.PLP.Chemscore.Metal>
0.0000

> <Gold.Chemscore.Hbonds>
donor molecule, donor type, donor heavy atom, donor atom, acceptor molecule, acceptor atom, score
      L1  H     9    29       P1  7948  0.67
      L1  H    12    30       P1  7948  0.80
      L1  H    16    43       P1 10747  0.94
      P1  H  7989  7998       L1     4  0.95

> <Gold.PLP.Chemscore.Internal.Correction>
0.1349

> <Gold.Rescore>
     Score         DG    S(hbond)    S(metal)    S(lipo)     H(rot)  DE(clash)    DE(int)     intcor
     15.16     -17.04       2.12        0.00      72.75       1.58       0.08       1.81       ----

> <Gold.Chemscore.Fitness>
15.1553

> <Gold.Chemscore.DG>
-17.0429

> <Gold.Chemscore.ZeroCoef>
-5.4800

> <Gold.Chemscore.Hbond>
2.1222

> <Gold.Chemscore.Metal>
0.0000

> <Gold.Chemscore.Lipo>
72.7514

> <Gold.Chemscore.Internal_Hbond>
0.0000

> <Gold.Chemscore.DEClash>
0.0801

> <Gold.Chemscore.DEInternal>
1.8076

> <Gold.Chemscore.Rot>
1.5770

> <Gold.Chemscore.Internal.Correction>
   9.000000E+99

> <Gold.Chemscore.Hbonds>
donor molecule, donor type, donor heavy atom, donor atom, acceptor molecule, acceptor atom, score
      L1  H     9    29       P1  7948  0.66
      L1  H    12    30       P1  7948  0.70
      L1  H    16    43       P1 10747  0.22
      P1  H  7989  7998       L1     4  0.12

> <Gold.Chemscore.Hbond.Weighted>
-7.0881

> <Gold.Chemscore.Metal.Weighted>
-0.0000

> <Gold.Chemscore.Lipo.Weighted>
-8.5119

> <Gold.Chemscore.Internal_Hbond.Weighted>
0.0000

> <Gold.Chemscore.DEClash.Weighted>
0.0801

> <Gold.Chemscore.DEInternal.Weighted>
1.8076

> <Gold.Chemscore.Rot.Weighted>
4.0371

> <Gold.Chemscore.Internal.Correction.Weighted>
   9.000000E+99

> <Gold.Protein.RotatedTorsions>
[ 6907 6896 6895 6894 ] final  -31.71 input  -60.11 | X-H torsion
[ 7974 7965 7964 7962 ] final   48.54 input  175.53 | X-H torsion
[ 8008 7997 7996 7995 ] final -168.10 input   59.86 | X-H torsion
[ 10167 10162 10161 10158 ] final   72.78 input  -65.29 | X-H torsion
[ 10718 10713 10712 10709 ] final  -10.90 input   66.30 | X-H torsion
[ 10763 10752 10751 10750 ] final -153.16 input  -60.55 | X-H torsion
[ 11005 11000 10999 10996 ] final  162.32 input  -57.11 | X-H torsion

> <Gold.Protein.ActiveResidues>
 VAL166  LYS551  ARG553  GLY616  TRP617  ASP618  TYR619  PRO620  LYS621  CYS622 
 ASP623  PHE694  ASN695  SER759  ASP760  ASP761  ALA762  ILE779  LEU786  VAL792 
 PHE793  MET794  SER795  GLU796  ALA797  LYS798  CYS799  TRP800  GLU811  SER814 

> <Gold.Protein.RotatedAtoms>
  151.0885  134.9901  159.8390 H   0  0  0  0  0  0  0  0  0  0  0  0  # atno 6907 bound_to 6896
  152.5427  134.2095  159.8754 H   0  0  0  0  0  0  0  0  0  0  0  0  # atno 6908 bound_to 6896
  151.2129  133.4501  159.2632 H   0  0  0  0  0  0  0  0  0  0  0  0  # atno 6909 bound_to 6896
  146.0195  139.4634  142.9906 H   0  0  0  0  0  0  0  0  0  0  0  0  # atno 7974 bound_to 7965
  155.8867  140.1018  157.1447 H   0  0  0  0  0  0  0  0  0  0  0  0  # atno 8008 bound_to 7997
  154.4010  140.1318  156.4328 H   0  0  0  0  0  0  0  0  0  0  0  0  # atno 8009 bound_to 7997
  155.7580  140.3463  155.5186 H   0  0  0  0  0  0  0  0  0  0  0  0  # atno 8010 bound_to 7997
  140.0316  144.5461  150.7503 H   0  0  0  0  0  0  0  0  0  0  0  0  # atno 10167 bound_to 10162
  156.6667  130.4997  149.6013 H   0  0  0  0  0  0  0  0  0  0  0  0  # atno 10718 bound_to 10713
  154.7946  135.3219  154.7696 H   0  0  0  0  0  0  0  0  0  0  0  0  # atno 10763 bound_to 10752
  153.8377  135.6873  153.4811 H   0  0  0  0  0  0  0  0  0  0  0  0  # atno 10764 bound_to 10752
  153.1632  135.4652  154.9742 H   0  0  0  0  0  0  0  0  0  0  0  0  # atno 10765 bound_to 10752
  140.2246  134.8170  157.3255 H   0  0  0  0  0  0  0  0  0  0  0  0  # atno 11005 bound_to 11000
  145.7216  141.0073  143.1399 LP  0  0  0  0  0  0  0  0  0  0  0  0  # atno 17320 bound_to 7965
  144.6984  139.8877  143.7451 LP  0  0  0  0  0  0  0  0  0  0  0  0  # atno 17321 bound_to 7965
  140.7299  143.2678  151.3987 LP  0  0  0  0  0  0  0  0  0  0  0  0  # atno 17342 bound_to 10162
  139.6072  144.1172  152.2262 LP  0  0  0  0  0  0  0  0  0  0  0  0  # atno 17343 bound_to 10162
  156.1969  130.6595  151.1124 LP  0  0  0  0  0  0  0  0  0  0  0  0  # atno 17370 bound_to 10713
  157.7091  131.0743  150.6564 LP  0  0  0  0  0  0  0  0  0  0  0  0  # atno 17371 bound_to 10713
  140.1814  134.4485  155.7770 LP  0  0  0  0  0  0  0  0  0  0  0  0  # atno 17394 bound_to 11000
  141.2221  133.6985  156.7875 LP  0  0  0  0  0  0  0  0  0  0  0  0  # atno 17395 bound_to 11000

$$$$
