AV-unprocessed.smi:2850|AV-procd|sdf|10970|dock3
  -GOLD-   2272015423D 1   1.00000     0.00000
 Structure written by MMmdl.
 44 45  0  0  0  0  0  0  0  0  1 V2000
  147.3926  134.3814  162.8099 C   0  0  0  0  0  0  0  0  0  0  0  0
  146.9002  136.0947  162.4695 S   0  0  0  0  0  0  0  0  0  0  0  0
  147.4422  136.4785  160.8315 C   0  0  0  0  0  0  0  0  0  0  0  0
  148.3119  135.6139  160.1426 C   0  0  0  0  0  0  0  0  0  0  0  0
  148.6937  135.9940  158.8441 C   0  0  0  0  0  0  0  0  0  0  0  0
  148.1789  137.2047  158.3376 C   0  0  0  0  0  0  0  0  0  0  0  0
  148.5387  137.6078  157.0448 N   0  0  0  0  0  0  0  0  0  0  0  0
  148.1875  138.9367  156.5632 C   0  0  0  0  0  0  0  0  0  0  0  0
  149.4126  139.8574  156.4865 C   0  0  1  0  0  0  0  0  0  0  0  0
  149.9520  140.1934  157.8905 C   0  0  0  0  0  0  0  0  0  0  0  0
  151.1618  141.0073  157.8394 N   0  0  0  0  0  0  0  0  0  0  0  0
  151.6378  141.3133  159.1897 C   0  0  0  0  0  0  0  0  0  0  0  0
  152.7861  142.3409  159.2840 C   0  0  0  0  0  0  0  0  0  0  0  0
  153.3672  142.3639  160.7055 C   0  0  0  0  0  0  0  0  0  0  0  0
  152.3276  143.7480  158.8680 C   0  0  0  0  0  0  0  0  0  0  0  0
  152.1627  140.3156  157.0303 C   0  0  0  0  0  0  0  0  0  0  0  0
  151.6264  139.9639  155.6323 C   0  0  0  0  0  0  0  0  0  0  0  0
  150.4391  139.1884  155.7575 O   0  0  0  0  0  0  0  0  0  0  0  0
  147.3412  137.9880  159.0642 N   0  0  0  0  0  0  0  0  0  0  0  0
  146.9750  137.6307  160.3000 N   0  0  0  0  0  0  0  0  0  0  0  0
  147.0763  134.0931  163.8121 H   0  0  0  0  0  0  0  0  0  0  0  0
  148.4758  134.2753  162.7470 H   0  0  0  0  0  0  0  0  0  0  0  0
  146.9313  133.7008  162.0940 H   0  0  0  0  0  0  0  0  0  0  0  0
  148.6710  134.6984  160.5892 H   0  0  0  0  0  0  0  0  0  0  0  0
  149.3587  135.3757  158.2589 H   0  0  0  0  0  0  0  0  0  0  0  0
  149.1891  137.0530  156.5073 H   0  0  0  0  0  0  0  0  0  0  0  0
  147.7470  138.8385  155.5701 H   0  0  0  0  0  0  0  0  0  0  0  0
  147.4272  139.3746  157.2114 H   0  0  0  0  0  0  0  0  0  0  0  0
  149.1418  140.7818  155.9725 H   0  0  0  0  0  0  0  0  0  0  0  0
  149.1803  140.7195  158.4537 H   0  0  0  0  0  0  0  0  0  0  0  0
  150.1541  139.2675  158.4318 H   0  0  0  0  0  0  0  0  0  0  0  0
  150.8038  141.6954  159.7804 H   0  0  0  0  0  0  0  0  0  0  0  0
  151.9430  140.3866  159.6786 H   0  0  0  0  0  0  0  0  0  0  0  0
  153.5965  142.0393  158.6213 H   0  0  0  0  0  0  0  0  0  0  0  0
  152.6161  142.6661  161.4360 H   0  0  0  0  0  0  0  0  0  0  0  0
  154.2022  143.0616  160.7786 H   0  0  0  0  0  0  0  0  0  0  0  0
  153.7362  141.3797  160.9954 H   0  0  0  0  0  0  0  0  0  0  0  0
  151.5156  144.1041  159.5027 H   0  0  0  0  0  0  0  0  0  0  0  0
  151.9738  143.7609  157.8368 H   0  0  0  0  0  0  0  0  0  0  0  0
  153.1455  144.4654  158.9398 H   0  0  0  0  0  0  0  0  0  0  0  0
  153.0516  140.9342  156.9133 H   0  0  0  0  0  0  0  0  0  0  0  0
  152.4797  139.4014  157.5349 H   0  0  0  0  0  0  0  0  0  0  0  0
  151.4199  140.8686  155.0583 H   0  0  0  0  0  0  0  0  0  0  0  0
  152.3685  139.3928  155.0744 H   0  0  0  0  0  0  0  0  0  0  0  0
  1  2  1  0  0  0  0
  1 21  1  0  0  0  0
  1 22  1  0  0  0  0
  1 23  1  0  0  0  0
  2  3  1  0  0  0  0
  3 20  1  0  0  0  0
  3  4  2  0  0  0  0
  4  5  1  0  0  0  0
  4 24  1  0  0  0  0
  5  6  2  0  0  0  0
  5 25  1  0  0  0  0
  6  7  1  0  0  0  0
  6 19  1  0  0  0  0
  7  8  1  0  0  0  0
  7 26  1  0  0  0  0
  8  9  1  0  0  0  0
  8 27  1  0  0  0  0
  8 28  1  0  0  0  0
  9 18  1  0  0  0  0
  9 10  1  0  0  0  0
  9 29  1  0  0  0  0
 10 11  1  0  0  0  0
 10 30  1  0  0  0  0
 10 31  1  0  0  0  0
 11 12  1  0  0  0  0
 11 16  1  0  0  0  0
 12 13  1  0  0  0  0
 12 32  1  0  0  0  0
 12 33  1  0  0  0  0
 13 14  1  0  0  0  0
 13 15  1  0  0  0  0
 13 34  1  0  0  0  0
 14 35  1  0  0  0  0
 14 36  1  0  0  0  0
 14 37  1  0  0  0  0
 15 38  1  0  0  0  0
 15 39  1  0  0  0  0
 15 40  1  0  0  0  0
 16 17  1  0  0  0  0
 16 41  1  0  0  0  0
 16 42  1  0  0  0  0
 17 18  1  0  0  0  0
 17 43  1  0  0  0  0
 17 44  1  0  0  0  0
 19 20  2  0  0  0  0
M  END
> <s_m_source_file>
AV-unprocessed.smi

> <i_m_source_file_index>
2850

> <i_lp_mmshare_version>
43012

> <i_f3d_flags>
0

> <s_epik_input>
W0NIM11TYzFbY0hdW2NIXWMobm4xKVtOSF1bQ0gyXVtDQEBIXTJbQ0gyXU4oW0NIMl1bQ0gyXU8yKVtDSDJdW0NIXShbQ0gzXSlbQ0gzXQ==

> <s_epik_cmdline>
J2VwaWtfcHl0aG9uJywgJy1waCcsICc3LjAnLCAnLXRuJywgJzgnLCAnLW1hJywgJzIwMCcsICctbWV0YWxfYmluZGluZycsICctaW1hZScsICc8aW5maWxlLm1hZT4nLCAnLW9tYWUnLCAnPG91dGZpbGUubWFlPic=

> <r_lp_tautomer_probability>
0.999978

> <r_epik_Ionization_Penalty>
1.20939

> <r_epik_Ionization_Penalty_Charging>
0

> <r_epik_Ionization_Penalty_Neutral>
1.20939

> <r_epik_State_Penalty>
1.27042

> <r_epik_Charging_Adjusted_Penalty>
1.27042

> <i_epik_Tot_Q>
0

> <i_epik_Tot_abs_Q>
0

> <r_epik_Metal_State_Penalty>
1.26998

> <b_epik_Metal_Only>
0

> <s_lp_Force_Field>
OPLS_2005

> <r_lp_Energy>
30.7386

> <b_lp_Chiralities_Consistent>
1

> <s_lp_Variant>
AV-unprocessed.smi:2850-6

> <Gold.Version>
5.8.1

> <Gold.Id.Protein>
6NUR|6NUR_protein|mol2

> <Gold.PLP.Fitness>
37.4873

> <Gold.PLP.PLP>
-35.7171

> <Gold.PLP.part.hbond>
-1.9215

> <Gold.PLP.part.metal>
0.0000

> <Gold.PLP.part.buried>
-3.0819

> <Gold.PLP.part.nonpolar>
-29.9962

> <Gold.PLP.part.repulsive>
0.0250

> <Gold.PLP.ligand.clash>
0.0000

> <Gold.PLP.ligand.torsion>
0.3111

> <Gold.PLP.Chemscore.Hbond>
0.7500

> <Gold.PLP.Chemscore.CHOScore>
0.0000

> <Gold.PLP.Chemscore.Metal>
0.0000

> <Gold.Chemscore.Hbonds>
donor molecule, donor type, donor heavy atom, donor atom, acceptor molecule, acceptor atom, score
      P1  H  6934  6947       L1    20  0.75

> <Gold.PLP.Chemscore.Internal.Correction>
0.1425

> <Gold.Rescore>
     Score         DG    S(hbond)    S(metal)    S(lipo)     H(rot)  DE(clash)    DE(int)     intcor
     14.72     -15.27       0.66        0.00      98.64       1.55       0.20       0.35       ----

> <Gold.Chemscore.Fitness>
14.7194

> <Gold.Chemscore.DG>
-15.2690

> <Gold.Chemscore.ZeroCoef>
-5.4800

> <Gold.Chemscore.Hbond>
0.6615

> <Gold.Chemscore.Metal>
0.0000

> <Gold.Chemscore.Lipo>
98.6367

> <Gold.Chemscore.Internal_Hbond>
0.0000

> <Gold.Chemscore.DEClash>
0.1983

> <Gold.Chemscore.DEInternal>
0.3512

> <Gold.Chemscore.Rot>
1.5473

> <Gold.Chemscore.Internal.Correction>
   9.000000E+99

> <Gold.Chemscore.Hbonds>
donor molecule, donor type, donor heavy atom, donor atom, acceptor molecule, acceptor atom, score
      P1  H  6934  6947       L1    20  0.09

> <Gold.Chemscore.Hbond.Weighted>
-2.2095

> <Gold.Chemscore.Metal.Weighted>
-0.0000

> <Gold.Chemscore.Lipo.Weighted>
-11.5405

> <Gold.Chemscore.Internal_Hbond.Weighted>
0.0000

> <Gold.Chemscore.DEClash.Weighted>
0.1983

> <Gold.Chemscore.DEInternal.Weighted>
0.3512

> <Gold.Chemscore.Rot.Weighted>
3.9610

> <Gold.Chemscore.Internal.Correction.Weighted>
   9.000000E+99

> <Gold.Protein.RotatedTorsions>
[ 6907 6896 6895 6894 ] final  108.81 input  -60.11 | X-H torsion
[ 7974 7965 7964 7962 ] final   48.87 input  175.53 | X-H torsion
[ 8008 7997 7996 7995 ] final   45.96 input   59.86 | X-H torsion
[ 10167 10162 10161 10158 ] final   72.72 input  -65.29 | X-H torsion
[ 10718 10713 10712 10709 ] final  107.23 input   66.30 | X-H torsion
[ 10763 10752 10751 10750 ] final  126.34 input  -60.55 | X-H torsion
[ 11005 11000 10999 10996 ] final -131.26 input  -57.11 | X-H torsion

> <Gold.Protein.ActiveResidues>
 VAL166  LYS551  ARG553  GLY616  TRP617  ASP618  TYR619  PRO620  LYS621  CYS622 
 ASP623  PHE694  ASN695  SER759  ASP760  ASP761  ALA762  ILE779  LEU786  VAL792 
 PHE793  MET794  SER795  GLU796  ALA797  LYS798  CYS799  TRP800  GLU811  SER814 

> <Gold.Protein.RotatedAtoms>
  152.5096  133.9035  159.7452 H   0  0  0  0  0  0  0  0  0  0  0  0  # atno 6907 bound_to 6896
  150.9445  133.6610  159.2791 H   0  0  0  0  0  0  0  0  0  0  0  0  # atno 6908 bound_to 6896
  151.3910  135.0961  159.9579 H   0  0  0  0  0  0  0  0  0  0  0  0  # atno 6909 bound_to 6896
  146.0163  139.4600  142.9925 H   0  0  0  0  0  0  0  0  0  0  0  0  # atno 7974 bound_to 7965
  155.3446  140.3410  155.4239 H   0  0  0  0  0  0  0  0  0  0  0  0  # atno 8008 bound_to 7997
  156.1795  140.1659  156.8335 H   0  0  0  0  0  0  0  0  0  0  0  0  # atno 8009 bound_to 7997
  154.5318  140.0743  156.8342 H   0  0  0  0  0  0  0  0  0  0  0  0  # atno 8010 bound_to 7997
  140.0322  144.5456  150.7498 H   0  0  0  0  0  0  0  0  0  0  0  0  # atno 10167 bound_to 10162
  157.6637  131.0868  150.6125 H   0  0  0  0  0  0  0  0  0  0  0  0  # atno 10718 bound_to 10713
  153.6917  135.3298  155.3203 H   0  0  0  0  0  0  0  0  0  0  0  0  # atno 10763 bound_to 10752
  154.8438  135.4433  154.1501 H   0  0  0  0  0  0  0  0  0  0  0  0  # atno 10764 bound_to 10752
  153.2545  135.6985  153.7722 H   0  0  0  0  0  0  0  0  0  0  0  0  # atno 10765 bound_to 10752
  140.9274  134.1364  157.4263 H   0  0  0  0  0  0  0  0  0  0  0  0  # atno 11005 bound_to 11000
  145.7263  141.0058  143.1375 LP  0  0  0  0  0  0  0  0  0  0  0  0  # atno 17320 bound_to 7965
  144.6972  139.8931  143.7454 LP  0  0  0  0  0  0  0  0  0  0  0  0  # atno 17321 bound_to 7965
  140.7297  143.2675  151.3996 LP  0  0  0  0  0  0  0  0  0  0  0  0  # atno 17342 bound_to 10162
  139.6068  144.1180  152.2258 LP  0  0  0  0  0  0  0  0  0  0  0  0  # atno 17343 bound_to 10162
  156.6427  130.4463  149.5747 LP  0  0  0  0  0  0  0  0  0  0  0  0  # atno 17370 bound_to 10713
  156.2197  130.6729  151.1355 LP  0  0  0  0  0  0  0  0  0  0  0  0  # atno 17371 bound_to 10713
  139.8788  134.9993  156.5948 LP  0  0  0  0  0  0  0  0  0  0  0  0  # atno 17394 bound_to 11000
  140.7907  133.8584  155.8644 LP  0  0  0  0  0  0  0  0  0  0  0  0  # atno 17395 bound_to 11000

$$$$
