AV-unprocessed.smi:1244|AV-procd|sdf|5225|dock10
  -GOLD-   22720 4323D 1   1.00000     0.00000
 Structure written by MMmdl.
 55 57  0  0  0  0  0  0  0  0  2 V2000
  151.2122  141.4567  158.3686 C   0  0  0  0  0  0  0  0  0  0  0  0
  151.0239  141.1421  156.8806 C   0  0  1  0  0  0  0  0  0  0  0  0
  151.4354  139.6986  156.5351 C   0  0  0  0  0  0  0  0  0  0  0  0
  151.1728  139.4112  155.1053 N   0  3  1  0  0  0  0  0  0  0  0  0
  151.6070  138.0485  154.7104 C   0  0  0  0  0  0  0  0  0  0  0  0
  150.8722  136.9511  155.5020 C   0  0  0  0  0  0  0  0  0  0  0  0
  150.1563  136.0461  154.6106 N   0  0  0  0  0  0  0  0  0  0  0  0
  150.1458  134.7108  154.7253 C   0  0  0  0  0  0  0  0  0  0  0  0
  150.7394  134.1041  155.6167 O   0  0  0  0  0  0  0  0  0  0  0  0
  149.4037  134.1460  153.7581 N   0  0  0  0  0  0  0  0  0  0  0  0
  149.0895  132.7698  153.5687 C   0  0  0  0  0  0  0  0  0  0  0  0
  149.9521  131.7375  154.0140 C   0  0  0  0  0  0  0  0  0  0  0  0
  149.6242  130.3980  153.7434 C   0  0  0  0  0  0  0  0  0  0  0  0
  148.4503  130.1345  153.0191 C   0  0  0  0  0  0  0  0  0  0  0  0
  147.6270  131.1044  152.5748 N   0  0  0  0  0  0  0  0  0  0  0  0
  147.9209  132.4010  152.8411 C   0  0  0  0  0  0  0  0  0  0  0  0
  147.0121  133.3718  152.3594 N   0  0  0  0  0  0  0  0  0  0  0  0
  146.8905  133.6257  150.9278 C   0  0  0  0  0  0  0  0  0  0  0  0
  145.5932  134.4144  150.7748 C   0  0  0  0  0  0  0  0  0  0  0  0
  144.7071  133.7963  151.8518 C   0  0  0  0  0  0  0  0  0  0  0  0
  145.6898  133.4448  152.9742 C   0  0  0  0  0  0  0  0  0  0  0  0
  149.7543  139.6947  154.7752 C   0  0  0  0  0  0  0  0  0  0  0  0
  149.3832  141.1361  155.1722 C   0  0  1  0  0  0  0  0  0  0  0  0
  147.9012  141.4390  154.9266 C   0  0  0  0  0  0  0  0  0  0  0  0
  149.6493  141.3211  156.5584 O   0  0  0  0  0  0  0  0  0  0  0  0
  152.2553  141.3438  158.6646 H   0  0  0  0  0  0  0  0  0  0  0  0
  150.6131  140.7924  158.9923 H   0  0  0  0  0  0  0  0  0  0  0  0
  150.9134  142.4814  158.5911 H   0  0  0  0  0  0  0  0  0  0  0  0
  151.6233  141.8455  156.2999 H   0  0  0  0  0  0  0  0  0  0  0  0
  152.4959  139.5598  156.7490 H   0  0  0  0  0  0  0  0  0  0  0  0
  150.8862  138.9886  157.1560 H   0  0  0  0  0  0  0  0  0  0  0  0
  151.3971  137.8965  153.6504 H   0  0  0  0  0  0  0  0  0  0  0  0
  152.6889  137.9604  154.8242 H   0  0  0  0  0  0  0  0  0  0  0  0
  151.5602  136.3777  156.1242 H   0  0  0  0  0  0  0  0  0  0  0  0
  150.1472  137.4037  156.1789 H   0  0  0  0  0  0  0  0  0  0  0  0
  149.6362  136.4645  153.8529 H   0  0  0  0  0  0  0  0  0  0  0  0
  148.9164  134.7829  153.1447 H   0  0  0  0  0  0  0  0  0  0  0  0
  150.8716  131.9475  154.5379 H   0  0  0  0  0  0  0  0  0  0  0  0
  150.2647  129.5932  154.0723 H   0  0  0  0  0  0  0  0  0  0  0  0
  148.1668  129.1193  152.7841 H   0  0  0  0  0  0  0  0  0  0  0  0
  147.7492  134.1795  150.5480 H   0  0  0  0  0  0  0  0  0  0  0  0
  146.8123  132.6896  150.3736 H   0  0  0  0  0  0  0  0  0  0  0  0
  145.7681  135.4684  150.9950 H   0  0  0  0  0  0  0  0  0  0  0  0
  145.1663  134.3411  149.7743 H   0  0  0  0  0  0  0  0  0  0  0  0
  143.9082  134.4617  152.1804 H   0  0  0  0  0  0  0  0  0  0  0  0
  144.2476  132.8845  151.4677 H   0  0  0  0  0  0  0  0  0  0  0  0
  145.4134  132.5121  153.4680 H   0  0  0  0  0  0  0  0  0  0  0  0
  145.6937  134.2369  153.7230 H   0  0  0  0  0  0  0  0  0  0  0  0
  149.5794  139.5564  153.7085 H   0  0  0  0  0  0  0  0  0  0  0  0
  149.1106  138.9850  155.2977 H   0  0  0  0  0  0  0  0  0  0  0  0
  149.9818  141.8427  154.5944 H   0  0  0  0  0  0  0  0  0  0  0  0
  147.6449  141.3194  153.8738 H   0  0  0  0  0  0  0  0  0  0  0  0
  147.6597  142.4628  155.2126 H   0  0  0  0  0  0  0  0  0  0  0  0
  147.2608  140.7725  155.5051 H   0  0  0  0  0  0  0  0  0  0  0  0
  151.7387  140.0613  154.5785 H   0  0  0  0  0  0  0  0  0  0  0  0
  1  2  1  0  0  0  0
  1 26  1  0  0  0  0
  1 27  1  0  0  0  0
  1 28  1  0  0  0  0
  2 25  1  0  0  0  0
  2  3  1  0  0  0  0
  2 29  1  0  0  0  0
  3  4  1  0  0  0  0
  3 30  1  0  0  0  0
  3 31  1  0  0  0  0
  4  5  1  0  0  0  0
  4 22  1  0  0  0  0
  4 55  1  0  0  0  0
  5  6  1  0  0  0  0
  5 32  1  0  0  0  0
  5 33  1  0  0  0  0
  6  7  1  0  0  0  0
  6 34  1  0  0  0  0
  6 35  1  0  0  0  0
  7  8  1  0  0  0  0
  7 36  1  0  0  0  0
  8  9  2  0  0  0  0
  8 10  1  0  0  0  0
 10 11  1  0  0  0  0
 10 37  1  0  0  0  0
 11 16  1  0  0  0  0
 11 12  2  0  0  0  0
 12 13  1  0  0  0  0
 12 38  1  0  0  0  0
 13 14  2  0  0  0  0
 13 39  1  0  0  0  0
 14 15  1  0  0  0  0
 14 40  1  0  0  0  0
 15 16  2  0  0  0  0
 16 17  1  0  0  0  0
 17 21  1  0  0  0  0
 17 18  1  0  0  0  0
 18 19  1  0  0  0  0
 18 41  1  0  0  0  0
 18 42  1  0  0  0  0
 19 20  1  0  0  0  0
 19 43  1  0  0  0  0
 19 44  1  0  0  0  0
 20 21  1  0  0  0  0
 20 45  1  0  0  0  0
 20 46  1  0  0  0  0
 21 47  1  0  0  0  0
 21 48  1  0  0  0  0
 22 23  1  0  0  0  0
 22 49  1  0  0  0  0
 22 50  1  0  0  0  0
 23 24  1  0  0  0  0
 23 25  1  0  0  0  0
 23 51  1  0  0  0  0
 24 52  1  0  0  0  0
 24 53  1  0  0  0  0
 24 54  1  0  0  0  0
M  CHG  1   4   1
M  END
> <s_m_source_file>
AV-unprocessed.smi

> <i_m_source_file_index>
1244

> <i_lp_mmshare_version>
43012

> <i_f3d_flags>
0

> <s_epik_input>
W0NIM11bQ0BASF0xW0NIMl1OKFtDSDJdW0NASF0oTzEpW0NIM10pW0NIMl1bQ0gyXVtOSF1DKD1PKVtOSF1jMltjSF1bY0hdW2NIXW5jMk4zW0NIMl1bQ0gyXVtDSDJdW0NIMl0z

> <s_epik_cmdline>
J2VwaWtfcHl0aG9uJywgJy1waCcsICc3LjAnLCAnLXRuJywgJzgnLCAnLW1hJywgJzIwMCcsICctbWV0YWxfYmluZGluZycsICctaW1hZScsICc8aW5maWxlLm1hZT4nLCAnLW9tYWUnLCAnPG91dGZpbGUubWFlPic=

> <r_lp_tautomer_probability>
1

> <r_epik_Ionization_Penalty>
0.684913

> <r_epik_Ionization_Penalty_Charging>
0.602531

> <r_epik_Ionization_Penalty_Neutral>
0.0823829

> <r_epik_State_Penalty>
0.678827

> <r_epik_Charging_Adjusted_Penalty>
1.28136

> <i_epik_Tot_Q>
1

> <i_epik_Tot_abs_Q>
1

> <r_epik_Metal_State_Penalty>
0.67806

> <b_epik_Metal_Only>
0

> <s_lp_Force_Field>
OPLS_2005

> <r_lp_Energy>
42.8464

> <b_lp_Chiralities_Consistent>
1

> <s_lp_Variant>
AV-unprocessed.smi:1244-5

> <Gold.Version>
5.8.1

> <Gold.Id.Protein>
6NUR|6NUR_protein|mol2

> <Gold.PLP.Fitness>
50.0168

> <Gold.PLP.PLP>
-45.5298

> <Gold.PLP.part.hbond>
-2.2347

> <Gold.PLP.part.metal>
0.0000

> <Gold.PLP.part.buried>
-6.1849

> <Gold.PLP.part.nonpolar>
-37.8679

> <Gold.PLP.part.repulsive>
2.2169

> <Gold.PLP.ligand.clash>
0.0000

> <Gold.PLP.ligand.torsion>
0.7954

> <Gold.PLP.Chemscore.Hbond>
1.9040

> <Gold.PLP.Chemscore.CHOScore>
0.0000

> <Gold.PLP.Chemscore.Metal>
0.0000

> <Gold.Chemscore.Hbonds>
donor molecule, donor type, donor heavy atom, donor atom, acceptor molecule, acceptor atom, score
      L1  H     7    36       P1  7948  0.77
      L1  H    10    37       P1  7948  0.83

> <Gold.PLP.Chemscore.Internal.Correction>
0.3657

> <Gold.Rescore>
     Score         DG    S(hbond)    S(metal)    S(lipo)     H(rot)  DE(clash)    DE(int)     intcor
     12.95     -16.12       1.02        0.00      96.65       1.60       1.06       2.11       ----

> <Gold.Chemscore.Fitness>
12.9459

> <Gold.Chemscore.DG>
-16.1154

> <Gold.Chemscore.ZeroCoef>
-5.4800

> <Gold.Chemscore.Hbond>
1.0235

> <Gold.Chemscore.Metal>
0.0000

> <Gold.Chemscore.Lipo>
96.6453

> <Gold.Chemscore.Internal_Hbond>
0.0000

> <Gold.Chemscore.DEClash>
1.0609

> <Gold.Chemscore.DEInternal>
2.1086

> <Gold.Chemscore.Rot>
1.5978

> <Gold.Chemscore.Internal.Correction>
   9.000000E+99

> <Gold.Chemscore.Hbonds>
donor molecule, donor type, donor heavy atom, donor atom, acceptor molecule, acceptor atom, score
      L1  H     7    36       P1  7948  0.48
      L1  H    10    37       P1  7948  0.14

> <Gold.Chemscore.Hbond.Weighted>
-3.4183

> <Gold.Chemscore.Metal.Weighted>
-0.0000

> <Gold.Chemscore.Lipo.Weighted>
-11.3075

> <Gold.Chemscore.Internal_Hbond.Weighted>
0.0000

> <Gold.Chemscore.DEClash.Weighted>
1.0609

> <Gold.Chemscore.DEInternal.Weighted>
2.1086

> <Gold.Chemscore.Rot.Weighted>
4.0905

> <Gold.Chemscore.Internal.Correction.Weighted>
   9.000000E+99

> <Gold.Protein.RotatedTorsions>
[ 6907 6896 6895 6894 ] final   93.69 input  -60.11 | X-H torsion
[ 7974 7965 7964 7962 ] final   57.83 input  175.53 | X-H torsion
[ 8008 7997 7996 7995 ] final  -55.69 input   59.86 | X-H torsion
[ 10167 10162 10161 10158 ] final  104.94 input  -65.29 | X-H torsion
[ 10718 10713 10712 10709 ] final  106.80 input   66.30 | X-H torsion
[ 10763 10752 10751 10750 ] final  -68.89 input  -60.55 | X-H torsion
[ 11005 11000 10999 10996 ] final   68.38 input  -57.11 | X-H torsion

> <Gold.Protein.ActiveResidues>
 VAL166  LYS551  ARG553  GLY616  TRP617  ASP618  TYR619  PRO620  LYS621  CYS622 
 ASP623  PHE694  ASN695  SER759  ASP760  ASP761  ALA762  ILE779  LEU786  VAL792 
 PHE793  MET794  SER795  GLU796  ALA797  LYS798  CYS799  TRP800  GLU811  SER814 

> <Gold.Protein.RotatedAtoms>
  152.5452  134.1309  159.8438 H   0  0  0  0  0  0  0  0  0  0  0  0  # atno 6907 bound_to 6896
  151.1354  133.5000  159.2605 H   0  0  0  0  0  0  0  0  0  0  0  0  # atno 6908 bound_to 6896
  151.1630  135.0292  159.8773 H   0  0  0  0  0  0  0  0  0  0  0  0  # atno 6909 bound_to 6896
  145.9248  139.3759  143.0457 H   0  0  0  0  0  0  0  0  0  0  0  0  # atno 7974 bound_to 7965
  154.4203  140.1147  156.5517 H   0  0  0  0  0  0  0  0  0  0  0  0  # atno 8008 bound_to 7997
  155.6403  140.3496  155.4693 H   0  0  0  0  0  0  0  0  0  0  0  0  # atno 8009 bound_to 7997
  155.9876  140.1173  157.0658 H   0  0  0  0  0  0  0  0  0  0  0  0  # atno 8010 bound_to 7997
  139.7134  144.7073  151.0989 H   0  0  0  0  0  0  0  0  0  0  0  0  # atno 10167 bound_to 10162
  157.6654  131.0858  150.6060 H   0  0  0  0  0  0  0  0  0  0  0  0  # atno 10718 bound_to 10713
  154.3955  135.6043  153.5867 H   0  0  0  0  0  0  0  0  0  0  0  0  # atno 10763 bound_to 10752
  152.9787  135.5894  154.4247 H   0  0  0  0  0  0  0  0  0  0  0  0  # atno 10764 bound_to 10752
  154.4037  135.2843  155.2058 H   0  0  0  0  0  0  0  0  0  0  0  0  # atno 10765 bound_to 10752
  139.9715  134.6893  156.0438 H   0  0  0  0  0  0  0  0  0  0  0  0  # atno 11005 bound_to 11000
  145.8503  140.9532  143.0753 LP  0  0  0  0  0  0  0  0  0  0  0  0  # atno 17320 bound_to 7965
  144.6757  140.0398  143.7481 LP  0  0  0  0  0  0  0  0  0  0  0  0  # atno 17321 bound_to 7965
  140.7738  143.5262  150.9478 LP  0  0  0  0  0  0  0  0  0  0  0  0  # atno 17342 bound_to 10162
  139.8947  143.6910  152.3140 LP  0  0  0  0  0  0  0  0  0  0  0  0  # atno 17343 bound_to 10162
  156.6361  130.4445  149.5769 LP  0  0  0  0  0  0  0  0  0  0  0  0  # atno 17370 bound_to 10713
  156.2244  130.6757  151.1401 LP  0  0  0  0  0  0  0  0  0  0  0  0  # atno 17371 bound_to 10713
  141.1394  133.6568  156.3686 LP  0  0  0  0  0  0  0  0  0  0  0  0  # atno 17394 bound_to 11000
  140.5284  134.6236  157.5342 LP  0  0  0  0  0  0  0  0  0  0  0  0  # atno 17395 bound_to 11000

$$$$
