AV-unprocessed.smi:264|AV-procd|sdf|2009|dock7
  -GOLD-   2262021203D 1   1.00000     0.00000
 Structure written by MMmdl.
 52 56  0  0  0  0  0  0  0  0  1 V2000
  147.1301  133.7080  152.1893 C   0  0  0  0  0  0  0  0  0  0  0  0
  145.6420  133.4494  152.4770 C   0  0  2  0  0  0  0  0  0  0  0  0
  145.3230  132.0721  152.2796 O   0  0  0  0  0  0  0  0  0  0  0  0
  144.2738  131.9448  151.3302 C   0  0  0  0  0  0  0  0  0  0  0  0
  143.5100  133.2577  151.4355 C   0  0  0  0  0  0  0  0  0  0  0  0
  144.6245  134.2714  151.6521 C   0  0  2  0  0  0  0  0  0  0  0  0
  145.1629  134.6207  150.3857 O   0  0  0  0  0  0  0  0  0  0  0  0
  144.1711  135.5650  152.3705 C   0  0  0  0  0  0  0  0  0  0  0  0
  145.2769  136.4129  152.7886 N   0  0  0  0  0  0  0  0  0  0  0  0
  145.9087  137.3706  152.0274 C   0  0  0  0  0  0  0  0  0  0  0  0
  146.8696  138.0157  152.6298 N   0  0  0  0  0  0  0  0  0  0  0  0
  146.9137  137.4513  153.8993 C   0  0  0  0  0  0  0  0  0  0  0  0
  147.7050  137.6833  155.0590 C   0  0  0  0  0  0  0  0  0  0  0  0
  148.6862  138.6189  155.0970 N   0  0  0  0  0  0  0  0  0  0  0  0
  148.3206  139.9172  154.5458 C   0  0  0  0  0  0  0  0  0  0  0  0
  149.3533  140.9717  154.9686 C   0  0  0  0  0  0  0  0  0  0  0  0
  150.6666  140.5542  154.5963 O   0  0  0  0  0  0  0  0  0  0  0  0
  151.0656  139.2948  155.1465 C   0  0  1  0  0  0  0  0  0  0  0  0
  152.4537  138.9666  154.6069 C   0  0  0  0  0  0  0  0  0  0  0  0
  153.1178  138.2479  155.7715 C   0  0  0  0  0  0  0  0  0  0  0  0
  152.6757  139.0020  156.8845 O   0  0  0  0  0  0  0  0  0  0  0  0
  151.3131  139.3540  156.6727 C   0  0  0  0  0  0  0  0  0  0  0  0
  150.0411  138.2099  154.7400 C   0  0  0  0  0  0  0  0  0  0  0  0
  147.4414  136.9268  156.1581 N   0  0  0  0  0  0  0  0  0  0  0  0
  146.4798  135.9996  156.1243 C   0  0  0  0  0  0  0  0  0  0  0  0
  145.6705  135.6736  155.1149 N   0  0  0  0  0  0  0  0  0  0  0  0
  145.9208  136.4375  154.0136 C   0  0  0  0  0  0  0  0  0  0  0  0
  147.3783  134.7613  152.3210 H   0  0  0  0  0  0  0  0  0  0  0  0
  147.3991  133.4209  151.1724 H   0  0  0  0  0  0  0  0  0  0  0  0
  147.7595  133.1319  152.8679 H   0  0  0  0  0  0  0  0  0  0  0  0
  145.4650  133.6377  153.5368 H   0  0  0  0  0  0  0  0  0  0  0  0
  144.7046  131.8277  150.3348 H   0  0  0  0  0  0  0  0  0  0  0  0
  143.6498  131.0751  151.5365 H   0  0  0  0  0  0  0  0  0  0  0  0
  142.8865  133.4653  150.5646 H   0  0  0  0  0  0  0  0  0  0  0  0
  142.8605  133.2182  152.3108 H   0  0  0  0  0  0  0  0  0  0  0  0
  144.5276  134.4040  149.7205 H   0  0  0  0  0  0  0  0  0  0  0  0
  143.5157  136.1505  151.7242 H   0  0  0  0  0  0  0  0  0  0  0  0
  143.5823  135.3135  153.2538 H   0  0  0  0  0  0  0  0  0  0  0  0
  145.6245  137.5844  151.0070 H   0  0  0  0  0  0  0  0  0  0  0  0
  148.2872  139.8422  153.4580 H   0  0  0  0  0  0  0  0  0  0  0  0
  147.3285  140.2270  154.8723 H   0  0  0  0  0  0  0  0  0  0  0  0
  149.1368  141.9218  154.4801 H   0  0  0  0  0  0  0  0  0  0  0  0
  149.2948  141.1531  156.0419 H   0  0  0  0  0  0  0  0  0  0  0  0
  152.4413  138.3743  153.6913 H   0  0  0  0  0  0  0  0  0  0  0  0
  153.0036  139.8857  154.3982 H   0  0  0  0  0  0  0  0  0  0  0  0
  152.7632  137.2194  155.8555 H   0  0  0  0  0  0  0  0  0  0  0  0
  154.2054  138.2366  155.6985 H   0  0  0  0  0  0  0  0  0  0  0  0
  151.1424  140.3454  157.0918 H   0  0  0  0  0  0  0  0  0  0  0  0
  150.6722  138.6536  157.2096 H   0  0  0  0  0  0  0  0  0  0  0  0
  150.2892  137.2609  155.2181 H   0  0  0  0  0  0  0  0  0  0  0  0
  150.0823  138.0470  153.6619 H   0  0  0  0  0  0  0  0  0  0  0  0
  146.3380  135.4397  157.0370 H   0  0  0  0  0  0  0  0  0  0  0  0
  1  2  1  0  0  0  0
  1 28  1  0  0  0  0
  1 29  1  0  0  0  0
  1 30  1  0  0  0  0
  2  6  1  0  0  0  0
  2  3  1  0  0  0  0
  2 31  1  0  0  0  0
  3  4  1  0  0  0  0
  4  5  1  0  0  0  0
  4 32  1  0  0  0  0
  4 33  1  0  0  0  0
  5  6  1  0  0  0  0
  5 34  1  0  0  0  0
  5 35  1  0  0  0  0
  6  7  1  0  0  0  0
  6  8  1  0  0  0  0
  7 36  1  0  0  0  0
  8  9  1  0  0  0  0
  8 37  1  0  0  0  0
  8 38  1  0  0  0  0
  9 27  1  0  0  0  0
  9 10  1  0  0  0  0
 10 11  2  0  0  0  0
 10 39  1  0  0  0  0
 11 12  1  0  0  0  0
 12 27  2  0  0  0  0
 12 13  1  0  0  0  0
 13 14  1  0  0  0  0
 13 24  2  0  0  0  0
 14 23  1  0  0  0  0
 14 15  1  0  0  0  0
 15 16  1  0  0  0  0
 15 40  1  0  0  0  0
 15 41  1  0  0  0  0
 16 17  1  0  0  0  0
 16 42  1  0  0  0  0
 16 43  1  0  0  0  0
 17 18  1  0  0  0  0
 18 22  1  0  0  0  0
 18 19  1  0  0  0  0
 18 23  1  0  0  0  0
 19 20  1  0  0  0  0
 19 44  1  0  0  0  0
 19 45  1  0  0  0  0
 20 21  1  0  0  0  0
 20 46  1  0  0  0  0
 20 47  1  0  0  0  0
 21 22  1  0  0  0  0
 22 48  1  0  0  0  0
 22 49  1  0  0  0  0
 23 50  1  0  0  0  0
 23 51  1  0  0  0  0
 24 25  1  0  0  0  0
 25 26  2  0  0  0  0
 25 52  1  0  0  0  0
 26 27  1  0  0  0  0
M  END
> <s_m_source_file>
AV-unprocessed.smi

> <i_m_source_file_index>
264

> <i_lp_mmshare_version>
43012

> <i_f3d_flags>
0

> <s_epik_input>
W0NIMl0xW0NIMl1PW0NAQEhdKFtDSDNdKVtDQEBdMShbT0hdKVtDSDJdbihbY0hdbjIpYyhjMjMpbltjSF1uYzNOKFtDSDJdNClbQ0gyXVtDSDJdT1tDQF00NVtDSDJdW0NIMl1PW0NIMl01

> <s_epik_cmdline>
J2VwaWtfcHl0aG9uJywgJy1waCcsICc3LjAnLCAnLXRuJywgJzgnLCAnLW1hJywgJzIwMCcsICctbWV0YWxfYmluZGluZycsICctaW1hZScsICc8aW5maWxlLm1hZT4nLCAnLW9tYWUnLCAnPG91dGZpbGUubWFlPic=

> <r_lp_tautomer_probability>
1

> <r_epik_Ionization_Penalty>
0.00539389

> <r_epik_Ionization_Penalty_Charging>
0

> <r_epik_Ionization_Penalty_Neutral>
0.00539389

> <r_epik_State_Penalty>
0.00375441

> <r_epik_Charging_Adjusted_Penalty>
0.00375441

> <i_epik_Tot_Q>
0

> <i_epik_Tot_abs_Q>
0

> <r_epik_Metal_State_Penalty>
-0

> <b_epik_Metal_Only>
0

> <s_lp_Force_Field>
OPLS_2005

> <r_lp_Energy>
53.6529

> <b_lp_Chiralities_Consistent>
1

> <s_lp_Variant>
AV-unprocessed.smi:264-3

> <Gold.Version>
5.8.1

> <Gold.Id.Protein>
6NUR|6NUR_protein|mol2

> <Gold.PLP.Fitness>
36.6539

> <Gold.PLP.PLP>
-31.2552

> <Gold.PLP.part.hbond>
-2.4831

> <Gold.PLP.part.metal>
0.0000

> <Gold.PLP.part.buried>
-1.7241

> <Gold.PLP.part.nonpolar>
-28.9245

> <Gold.PLP.part.repulsive>
2.4825

> <Gold.PLP.ligand.clash>
0.0000

> <Gold.PLP.ligand.torsion>
0.9604

> <Gold.PLP.Chemscore.Hbond>
1.3396

> <Gold.PLP.Chemscore.CHOScore>
1.0000

> <Gold.PLP.Chemscore.Metal>
0.0000

> <Gold.Chemscore.Hbonds>
donor molecule, donor type, donor heavy atom, donor atom, acceptor molecule, acceptor atom, score
      P1  H  7989  7998       L1    17  0.91
      P1  H  7997  8008       L1    21  0.39
      L1  C    10    39       P1 10171  1.00

> <Gold.PLP.Chemscore.Internal.Correction>
0.3006

> <Gold.Rescore>
     Score         DG    S(hbond)    S(metal)    S(lipo)     H(rot)  DE(clash)    DE(int)     intcor
      9.44     -12.36       0.99        0.00      76.78       2.11       1.08       1.84       ----

> <Gold.Chemscore.Fitness>
9.4398

> <Gold.Chemscore.DG>
-12.3630

> <Gold.Chemscore.ZeroCoef>
-5.4800

> <Gold.Chemscore.Hbond>
0.9855

> <Gold.Chemscore.Metal>
0.0000

> <Gold.Chemscore.Lipo>
76.7836

> <Gold.Chemscore.Internal_Hbond>
0.0000

> <Gold.Chemscore.DEClash>
1.0841

> <Gold.Chemscore.DEInternal>
1.8390

> <Gold.Chemscore.Rot>
2.1063

> <Gold.Chemscore.Internal.Correction>
   9.000000E+99

> <Gold.Chemscore.Hbonds>
donor molecule, donor type, donor heavy atom, donor atom, acceptor molecule, acceptor atom, score
      P1  H  7989  7998       L1    17  0.54
      P1  H  7997  8008       L1    21  0.01

> <Gold.Chemscore.Hbond.Weighted>
-3.2914

> <Gold.Chemscore.Metal.Weighted>
-0.0000

> <Gold.Chemscore.Lipo.Weighted>
-8.9837

> <Gold.Chemscore.Internal_Hbond.Weighted>
0.0000

> <Gold.Chemscore.DEClash.Weighted>
1.0841

> <Gold.Chemscore.DEInternal.Weighted>
1.8390

> <Gold.Chemscore.Rot.Weighted>
5.3921

> <Gold.Chemscore.Internal.Correction.Weighted>
   9.000000E+99

> <Gold.Protein.RotatedTorsions>
[ 6907 6896 6895 6894 ] final  -93.64 input  -60.11 | X-H torsion
[ 7974 7965 7964 7962 ] final -151.09 input  175.53 | X-H torsion
[ 8008 7997 7996 7995 ] final  -75.27 input   59.86 | X-H torsion
[ 10167 10162 10161 10158 ] final -140.65 input  -65.29 | X-H torsion
[ 10718 10713 10712 10709 ] final  -18.17 input   66.30 | X-H torsion
[ 10763 10752 10751 10750 ] final   44.47 input  -60.55 | X-H torsion
[ 11005 11000 10999 10996 ] final   94.17 input  -57.11 | X-H torsion

> <Gold.Protein.ActiveResidues>
 VAL166  LYS551  ARG553  GLY616  TRP617  ASP618  TYR619  PRO620  LYS621  CYS622 
 ASP623  PHE694  ASN695  SER759  ASP760  ASP761  ALA762  ILE779  LEU786  VAL792 
 PHE793  MET794  SER795  GLU796  ALA797  LYS798  CYS799  TRP800  GLU811  SER814 

> <Gold.Protein.RotatedAtoms>
  150.6926  134.1936  159.4294 H   0  0  0  0  0  0  0  0  0  0  0  0  # atno 6907 bound_to 6896
  151.9906  134.9979  160.0570 H   0  0  0  0  0  0  0  0  0  0  0  0  # atno 6908 bound_to 6896
  152.1671  133.4584  159.4927 H   0  0  0  0  0  0  0  0  0  0  0  0  # atno 6909 bound_to 6896
  144.7870  140.4845  143.5799 H   0  0  0  0  0  0  0  0  0  0  0  0  # atno 7974 bound_to 7965
  154.5402  140.0747  156.8496 H   0  0  0  0  0  0  0  0  0  0  0  0  # atno 8008 bound_to 7997
  155.3196  140.3395  155.4223 H   0  0  0  0  0  0  0  0  0  0  0  0  # atno 8009 bound_to 7997
  156.1867  140.1671  156.8158 H   0  0  0  0  0  0  0  0  0  0  0  0  # atno 8010 bound_to 7997
  139.8261  143.7508  152.2666 H   0  0  0  0  0  0  0  0  0  0  0  0  # atno 10167 bound_to 10162
  156.5633  130.4731  149.6396 H   0  0  0  0  0  0  0  0  0  0  0  0  # atno 10718 bound_to 10713
  152.9841  135.6070  154.3279 H   0  0  0  0  0  0  0  0  0  0  0  0  # atno 10763 bound_to 10752
  154.2984  135.2773  155.2624 H   0  0  0  0  0  0  0  0  0  0  0  0  # atno 10764 bound_to 10752
  154.4888  135.5898  153.6500 H   0  0  0  0  0  0  0  0  0  0  0  0  # atno 10765 bound_to 10752
  139.8801  134.8830  156.3825 H   0  0  0  0  0  0  0  0  0  0  0  0  # atno 11005 bound_to 11000
  145.5895  139.1494  143.3190 LP  0  0  0  0  0  0  0  0  0  0  0  0  # atno 17320 bound_to 7965
  146.2106  140.6022  142.9061 LP  0  0  0  0  0  0  0  0  0  0  0  0  # atno 17321 bound_to 7965
  139.7702  144.7479  151.0236 LP  0  0  0  0  0  0  0  0  0  0  0  0  # atno 17342 bound_to 10162
  140.7810  143.4654  151.0220 LP  0  0  0  0  0  0  0  0  0  0  0  0  # atno 17343 bound_to 10162
  156.2779  130.7054  151.1870 LP  0  0  0  0  0  0  0  0  0  0  0  0  # atno 17370 bound_to 10713
  157.7364  131.0563  150.5417 LP  0  0  0  0  0  0  0  0  0  0  0  0  # atno 17371 bound_to 10713
  140.9389  133.7528  156.0120 LP  0  0  0  0  0  0  0  0  0  0  0  0  # atno 17394 bound_to 11000
  140.8243  134.3253  157.5371 LP  0  0  0  0  0  0  0  0  0  0  0  0  # atno 17395 bound_to 11000

$$$$
