#       Name:                AV-unprocessed.smi:1669
#       Creating user name   scv26
#       Creation time:       Fri Mar 27 07:40:13 2020


#       File generated by GOLD software.
#

@<TRIPOS>MOLECULE
AV-unprocessed.smi:1669
    53    55     1
SMALL
NO_CHARGES


@<TRIPOS>ATOM
      1 ****        -3.2289   0.2932  -0.3842 C.3            1 S1                 0.0000
      2 ****        -1.7692   0.4558  -0.5792 N.4            1 S1                 1.0000
      3 ****        -1.1477   1.3349   0.4454 C.3            1 S1                 0.0000
      4 ****        -1.5233   2.7917   0.2454 C.ar           1 S1                 0.0000
      5 ****        -0.9025   3.5444  -0.7735 C.ar           1 S1                 0.0000
      6 ****        -1.2501   4.8956  -0.9664 C.ar           1 S1                 0.0000
      7 ****        -2.2175   5.4994  -0.1401 C.ar           1 S1                 0.0000
      8 ****        -2.8366   4.7520   0.8805 C.ar           1 S1                 0.0000
      9 ****        -2.4898   3.4008   1.0740 C.ar           1 S1                 0.0000
     10 ****        -1.0747  -0.8492  -0.7132 C.3            1 S1                 0.0000
     11 ****         0.1827  -0.7432  -1.6043 C.3            1 S1                 0.0000
     12 ****        -0.2231  -0.5333  -2.9414 O.3            1 S1                 0.0000
     13 ****         1.0802  -1.9960  -1.5680 C.3            1 S1                 0.0000
     14 ****         1.5516  -2.3021  -0.2236 N.pl3          1 S1                 0.0000
     15 ****         1.1851  -3.3235   0.5929 C.2            1 S1                 0.0000
     16 ****         0.1775  -4.3554   0.1883 C.3            1 S1                 0.0000
     17 ****         0.6925  -5.2842  -0.7412 O.3            1 S1                 0.0000
     18 ****         1.7744  -3.3494   1.7885 N.2            1 S1                 0.0000
     19 ****         2.6109  -2.2517   1.7405 C.ar           1 S1                 0.0000
     20 ****         3.5054  -1.7354   2.7050 C.ar           1 S1                 0.0000
     21 ****         4.2667  -0.5814   2.4264 C.ar           1 S1                 0.0000
     22 ****         4.1466   0.0701   1.1819 C.ar           1 S1                 0.0000
     23 ****         3.2612  -0.4279   0.2071 C.ar           1 S1                 0.0000
     24 ****         2.5002  -1.5776   0.4917 C.ar           1 S1                 0.0000
     25 ****        -3.4435  -0.2070   0.5611 H              1 S1                 0.0000
     26 ****        -3.6622  -0.2992  -1.1907 H              1 S1                 0.0000
     27 ****        -3.7383   1.2568  -0.3854 H              1 S1                 0.0000
     28 ****        -1.4308   1.0015   1.4453 H              1 S1                 0.0000
     29 ****        -0.0605   1.2682   0.4037 H              1 S1                 0.0000
     30 ****        -0.1599   3.0869  -1.4112 H              1 S1                 0.0000
     31 ****        -0.7749   5.4690  -1.7486 H              1 S1                 0.0000
     32 ****        -2.4839   6.5357  -0.2883 H              1 S1                 0.0000
     33 ****        -3.5781   5.2152   1.5149 H              1 S1                 0.0000
     34 ****        -2.9703   2.8342   1.8582 H              1 S1                 0.0000
     35 ****        -0.8285  -1.2090   0.2865 H              1 S1                 0.0000
     36 ****        -1.7433  -1.5966  -1.1435 H              1 S1                 0.0000
     37 ****         0.7819   0.1171  -1.3090 H              1 S1                 0.0000
     38 ****        -0.6601  -1.3118  -3.2527 H              1 S1                 0.0000
     39 ****         0.5509  -2.8546  -1.9795 H              1 S1                 0.0000
     40 ****         1.9547  -1.8476  -2.2032 H              1 S1                 0.0000
     41 ****        -0.1579  -4.8987   1.0725 H              1 S1                 0.0000
     42 ****        -0.7020  -3.8673  -0.2315 H              1 S1                 0.0000
     43 ****         0.0286  -5.9331  -0.9183 H              1 S1                 0.0000
     44 ****         3.6072  -2.2282   3.6606 H              1 S1                 0.0000
     45 ****         4.9480  -0.1956   3.1707 H              1 S1                 0.0000
     46 ****         4.7361   0.9516   0.9758 H              1 S1                 0.0000
     47 ****         3.1707   0.0679  -0.7481 H              1 S1                 0.0000
     48 ****        -1.6541   0.9190  -1.4699 H              1 S1                 0.0000
     49 ****         0.5778  -0.3471  -3.5105 LP             1 S1                 0.0000
     50 ****        -0.8505   0.2442  -2.9842 LP             1 S1                 0.0000
     51 ****         1.5038  -5.7276  -0.3602 LP             1 S1                 0.0000
     52 ****         0.9372  -4.8127  -1.5884 LP             1 S1                 0.0000
     53 ****         1.6432  -4.0019   2.5348 LP             1 S1                 0.0000
@<TRIPOS>BOND
    1    1    2 1     
    2    1   25 1     
    3    1   26 1     
    4    1   27 1     
    5    2    3 1     
    6    2   10 1     
    7    2   48 1     
    8    3    4 1     
    9    3   28 1     
   10    3   29 1     
   11    4    9 ar    
   12    4    5 ar    
   13    5    6 ar    
   14    5   30 1     
   15    6    7 ar    
   16    6   31 1     
   17    7    8 ar    
   18    7   32 1     
   19    8    9 ar    
   20    8   33 1     
   21    9   34 1     
   22   10   11 1     
   23   10   35 1     
   24   10   36 1     
   25   11   12 1     
   26   11   13 1     
   27   11   37 1     
   28   12   38 1     
   29   13   14 1     
   30   13   39 1     
   31   13   40 1     
   32   14   24 1     
   33   14   15 1     
   34   15   16 1     
   35   15   18 2     
   36   16   17 1     
   37   16   41 1     
   38   16   42 1     
   39   17   43 1     
   40   18   19 1     
   41   19   24 ar    
   42   19   20 ar    
   43   20   21 ar    
   44   20   44 1     
   45   21   22 ar    
   46   21   45 1     
   47   22   23 ar    
   48   22   46 1     
   49   23   24 ar    
   50   23   47 1     
   51   12   49 1     
   52   12   50 1     
   53   17   51 1     
   54   17   52 1     
   55   18   53 1     
@<TRIPOS>SUBSTRUCTURE
      1 S1             1
@<TRIPOS>SET
LONE_PAIRS      STATIC     ATOMS    <user>   **** ""
5 49 50 51 52 53
DONOR_HYDROGENS      STATIC     ATOMS    <user>   **** ""
3 48 38 43
ATOM$BLUE        STATIC     ATOMS    COLORGROUP SYSTEM
5 49 50 51 52 53
ATOM$RED        STATIC     ATOMS    COLORGROUP SYSTEM
3 48 38 43
