#       Name:                AV-unprocessed.smi:72
#       Creating user name   scv26
#       Creation time:       Thu Mar 26 16:59:22 2020


#       File generated by GOLD software.
#

@<TRIPOS>MOLECULE
AV-unprocessed.smi:72
    41    42     1
SMALL
NO_CHARGES


@<TRIPOS>ATOM
      1 ****        -2.3165   4.5617   0.7478 N.2            1 S1                 0.0000
      2 ****        -1.8428   3.4090   0.4360 C.2            1 S1                 0.0000
      3 ****        -0.5165   2.9961   0.6326 N.2            1 S1                 0.0000
      4 ****        -0.1799   1.7971   0.2680 C.2            1 S1                 0.0000
      5 ****        -1.1271   0.8765  -0.3415 N.am           1 S1                 0.0000
      6 ****        -0.7044  -0.5191  -0.7508 C.3            1 S1                 0.0000
      7 ****         0.5901  -0.4645  -1.2731 O.3            1 S1                 0.0000
      8 ****         1.3301  -1.5896  -0.8153 C.3            1 S1                 0.0000
      9 ****         2.8439  -1.3415  -0.9401 C.3            1 S1                 0.0000
     10 ****         3.5631  -2.4947  -0.5574 O.3            1 S1                 0.0000
     11 ****         0.7781  -1.8492   0.5945 C.3            1 S1                 0.0000
     12 ****         1.4118  -1.0201   1.5542 O.3            1 S1                 0.0000
     13 ****        -0.7037  -1.5252   0.4215 C.3            1 S1                 0.0000
     14 ****        -1.3308  -1.0862   1.6152 O.3            1 S1                 0.0000
     15 ****        -2.4724   1.2751  -0.5373 C.2            1 S1                 0.0000
     16 ****        -3.3215   0.5308  -1.0271 O.2            1 S1                 0.0000
     17 ****        -2.7691   2.5324  -0.1433 N.am           1 S1                 0.0000
     18 ****        -1.3732  -0.8241  -1.5566 H              1 S1                 0.0000
     19 ****         1.0544  -2.4296  -1.4561 H              1 S1                 0.0000
     20 ****         0.9272  -2.8862   0.8976 H              1 S1                 0.0000
     21 ****        -1.2218  -2.4194   0.0725 H              1 S1                 0.0000
     22 ****        -3.2959   4.6106   0.5059 H              1 S1                 0.0000
     23 ****         0.8291   1.4034   0.3950 H              1 S1                 0.0000
     24 ****         3.0967  -1.1075  -1.9745 H              1 S1                 0.0000
     25 ****         3.1629  -0.4908  -0.3375 H              1 S1                 0.0000
     26 ****         4.4855  -2.3265  -0.6761 H              1 S1                 0.0000
     27 ****         2.3296  -1.2437   1.5817 H              1 S1                 0.0000
     28 ****        -1.2118  -1.7493   2.2777 H              1 S1                 0.0000
     29 ****        -3.7190   2.8507  -0.2680 H              1 S1                 0.0000
     30 ****        -1.7923   5.3022   1.1685 LP             1 S1                 0.0000
     31 ****         0.1548   3.6123   1.0447 LP             1 S1                 0.0000
     32 ****         1.0379   0.3762  -0.9685 LP             1 S1                 0.0000
     33 ****         0.5479  -0.4765  -2.2721 LP             1 S1                 0.0000
     34 ****         3.2857  -3.2692  -1.1258 LP             1 S1                 0.0000
     35 ****         3.3793  -2.7034   0.4032 LP             1 S1                 0.0000
     36 ****         1.0007  -1.1692   2.4536 LP             1 S1                 0.0000
     37 ****         1.3056  -0.0603   1.2942 LP             1 S1                 0.0000
     38 ****        -2.3070  -0.9447   1.4511 LP             1 S1                 0.0000
     39 ****        -0.9160  -0.2282   1.9184 LP             1 S1                 0.0000
     40 ****        -3.0726  -0.3970  -1.3049 LP             1 S1                 0.0000
     41 ****        -4.2602   0.8539  -1.1471 LP             1 S1                 0.0000
@<TRIPOS>BOND
    1    1    2 2     
    2    1   22 1     
    3    2   17 1     
    4    2    3 1     
    5    3    4 2     
    6    4    5 1     
    7    4   23 1     
    8    5    6 1     
    9    5   15 am    
   10    6   18 1     
   11    6   13 1     
   12    6    7 1     
   13    7    8 1     
   14    8   19 1     
   15    8    9 1     
   16    8   11 1     
   17    9   10 1     
   18    9   24 1     
   19    9   25 1     
   20   10   26 1     
   21   11   20 1     
   22   11   12 1     
   23   11   13 1     
   24   12   27 1     
   25   13   21 1     
   26   13   14 1     
   27   14   28 1     
   28   15   16 2     
   29   15   17 am    
   30   17   29 1     
   31    1   30 1     
   32    3   31 1     
   33    7   32 1     
   34    7   33 1     
   35   10   34 1     
   36   10   35 1     
   37   12   36 1     
   38   12   37 1     
   39   14   38 1     
   40   14   39 1     
   41   16   40 1     
   42   16   41 1     
@<TRIPOS>SUBSTRUCTURE
      1 S1             1
@<TRIPOS>SET
LONE_PAIRS      STATIC     ATOMS    <user>   **** ""
12 30 31 32 33 34 35 36 37 38 39 40 41
DONOR_HYDROGENS      STATIC     ATOMS    <user>   **** ""
5 22 26 27 28 29
ATOM$BLUE        STATIC     ATOMS    COLORGROUP SYSTEM
12 30 31 32 33 34 35 36 37 38 39 40 41
ATOM$RED        STATIC     ATOMS    COLORGROUP SYSTEM
5 22 26 27 28 29
