AV-unprocessed.smi:2473|AV-procd|sdf|9747|dock4
  -GOLD-   2272013393D 1   1.00000     0.00000
 Structure written by MMmdl.
 47 48  0  0  0  0  0  0  0  0  1 V2000
  145.4042  139.8576  157.1553 C   0  0  0  0  0  0  0  0  0  0  0  0
  146.4868  139.9610  156.0713 C   0  0  2  0  0  0  0  0  0  0  0  0
  146.7895  141.4342  155.7326 C   0  0  0  0  0  0  0  0  0  0  0  0
  147.8414  141.6080  154.6145 C   0  0  1  0  0  0  0  0  0  0  0  0
  149.2970  141.4681  155.0968 C   0  0  0  0  0  0  0  0  0  0  0  0
  150.0100  140.5414  154.7123 O   0  0  0  0  0  0  0  0  0  0  0  0
  149.7056  142.3739  156.0001 N   0  0  0  0  0  0  0  0  0  0  0  0
  151.0068  142.3876  156.6635 C   0  0  0  0  0  0  0  0  0  0  0  0
  151.1435  143.5437  157.6741 C   0  0  0  0  0  0  0  0  0  0  0  0
  151.7686  143.1437  158.9783 C   0  0  0  0  0  0  0  0  0  0  0  0
  152.2629  141.9312  159.2090 N   0  0  0  0  0  0  0  0  0  0  0  0
  152.7061  141.9715  160.5261 C   0  0  0  0  0  0  0  0  0  0  0  0
  152.4668  143.2191  161.0491 C   0  0  0  0  0  0  0  0  0  0  0  0
  151.8655  143.9645  160.0438 N   0  0  0  0  0  0  0  0  0  0  0  0
  151.4386  145.3463  160.1544 C   0  0  0  0  0  0  0  0  0  0  0  0
  147.5067  140.7337  153.3802 C   0  0  0  0  0  0  0  0  0  0  0  0
  147.1253  139.2544  153.6626 C   0  0  0  0  0  0  0  0  0  0  0  0
  146.4940  138.6672  152.3835 C   0  0  0  0  0  0  0  0  0  0  0  0
  148.3591  138.3869  153.9948 C   0  0  0  0  0  0  0  0  0  0  0  0
  146.0771  139.1906  154.8005 C   0  0  0  0  0  0  0  0  0  0  0  0
  144.4622  140.2921  156.8195 H   0  0  0  0  0  0  0  0  0  0  0  0
  145.7074  140.3808  158.0624 H   0  0  0  0  0  0  0  0  0  0  0  0
  145.2145  138.8180  157.4233 H   0  0  0  0  0  0  0  0  0  0  0  0
  147.3834  139.4999  156.4831 H   0  0  0  0  0  0  0  0  0  0  0  0
  145.8662  141.9227  155.4182 H   0  0  0  0  0  0  0  0  0  0  0  0
  147.1088  141.9635  156.6321 H   0  0  0  0  0  0  0  0  0  0  0  0
  147.7616  142.6471  154.2903 H   0  0  0  0  0  0  0  0  0  0  0  0
  149.0533  143.0962  156.2687 H   0  0  0  0  0  0  0  0  0  0  0  0
  151.2001  141.4325  157.1545 H   0  0  0  0  0  0  0  0  0  0  0  0
  151.7705  142.4913  155.8928 H   0  0  0  0  0  0  0  0  0  0  0  0
  151.7580  144.3301  157.2346 H   0  0  0  0  0  0  0  0  0  0  0  0
  150.1692  143.9975  157.8548 H   0  0  0  0  0  0  0  0  0  0  0  0
  153.1581  141.1080  160.9910 H   0  0  0  0  0  0  0  0  0  0  0  0
  152.6688  143.6263  162.0287 H   0  0  0  0  0  0  0  0  0  0  0  0
  151.5737  145.7003  161.1768 H   0  0  0  0  0  0  0  0  0  0  0  0
  150.3852  145.4353  159.8913 H   0  0  0  0  0  0  0  0  0  0  0  0
  152.0312  145.9691  159.4843 H   0  0  0  0  0  0  0  0  0  0  0  0
  146.6661  141.2131  152.8763 H   0  0  0  0  0  0  0  0  0  0  0  0
  148.3238  140.7724  152.6583 H   0  0  0  0  0  0  0  0  0  0  0  0
  146.1957  137.6280  152.5268 H   0  0  0  0  0  0  0  0  0  0  0  0
  147.1928  138.6953  151.5469 H   0  0  0  0  0  0  0  0  0  0  0  0
  145.6035  139.2206  152.0830 H   0  0  0  0  0  0  0  0  0  0  0  0
  148.0866  137.3347  154.0824 H   0  0  0  0  0  0  0  0  0  0  0  0
  148.8323  138.6617  154.9336 H   0  0  0  0  0  0  0  0  0  0  0  0
  149.1169  138.4614  153.2144 H   0  0  0  0  0  0  0  0  0  0  0  0
  145.8715  138.1495  155.0525 H   0  0  0  0  0  0  0  0  0  0  0  0
  145.1322  139.6009  154.4406 H   0  0  0  0  0  0  0  0  0  0  0  0
  1  2  1  0  0  0  0
  1 21  1  0  0  0  0
  1 22  1  0  0  0  0
  1 23  1  0  0  0  0
  2 20  1  0  0  0  0
  2  3  1  0  0  0  0
  2 24  1  0  0  0  0
  3  4  1  0  0  0  0
  3 25  1  0  0  0  0
  3 26  1  0  0  0  0
  4  5  1  0  0  0  0
  4 16  1  0  0  0  0
  4 27  1  0  0  0  0
  5  6  2  0  0  0  0
  5  7  1  0  0  0  0
  7  8  1  0  0  0  0
  7 28  1  0  0  0  0
  8  9  1  0  0  0  0
  8 29  1  0  0  0  0
  8 30  1  0  0  0  0
  9 10  1  0  0  0  0
  9 31  1  0  0  0  0
  9 32  1  0  0  0  0
 10 14  1  0  0  0  0
 10 11  2  0  0  0  0
 11 12  1  0  0  0  0
 12 13  2  0  0  0  0
 12 33  1  0  0  0  0
 13 14  1  0  0  0  0
 13 34  1  0  0  0  0
 14 15  1  0  0  0  0
 15 35  1  0  0  0  0
 15 36  1  0  0  0  0
 15 37  1  0  0  0  0
 16 17  1  0  0  0  0
 16 38  1  0  0  0  0
 16 39  1  0  0  0  0
 17 18  1  0  0  0  0
 17 19  1  0  0  0  0
 17 20  1  0  0  0  0
 18 40  1  0  0  0  0
 18 41  1  0  0  0  0
 18 42  1  0  0  0  0
 19 43  1  0  0  0  0
 19 44  1  0  0  0  0
 19 45  1  0  0  0  0
 20 46  1  0  0  0  0
 20 47  1  0  0  0  0
M  END
> <s_m_source_file>
AV-unprocessed.smi

> <i_m_source_file_index>
2473

> <i_lp_mmshare_version>
43012

> <i_f3d_flags>
0

> <s_epik_input>
W0NIM11bQ0BASF0oW0NIMl0xKVtDSDJdW0NASF0oW0NIMl1DMShbQ0gzXSlbQ0gzXSlDKD1PKVtOSF1bQ0gyXVtDSDJdYzJuW2NIXVtjSF1uMltDSDNd

> <s_epik_cmdline>
J2VwaWtfcHl0aG9uJywgJy1waCcsICc3LjAnLCAnLXRuJywgJzgnLCAnLW1hJywgJzIwMCcsICctbWV0YWxfYmluZGluZycsICctaW1hZScsICc8aW5maWxlLm1hZT4nLCAnLW9tYWUnLCAnPG91dGZpbGUubWFlPic=

> <r_lp_tautomer_probability>
1

> <r_epik_Ionization_Penalty>
1.22858

> <r_epik_Ionization_Penalty_Charging>
1.22858

> <r_epik_Ionization_Penalty_Neutral>
2.12671e-08

> <r_epik_State_Penalty>
1.2965

> <r_epik_Charging_Adjusted_Penalty>
2.52508

> <i_epik_Tot_Q>
0

> <i_epik_Tot_abs_Q>
0

> <r_epik_Metal_State_Penalty>
0.411461

> <b_epik_Metal_Only>
0

> <s_lp_Force_Field>
OPLS_2005

> <r_lp_Energy>
14.2462

> <b_lp_Chiralities_Consistent>
1

> <s_lp_Variant>
AV-unprocessed.smi:2473-5

> <Gold.Version>
5.8.1

> <Gold.Id.Protein>
6NUR|6NUR_protein|mol2

> <Gold.PLP.Fitness>
46.6141

> <Gold.PLP.PLP>
-41.9793

> <Gold.PLP.part.hbond>
-2.0000

> <Gold.PLP.part.metal>
0.0000

> <Gold.PLP.part.buried>
-4.7095

> <Gold.PLP.part.nonpolar>
-36.2996

> <Gold.PLP.part.repulsive>
0.2488

> <Gold.PLP.ligand.clash>
0.0000

> <Gold.PLP.ligand.torsion>
0.5204

> <Gold.PLP.Chemscore.Hbond>
1.8560

> <Gold.PLP.Chemscore.CHOScore>
0.0000

> <Gold.PLP.Chemscore.Metal>
0.0000

> <Gold.Chemscore.Hbonds>
donor molecule, donor type, donor heavy atom, donor atom, acceptor molecule, acceptor atom, score
      L1  H     7    28       P1  8028  0.61
      P1  H  7989  7998       L1     6  0.84

> <Gold.PLP.Chemscore.Internal.Correction>
0.1076

> <Gold.Rescore>
     Score         DG    S(hbond)    S(metal)    S(lipo)     H(rot)  DE(clash)    DE(int)     intcor
     15.49     -17.89       1.64        0.00      92.32       1.51       0.43       1.98       ----

> <Gold.Chemscore.Fitness>
15.4885

> <Gold.Chemscore.DG>
-17.8942

> <Gold.Chemscore.ZeroCoef>
-5.4800

> <Gold.Chemscore.Hbond>
1.6408

> <Gold.Chemscore.Metal>
0.0000

> <Gold.Chemscore.Lipo>
92.3229

> <Gold.Chemscore.Internal_Hbond>
0.0000

> <Gold.Chemscore.DEClash>
0.4285

> <Gold.Chemscore.DEInternal>
1.9771

> <Gold.Chemscore.Rot>
1.5109

> <Gold.Chemscore.Internal.Correction>
   9.000000E+99

> <Gold.Chemscore.Hbonds>
donor molecule, donor type, donor heavy atom, donor atom, acceptor molecule, acceptor atom, score
      L1  H     7    28       P1  8028  0.60
      P1  H  7989  7998       L1     6  0.78

> <Gold.Chemscore.Hbond.Weighted>
-5.4804

> <Gold.Chemscore.Metal.Weighted>
-0.0000

> <Gold.Chemscore.Lipo.Weighted>
-10.8018

> <Gold.Chemscore.Internal_Hbond.Weighted>
0.0000

> <Gold.Chemscore.DEClash.Weighted>
0.4285

> <Gold.Chemscore.DEInternal.Weighted>
1.9771

> <Gold.Chemscore.Rot.Weighted>
3.8680

> <Gold.Chemscore.Internal.Correction.Weighted>
   9.000000E+99

> <Gold.Protein.RotatedTorsions>
[ 6907 6896 6895 6894 ] final  -16.56 input  -60.11 | X-H torsion
[ 7974 7965 7964 7962 ] final   32.78 input  175.53 | X-H torsion
[ 8008 7997 7996 7995 ] final  131.45 input   59.86 | X-H torsion
[ 10167 10162 10161 10158 ] final  144.37 input  -65.29 | X-H torsion
[ 10718 10713 10712 10709 ] final  -28.10 input   66.30 | X-H torsion
[ 10763 10752 10751 10750 ] final  122.59 input  -60.55 | X-H torsion
[ 11005 11000 10999 10996 ] final -116.05 input  -57.11 | X-H torsion

> <Gold.Protein.ActiveResidues>
 VAL166  LYS551  ARG553  GLY616  TRP617  ASP618  TYR619  PRO620  LYS621  CYS622 
 ASP623  PHE694  ASN695  SER759  ASP760  ASP761  ALA762  ILE779  LEU786  VAL792 
 PHE793  MET794  SER795  GLU796  ALA797  LYS798  CYS799  TRP800  GLU811  SER814 

> <Gold.Protein.RotatedAtoms>
  151.3068  135.0783  159.9257 H   0  0  0  0  0  0  0  0  0  0  0  0  # atno 6907 bound_to 6896
  152.5286  133.9777  159.7802 H   0  0  0  0  0  0  0  0  0  0  0  0  # atno 6908 bound_to 6896
  151.0073  133.5947  159.2717 H   0  0  0  0  0  0  0  0  0  0  0  0  # atno 6909 bound_to 6896
  146.1464  139.6481  142.9128 H   0  0  0  0  0  0  0  0  0  0  0  0  # atno 7974 bound_to 7965
  156.2970  140.2571  156.2928 H   0  0  0  0  0  0  0  0  0  0  0  0  # atno 8008 bound_to 7997
  154.9493  140.0394  157.2154 H   0  0  0  0  0  0  0  0  0  0  0  0  # atno 8009 bound_to 7997
  154.8051  140.2835  155.5897 H   0  0  0  0  0  0  0  0  0  0  0  0  # atno 8010 bound_to 7997
  139.4948  144.5977  151.6548 H   0  0  0  0  0  0  0  0  0  0  0  0  # atno 10167 bound_to 10162
  156.4296  130.4442  149.7127 H   0  0  0  0  0  0  0  0  0  0  0  0  # atno 10718 bound_to 10713
  153.6322  135.3394  155.3045 H   0  0  0  0  0  0  0  0  0  0  0  0  # atno 10763 bound_to 10752
  154.8578  135.4298  154.2093 H   0  0  0  0  0  0  0  0  0  0  0  0  # atno 10764 bound_to 10752
  153.2992  135.7023  153.7293 H   0  0  0  0  0  0  0  0  0  0  0  0  # atno 10765 bound_to 10752
  141.0448  133.9780  157.2936 H   0  0  0  0  0  0  0  0  0  0  0  0  # atno 11005 bound_to 11000
  145.4928  141.0438  143.2584 LP  0  0  0  0  0  0  0  0  0  0  0  0  # atno 17320 bound_to 7965
  144.7851  139.6444  143.7137 LP  0  0  0  0  0  0  0  0  0  0  0  0  # atno 17321 bound_to 7965
  140.5619  144.0255  150.6173 LP  0  0  0  0  0  0  0  0  0  0  0  0  # atno 17342 bound_to 10162
  140.3343  143.3058  152.0654 LP  0  0  0  0  0  0  0  0  0  0  0  0  # atno 17343 bound_to 10162
  156.4035  130.7686  151.2695 LP  0  0  0  0  0  0  0  0  0  0  0  0  # atno 17370 bound_to 10713
  157.7508  131.0233  150.3827 LP  0  0  0  0  0  0  0  0  0  0  0  0  # atno 17371 bound_to 10713
  139.9303  135.0200  156.8377 LP  0  0  0  0  0  0  0  0  0  0  0  0  # atno 17394 bound_to 11000
  140.6168  134.0031  155.7600 LP  0  0  0  0  0  0  0  0  0  0  0  0  # atno 17395 bound_to 11000

$$$$
