AV-unprocessed.smi:1671|AV-procd|sdf|6699|dock7
  -GOLD-   22720 7433D 1   1.00000     0.00000
 Structure written by MMmdl.
 44 45  0  0  0  0  0  0  0  0  1 V2000
  151.2451  133.2068  154.2321 C   0  0  0  0  0  0  0  0  0  0  0  0
  149.7753  134.0851  153.6347 S   0  0  0  0  0  0  0  0  0  0  0  0
  149.5516  135.3210  154.9490 C   0  0  2  0  0  0  0  0  0  0  0  0
  148.1401  135.9344  154.9084 C   0  0  0  0  0  0  0  0  0  0  0  0
  150.6462  136.3933  154.8774 C   0  0  0  0  0  0  0  0  0  0  0  0
  151.4685  136.5160  155.7864 O   0  0  0  0  0  0  0  0  0  0  0  0
  150.6394  137.1748  153.7875 N   0  0  0  0  0  0  0  0  0  0  0  0
  151.5751  138.2654  153.5464 C   0  0  0  0  0  0  0  0  0  0  0  0
  151.6856  139.2123  154.7278 C   0  0  0  0  0  0  0  0  0  0  0  0
  150.6568  140.1246  155.0366 C   0  0  0  0  0  0  0  0  0  0  0  0
  150.8155  140.9861  156.1388 C   0  0  0  0  0  0  0  0  0  0  0  0
  152.0010  140.9132  156.9099 C   0  0  0  0  0  0  0  0  0  0  0  0
  152.1853  141.7632  158.0239 N   0  0  0  0  0  0  0  0  0  0  0  0
  152.4100  141.1448  159.3297 C   0  0  0  0  0  0  0  0  0  0  0  0
  152.8900  142.1942  160.3455 C   0  0  0  0  0  0  0  0  0  0  0  0
  151.9616  143.2719  160.3962 O   0  0  0  0  0  0  0  0  0  0  0  0
  151.8445  143.9372  159.1418 C   0  0  2  0  0  0  0  0  0  0  0  0
  150.9033  145.1333  159.3183 C   0  0  0  0  0  0  0  0  0  0  0  0
  151.3249  142.9429  158.0850 C   0  0  0  0  0  0  0  0  0  0  0  0
  152.9926  140.0411  156.5988 N   0  0  0  0  0  0  0  0  0  0  0  0
  152.8372  139.2196  155.5394 C   0  0  0  0  0  0  0  0  0  0  0  0
  151.5528  132.4575  153.5029 H   0  0  0  0  0  0  0  0  0  0  0  0
  151.0384  132.6999  155.1743 H   0  0  0  0  0  0  0  0  0  0  0  0
  152.0722  133.9010  154.3815 H   0  0  0  0  0  0  0  0  0  0  0  0
  149.6686  134.8058  155.9036 H   0  0  0  0  0  0  0  0  0  0  0  0
  148.0292  136.7252  155.6513 H   0  0  0  0  0  0  0  0  0  0  0  0
  147.3771  135.1864  155.1219 H   0  0  0  0  0  0  0  0  0  0  0  0
  147.9183  136.3622  153.9299 H   0  0  0  0  0  0  0  0  0  0  0  0
  149.9271  137.0164  153.0897 H   0  0  0  0  0  0  0  0  0  0  0  0
  152.5547  137.8468  153.3115 H   0  0  0  0  0  0  0  0  0  0  0  0
  151.2563  138.8423  152.6767 H   0  0  0  0  0  0  0  0  0  0  0  0
  149.7603  140.1716  154.4360 H   0  0  0  0  0  0  0  0  0  0  0  0
  150.0367  141.6985  156.3647 H   0  0  0  0  0  0  0  0  0  0  0  0
  151.4822  140.6871  159.6759 H   0  0  0  0  0  0  0  0  0  0  0  0
  153.1569  140.3537  159.2536 H   0  0  0  0  0  0  0  0  0  0  0  0
  152.9699  141.7474  161.3366 H   0  0  0  0  0  0  0  0  0  0  0  0
  153.8822  142.5647  160.0827 H   0  0  0  0  0  0  0  0  0  0  0  0
  152.8258  144.3105  158.8424 H   0  0  0  0  0  0  0  0  0  0  0  0
  150.7878  145.6837  158.3842 H   0  0  0  0  0  0  0  0  0  0  0  0
  151.2899  145.8261  160.0661 H   0  0  0  0  0  0  0  0  0  0  0  0
  149.9129  144.8121  159.6424 H   0  0  0  0  0  0  0  0  0  0  0  0
  151.2666  143.4519  157.1244 H   0  0  0  0  0  0  0  0  0  0  0  0
  150.3122  142.6236  158.3356 H   0  0  0  0  0  0  0  0  0  0  0  0
  153.6578  138.5467  155.3385 H   0  0  0  0  0  0  0  0  0  0  0  0
  1  2  1  0  0  0  0
  1 22  1  0  0  0  0
  1 23  1  0  0  0  0
  1 24  1  0  0  0  0
  2  3  1  0  0  0  0
  3  4  1  0  0  0  0
  3  5  1  0  0  0  0
  3 25  1  0  0  0  0
  4 26  1  0  0  0  0
  4 27  1  0  0  0  0
  4 28  1  0  0  0  0
  5  6  2  0  0  0  0
  5  7  1  0  0  0  0
  7  8  1  0  0  0  0
  7 29  1  0  0  0  0
  8  9  1  0  0  0  0
  8 30  1  0  0  0  0
  8 31  1  0  0  0  0
  9 21  1  0  0  0  0
  9 10  2  0  0  0  0
 10 11  1  0  0  0  0
 10 32  1  0  0  0  0
 11 12  2  0  0  0  0
 11 33  1  0  0  0  0
 12 13  1  0  0  0  0
 12 20  1  0  0  0  0
 13 19  1  0  0  0  0
 13 14  1  0  0  0  0
 14 15  1  0  0  0  0
 14 34  1  0  0  0  0
 14 35  1  0  0  0  0
 15 16  1  0  0  0  0
 15 36  1  0  0  0  0
 15 37  1  0  0  0  0
 16 17  1  0  0  0  0
 17 18  1  0  0  0  0
 17 19  1  0  0  0  0
 17 38  1  0  0  0  0
 18 39  1  0  0  0  0
 18 40  1  0  0  0  0
 18 41  1  0  0  0  0
 19 42  1  0  0  0  0
 19 43  1  0  0  0  0
 20 21  2  0  0  0  0
 21 44  1  0  0  0  0
M  END
> <s_m_source_file>
AV-unprocessed.smi

> <i_m_source_file_index>
1671

> <i_lp_mmshare_version>
43012

> <i_f3d_flags>
0

> <s_epik_input>
W0NIM11TW0NASF0oW0NIM10pQyg9TylbTkhdW0NIMl1jMVtjSF1bY0hdYyhuW2NIXTEpTjJbQ0gyXVtDSDJdT1tDQEBIXShbQ0gzXSlbQ0gyXTI=

> <s_epik_cmdline>
J2VwaWtfcHl0aG9uJywgJy1waCcsICc3LjAnLCAnLXRuJywgJzgnLCAnLW1hJywgJzIwMCcsICctbWV0YWxfYmluZGluZycsICctaW1hZScsICc8aW5maWxlLm1hZT4nLCAnLW9tYWUnLCAnPG91dGZpbGUubWFlPic=

> <r_lp_tautomer_probability>
1

> <r_epik_Ionization_Penalty>
0.00480033

> <r_epik_Ionization_Penalty_Charging>
0

> <r_epik_Ionization_Penalty_Neutral>
0.00480033

> <r_epik_State_Penalty>
0.00347981

> <r_epik_Charging_Adjusted_Penalty>
0.00347981

> <i_epik_Tot_Q>
0

> <i_epik_Tot_abs_Q>
0

> <r_epik_Metal_State_Penalty>
-0

> <b_epik_Metal_Only>
0

> <s_lp_Force_Field>
OPLS_2005

> <r_lp_Energy>
17.324

> <b_lp_Chiralities_Consistent>
1

> <s_lp_Variant>
AV-unprocessed.smi:1671-3

> <Gold.Version>
5.8.1

> <Gold.Id.Protein>
6NUR|6NUR_protein|mol2

> <Gold.PLP.Fitness>
46.0514

> <Gold.PLP.PLP>
-40.7685

> <Gold.PLP.part.hbond>
-2.7481

> <Gold.PLP.part.metal>
0.0000

> <Gold.PLP.part.buried>
-3.0966

> <Gold.PLP.part.nonpolar>
-34.8304

> <Gold.PLP.part.repulsive>
0.1043

> <Gold.PLP.ligand.clash>
0.0000

> <Gold.PLP.ligand.torsion>
0.5792

> <Gold.PLP.Chemscore.Hbond>
2.0000

> <Gold.PLP.Chemscore.CHOScore>
0.0000

> <Gold.PLP.Chemscore.Metal>
0.0000

> <Gold.Chemscore.Hbonds>
donor molecule, donor type, donor heavy atom, donor atom, acceptor molecule, acceptor atom, score
      L1  H     7    29       P1  7948  0.90
      P1  H  7997  8008       L1    20  0.63
      P1  H 10752 10764       L1     6  0.11

> <Gold.PLP.Chemscore.Internal.Correction>
0.4413

> <Gold.Rescore>
     Score         DG    S(hbond)    S(metal)    S(lipo)     H(rot)  DE(clash)    DE(int)     intcor
     16.81     -18.99       1.70        0.00     102.49       1.63       0.30       1.87       ----

> <Gold.Chemscore.Fitness>
16.8102

> <Gold.Chemscore.DG>
-18.9857

> <Gold.Chemscore.ZeroCoef>
-5.4800

> <Gold.Chemscore.Hbond>
1.7008

> <Gold.Chemscore.Metal>
0.0000

> <Gold.Chemscore.Lipo>
102.4867

> <Gold.Chemscore.Internal_Hbond>
0.0000

> <Gold.Chemscore.DEClash>
0.3024

> <Gold.Chemscore.DEInternal>
1.8732

> <Gold.Chemscore.Rot>
1.6272

> <Gold.Chemscore.Internal.Correction>
   9.000000E+99

> <Gold.Chemscore.Hbonds>
donor molecule, donor type, donor heavy atom, donor atom, acceptor molecule, acceptor atom, score
      L1  H     7    29       P1  7948  0.18
      P1  H  7997  8008       L1    20  0.16

> <Gold.Chemscore.Hbond.Weighted>
-5.6805

> <Gold.Chemscore.Metal.Weighted>
-0.0000

> <Gold.Chemscore.Lipo.Weighted>
-11.9909

> <Gold.Chemscore.Internal_Hbond.Weighted>
0.0000

> <Gold.Chemscore.DEClash.Weighted>
0.3024

> <Gold.Chemscore.DEInternal.Weighted>
1.8732

> <Gold.Chemscore.Rot.Weighted>
4.1657

> <Gold.Chemscore.Internal.Correction.Weighted>
   9.000000E+99

> <Gold.Protein.RotatedTorsions>
[ 6907 6896 6895 6894 ] final  -15.27 input  -60.11 | X-H torsion
[ 7974 7965 7964 7962 ] final   19.01 input  175.53 | X-H torsion
[ 8008 7997 7996 7995 ] final  -61.79 input   59.86 | X-H torsion
[ 10167 10162 10161 10158 ] final  -22.40 input  -65.29 | X-H torsion
[ 10718 10713 10712 10709 ] final -137.70 input   66.30 | X-H torsion
[ 10763 10752 10751 10750 ] final  -76.12 input  -60.55 | X-H torsion
[ 11005 11000 10999 10996 ] final   57.35 input  -57.11 | X-H torsion

> <Gold.Protein.ActiveResidues>
 VAL166  LYS551  ARG553  GLY616  TRP617  ASP618  TYR619  PRO620  LYS621  CYS622 
 ASP623  PHE694  ASN695  SER759  ASP760  ASP761  ALA762  ILE779  LEU786  VAL792 
 PHE793  MET794  SER795  GLU796  ALA797  LYS798  CYS799  TRP800  GLU811  SER814 

> <Gold.Protein.RotatedAtoms>
  151.3266  135.0831  159.9323 H   0  0  0  0  0  0  0  0  0  0  0  0  # atno 6907 bound_to 6896
  152.5244  133.9585  159.7716 H   0  0  0  0  0  0  0  0  0  0  0  0  # atno 6908 bound_to 6896
  150.9916  133.6091  159.2737 H   0  0  0  0  0  0  0  0  0  0  0  0  # atno 6909 bound_to 6896
  146.2165  139.8374  142.8648 H   0  0  0  0  0  0  0  0  0  0  0  0  # atno 7974 bound_to 7965
  154.4466  140.1010  156.6487 H   0  0  0  0  0  0  0  0  0  0  0  0  # atno 8008 bound_to 7997
  155.5422  140.3484  155.4431 H   0  0  0  0  0  0  0  0  0  0  0  0  # atno 8009 bound_to 7997
  156.0589  140.1321  156.9953 H   0  0  0  0  0  0  0  0  0  0  0  0  # atno 8010 bound_to 7997
  140.7286  143.4538  151.0478 H   0  0  0  0  0  0  0  0  0  0  0  0  # atno 10167 bound_to 10162
  156.2911  130.7375  151.1401 H   0  0  0  0  0  0  0  0  0  0  0  0  # atno 10718 bound_to 10713
  154.4956  135.5808  153.6492 H   0  0  0  0  0  0  0  0  0  0  0  0  # atno 10763 bound_to 10752
  152.9869  135.6123  154.3069 H   0  0  0  0  0  0  0  0  0  0  0  0  # atno 10764 bound_to 10752
  154.2972  135.2847  155.2607 H   0  0  0  0  0  0  0  0  0  0  0  0  # atno 10765 bound_to 10752
  140.0459  134.5806  155.9323 H   0  0  0  0  0  0  0  0  0  0  0  0  # atno 11005 bound_to 11000
  145.2934  141.0174  143.3650 LP  0  0  0  0  0  0  0  0  0  0  0  0  # atno 17320 bound_to 7965
  144.9060  139.4588  143.6609 LP  0  0  0  0  0  0  0  0  0  0  0  0  # atno 17321 bound_to 7965
  139.8216  143.7812  152.3177 LP  0  0  0  0  0  0  0  0  0  0  0  0  # atno 17342 bound_to 10162
  139.7896  144.7415  150.9973 LP  0  0  0  0  0  0  0  0  0  0  0  0  # atno 17343 bound_to 10162
  157.7342  131.0583  150.5534 LP  0  0  0  0  0  0  0  0  0  0  0  0  # atno 17370 bound_to 10713
  156.5650  130.4265  149.6045 LP  0  0  0  0  0  0  0  0  0  0  0  0  # atno 17371 bound_to 10713
  141.1906  133.6569  156.5421 LP  0  0  0  0  0  0  0  0  0  0  0  0  # atno 17394 bound_to 11000
  140.3994  134.7370  157.4771 LP  0  0  0  0  0  0  0  0  0  0  0  0  # atno 17395 bound_to 11000

$$$$
