AV-unprocessed.smi:558|AV-procd|sdf|2922|dock2
  -GOLD-   2262023413D 1   1.00000     0.00000
 Structure written by MMmdl.
 36 37  0  0  0  0  0  0  0  0  1 V2000
  153.4180  141.6377  161.2450 C   0  0  0  0  0  0  0  0  0  0  0  0
  152.6851  142.3330  160.1361 C   0  0  0  0  0  0  0  0  0  0  0  0
  153.1545  143.3708  159.2836 C   0  0  0  0  0  0  0  0  0  0  0  0
  152.0950  143.6404  158.4640 C   0  0  0  0  0  0  0  0  0  0  0  0
  151.9658  144.6365  157.3585 C   0  0  0  0  0  0  0  0  0  0  0  0
  151.0697  142.7894  158.8398 N   0  0  0  0  0  0  0  0  0  0  0  0
  149.7195  142.6774  158.3039 C   0  0  0  0  0  0  0  0  0  0  0  0
  149.6665  141.7403  157.0934 C   0  0  0  0  0  0  0  0  0  0  0  0
  150.0086  140.5642  157.2106 O   0  0  0  0  0  0  0  0  0  0  0  0
  149.2358  142.2731  155.9402 N   0  0  0  0  0  0  0  0  0  0  0  0
  149.0167  141.5411  154.7004 C   0  0  0  0  0  0  0  0  0  0  0  0
  147.9410  140.4612  154.9017 C   0  0  2  0  0  0  0  0  0  0  0  0
  147.4867  139.7754  153.6270 C   0  0  0  0  0  0  0  0  0  0  0  0
  146.1553  139.1659  154.0551 C   0  0  0  0  0  0  0  0  0  0  0  0
  145.6326  140.0318  155.0599 O   0  0  0  0  0  0  0  0  0  0  0  0
  146.6131  140.9940  155.4371 C   0  0  0  0  0  0  0  0  0  0  0  0
  151.4376  141.9887  159.8641 N   0  0  0  0  0  0  0  0  0  0  0  0
  154.4741  141.9079  161.2490 H   0  0  0  0  0  0  0  0  0  0  0  0
  153.3535  140.5540  161.1423 H   0  0  0  0  0  0  0  0  0  0  0  0
  153.0032  141.9068  162.2168 H   0  0  0  0  0  0  0  0  0  0  0  0
  154.1238  143.8470  159.2762 H   0  0  0  0  0  0  0  0  0  0  0  0
  152.8769  145.2264  157.2581 H   0  0  0  0  0  0  0  0  0  0  0  0
  151.1423  145.3249  157.5471 H   0  0  0  0  0  0  0  0  0  0  0  0
  151.7831  144.1387  156.4059 H   0  0  0  0  0  0  0  0  0  0  0  0
  149.0470  142.3117  159.0797 H   0  0  0  0  0  0  0  0  0  0  0  0
  149.3677  143.6713  158.0224 H   0  0  0  0  0  0  0  0  0  0  0  0
  148.9861  143.2512  155.9386 H   0  0  0  0  0  0  0  0  0  0  0  0
  148.7054  142.2437  153.9265 H   0  0  0  0  0  0  0  0  0  0  0  0
  149.9448  141.0797  154.3580 H   0  0  0  0  0  0  0  0  0  0  0  0
  148.3132  139.7017  155.5917 H   0  0  0  0  0  0  0  0  0  0  0  0
  147.3252  140.5096  152.8363 H   0  0  0  0  0  0  0  0  0  0  0  0
  148.1951  139.0313  153.2604 H   0  0  0  0  0  0  0  0  0  0  0  0
  145.4610  139.0571  153.2216 H   0  0  0  0  0  0  0  0  0  0  0  0
  146.3124  138.1806  154.4954 H   0  0  0  0  0  0  0  0  0  0  0  0
  146.6279  141.1453  156.5167 H   0  0  0  0  0  0  0  0  0  0  0  0
  146.3589  141.9447  154.9666 H   0  0  0  0  0  0  0  0  0  0  0  0
  1  2  1  0  0  0  0
  1 18  1  0  0  0  0
  1 19  1  0  0  0  0
  1 20  1  0  0  0  0
  2 17  2  0  0  0  0
  2  3  1  0  0  0  0
  3  4  2  0  0  0  0
  3 21  1  0  0  0  0
  4  5  1  0  0  0  0
  4  6  1  0  0  0  0
  5 22  1  0  0  0  0
  5 23  1  0  0  0  0
  5 24  1  0  0  0  0
  6  7  1  0  0  0  0
  6 17  1  0  0  0  0
  7  8  1  0  0  0  0
  7 25  1  0  0  0  0
  7 26  1  0  0  0  0
  8  9  2  0  0  0  0
  8 10  1  0  0  0  0
 10 11  1  0  0  0  0
 10 27  1  0  0  0  0
 11 12  1  0  0  0  0
 11 28  1  0  0  0  0
 11 29  1  0  0  0  0
 12 16  1  0  0  0  0
 12 13  1  0  0  0  0
 12 30  1  0  0  0  0
 13 14  1  0  0  0  0
 13 31  1  0  0  0  0
 13 32  1  0  0  0  0
 14 15  1  0  0  0  0
 14 33  1  0  0  0  0
 14 34  1  0  0  0  0
 15 16  1  0  0  0  0
 16 35  1  0  0  0  0
 16 36  1  0  0  0  0
M  END
> <s_m_source_file>
AV-unprocessed.smi

> <i_m_source_file_index>
558

> <i_lp_mmshare_version>
43012

> <i_f3d_flags>
0

> <s_epik_input>
W0NIM11jMVtjSF1jKFtDSDNdKW4objEpW0NIMl1DKD1PKVtOSF1bQ0gyXVtDQEBIXTJbQ0gyXVtDSDJdT1tDSDJdMg==

> <s_epik_cmdline>
J2VwaWtfcHl0aG9uJywgJy1waCcsICc3LjAnLCAnLXRuJywgJzgnLCAnLW1hJywgJzIwMCcsICctbWV0YWxfYmluZGluZycsICctaW1hZScsICc8aW5maWxlLm1hZT4nLCAnLW9tYWUnLCAnPG91dGZpbGUubWFlPic=

> <r_lp_tautomer_probability>
1

> <r_epik_Ionization_Penalty>
0.000376629

> <r_epik_Ionization_Penalty_Charging>
0

> <r_epik_Ionization_Penalty_Neutral>
0.000376629

> <r_epik_State_Penalty>
-0

> <r_epik_Charging_Adjusted_Penalty>
0

> <i_epik_Tot_Q>
0

> <i_epik_Tot_abs_Q>
0

> <r_epik_Metal_State_Penalty>
-0

> <b_epik_Metal_Only>
0

> <s_lp_Force_Field>
OPLS_2005

> <r_lp_Energy>
17.1643

> <b_lp_Chiralities_Consistent>
1

> <s_lp_Variant>
AV-unprocessed.smi:558-1

> <Gold.Version>
5.8.1

> <Gold.Id.Protein>
6NUR|6NUR_protein|mol2

> <Gold.PLP.Fitness>
35.3018

> <Gold.PLP.PLP>
-33.0427

> <Gold.PLP.part.hbond>
-2.0000

> <Gold.PLP.part.metal>
0.0000

> <Gold.PLP.part.buried>
-4.6058

> <Gold.PLP.part.nonpolar>
-28.0773

> <Gold.PLP.part.repulsive>
0.2208

> <Gold.PLP.ligand.clash>
0.0000

> <Gold.PLP.ligand.torsion>
0.3820

> <Gold.PLP.Chemscore.Hbond>
1.0000

> <Gold.PLP.Chemscore.CHOScore>
0.0000

> <Gold.PLP.Chemscore.Metal>
0.0000

> <Gold.Chemscore.Hbonds>
donor molecule, donor type, donor heavy atom, donor atom, acceptor molecule, acceptor atom, score
      L1  H    10    27       P1  8028  0.91

> <Gold.PLP.Chemscore.Internal.Correction>
0.0231

> <Gold.Rescore>
     Score         DG    S(hbond)    S(metal)    S(lipo)     H(rot)  DE(clash)    DE(int)     intcor
     15.19     -15.62       1.00        0.00      91.91       1.54       0.05       0.39       ----

> <Gold.Chemscore.Fitness>
15.1862

> <Gold.Chemscore.DG>
-15.6205

> <Gold.Chemscore.ZeroCoef>
-5.4800

> <Gold.Chemscore.Hbond>
0.9960

> <Gold.Chemscore.Metal>
0.0000

> <Gold.Chemscore.Lipo>
91.9061

> <Gold.Chemscore.Internal_Hbond>
0.0000

> <Gold.Chemscore.DEClash>
0.0485

> <Gold.Chemscore.DEInternal>
0.3859

> <Gold.Chemscore.Rot>
1.5387

> <Gold.Chemscore.Internal.Correction>
   9.000000E+99

> <Gold.Chemscore.Hbonds>
donor molecule, donor type, donor heavy atom, donor atom, acceptor molecule, acceptor atom, score
      L1  H    10    27       P1  8028  0.89

> <Gold.Chemscore.Hbond.Weighted>
-3.3267

> <Gold.Chemscore.Metal.Weighted>
-0.0000

> <Gold.Chemscore.Lipo.Weighted>
-10.7530

> <Gold.Chemscore.Internal_Hbond.Weighted>
0.0000

> <Gold.Chemscore.DEClash.Weighted>
0.0485

> <Gold.Chemscore.DEInternal.Weighted>
0.3859

> <Gold.Chemscore.Rot.Weighted>
3.9392

> <Gold.Chemscore.Internal.Correction.Weighted>
   9.000000E+99

> <Gold.Protein.RotatedTorsions>
[ 6907 6896 6895 6894 ] final  107.34 input  -60.11 | X-H torsion
[ 7974 7965 7964 7962 ] final   99.69 input  175.53 | X-H torsion
[ 8008 7997 7996 7995 ] final   11.89 input   59.86 | X-H torsion
[ 10167 10162 10161 10158 ] final  -30.77 input  -65.29 | X-H torsion
[ 10718 10713 10712 10709 ] final   88.58 input   66.30 | X-H torsion
[ 10763 10752 10751 10750 ] final   45.35 input  -60.55 | X-H torsion
[ 11005 11000 10999 10996 ] final  -16.03 input  -57.11 | X-H torsion

> <Gold.Protein.ActiveResidues>
 VAL166  LYS551  ARG553  GLY616  TRP617  ASP618  TYR619  PRO620  LYS621  CYS622 
 ASP623  PHE694  ASN695  SER759  ASP760  ASP761  ALA762  ILE779  LEU786  VAL792 
 PHE793  MET794  SER795  GLU796  ALA797  LYS798  CYS799  TRP800  GLU811  SER814 

> <Gold.Protein.RotatedAtoms>
  152.5158  133.9249  159.7551 H   0  0  0  0  0  0  0  0  0  0  0  0  # atno 6907 bound_to 6896
  150.9612  133.6435  159.2761 H   0  0  0  0  0  0  0  0  0  0  0  0  # atno 6908 bound_to 6896
  151.3679  135.0922  159.9509 H   0  0  0  0  0  0  0  0  0  0  0  0  # atno 6909 bound_to 6896
  145.3955  139.2356  143.3328 H   0  0  0  0  0  0  0  0  0  0  0  0  # atno 7974 bound_to 7965
  154.8132  140.2871  155.5839 H   0  0  0  0  0  0  0  0  0  0  0  0  # atno 8008 bound_to 7997
  156.2990  140.2564  156.2954 H   0  0  0  0  0  0  0  0  0  0  0  0  # atno 8009 bound_to 7997
  154.9424  140.0381  157.2093 H   0  0  0  0  0  0  0  0  0  0  0  0  # atno 8010 bound_to 7997
  140.7245  143.3822  151.1579 H   0  0  0  0  0  0  0  0  0  0  0  0  # atno 10167 bound_to 10162
  157.6950  131.0300  150.3296 H   0  0  0  0  0  0  0  0  0  0  0  0  # atno 10718 bound_to 10713
  152.9826  135.6042  154.3422 H   0  0  0  0  0  0  0  0  0  0  0  0  # atno 10763 bound_to 10752
  154.3118  135.2771  155.2564 H   0  0  0  0  0  0  0  0  0  0  0  0  # atno 10764 bound_to 10752
  154.4770  135.5927  153.6418 H   0  0  0  0  0  0  0  0  0  0  0  0  # atno 10765 bound_to 10752
  140.8027  133.8202  155.9485 H   0  0  0  0  0  0  0  0  0  0  0  0  # atno 11005 bound_to 11000
  146.2777  140.4644  142.8789 LP  0  0  0  0  0  0  0  0  0  0  0  0  # atno 17320 bound_to 7965
  144.8410  140.6857  143.6229 LP  0  0  0  0  0  0  0  0  0  0  0  0  # atno 17321 bound_to 7965
  139.7413  143.8920  152.3050 LP  0  0  0  0  0  0  0  0  0  0  0  0  # atno 17342 bound_to 10162
  139.8742  144.7052  150.8952 LP  0  0  0  0  0  0  0  0  0  0  0  0  # atno 17343 bound_to 10162
  156.3772  130.3874  149.7130 LP  0  0  0  0  0  0  0  0  0  0  0  0  # atno 17370 bound_to 10713
  156.4524  130.7913  151.2934 LP  0  0  0  0  0  0  0  0  0  0  0  0  # atno 17371 bound_to 10713
  140.9278  134.2060  157.4884 LP  0  0  0  0  0  0  0  0  0  0  0  0  # atno 17394 bound_to 11000
  139.8720  134.9820  156.5139 LP  0  0  0  0  0  0  0  0  0  0  0  0  # atno 17395 bound_to 11000

$$$$
