AV-unprocessed.smi:780|AV-procd|sdf|3706|dock3
  -GOLD-   22720 1133D 1   1.00000     0.00000
 Structure written by MMmdl.
 48 49  0  0  0  0  0  0  0  0  1 V2000
  151.9482  141.4848  158.8026 C   0  0  0  0  0  0  0  0  0  0  0  0
  151.7558  140.5391  157.6352 C   0  0  0  0  0  0  0  0  0  0  0  0
  152.3151  139.2040  157.6661 C   0  0  0  0  0  0  0  0  0  0  0  0
  152.1330  138.3949  156.6111 C   0  0  0  0  0  0  0  0  0  0  0  0
  151.4145  138.8055  155.4732 N   0  0  0  0  0  0  0  0  0  0  0  0
  151.3339  137.8479  154.3532 C   0  0  0  0  0  0  0  0  0  0  0  0
  150.8762  136.4341  154.7575 C   0  0  0  0  0  0  0  0  0  0  0  0
  151.6106  135.7352  155.4542 O   0  0  0  0  0  0  0  0  0  0  0  0
  149.6829  136.0154  154.3113 N   0  0  0  0  0  0  0  0  0  0  0  0
  149.0927  134.7037  154.5283 C   0  0  0  0  0  0  0  0  0  0  0  0
  149.8113  133.6491  153.6703 C   0  0  0  0  0  0  0  0  0  0  0  0
  148.8586  132.6299  153.0244 C   0  0  0  0  0  0  0  0  0  0  0  0
  147.8478  133.3266  152.3120 O   0  0  0  0  0  0  0  0  0  0  0  0
  147.2169  132.5611  151.2925 C   0  0  0  0  0  0  0  0  0  0  0  0
  146.2573  133.4361  150.4560 C   0  0  0  0  0  0  0  0  0  0  0  0
  145.4710  132.5936  149.4388 C   0  0  0  0  0  0  0  0  0  0  0  0
  144.7128  131.4481  150.1276 C   0  0  0  0  0  0  0  0  0  0  0  0
  145.6635  130.5762  150.9630 C   0  0  0  0  0  0  0  0  0  0  0  0
  146.4427  131.4236  151.9816 C   0  0  0  0  0  0  0  0  0  0  0  0
  150.8567  140.0506  155.3832 C   0  0  0  0  0  0  0  0  0  0  0  0
  150.2372  140.4204  154.3858 O   0  0  0  0  0  0  0  0  0  0  0  0
  151.0605  140.9262  156.5431 C   0  0  0  0  0  0  0  0  0  0  0  0
  152.7099  141.1122  159.4879 H   0  0  0  0  0  0  0  0  0  0  0  0
  151.0153  141.5977  159.3556 H   0  0  0  0  0  0  0  0  0  0  0  0
  152.2629  142.4681  158.4511 H   0  0  0  0  0  0  0  0  0  0  0  0
  152.8763  138.8617  158.5232 H   0  0  0  0  0  0  0  0  0  0  0  0
  152.5315  137.3916  156.5649 H   0  0  0  0  0  0  0  0  0  0  0  0
  150.6437  138.2235  153.5961 H   0  0  0  0  0  0  0  0  0  0  0  0
  152.2947  137.7682  153.8419 H   0  0  0  0  0  0  0  0  0  0  0  0
  149.1463  136.6583  153.7474 H   0  0  0  0  0  0  0  0  0  0  0  0
  149.1657  134.4445  155.5855 H   0  0  0  0  0  0  0  0  0  0  0  0
  148.0321  134.7313  154.2739 H   0  0  0  0  0  0  0  0  0  0  0  0
  150.3877  134.1488  152.8913 H   0  0  0  0  0  0  0  0  0  0  0  0
  150.5348  133.1188  154.2909 H   0  0  0  0  0  0  0  0  0  0  0  0
  149.4098  131.9778  152.3477 H   0  0  0  0  0  0  0  0  0  0  0  0
  148.4085  131.9977  153.7911 H   0  0  0  0  0  0  0  0  0  0  0  0
  147.9728  132.1158  150.6426 H   0  0  0  0  0  0  0  0  0  0  0  0
  145.5602  133.9517  151.1177 H   0  0  0  0  0  0  0  0  0  0  0  0
  146.8046  134.2117  149.9220 H   0  0  0  0  0  0  0  0  0  0  0  0
  144.7707  133.2274  148.8942 H   0  0  0  0  0  0  0  0  0  0  0  0
  146.1577  132.1837  148.6970 H   0  0  0  0  0  0  0  0  0  0  0  0
  143.9348  131.8603  150.7713 H   0  0  0  0  0  0  0  0  0  0  0  0
  144.2051  130.8360  149.3816 H   0  0  0  0  0  0  0  0  0  0  0  0
  145.0979  129.8003  151.4796 H   0  0  0  0  0  0  0  0  0  0  0  0
  146.3638  130.0619  150.3035 H   0  0  0  0  0  0  0  0  0  0  0  0
  147.1328  130.7892  152.5388 H   0  0  0  0  0  0  0  0  0  0  0  0
  145.7488  131.8413  152.7125 H   0  0  0  0  0  0  0  0  0  0  0  0
  150.6405  141.9214  156.5141 H   0  0  0  0  0  0  0  0  0  0  0  0
  1  2  1  0  0  0  0
  1 23  1  0  0  0  0
  1 24  1  0  0  0  0
  1 25  1  0  0  0  0
  2 22  2  0  0  0  0
  2  3  1  0  0  0  0
  3  4  2  0  0  0  0
  3 26  1  0  0  0  0
  4  5  1  0  0  0  0
  4 27  1  0  0  0  0
  5  6  1  0  0  0  0
  5 20  1  0  0  0  0
  6  7  1  0  0  0  0
  6 28  1  0  0  0  0
  6 29  1  0  0  0  0
  7  8  2  0  0  0  0
  7  9  1  0  0  0  0
  9 10  1  0  0  0  0
  9 30  1  0  0  0  0
 10 11  1  0  0  0  0
 10 31  1  0  0  0  0
 10 32  1  0  0  0  0
 11 12  1  0  0  0  0
 11 33  1  0  0  0  0
 11 34  1  0  0  0  0
 12 13  1  0  0  0  0
 12 35  1  0  0  0  0
 12 36  1  0  0  0  0
 13 14  1  0  0  0  0
 14 19  1  0  0  0  0
 14 15  1  0  0  0  0
 14 37  1  0  0  0  0
 15 16  1  0  0  0  0
 15 38  1  0  0  0  0
 15 39  1  0  0  0  0
 16 17  1  0  0  0  0
 16 40  1  0  0  0  0
 16 41  1  0  0  0  0
 17 18  1  0  0  0  0
 17 42  1  0  0  0  0
 17 43  1  0  0  0  0
 18 19  1  0  0  0  0
 18 44  1  0  0  0  0
 18 45  1  0  0  0  0
 19 46  1  0  0  0  0
 19 47  1  0  0  0  0
 20 21  2  0  0  0  0
 20 22  1  0  0  0  0
 22 48  1  0  0  0  0
M  END
> <s_m_source_file>
AV-unprocessed.smi

> <i_m_source_file_index>
780

> <i_lp_mmshare_version>
43012

> <i_f3d_flags>
0

> <s_epik_input>
W0NIM11jMVtjSF1bY0hdbihjKD1PKVtjSF0xKVtDSDJdQyg9TylbTkhdW0NIMl1bQ0gyXVtDSDJdT1tDSF0yW0NIMl1bQ0gyXVtDSDJdW0NIMl1bQ0gyXTI=

> <s_epik_cmdline>
J2VwaWtfcHl0aG9uJywgJy1waCcsICc3LjAnLCAnLXRuJywgJzgnLCAnLW1hJywgJzIwMCcsICctbWV0YWxfYmluZGluZycsICctaW1hZScsICc8aW5maWxlLm1hZT4nLCAnLW9tYWUnLCAnPG91dGZpbGUubWFlPic=

> <r_lp_tautomer_probability>
1

> <r_epik_Ionization_Penalty>
5.32667e-07

> <r_epik_Ionization_Penalty_Charging>
5.13386e-07

> <r_epik_Ionization_Penalty_Neutral>
1.92812e-08

> <r_epik_State_Penalty>
-0

> <r_epik_Charging_Adjusted_Penalty>
5.13386e-07

> <i_epik_Tot_Q>
0

> <i_epik_Tot_abs_Q>
0

> <r_epik_Metal_State_Penalty>
-0

> <b_epik_Metal_Only>
0

> <s_lp_Force_Field>
OPLS_2005

> <r_lp_Energy>
20.4059

> <b_lp_Chiralities_Consistent>
1

> <s_lp_Variant>
AV-unprocessed.smi:780-1

> <Gold.Version>
5.8.1

> <Gold.Id.Protein>
6NUR|6NUR_protein|mol2

> <Gold.PLP.Fitness>
48.3294

> <Gold.PLP.PLP>
-43.3615

> <Gold.PLP.part.hbond>
-3.0000

> <Gold.PLP.part.metal>
0.0000

> <Gold.PLP.part.buried>
-5.1375

> <Gold.PLP.part.nonpolar>
-35.3855

> <Gold.PLP.part.repulsive>
0.3688

> <Gold.PLP.ligand.clash>
0.0000

> <Gold.PLP.ligand.torsion>
0.6682

> <Gold.PLP.Chemscore.Hbond>
2.0438

> <Gold.PLP.Chemscore.CHOScore>
0.0000

> <Gold.PLP.Chemscore.Metal>
0.0000

> <Gold.Chemscore.Hbonds>
donor molecule, donor type, donor heavy atom, donor atom, acceptor molecule, acceptor atom, score
      L1  H     9    30       P1  7948  0.32
      P1  H  7989  7998       L1    21  0.76
      P1  H 10752 10763       L1     8  1.00

> <Gold.PLP.Chemscore.Internal.Correction>
0.1728

> <Gold.Rescore>
     Score         DG    S(hbond)    S(metal)    S(lipo)     H(rot)  DE(clash)    DE(int)     intcor
     16.61     -17.85       1.66        0.00     101.32       1.97       0.27       0.97       ----

> <Gold.Chemscore.Fitness>
16.6051

> <Gold.Chemscore.DG>
-17.8489

> <Gold.Chemscore.ZeroCoef>
-5.4800

> <Gold.Chemscore.Hbond>
1.6619

> <Gold.Chemscore.Metal>
0.0000

> <Gold.Chemscore.Lipo>
101.3161

> <Gold.Chemscore.Internal_Hbond>
0.0000

> <Gold.Chemscore.DEClash>
0.2717

> <Gold.Chemscore.DEInternal>
0.9721

> <Gold.Chemscore.Rot>
1.9671

> <Gold.Chemscore.Internal.Correction>
   9.000000E+99

> <Gold.Chemscore.Hbonds>
donor molecule, donor type, donor heavy atom, donor atom, acceptor molecule, acceptor atom, score
      L1  H     9    30       P1  7948  0.32
      P1  H  7989  7998       L1    21  0.11
      P1  H 10752 10763       L1     8  0.53

> <Gold.Chemscore.Hbond.Weighted>
-5.5507

> <Gold.Chemscore.Metal.Weighted>
-0.0000

> <Gold.Chemscore.Lipo.Weighted>
-11.8540

> <Gold.Chemscore.Internal_Hbond.Weighted>
0.0000

> <Gold.Chemscore.DEClash.Weighted>
0.2717

> <Gold.Chemscore.DEInternal.Weighted>
0.9721

> <Gold.Chemscore.Rot.Weighted>
5.0359

> <Gold.Chemscore.Internal.Correction.Weighted>
   9.000000E+99

> <Gold.Protein.RotatedTorsions>
[ 6907 6896 6895 6894 ] final  -50.87 input  -60.11 | X-H torsion
[ 7974 7965 7964 7962 ] final  119.38 input  175.53 | X-H torsion
[ 8008 7997 7996 7995 ] final  130.96 input   59.86 | X-H torsion
[ 10167 10162 10161 10158 ] final  110.49 input  -65.29 | X-H torsion
[ 10718 10713 10712 10709 ] final    9.23 input   66.30 | X-H torsion
[ 10763 10752 10751 10750 ] final   60.60 input  -60.55 | X-H torsion
[ 11005 11000 10999 10996 ] final   -0.91 input  -57.11 | X-H torsion

> <Gold.Protein.ActiveResidues>
 VAL166  LYS551  ARG553  GLY616  TRP617  ASP618  TYR619  PRO620  LYS621  CYS622 
 ASP623  PHE694  ASN695  SER759  ASP760  ASP761  ALA762  ILE779  LEU786  VAL792 
 PHE793  MET794  SER795  GLU796  ALA797  LYS798  CYS799  TRP800  GLU811  SER814 

> <Gold.Protein.RotatedAtoms>
  150.8666  134.8030  159.7122 H   0  0  0  0  0  0  0  0  0  0  0  0  # atno 6907 bound_to 6896
  152.4685  134.5014  159.9736 H   0  0  0  0  0  0  0  0  0  0  0  0  # atno 6908 bound_to 6896
  151.5109  133.3446  159.2920 H   0  0  0  0  0  0  0  0  0  0  0  0  # atno 6909 bound_to 6896
  145.1439  139.3251  143.4602 H   0  0  0  0  0  0  0  0  0  0  0  0  # atno 7974 bound_to 7965
  156.2963  140.2583  156.2847 H   0  0  0  0  0  0  0  0  0  0  0  0  # atno 8008 bound_to 7997
  154.9568  140.0393  157.2189 H   0  0  0  0  0  0  0  0  0  0  0  0  # atno 8009 bound_to 7997
  154.7984  140.2824  155.5944 H   0  0  0  0  0  0  0  0  0  0  0  0  # atno 8010 bound_to 7997
  139.6684  144.7126  151.1733 H   0  0  0  0  0  0  0  0  0  0  0  0  # atno 10167 bound_to 10162
  156.9632  130.5941  149.5663 H   0  0  0  0  0  0  0  0  0  0  0  0  # atno 10718 bound_to 10713
  152.9926  135.5530  154.5899 H   0  0  0  0  0  0  0  0  0  0  0  0  # atno 10763 bound_to 10752
  154.5263  135.2811  155.1221 H   0  0  0  0  0  0  0  0  0  0  0  0  # atno 10764 bound_to 10752
  154.2554  135.6391  153.5308 H   0  0  0  0  0  0  0  0  0  0  0  0  # atno 10765 bound_to 10752
  140.6415  133.9485  155.8329 H   0  0  0  0  0  0  0  0  0  0  0  0  # atno 11005 bound_to 11000
  146.3502  140.1487  142.8593 LP  0  0  0  0  0  0  0  0  0  0  0  0  # atno 17320 bound_to 7965
  145.0503  140.9012  143.4999 LP  0  0  0  0  0  0  0  0  0  0  0  0  # atno 17321 bound_to 7965
  140.7608  143.5882  150.8823 LP  0  0  0  0  0  0  0  0  0  0  0  0  # atno 17342 bound_to 10162
  139.9546  143.6233  152.3019 LP  0  0  0  0  0  0  0  0  0  0  0  0  # atno 17343 bound_to 10162
  156.0313  130.5404  150.8541 LP  0  0  0  0  0  0  0  0  0  0  0  0  # atno 17370 bound_to 10713
  157.5643  131.0946  150.9513 LP  0  0  0  0  0  0  0  0  0  0  0  0  # atno 17371 bound_to 10713
  141.0603  134.0356  157.3667 LP  0  0  0  0  0  0  0  0  0  0  0  0  # atno 17394 bound_to 11000
  139.9078  135.0184  156.7563 LP  0  0  0  0  0  0  0  0  0  0  0  0  # atno 17395 bound_to 11000

$$$$
