AV-unprocessed.smi:519|AV-procd|sdf|2795|dock4
  -GOLD-   2262023273D 1   1.00000     0.00000
 Structure written by MMmdl.
 36 38  0  0  0  0  0  0  0  0  1 V2000
  153.3123  139.4404  155.0259 O   0  0  0  0  0  0  0  0  0  0  0  0
  152.2028  139.0983  155.8323 C   0  0  0  0  0  0  0  0  0  0  0  0
  150.8760  139.4814  155.2408 C   0  0  0  0  0  0  0  0  0  0  0  0
  150.0920  138.6198  154.5884 N   0  0  0  0  0  0  0  0  0  0  0  0
  149.0046  139.3971  154.2414 C   0  0  0  0  0  0  0  0  0  0  0  0
  147.8289  139.0663  153.5304 C   0  0  0  0  0  0  0  0  0  0  0  0
  146.8405  140.0435  153.2921 C   0  0  0  0  0  0  0  0  0  0  0  0
  147.0121  141.3616  153.7622 C   0  0  0  0  0  0  0  0  0  0  0  0
  148.1753  141.7113  154.4740 C   0  0  0  0  0  0  0  0  0  0  0  0
  149.1604  140.7330  154.7064 C   0  0  0  0  0  0  0  0  0  0  0  0
  150.3948  140.7453  155.3487 N   0  0  0  0  0  0  0  0  0  0  0  0
  151.0202  141.8925  155.9910 C   0  0  0  0  0  0  0  0  0  0  0  0
  151.4311  141.5917  157.4400 C   0  0  0  0  0  0  0  0  0  0  0  0
  151.2929  142.7693  158.2246 O   0  0  0  0  0  0  0  0  0  0  0  0
  151.8833  142.8057  159.4705 C   0  0  0  0  0  0  0  0  0  0  0  0
  152.6393  141.7376  160.0178 C   0  0  0  0  0  0  0  0  0  0  0  0
  153.2102  141.8490  161.3005 C   0  0  0  0  0  0  0  0  0  0  0  0
  153.0333  143.0240  162.0531 C   0  0  0  0  0  0  0  0  0  0  0  0
  152.2860  144.0898  161.5197 C   0  0  0  0  0  0  0  0  0  0  0  0
  151.7158  143.9821  160.2358 C   0  0  0  0  0  0  0  0  0  0  0  0
  150.8070  145.3086  159.6043 Cl  0  0  0  0  0  0  0  0  0  0  0  0
  153.0368  139.4469  154.1223 H   0  0  0  0  0  0  0  0  0  0  0  0
  152.2170  138.0213  156.0018 H   0  0  0  0  0  0  0  0  0  0  0  0
  152.3206  139.5844  156.8007 H   0  0  0  0  0  0  0  0  0  0  0  0
  147.6884  138.0592  153.1666 H   0  0  0  0  0  0  0  0  0  0  0  0
  145.9469  139.7806  152.7454 H   0  0  0  0  0  0  0  0  0  0  0  0
  146.2516  142.1051  153.5736 H   0  0  0  0  0  0  0  0  0  0  0  0
  148.3120  142.7215  154.8303 H   0  0  0  0  0  0  0  0  0  0  0  0
  151.8961  142.1802  155.4084 H   0  0  0  0  0  0  0  0  0  0  0  0
  150.3399  142.7432  155.9564 H   0  0  0  0  0  0  0  0  0  0  0  0
  150.7969  140.7986  157.8381 H   0  0  0  0  0  0  0  0  0  0  0  0
  152.4643  141.2423  157.4649 H   0  0  0  0  0  0  0  0  0  0  0  0
  152.7965  140.8189  159.4738 H   0  0  0  0  0  0  0  0  0  0  0  0
  153.7845  141.0296  161.7074 H   0  0  0  0  0  0  0  0  0  0  0  0
  153.4703  143.1080  163.0373 H   0  0  0  0  0  0  0  0  0  0  0  0
  152.1503  144.9923  162.0973 H   0  0  0  0  0  0  0  0  0  0  0  0
  1  2  1  0  0  0  0
  1 22  1  0  0  0  0
  2  3  1  0  0  0  0
  2 23  1  0  0  0  0
  2 24  1  0  0  0  0
  3 11  1  0  0  0  0
  3  4  2  0  0  0  0
  4  5  1  0  0  0  0
  5 10  2  0  0  0  0
  5  6  1  0  0  0  0
  6  7  2  0  0  0  0
  6 25  1  0  0  0  0
  7  8  1  0  0  0  0
  7 26  1  0  0  0  0
  8  9  2  0  0  0  0
  8 27  1  0  0  0  0
  9 10  1  0  0  0  0
  9 28  1  0  0  0  0
 10 11  1  0  0  0  0
 11 12  1  0  0  0  0
 12 13  1  0  0  0  0
 12 29  1  0  0  0  0
 12 30  1  0  0  0  0
 13 14  1  0  0  0  0
 13 31  1  0  0  0  0
 13 32  1  0  0  0  0
 14 15  1  0  0  0  0
 15 20  1  0  0  0  0
 15 16  2  0  0  0  0
 16 17  1  0  0  0  0
 16 33  1  0  0  0  0
 17 18  2  0  0  0  0
 17 34  1  0  0  0  0
 18 19  1  0  0  0  0
 18 35  1  0  0  0  0
 19 20  2  0  0  0  0
 19 36  1  0  0  0  0
 20 21  1  0  0  0  0
M  END
> <s_m_source_file>
AV-unprocessed.smi

> <i_m_source_file_index>
519

> <i_lp_mmshare_version>
43012

> <i_f3d_flags>
0

> <s_epik_input>
W2NIXTFbY0hdW2NIXVtjSF1jKGMxMiluKGMobjIpW0NIMl1bT0hdKVtDSDJdW0NIMl1PYzNbY0hdW2NIXVtjSF1bY0hdYzNDbA==

> <s_epik_cmdline>
J2VwaWtfcHl0aG9uJywgJy1waCcsICc3LjAnLCAnLXRuJywgJzgnLCAnLW1hJywgJzIwMCcsICctbWV0YWxfYmluZGluZycsICctaW1hZScsICc8aW5maWxlLm1hZT4nLCAnLW9tYWUnLCAnPG91dGZpbGUubWFlPic=

> <r_lp_tautomer_probability>
1

> <r_epik_Ionization_Penalty>
0.045213

> <r_epik_Ionization_Penalty_Charging>
0

> <r_epik_Ionization_Penalty_Neutral>
0.045213

> <r_epik_State_Penalty>
0.0382996

> <r_epik_Charging_Adjusted_Penalty>
0.0382996

> <i_epik_Tot_Q>
0

> <i_epik_Tot_abs_Q>
0

> <r_epik_Metal_State_Penalty>
3.95633e-05

> <b_epik_Metal_Only>
0

> <s_lp_Force_Field>
OPLS_2005

> <r_lp_Energy>
15.9183

> <b_lp_Chiralities_Consistent>
1

> <s_lp_Variant>
AV-unprocessed.smi:519-1

> <Gold.Version>
5.8.1

> <Gold.Id.Protein>
6NUR|6NUR_protein|mol2

> <Gold.PLP.Fitness>
53.7340

> <Gold.PLP.PLP>
-51.9212

> <Gold.PLP.part.hbond>
-1.3827

> <Gold.PLP.part.metal>
0.0000

> <Gold.PLP.part.buried>
-4.7590

> <Gold.PLP.part.nonpolar>
-45.8474

> <Gold.PLP.part.repulsive>
0.2347

> <Gold.PLP.ligand.clash>
0.0000

> <Gold.PLP.ligand.torsion>
0.6182

> <Gold.PLP.Chemscore.Hbond>
1.0000

> <Gold.PLP.Chemscore.CHOScore>
0.0000

> <Gold.PLP.Chemscore.Metal>
0.0000

> <Gold.Chemscore.Hbonds>
donor molecule, donor type, donor heavy atom, donor atom, acceptor molecule, acceptor atom, score
      P1  H  7997  8010       L1     1  1.00

> <Gold.PLP.Chemscore.Internal.Correction>
0.0492

> <Gold.Rescore>
     Score         DG    S(hbond)    S(metal)    S(lipo)     H(rot)  DE(clash)    DE(int)     intcor
     17.74     -19.10       0.97        0.00     136.25       2.17       0.03       1.33       ----

> <Gold.Chemscore.Fitness>
17.7384

> <Gold.Chemscore.DG>
-19.1038

> <Gold.Chemscore.ZeroCoef>
-5.4800

> <Gold.Chemscore.Hbond>
0.9719

> <Gold.Chemscore.Metal>
0.0000

> <Gold.Chemscore.Lipo>
136.2546

> <Gold.Chemscore.Internal_Hbond>
0.0000

> <Gold.Chemscore.DEClash>
0.0319

> <Gold.Chemscore.DEInternal>
1.3335

> <Gold.Chemscore.Rot>
2.1735

> <Gold.Chemscore.Internal.Correction>
   9.000000E+99

> <Gold.Chemscore.Hbonds>
donor molecule, donor type, donor heavy atom, donor atom, acceptor molecule, acceptor atom, score
      P1  H  7997  8010       L1     1  0.55

> <Gold.Chemscore.Hbond.Weighted>
-3.2462

> <Gold.Chemscore.Metal.Weighted>
-0.0000

> <Gold.Chemscore.Lipo.Weighted>
-15.9418

> <Gold.Chemscore.Internal_Hbond.Weighted>
0.0000

> <Gold.Chemscore.DEClash.Weighted>
0.0319

> <Gold.Chemscore.DEInternal.Weighted>
1.3335

> <Gold.Chemscore.Rot.Weighted>
5.5642

> <Gold.Chemscore.Internal.Correction.Weighted>
   9.000000E+99

> <Gold.Protein.RotatedTorsions>
[ 6907 6896 6895 6894 ] final   33.43 input  -60.11 | X-H torsion
[ 7974 7965 7964 7962 ] final  -18.88 input  175.53 | X-H torsion
[ 8008 7997 7996 7995 ] final   93.21 input   59.86 | X-H torsion
[ 10167 10162 10161 10158 ] final  -77.43 input  -65.29 | X-H torsion
[ 10718 10713 10712 10709 ] final -129.09 input   66.30 | X-H torsion
[ 10763 10752 10751 10750 ] final  125.79 input  -60.55 | X-H torsion
[ 11005 11000 10999 10996 ] final   -8.61 input  -57.11 | X-H torsion

> <Gold.Protein.ActiveResidues>
 VAL166  LYS551  ARG553  GLY616  TRP617  ASP618  TYR619  PRO620  LYS621  CYS622 
 ASP623  PHE694  ASN695  SER759  ASP760  ASP761  ALA762  ILE779  LEU786  VAL792 
 PHE793  MET794  SER795  GLU796  ALA797  LYS798  CYS799  TRP800  GLU811  SER814 

> <Gold.Protein.RotatedAtoms>
  152.0884  134.9423  160.0572 H   0  0  0  0  0  0  0  0  0  0  0  0  # atno 6907 bound_to 6896
  152.0684  133.4090  159.4457 H   0  0  0  0  0  0  0  0  0  0  0  0  # atno 6908 bound_to 6896
  150.6836  134.3039  159.4761 H   0  0  0  0  0  0  0  0  0  0  0  0  # atno 6909 bound_to 6896
  146.1870  140.3984  142.8472 H   0  0  0  0  0  0  0  0  0  0  0  0  # atno 7974 bound_to 7965
  156.0442  140.3316  155.7277 H   0  0  0  0  0  0  0  0  0  0  0  0  # atno 8008 bound_to 7997
  155.5699  140.0627  157.2826 H   0  0  0  0  0  0  0  0  0  0  0  0  # atno 8009 bound_to 7997
  154.4406  140.1862  156.0857 H   0  0  0  0  0  0  0  0  0  0  0  0  # atno 8010 bound_to 7997
  140.4771  143.2411  151.8116 H   0  0  0  0  0  0  0  0  0  0  0  0  # atno 10167 bound_to 10162
  156.2013  130.6859  151.0543 H   0  0  0  0  0  0  0  0  0  0  0  0  # atno 10718 bound_to 10713
  153.6829  135.3311  155.3183 H   0  0  0  0  0  0  0  0  0  0  0  0  # atno 10763 bound_to 10752
  154.8461  135.4413  154.1588 H   0  0  0  0  0  0  0  0  0  0  0  0  # atno 10764 bound_to 10752
  153.2609  135.6991  153.7657 H   0  0  0  0  0  0  0  0  0  0  0  0  # atno 10765 bound_to 10752
  140.7253  133.8794  155.8852 H   0  0  0  0  0  0  0  0  0  0  0  0  # atno 11005 bound_to 11000
  144.8415  140.6864  143.6226 LP  0  0  0  0  0  0  0  0  0  0  0  0  # atno 17320 bound_to 7965
  145.3909  139.1617  143.4229 LP  0  0  0  0  0  0  0  0  0  0  0  0  # atno 17321 bound_to 7965
  139.4827  144.4820  151.9295 LP  0  0  0  0  0  0  0  0  0  0  0  0  # atno 17342 bound_to 10162
  140.3905  144.2621  150.5900 LP  0  0  0  0  0  0  0  0  0  0  0  0  # atno 17343 bound_to 10162
  157.6987  131.0784  150.6887 LP  0  0  0  0  0  0  0  0  0  0  0  0  # atno 17370 bound_to 10713
  156.6945  130.4605  149.5590 LP  0  0  0  0  0  0  0  0  0  0  0  0  # atno 17371 bound_to 10713
  140.9968  134.1205  157.4356 LP  0  0  0  0  0  0  0  0  0  0  0  0  # atno 17394 bound_to 11000
  139.8838  135.0057  156.6328 LP  0  0  0  0  0  0  0  0  0  0  0  0  # atno 17395 bound_to 11000

$$$$
