AV-unprocessed.smi:1244|AV-procd|sdf|5234|dock5
  -GOLD-   22720 4333D 1   1.00000     0.00000
 Structure written by MMmdl.
 56 58  0  0  0  0  0  0  0  0  3 V2000
  148.4207  141.6949  154.4558 C   0  0  0  0  0  0  0  0  0  0  0  0
  149.3667  140.8405  155.3069 C   0  0  1  0  0  0  0  0  0  0  0  0
  150.0419  139.7309  154.4811 C   0  0  0  0  0  0  0  0  0  0  0  0
  151.0125  138.9817  155.3126 N   0  3  1  0  0  0  0  0  0  0  0  0
  151.6124  137.8348  154.5857 C   0  0  0  0  0  0  0  0  0  0  0  0
  151.2982  136.4836  155.2561 C   0  0  0  0  0  0  0  0  0  0  0  0
  150.4121  135.6686  154.4330 N   0  0  0  0  0  0  0  0  0  0  0  0
  150.2010  134.3554  154.6003 C   0  0  0  0  0  0  0  0  0  0  0  0
  150.7298  133.6922  155.4920 O   0  0  0  0  0  0  0  0  0  0  0  0
  149.3626  133.8736  153.6670 N   0  0  0  0  0  0  0  0  0  0  0  0
  148.9379  132.5279  153.4714 C   0  0  0  0  0  0  0  0  0  0  0  0
  149.5736  131.4474  154.1365 C   0  0  0  0  0  0  0  0  0  0  0  0
  149.1456  130.1271  153.9028 C   0  0  0  0  0  0  0  0  0  0  0  0
  148.0841  129.9046  153.0096 C   0  0  0  0  0  0  0  0  0  0  0  0
  147.4856  130.9534  152.4088 N   0  3  0  0  0  0  0  0  0  0  0  0
  147.8409  132.2481  152.6043 C   0  0  0  0  0  0  0  0  0  0  0  0
  147.1090  133.2430  151.9160 N   0  0  0  0  0  0  0  0  0  0  0  0
  146.3403  132.9042  150.7237 C   0  0  0  0  0  0  0  0  0  0  0  0
  145.4305  134.1062  150.4838 C   0  0  0  0  0  0  0  0  0  0  0  0
  145.1101  134.5644  151.9033 C   0  0  0  0  0  0  0  0  0  0  0  0
  146.3935  134.2581  152.6828 C   0  0  0  0  0  0  0  0  0  0  0  0
  152.0155  139.9098  155.8916 C   0  0  0  0  0  0  0  0  0  0  0  0
  151.3333  141.0503  156.6727 C   0  0  2  0  0  0  0  0  0  0  0  0
  150.7481  140.6058  158.0255 C   0  0  0  0  0  0  0  0  0  0  0  0
  150.3641  141.7007  155.8509 O   0  0  0  0  0  0  0  0  0  0  0  0
  147.6261  141.0876  154.0216 H   0  0  0  0  0  0  0  0  0  0  0  0
  148.9546  142.1822  153.6393 H   0  0  0  0  0  0  0  0  0  0  0  0
  147.9512  142.4732  155.0580 H   0  0  0  0  0  0  0  0  0  0  0  0
  148.7836  140.3949  156.1131 H   0  0  0  0  0  0  0  0  0  0  0  0
  149.2809  139.0500  154.0975 H   0  0  0  0  0  0  0  0  0  0  0  0
  150.5554  140.1575  153.6174 H   0  0  0  0  0  0  0  0  0  0  0  0
  151.2124  137.8165  153.5707 H   0  0  0  0  0  0  0  0  0  0  0  0
  152.6897  137.9793  154.4897 H   0  0  0  0  0  0  0  0  0  0  0  0
  152.2085  135.9064  155.4125 H   0  0  0  0  0  0  0  0  0  0  0  0
  150.8561  136.6391  156.2418 H   0  0  0  0  0  0  0  0  0  0  0  0
  149.9405  136.1360  153.6721 H   0  0  0  0  0  0  0  0  0  0  0  0
  149.0813  134.5246  152.9486 H   0  0  0  0  0  0  0  0  0  0  0  0
  150.3836  131.6091  154.8311 H   0  0  0  0  0  0  0  0  0  0  0  0
  149.6266  129.2979  154.4010 H   0  0  0  0  0  0  0  0  0  0  0  0
  147.6913  128.9282  152.7655 H   0  0  0  0  0  0  0  0  0  0  0  0
  146.9922  132.7141  149.8703 H   0  0  0  0  0  0  0  0  0  0  0  0
  145.7333  132.0148  150.8990 H   0  0  0  0  0  0  0  0  0  0  0  0
  145.9763  134.8887  149.9546 H   0  0  0  0  0  0  0  0  0  0  0  0
  144.5421  133.8584  149.9024 H   0  0  0  0  0  0  0  0  0  0  0  0
  144.8212  135.6144  151.9578 H   0  0  0  0  0  0  0  0  0  0  0  0
  144.2873  133.9693  152.3019 H   0  0  0  0  0  0  0  0  0  0  0  0
  146.1706  133.9274  153.6982 H   0  0  0  0  0  0  0  0  0  0  0  0
  147.0138  135.1528  152.7430 H   0  0  0  0  0  0  0  0  0  0  0  0
  152.7026  139.3809  156.5511 H   0  0  0  0  0  0  0  0  0  0  0  0
  152.6173  140.3304  155.0841 H   0  0  0  0  0  0  0  0  0  0  0  0
  152.0932  141.8008  156.8922 H   0  0  0  0  0  0  0  0  0  0  0  0
  151.5346  140.2347  158.6831 H   0  0  0  0  0  0  0  0  0  0  0  0
  150.0137  139.8078  157.9191 H   0  0  0  0  0  0  0  0  0  0  0  0
  150.2639  141.4410  158.5322 H   0  0  0  0  0  0  0  0  0  0  0  0
  150.4857  138.5934  156.0821 H   0  0  0  0  0  0  0  0  0  0  0  0
  146.7107  130.7600  151.7742 H   0  0  0  0  0  0  0  0  0  0  0  0
  1  2  1  0  0  0  0
  1 26  1  0  0  0  0
  1 27  1  0  0  0  0
  1 28  1  0  0  0  0
  2 25  1  0  0  0  0
  2  3  1  0  0  0  0
  2 29  1  0  0  0  0
  3  4  1  0  0  0  0
  3 30  1  0  0  0  0
  3 31  1  0  0  0  0
  4  5  1  0  0  0  0
  4 22  1  0  0  0  0
  4 55  1  0  0  0  0
  5  6  1  0  0  0  0
  5 32  1  0  0  0  0
  5 33  1  0  0  0  0
  6  7  1  0  0  0  0
  6 34  1  0  0  0  0
  6 35  1  0  0  0  0
  7  8  1  0  0  0  0
  7 36  1  0  0  0  0
  8  9  2  0  0  0  0
  8 10  1  0  0  0  0
 10 11  1  0  0  0  0
 10 37  1  0  0  0  0
 11 16  1  0  0  0  0
 11 12  2  0  0  0  0
 12 13  1  0  0  0  0
 12 38  1  0  0  0  0
 13 14  2  0  0  0  0
 13 39  1  0  0  0  0
 14 15  1  0  0  0  0
 14 40  1  0  0  0  0
 15 16  2  0  0  0  0
 15 56  1  0  0  0  0
 16 17  1  0  0  0  0
 17 21  1  0  0  0  0
 17 18  1  0  0  0  0
 18 19  1  0  0  0  0
 18 41  1  0  0  0  0
 18 42  1  0  0  0  0
 19 20  1  0  0  0  0
 19 43  1  0  0  0  0
 19 44  1  0  0  0  0
 20 21  1  0  0  0  0
 20 45  1  0  0  0  0
 20 46  1  0  0  0  0
 21 47  1  0  0  0  0
 21 48  1  0  0  0  0
 22 23  1  0  0  0  0
 22 49  1  0  0  0  0
 22 50  1  0  0  0  0
 23 24  1  0  0  0  0
 23 25  1  0  0  0  0
 23 51  1  0  0  0  0
 24 52  1  0  0  0  0
 24 53  1  0  0  0  0
 24 54  1  0  0  0  0
M  CHG  1   4   1
M  CHG  1  15   1
M  END
> <s_m_source_file>
AV-unprocessed.smi

> <i_m_source_file_index>
1244

> <i_lp_mmshare_version>
43012

> <i_f3d_flags>
0

> <s_epik_input>
W0NIM11bQ0BASF0xW0NIMl1OKFtDSDJdW0NASF0oTzEpW0NIM10pW0NIMl1bQ0gyXVtOSF1DKD1PKVtOSF1jMltjSF1bY0hdW2NIXW5jMk4zW0NIMl1bQ0gyXVtDSDJdW0NIMl0z

> <s_epik_cmdline>
J2VwaWtfcHl0aG9uJywgJy1waCcsICc3LjAnLCAnLXRuJywgJzgnLCAnLW1hJywgJzIwMCcsICctbWV0YWxfYmluZGluZycsICctaW1hZScsICc8aW5maWxlLm1hZT4nLCAnLW9tYWUnLCAnPG91dGZpbGUubWFlPic=

> <r_lp_tautomer_probability>
0.999994

> <r_epik_Ionization_Penalty>
1.81601

> <r_epik_Ionization_Penalty_Charging>
1.81599

> <r_epik_Ionization_Penalty_Neutral>
2.01972e-05

> <r_epik_State_Penalty>
1.85672

> <r_epik_Charging_Adjusted_Penalty>
3.6727

> <i_epik_Tot_Q>
2

> <i_epik_Tot_abs_Q>
2

> <r_epik_Metal_State_Penalty>
1.93796

> <b_epik_Metal_Only>
0

> <s_lp_Force_Field>
OPLS_2005

> <r_lp_Energy>
54.6365

> <b_lp_Chiralities_Consistent>
1

> <s_lp_Variant>
AV-unprocessed.smi:1244-14

> <Gold.Version>
5.8.1

> <Gold.Id.Protein>
6NUR|6NUR_protein|mol2

> <Gold.PLP.Fitness>
46.6928

> <Gold.PLP.PLP>
-43.8126

> <Gold.PLP.part.hbond>
-3.6366

> <Gold.PLP.part.metal>
0.0000

> <Gold.PLP.part.buried>
-4.5191

> <Gold.PLP.part.nonpolar>
-37.6591

> <Gold.PLP.part.repulsive>
1.3454

> <Gold.PLP.ligand.clash>
0.0000

> <Gold.PLP.ligand.torsion>
1.5358

> <Gold.PLP.Chemscore.Hbond>
1.8420

> <Gold.PLP.Chemscore.CHOScore>
0.0000

> <Gold.PLP.Chemscore.Metal>
0.0000

> <Gold.Chemscore.Hbonds>
donor molecule, donor type, donor heavy atom, donor atom, acceptor molecule, acceptor atom, score
      L1  H     7    36       P1  7948  0.80
      L1  H    10    37       P1  7948  0.35

> <Gold.PLP.Chemscore.Internal.Correction>
0.4258

> <Gold.Rescore>
     Score         DG    S(hbond)    S(metal)    S(lipo)     H(rot)  DE(clash)    DE(int)     intcor
     12.79     -15.76       1.14        0.00      91.00       1.63       0.06       2.91       ----

> <Gold.Chemscore.Fitness>
12.7915

> <Gold.Chemscore.DG>
-15.7596

> <Gold.Chemscore.ZeroCoef>
-5.4800

> <Gold.Chemscore.Hbond>
1.1387

> <Gold.Chemscore.Metal>
0.0000

> <Gold.Chemscore.Lipo>
91.0024

> <Gold.Chemscore.Internal_Hbond>
0.0000

> <Gold.Chemscore.DEClash>
0.0595

> <Gold.Chemscore.DEInternal>
2.9086

> <Gold.Chemscore.Rot>
1.6293

> <Gold.Chemscore.Internal.Correction>
   9.000000E+99

> <Gold.Chemscore.Hbonds>
donor molecule, donor type, donor heavy atom, donor atom, acceptor molecule, acceptor atom, score
      L1  H     7    36       P1  7948  0.11
      L1  H    10    37       P1  7948  0.01

> <Gold.Chemscore.Hbond.Weighted>
-3.8032

> <Gold.Chemscore.Metal.Weighted>
-0.0000

> <Gold.Chemscore.Lipo.Weighted>
-10.6473

> <Gold.Chemscore.Internal_Hbond.Weighted>
0.0000

> <Gold.Chemscore.DEClash.Weighted>
0.0595

> <Gold.Chemscore.DEInternal.Weighted>
2.9086

> <Gold.Chemscore.Rot.Weighted>
4.1709

> <Gold.Chemscore.Internal.Correction.Weighted>
   9.000000E+99

> <Gold.Protein.RotatedTorsions>
[ 6907 6896 6895 6894 ] final   85.31 input  -60.11 | X-H torsion
[ 7974 7965 7964 7962 ] final -127.32 input  175.53 | X-H torsion
[ 8008 7997 7996 7995 ] final   78.83 input   59.86 | X-H torsion
[ 10167 10162 10161 10158 ] final  166.80 input  -65.29 | X-H torsion
[ 10718 10713 10712 10709 ] final  -20.26 input   66.30 | X-H torsion
[ 10763 10752 10751 10750 ] final   -7.99 input  -60.55 | X-H torsion
[ 11005 11000 10999 10996 ] final -162.14 input  -57.11 | X-H torsion

> <Gold.Protein.ActiveResidues>
 VAL166  LYS551  ARG553  GLY616  TRP617  ASP618  TYR619  PRO620  LYS621  CYS622 
 ASP623  PHE694  ASN695  SER759  ASP760  ASP761  ALA762  ILE779  LEU786  VAL792 
 PHE793  MET794  SER795  GLU796  ALA797  LYS798  CYS799  TRP800  GLU811  SER814 

> <Gold.Protein.RotatedAtoms>
  152.5372  134.2606  159.8933 H   0  0  0  0  0  0  0  0  0  0  0  0  # atno 6907 bound_to 6896
  151.2566  133.4316  159.2621 H   0  0  0  0  0  0  0  0  0  0  0  0  # atno 6908 bound_to 6896
  151.0491  134.9675  159.8258 H   0  0  0  0  0  0  0  0  0  0  0  0  # atno 6909 bound_to 6896
  144.9783  140.7614  143.4628 H   0  0  0  0  0  0  0  0  0  0  0  0  # atno 7974 bound_to 7965
  155.8612  140.3453  155.5758 H   0  0  0  0  0  0  0  0  0  0  0  0  # atno 8008 bound_to 7997
  155.7931  140.0874  157.2018 H   0  0  0  0  0  0  0  0  0  0  0  0  # atno 8009 bound_to 7997
  154.4012  140.1479  156.3173 H   0  0  0  0  0  0  0  0  0  0  0  0  # atno 8010 bound_to 7997
  139.4932  144.3989  151.9432 H   0  0  0  0  0  0  0  0  0  0  0  0  # atno 10167 bound_to 10162
  156.5343  130.4663  149.6531 H   0  0  0  0  0  0  0  0  0  0  0  0  # atno 10718 bound_to 10713
  153.4342  135.7012  153.6211 H   0  0  0  0  0  0  0  0  0  0  0  0  # atno 10763 bound_to 10752
  153.4613  135.3735  155.2340 H   0  0  0  0  0  0  0  0  0  0  0  0  # atno 10764 bound_to 10752
  154.8726  135.4020  154.3731 H   0  0  0  0  0  0  0  0  0  0  0  0  # atno 10765 bound_to 10752
  140.6126  134.4833  157.5217 H   0  0  0  0  0  0  0  0  0  0  0  0  # atno 11005 bound_to 11000
  145.2459  139.2052  143.4968 LP  0  0  0  0  0  0  0  0  0  0  0  0  # atno 17320 bound_to 7965
  146.3401  140.2363  142.8594 LP  0  0  0  0  0  0  0  0  0  0  0  0  # atno 17321 bound_to 7965
  140.3428  144.3183  150.5964 LP  0  0  0  0  0  0  0  0  0  0  0  0  # atno 17342 bound_to 10162
  140.5551  143.2200  151.7861 LP  0  0  0  0  0  0  0  0  0  0  0  0  # atno 17343 bound_to 10162
  156.3030  130.7187  151.2063 LP  0  0  0  0  0  0  0  0  0  0  0  0  # atno 17370 bound_to 10713
  157.7416  131.0501  150.5083 LP  0  0  0  0  0  0  0  0  0  0  0  0  # atno 17371 bound_to 10713
  139.9186  134.8195  156.1285 LP  0  0  0  0  0  0  0  0  0  0  0  0  # atno 17394 bound_to 11000
  141.0797  133.6759  156.2311 LP  0  0  0  0  0  0  0  0  0  0  0  0  # atno 17395 bound_to 11000

$$$$
