#       Name:                AV-unprocessed.smi:486
#       Creating user name   scv26
#       Creation time:       Thu Mar 26 23:13:02 2020


#       File generated by GOLD software.
#

@<TRIPOS>MOLECULE
AV-unprocessed.smi:486
    50    52     1
SMALL
NO_CHARGES


@<TRIPOS>ATOM
      1 ****        -6.0495   2.1481   0.8486 C.3            1 S1                 0.0000
      2 ****        -5.0593   3.1576   0.7175 O.3            1 S1                 0.0000
      3 ****        -3.7353   2.7750   0.7456 C.ar           1 S1                 0.0000
      4 ****        -2.7703   3.7933   0.6190 C.ar           1 S1                 0.0000
      5 ****        -1.3960   3.4900   0.6372 C.ar           1 S1                 0.0000
      6 ****        -0.9527   2.1612   0.7831 C.ar           1 S1                 0.0000
      7 ****         0.4100   1.9529   0.7901 O.3            1 S1                 0.0000
      8 ****         0.8856   0.6245   0.9615 C.3            1 S1                 0.0000
      9 ****         2.4246   0.6376   0.9175 C.3            1 S1                 0.0000
     10 ****         2.8989   1.1369   2.1506 O.3            1 S1                 0.0000
     11 ****         3.0614  -0.7551   0.7227 C.3            1 S1                 0.0000
     12 ****         2.6606  -1.4054  -0.5176 N.pl3          1 S1                 0.0000
     13 ****         3.1852  -1.2351  -1.7561 C.2            1 S1                 0.0000
     14 ****         4.3216  -0.2965  -2.0116 C.3            1 S1                 0.0000
     15 ****         2.6278  -1.9570  -2.7284 N.2            1 S1                 0.0000
     16 ****         1.6521  -2.6681  -2.0568 C.ar           1 S1                 0.0000
     17 ****         0.7117  -3.6104  -2.5310 C.ar           1 S1                 0.0000
     18 ****        -0.2037  -4.2141  -1.6441 C.ar           1 S1                 0.0000
     19 ****        -0.1906  -3.8873  -0.2727 C.ar           1 S1                 0.0000
     20 ****         0.7387  -2.9517   0.2210 C.ar           1 S1                 0.0000
     21 ****         1.6488  -2.3498  -0.6690 C.ar           1 S1                 0.0000
     22 ****        -1.9193   1.1331   0.9106 C.ar           1 S1                 0.0000
     23 ****        -3.2948   1.4365   0.8920 C.ar           1 S1                 0.0000
     24 ****        -7.0375   2.6062   0.8042 H              1 S1                 0.0000
     25 ****        -5.9682   1.6318   1.8061 H              1 S1                 0.0000
     26 ****        -5.9876   1.4199   0.0388 H              1 S1                 0.0000
     27 ****        -3.0870   4.8199   0.5066 H              1 S1                 0.0000
     28 ****        -0.6740   4.2873   0.5383 H              1 S1                 0.0000
     29 ****         0.5278   0.1850   1.8944 H              1 S1                 0.0000
     30 ****         0.4958   0.0270   0.1379 H              1 S1                 0.0000
     31 ****         2.7597   1.3024   0.1214 H              1 S1                 0.0000
     32 ****         2.5390   2.0014   2.2796 H              1 S1                 0.0000
     33 ****         4.1490  -0.6796   0.7404 H              1 S1                 0.0000
     34 ****         2.7937  -1.4083   1.5544 H              1 S1                 0.0000
     35 ****         4.6070  -0.3200  -3.0638 H              1 S1                 0.0000
     36 ****         5.1896  -0.5812  -1.4167 H              1 S1                 0.0000
     37 ****         4.0368   0.7243  -1.7588 H              1 S1                 0.0000
     38 ****         0.6942  -3.8681  -3.5797 H              1 S1                 0.0000
     39 ****        -0.9196  -4.9312  -2.0181 H              1 S1                 0.0000
     40 ****        -0.8952  -4.3543   0.4000 H              1 S1                 0.0000
     41 ****         0.7482  -2.6967   1.2702 H              1 S1                 0.0000
     42 ****        -1.6324   0.0988   1.0233 H              1 S1                 0.0000
     43 ****        -3.9940   0.6204   0.9918 H              1 S1                 0.0000
     44 ****        -5.1967   3.8073   1.4651 LP             1 S1                 0.0000
     45 ****        -5.2173   3.6169  -0.1566 LP             1 S1                 0.0000
     46 ****         0.7901   2.5022   1.5343 LP             1 S1                 0.0000
     47 ****         0.7651   2.2845  -0.0839 LP             1 S1                 0.0000
     48 ****         3.8976   1.1856   2.1339 LP             1 S1                 0.0000
     49 ****         2.6069   0.5349   2.8938 LP             1 S1                 0.0000
     50 ****         2.8584  -1.9785  -3.7012 LP             1 S1                 0.0000
@<TRIPOS>BOND
    1    1    2 1     
    2    1   24 1     
    3    1   25 1     
    4    1   26 1     
    5    2    3 1     
    6    3   23 ar    
    7    3    4 ar    
    8    4    5 ar    
    9    4   27 1     
   10    5    6 ar    
   11    5   28 1     
   12    6    7 1     
   13    6   22 ar    
   14    7    8 1     
   15    8    9 1     
   16    8   29 1     
   17    8   30 1     
   18    9   10 1     
   19    9   11 1     
   20    9   31 1     
   21   10   32 1     
   22   11   12 1     
   23   11   33 1     
   24   11   34 1     
   25   12   21 1     
   26   12   13 1     
   27   13   14 1     
   28   13   15 2     
   29   14   35 1     
   30   14   36 1     
   31   14   37 1     
   32   15   16 1     
   33   16   21 ar    
   34   16   17 ar    
   35   17   18 ar    
   36   17   38 1     
   37   18   19 ar    
   38   18   39 1     
   39   19   20 ar    
   40   19   40 1     
   41   20   21 ar    
   42   20   41 1     
   43   22   23 ar    
   44   22   42 1     
   45   23   43 1     
   46    2   44 1     
   47    2   45 1     
   48    7   46 1     
   49    7   47 1     
   50   10   48 1     
   51   10   49 1     
   52   15   50 1     
@<TRIPOS>SUBSTRUCTURE
      1 S1             1
@<TRIPOS>SET
LONE_PAIRS      STATIC     ATOMS    <user>   **** ""
7 44 45 46 47 48 49 50
DONOR_HYDROGENS      STATIC     ATOMS    <user>   **** ""
1 32
ATOM$BLUE        STATIC     ATOMS    COLORGROUP SYSTEM
7 44 45 46 47 48 49 50
ATOM$RED        STATIC     ATOMS    COLORGROUP SYSTEM
1 32
