#       Name:                AV-unprocessed.smi:2439
#       Creating user name   scv26
#       Creation time:       Fri Mar 27 13:24:06 2020


#       File generated by GOLD software.
#

@<TRIPOS>MOLECULE
AV-unprocessed.smi:2439
    45    47     1
SMALL
NO_CHARGES


@<TRIPOS>ATOM
      1 ****        -2.9011  -4.7953   0.7030 N.1            1 S1                 0.0000
      2 ****        -3.4367  -3.7697   0.7072 C.1            1 S1                 0.0000
      3 ****        -4.1095  -2.4764   0.7121 C.ar           1 S1                 0.0000
      4 ****        -5.5184  -2.4367   0.6507 C.ar           1 S1                 0.0000
      5 ****        -6.1700  -1.1896   0.6510 C.ar           1 S1                 0.0000
      6 ****        -5.3819  -0.0262   0.7151 C.ar           1 S1                 0.0000
      7 ****        -4.0340  -0.0497   0.7754 N.ar           1 S1                 0.0000
      8 ****        -3.3991  -1.2475   0.7725 C.ar           1 S1                 0.0000
      9 ****        -1.9944  -1.2378   0.8363 N.pl3          1 S1                 0.0000
     10 ****        -1.2518   0.0001   0.6450 C.3            1 S1                 0.0000
     11 ****         0.2632  -0.2429   0.6429 C.3            1 S1                 0.0000
     12 ****         1.0466   1.0826   0.6179 C.3            1 S1                 0.0000
     13 ****         2.5051   0.8286   0.5139 N.4            1 S1                 1.0000
     14 ****         3.3333   2.0627   0.5351 C.3            1 S1                 0.0000
     15 ****         3.2705   2.8295  -0.8000 C.3            1 S1                 0.0000
     16 ****         3.6400   1.9182  -1.9785 C.3            1 S1                 0.0000
     17 ****         2.7628   0.6582  -1.9770 C.3            1 S1                 0.0000
     18 ****         2.8462  -0.0745  -0.6197 C.3            1 S1                 0.0000
     19 ****         1.9684  -1.3402  -0.5727 C.3            1 S1                 0.0000
     20 ****         0.5927  -0.9827  -0.5283 O.3            1 S1                 0.0000
     21 ****        -6.0978  -3.3477   0.6031 H              1 S1                 0.0000
     22 ****        -7.2471  -1.1266   0.6035 H              1 S1                 0.0000
     23 ****        -5.8447   0.9495   0.7185 H              1 S1                 0.0000
     24 ****        -1.4955  -2.1135   0.7700 H              1 S1                 0.0000
     25 ****        -1.5576   0.4733  -0.2891 H              1 S1                 0.0000
     26 ****        -1.5096   0.6851   1.4536 H              1 S1                 0.0000
     27 ****         0.5380  -0.8131   1.5328 H              1 S1                 0.0000
     28 ****         0.7066   1.6963  -0.2165 H              1 S1                 0.0000
     29 ****         0.8438   1.6487   1.5277 H              1 S1                 0.0000
     30 ****         3.0240   2.7055   1.3602 H              1 S1                 0.0000
     31 ****         4.3661   1.7772   0.7396 H              1 S1                 0.0000
     32 ****         2.2724   3.2416  -0.9514 H              1 S1                 0.0000
     33 ****         3.9478   3.6832  -0.7675 H              1 S1                 0.0000
     34 ****         3.5251   2.4556  -2.9201 H              1 S1                 0.0000
     35 ****         4.6907   1.6340  -1.9078 H              1 S1                 0.0000
     36 ****         1.7305   0.9292  -2.2013 H              1 S1                 0.0000
     37 ****         3.0815  -0.0082  -2.7791 H              1 S1                 0.0000
     38 ****         3.8817  -0.3884  -0.4803 H              1 S1                 0.0000
     39 ****         2.1476  -1.9622  -1.4500 H              1 S1                 0.0000
     40 ****         2.2180  -1.9498   0.2974 H              1 S1                 0.0000
     41 ****         2.7448   0.3212   1.3537 H              1 S1                 0.0000
     42 ****        -2.4382  -5.6817   0.6994 LP             1 S1                 0.0000
     43 ****        -3.5122   0.8021   0.8215 LP             1 S1                 0.0000
     44 ****         0.3793  -0.4258  -1.3309 LP             1 S1                 0.0000
     45 ****         0.0429  -1.8178  -0.5463 LP             1 S1                 0.0000
@<TRIPOS>BOND
    1    1    2 3     
    2    2    3 1     
    3    3    8 ar    
    4    3    4 ar    
    5    4    5 ar    
    6    4   21 1     
    7    5    6 ar    
    8    5   22 1     
    9    6    7 ar    
   10    6   23 1     
   11    7    8 ar    
   12    8    9 1     
   13    9   10 1     
   14    9   24 1     
   15   10   11 1     
   16   10   25 1     
   17   10   26 1     
   18   11   20 1     
   19   11   12 1     
   20   11   27 1     
   21   12   13 1     
   22   12   28 1     
   23   12   29 1     
   24   13   18 1     
   25   13   14 1     
   26   13   41 1     
   27   14   15 1     
   28   14   30 1     
   29   14   31 1     
   30   15   16 1     
   31   15   32 1     
   32   15   33 1     
   33   16   17 1     
   34   16   34 1     
   35   16   35 1     
   36   17   18 1     
   37   17   36 1     
   38   17   37 1     
   39   18   19 1     
   40   18   38 1     
   41   19   20 1     
   42   19   39 1     
   43   19   40 1     
   44    1   42 1     
   45    7   43 1     
   46   20   44 1     
   47   20   45 1     
@<TRIPOS>SUBSTRUCTURE
      1 S1             1
@<TRIPOS>SET
LONE_PAIRS      STATIC     ATOMS    <user>   **** ""
4 42 43 44 45
DONOR_HYDROGENS      STATIC     ATOMS    <user>   **** ""
2 24 41
ATOM$BLUE        STATIC     ATOMS    COLORGROUP SYSTEM
4 42 43 44 45
ATOM$RED        STATIC     ATOMS    COLORGROUP SYSTEM
2 24 41
