#       Name:                AV-unprocessed.smi:1586
#       Creating user name   scv26
#       Creation time:       Fri Mar 27 07:02:05 2020


#       File generated by GOLD software.
#

@<TRIPOS>MOLECULE
AV-unprocessed.smi:1586
    53    54     1
SMALL
NO_CHARGES


@<TRIPOS>ATOM
      1 ****        -4.5475  -3.9442  -2.1534 C.3            1 S1                 0.0000
      2 ****        -3.0825  -3.4911  -2.0761 C.3            1 S1                 0.0000
      3 ****        -2.7096  -2.8181  -0.8331 N.3            1 S1                 0.0000
      4 ****        -1.2657  -2.6030  -0.7716 C.3            1 S1                 0.0000
      5 ****        -0.8462  -1.9073   0.5360 C.3            1 S1                 0.0000
      6 ****        -1.4975  -0.6007   0.7020 N.3            1 S1                 0.0000
      7 ****        -1.0904   0.0821   1.9493 C.3            1 S1                 0.0000
      8 ****        -1.7920   1.4425   2.1635 C.3            1 S1                 0.0000
      9 ****         0.4378   0.3047   2.0751 C.3            1 S1                 0.0000
     10 ****         0.9632   1.0821   0.9575 N.am           1 S1                 0.0000
     11 ****         2.2520   1.3925   0.7681 C.2            1 S1                 0.0000
     12 ****         3.1000   1.0097   1.5778 O.2            1 S1                 0.0000
     13 ****         2.4777   2.1281  -0.3449 N.pl3          1 S1                -1.0000
     14 ****         3.7248   2.5067  -0.6640 C.2            1 S1                 0.0000
     15 ****         4.4136   3.6386  -0.1482 C.2            1 S1                 0.0000
     16 ****         5.6193   3.5888  -0.7883 C.2            1 S1                 0.0000
     17 ****         6.8328   4.4527  -0.7299 C.3            1 S1                 0.0000
     18 ****         5.6612   2.5239  -1.6335 O.3            1 S1                 0.0000
     19 ****         4.4427   1.8395  -1.5522 N.2            1 S1                 0.0000
     20 ****        -2.9482  -0.8181   0.6241 C.3            1 S1                 0.0000
     21 ****        -3.3635  -1.5178  -0.6835 C.3            1 S1                 0.0000
     22 ****        -4.7196  -4.5268  -3.0585 H              1 S1                 0.0000
     23 ****        -5.2352  -3.0993  -2.1784 H              1 S1                 0.0000
     24 ****        -4.8109  -4.5711  -1.3009 H              1 S1                 0.0000
     25 ****        -2.4599  -4.3790  -2.1944 H              1 S1                 0.0000
     26 ****        -2.8544  -2.8497  -2.9286 H              1 S1                 0.0000
     27 ****        -0.7477  -3.5597  -0.8468 H              1 S1                 0.0000
     28 ****        -0.9386  -2.0046  -1.6237 H              1 S1                 0.0000
     29 ****        -1.0738  -2.5511   1.3870 H              1 S1                 0.0000
     30 ****         0.2361  -1.7935   0.5075 H              1 S1                 0.0000
     31 ****        -1.3794  -0.5525   2.7884 H              1 S1                 0.0000
     32 ****        -1.3875   1.9632   3.0319 H              1 S1                 0.0000
     33 ****        -2.8596   1.3297   2.3487 H              1 S1                 0.0000
     34 ****        -1.6660   2.0972   1.3006 H              1 S1                 0.0000
     35 ****         0.6603   0.8342   3.0027 H              1 S1                 0.0000
     36 ****         0.9713  -0.6428   2.1517 H              1 S1                 0.0000
     37 ****         0.2966   1.4044   0.2713 H              1 S1                 0.0000
     38 ****         4.0782   4.3645   0.5771 H              1 S1                 0.0000
     39 ****         7.2046   4.5262   0.2921 H              1 S1                 0.0000
     40 ****         6.6060   5.4593  -1.0813 H              1 S1                 0.0000
     41 ****         7.6332   4.0505  -1.3516 H              1 S1                 0.0000
     42 ****        -3.2860  -1.4041   1.4802 H              1 S1                 0.0000
     43 ****        -3.4778   0.1324   0.6639 H              1 S1                 0.0000
     44 ****        -3.1234  -0.8771  -1.5336 H              1 S1                 0.0000
     45 ****        -4.4463  -1.6397  -0.6795 H              1 S1                 0.0000
     46 ****        -3.0094  -3.4210  -0.0937 LP             1 S1                 0.0000
     47 ****        -1.2078   0.0191  -0.0273 LP             1 S1                 0.0000
     48 ****         2.8242   0.4692   2.3727 LP             1 S1                 0.0000
     49 ****         4.0632   1.2397   1.4393 LP             1 S1                 0.0000
     50 ****         1.7119   2.3906  -0.9320 LP             1 S1                 0.0000
     51 ****         6.4083   1.9138  -1.3696 LP             1 S1                 0.0000
     52 ****         5.8063   2.8429  -2.5701 LP             1 S1                 0.0000
     53 ****         4.1724   1.0203  -2.0581 LP             1 S1                 0.0000
@<TRIPOS>BOND
    1    1    2 1     
    2    1   22 1     
    3    1   23 1     
    4    1   24 1     
    5    2    3 1     
    6    2   25 1     
    7    2   26 1     
    8    3   21 1     
    9    3    4 1     
   10    4    5 1     
   11    4   27 1     
   12    4   28 1     
   13    5    6 1     
   14    5   29 1     
   15    5   30 1     
   16    6    7 1     
   17    6   20 1     
   18    7    8 1     
   19    7    9 1     
   20    7   31 1     
   21    8   32 1     
   22    8   33 1     
   23    8   34 1     
   24    9   10 1     
   25    9   35 1     
   26    9   36 1     
   27   10   11 am    
   28   10   37 1     
   29   11   12 2     
   30   11   13 1     
   31   13   14 1     
   32   14   19 2     
   33   14   15 1     
   34   15   16 2     
   35   15   38 1     
   36   16   17 1     
   37   16   18 1     
   38   17   39 1     
   39   17   40 1     
   40   17   41 1     
   41   18   19 1     
   42   20   21 1     
   43   20   42 1     
   44   20   43 1     
   45   21   44 1     
   46   21   45 1     
   47    3   46 1     
   48    6   47 1     
   49   12   48 1     
   50   12   49 1     
   51   13   50 1     
   52   18   51 1     
   53   18   52 1     
   54   19   53 1     
@<TRIPOS>SUBSTRUCTURE
      1 S1             1
@<TRIPOS>SET
LONE_PAIRS      STATIC     ATOMS    <user>   **** ""
8 46 47 48 49 50 51 52 53
DONOR_HYDROGENS      STATIC     ATOMS    <user>   **** ""
1 37
ATOM$BLUE        STATIC     ATOMS    COLORGROUP SYSTEM
8 46 47 48 49 50 51 52 53
ATOM$RED        STATIC     ATOMS    COLORGROUP SYSTEM
1 37
