AV-unprocessed.smi:13|AV-procd|sdf|71|dock3
  -GOLD-   2262015193D 1   1.00000     0.00000
 Structure written by MMmdl.
 54 58  0  0  0  0  0  0  0  0  1 V2000
  147.8482  141.9856  154.2222 C   0  0  0  0  0  0  0  0  0  0  0  0
  147.7542  140.5496  154.7373 C   0  0  0  0  0  0  0  0  0  0  0  0
  148.2979  140.5609  156.1729 C   0  0  0  0  0  0  0  0  0  0  0  0
  146.3868  139.8690  154.5715 C   0  0  0  0  0  0  0  0  0  0  0  0
  147.1101  138.6736  154.1760 N   0  0  0  0  0  0  0  0  0  0  0  0
  146.4402  137.8939  153.1891 C   0  0  0  0  0  0  0  0  0  0  0  0
  146.4682  138.2542  151.8780 N   0  0  0  0  0  0  0  0  0  0  0  0
  145.8511  137.5221  150.9466 C   0  0  0  0  0  0  0  0  0  0  0  0
  145.1521  136.3971  151.0997 N   0  0  0  0  0  0  0  0  0  0  0  0
  145.1199  136.0170  152.4079 C   0  0  0  0  0  0  0  0  0  0  0  0
  145.7334  136.6970  153.4984 C   0  0  0  0  0  0  0  0  0  0  0  0
  145.4947  136.0045  154.6794 N   0  0  0  0  0  0  0  0  0  0  0  0
  144.7759  134.9800  154.3100 C   0  0  0  0  0  0  0  0  0  0  0  0
  144.4959  134.9139  152.9640 N   0  0  0  0  0  0  0  0  0  0  0  0
  143.7137  133.8900  152.2885 C   0  0  0  0  0  0  0  0  0  0  0  0
  144.2841  133.4988  150.9055 C   0  0  1  0  0  0  0  0  0  0  0  0
  143.9561  134.5110  149.9690 O   0  0  0  0  0  0  0  0  0  0  0  0
  145.7963  133.2950  150.8890 C   0  0  0  0  0  0  0  0  0  0  0  0
  145.9830  132.2232  149.8247 C   0  0  0  0  0  0  0  0  0  0  0  0
  144.8838  131.3603  150.0610 O   0  0  0  0  0  0  0  0  0  0  0  0
  143.7447  132.1543  150.3776 C   0  0  0  0  0  0  0  0  0  0  0  0
  148.2743  139.4556  153.7739 C   0  0  2  0  0  0  0  0  0  0  0  0
  149.5963  138.7226  154.0272 C   0  0  2  0  0  0  0  0  0  0  0  0
  149.6234  137.9309  155.3355 C   0  0  0  0  0  0  0  0  0  0  0  0
  151.0969  137.8949  155.7131 C   0  0  0  0  0  0  0  0  0  0  0  0
  151.7455  138.9238  154.7851 C   0  0  0  0  0  0  0  0  0  0  0  0
  150.6575  139.6430  154.2258 O   0  0  0  0  0  0  0  0  0  0  0  0
  147.2677  142.6719  154.8394 H   0  0  0  0  0  0  0  0  0  0  0  0
  147.4689  142.0696  153.2034 H   0  0  0  0  0  0  0  0  0  0  0  0
  148.8795  142.3398  154.2119 H   0  0  0  0  0  0  0  0  0  0  0  0
  148.3140  139.5610  156.6075 H   0  0  0  0  0  0  0  0  0  0  0  0
  147.6802  141.1796  156.8246 H   0  0  0  0  0  0  0  0  0  0  0  0
  149.3133  140.9530  156.2216 H   0  0  0  0  0  0  0  0  0  0  0  0
  145.8180  139.7553  155.4949 H   0  0  0  0  0  0  0  0  0  0  0  0
  145.7852  140.2900  153.7634 H   0  0  0  0  0  0  0  0  0  0  0  0
  145.9301  137.8912  149.9346 H   0  0  0  0  0  0  0  0  0  0  0  0
  144.4213  134.2422  155.0151 H   0  0  0  0  0  0  0  0  0  0  0  0
  143.6659  133.0136  152.9363 H   0  0  0  0  0  0  0  0  0  0  0  0
  142.6892  134.2508  152.1878 H   0  0  0  0  0  0  0  0  0  0  0  0
  143.0352  134.4447  149.7670 H   0  0  0  0  0  0  0  0  0  0  0  0
  146.3634  134.2055  150.6909 H   0  0  0  0  0  0  0  0  0  0  0  0
  146.1336  132.8952  151.8456 H   0  0  0  0  0  0  0  0  0  0  0  0
  145.9122  132.6473  148.8219 H   0  0  0  0  0  0  0  0  0  0  0  0
  146.9344  131.6985  149.9141 H   0  0  0  0  0  0  0  0  0  0  0  0
  143.1409  131.6295  151.1187 H   0  0  0  0  0  0  0  0  0  0  0  0
  143.1281  132.2797  149.4860 H   0  0  0  0  0  0  0  0  0  0  0  0
  148.1790  139.8030  152.7431 H   0  0  0  0  0  0  0  0  0  0  0  0
  149.8526  138.0647  153.1947 H   0  0  0  0  0  0  0  0  0  0  0  0
  149.0628  138.4610  156.1067 H   0  0  0  0  0  0  0  0  0  0  0  0
  149.1943  136.9344  155.2366 H   0  0  0  0  0  0  0  0  0  0  0  0
  151.2322  138.1612  156.7618 H   0  0  0  0  0  0  0  0  0  0  0  0
  151.5306  136.9066  155.5580 H   0  0  0  0  0  0  0  0  0  0  0  0
  152.4317  139.5896  155.3091 H   0  0  0  0  0  0  0  0  0  0  0  0
  152.2960  138.4270  153.9850 H   0  0  0  0  0  0  0  0  0  0  0  0
  1  2  1  0  0  0  0
  1 28  1  0  0  0  0
  1 29  1  0  0  0  0
  1 30  1  0  0  0  0
  2 22  1  0  0  0  0
  2  3  1  0  0  0  0
  2  4  1  0  0  0  0
  3 31  1  0  0  0  0
  3 32  1  0  0  0  0
  3 33  1  0  0  0  0
  4  5  1  0  0  0  0
  4 34  1  0  0  0  0
  4 35  1  0  0  0  0
  5  6  1  0  0  0  0
  5 22  1  0  0  0  0
  6 11  1  0  0  0  0
  6  7  2  0  0  0  0
  7  8  1  0  0  0  0
  8  9  2  0  0  0  0
  8 36  1  0  0  0  0
  9 10  1  0  0  0  0
 10 14  1  0  0  0  0
 10 11  2  0  0  0  0
 11 12  1  0  0  0  0
 12 13  2  0  0  0  0
 13 14  1  0  0  0  0
 13 37  1  0  0  0  0
 14 15  1  0  0  0  0
 15 16  1  0  0  0  0
 15 38  1  0  0  0  0
 15 39  1  0  0  0  0
 16 21  1  0  0  0  0
 16 17  1  0  0  0  0
 16 18  1  0  0  0  0
 17 40  1  0  0  0  0
 18 19  1  0  0  0  0
 18 41  1  0  0  0  0
 18 42  1  0  0  0  0
 19 20  1  0  0  0  0
 19 43  1  0  0  0  0
 19 44  1  0  0  0  0
 20 21  1  0  0  0  0
 21 45  1  0  0  0  0
 21 46  1  0  0  0  0
 22 23  1  0  0  0  0
 22 47  1  0  0  0  0
 23 27  1  0  0  0  0
 23 24  1  0  0  0  0
 23 48  1  0  0  0  0
 24 25  1  0  0  0  0
 24 49  1  0  0  0  0
 24 50  1  0  0  0  0
 25 26  1  0  0  0  0
 25 51  1  0  0  0  0
 25 52  1  0  0  0  0
 26 27  1  0  0  0  0
 26 53  1  0  0  0  0
 26 54  1  0  0  0  0
M  END
> <s_m_source_file>
AV-unprocessed.smi

> <i_m_source_file_index>
13

> <i_lp_mmshare_version>
43012

> <i_f3d_flags>
0

> <s_epik_input>
TzFbQ0gyXVtDSDJdW0NIMl1bQ0BIXTFbQ0BASF0yTihbQ0gyXUMyKFtDSDNdKVtDSDNdKWMobltjSF1uMyljKGMzNCluW2NIXW40W0NIMl1bQ0BAXTUoW09IXSlbQ0gyXVtDSDJdT1tDSDJdNQ==

> <s_epik_cmdline>
J2VwaWtfcHl0aG9uJywgJy1waCcsICc3LjAnLCAnLXRuJywgJzgnLCAnLW1hJywgJzIwMCcsICctbWV0YWxfYmluZGluZycsICctaW1hZScsICc8aW5maWxlLm1hZT4nLCAnLW9tYWUnLCAnPG91dGZpbGUubWFlPic=

> <r_lp_tautomer_probability>
1

> <r_epik_Ionization_Penalty>
0.00202764

> <r_epik_Ionization_Penalty_Charging>
0

> <r_epik_Ionization_Penalty_Neutral>
0.00202764

> <r_epik_State_Penalty>
0.00134017

> <r_epik_Charging_Adjusted_Penalty>
0.00134017

> <i_epik_Tot_Q>
0

> <i_epik_Tot_abs_Q>
0

> <r_epik_Metal_State_Penalty>
-0

> <b_epik_Metal_Only>
0

> <s_lp_Force_Field>
OPLS_2005

> <r_lp_Energy>
61.7559

> <b_lp_Chiralities_Consistent>
1

> <s_lp_Variant>
AV-unprocessed.smi:13-3

> <Gold.Version>
5.8.1

> <Gold.Id.Protein>
6NUR|6NUR_protein|mol2

> <Gold.PLP.Fitness>
38.5398

> <Gold.PLP.PLP>
-34.0988

> <Gold.PLP.part.hbond>
-3.4235

> <Gold.PLP.part.metal>
0.0000

> <Gold.PLP.part.buried>
-1.3284

> <Gold.PLP.part.nonpolar>
-33.5810

> <Gold.PLP.part.repulsive>
3.0484

> <Gold.PLP.ligand.clash>
0.0000

> <Gold.PLP.ligand.torsion>
1.3980

> <Gold.PLP.Chemscore.Hbond>
2.0000

> <Gold.PLP.Chemscore.CHOScore>
0.2684

> <Gold.PLP.Chemscore.Metal>
0.0000

> <Gold.Chemscore.Hbonds>
donor molecule, donor type, donor heavy atom, donor atom, acceptor molecule, acceptor atom, score
      L1  H    17    40       P1 10186  0.99
      P1  H  7989  7998       L1    27  0.80
      L1  C     8    36       P1 10171  0.33

> <Gold.PLP.Chemscore.Internal.Correction>
0.4318

> <Gold.Rescore>
     Score         DG    S(hbond)    S(metal)    S(lipo)     H(rot)  DE(clash)    DE(int)     intcor
     11.85     -15.60       1.80        0.00      85.38       2.30       2.31       1.43       ----

> <Gold.Chemscore.Fitness>
11.8488

> <Gold.Chemscore.DG>
-15.5951

> <Gold.Chemscore.ZeroCoef>
-5.4800

> <Gold.Chemscore.Hbond>
1.8002

> <Gold.Chemscore.Metal>
0.0000

> <Gold.Chemscore.Lipo>
85.3793

> <Gold.Chemscore.Internal_Hbond>
0.0000

> <Gold.Chemscore.DEClash>
2.3128

> <Gold.Chemscore.DEInternal>
1.4335

> <Gold.Chemscore.Rot>
2.2996

> <Gold.Chemscore.Internal.Correction>
   9.000000E+99

> <Gold.Chemscore.Hbonds>
donor molecule, donor type, donor heavy atom, donor atom, acceptor molecule, acceptor atom, score
      L1  H    17    40       P1 10186  0.89
      P1  H  7989  7998       L1    27  0.12

> <Gold.Chemscore.Hbond.Weighted>
-6.0127

> <Gold.Chemscore.Metal.Weighted>
-0.0000

> <Gold.Chemscore.Lipo.Weighted>
-9.9894

> <Gold.Chemscore.Internal_Hbond.Weighted>
0.0000

> <Gold.Chemscore.DEClash.Weighted>
2.3128

> <Gold.Chemscore.DEInternal.Weighted>
1.4335

> <Gold.Chemscore.Rot.Weighted>
5.8869

> <Gold.Chemscore.Internal.Correction.Weighted>
   9.000000E+99

> <Gold.Protein.RotatedTorsions>
[ 6907 6896 6895 6894 ] final  -49.08 input  -60.11 | X-H torsion
[ 7974 7965 7964 7962 ] final  114.12 input  175.53 | X-H torsion
[ 8008 7997 7996 7995 ] final  120.24 input   59.86 | X-H torsion
[ 10167 10162 10161 10158 ] final  -79.39 input  -65.29 | X-H torsion
[ 10718 10713 10712 10709 ] final  175.48 input   66.30 | X-H torsion
[ 10763 10752 10751 10750 ] final  153.62 input  -60.55 | X-H torsion
[ 11005 11000 10999 10996 ] final   68.22 input  -57.11 | X-H torsion

> <Gold.Protein.ActiveResidues>
 VAL166  LYS551  ARG553  GLY616  TRP617  ASP618  TYR619  PRO620  LYS621  CYS622 
 ASP623  PHE694  ASN695  SER759  ASP760  ASP761  ALA762  ILE779  LEU786  VAL792 
 PHE793  MET794  SER795  GLU796  ALA797  LYS798  CYS799  TRP800  GLU811  SER814 

> <Gold.Protein.RotatedAtoms>
  150.8840  134.8236  159.7245 H   0  0  0  0  0  0  0  0  0  0  0  0  # atno 6907 bound_to 6896
  152.4796  134.4751  159.9657 H   0  0  0  0  0  0  0  0  0  0  0  0  # atno 6908 bound_to 6896
  151.4822  133.3505  159.2875 H   0  0  0  0  0  0  0  0  0  0  0  0  # atno 6909 bound_to 6896
  145.2084  139.2918  143.4281 H   0  0  0  0  0  0  0  0  0  0  0  0  # atno 7974 bound_to 7965
  156.2633  140.2835  156.1119 H   0  0  0  0  0  0  0  0  0  0  0  0  # atno 8008 bound_to 7997
  155.1248  140.0393  157.2777 H   0  0  0  0  0  0  0  0  0  0  0  0  # atno 8009 bound_to 7997
  154.6643  140.2573  155.7081 H   0  0  0  0  0  0  0  0  0  0  0  0  # atno 8010 bound_to 7997
  140.4598  143.2457  151.8366 H   0  0  0  0  0  0  0  0  0  0  0  0  # atno 10167 bound_to 10162
  156.9342  130.9980  151.2981 H   0  0  0  0  0  0  0  0  0  0  0  0  # atno 10718 bound_to 10713
  154.1392  135.2822  155.3165 H   0  0  0  0  0  0  0  0  0  0  0  0  # atno 10763 bound_to 10752
  154.6299  135.5438  153.7672 H   0  0  0  0  0  0  0  0  0  0  0  0  # atno 10764 bound_to 10752
  153.0256  135.6460  154.1539 H   0  0  0  0  0  0  0  0  0  0  0  0  # atno 10765 bound_to 10752
  139.9724  134.6878  156.0420 H   0  0  0  0  0  0  0  0  0  0  0  0  # atno 11005 bound_to 11000
  146.3403  140.2351  142.8594 LP  0  0  0  0  0  0  0  0  0  0  0  0  # atno 17320 bound_to 7965
  144.9880  140.8520  143.5357 LP  0  0  0  0  0  0  0  0  0  0  0  0  # atno 17321 bound_to 7965
  139.4805  144.5022  151.9046 LP  0  0  0  0  0  0  0  0  0  0  0  0  # atno 17342 bound_to 10162
  140.4108  144.2372  150.5889 LP  0  0  0  0  0  0  0  0  0  0  0  0  # atno 17343 bound_to 10162
  157.5827  130.8388  149.8546 LP  0  0  0  0  0  0  0  0  0  0  0  0  # atno 17370 bound_to 10713
  156.0433  130.3733  150.1379 LP  0  0  0  0  0  0  0  0  0  0  0  0  # atno 17371 bound_to 10713
  141.1403  133.6566  156.3711 LP  0  0  0  0  0  0  0  0  0  0  0  0  # atno 17394 bound_to 11000
  140.5265  134.6254  157.5336 LP  0  0  0  0  0  0  0  0  0  0  0  0  # atno 17395 bound_to 11000

$$$$
