AV-unprocessed.smi:2229|AV-procd|sdf|9031|dock8
  -GOLD-   2272012233D 1   1.00000     0.00000
 Structure written by MMmdl.
 43 44  0  0  0  0  0  0  0  0  2 V2000
  152.1360  142.3767  159.2342 C   0  0  0  0  0  0  0  0  0  0  0  0
  151.8437  143.2221  157.9853 C   0  0  0  0  0  0  0  0  0  0  0  0
  151.6530  144.6991  158.3745 C   0  0  0  0  0  0  0  0  0  0  0  0
  150.6319  142.6563  157.2165 C   0  0  0  0  0  0  0  0  0  0  0  0
  150.9769  141.4863  156.2786 C   0  0  0  0  0  0  0  0  0  0  0  0
  149.7424  140.8679  155.5969 C   0  0  2  0  0  0  0  0  0  0  0  0
  149.9954  139.5397  154.8792 C   0  0  0  0  0  0  0  0  0  0  0  0
  148.7936  139.3957  153.9492 C   0  0  0  0  0  0  0  0  0  0  0  0
  148.4861  140.8207  153.4777 C   0  0  0  0  0  0  0  0  0  0  0  0
  149.1112  141.7709  154.5176 C   0  0  1  0  0  0  0  0  0  0  0  0
  148.1050  142.6515  155.1041 N   0  0  0  0  0  0  0  0  0  0  0  0
  146.9797  142.2411  155.7083 C   0  0  0  0  0  0  0  0  0  0  0  0
  146.7212  141.0577  155.9312 O   0  0  0  0  0  0  0  0  0  0  0  0
  145.9998  143.3406  156.1319 C   0  0  0  0  0  0  0  0  0  0  0  0
  145.8795  143.4500  157.5882 N   0  0  0  0  0  0  0  0  0  0  0  0
  146.8264  144.0590  158.3727 C   0  0  0  0  0  0  0  0  0  0  0  0
  146.4805  144.0302  159.6096 N   0  0  0  0  0  0  0  0  0  0  0  0
  145.2183  143.3570  159.6623 N   0  5  0  0  0  0  0  0  0  0  0  0
  144.9018  143.0243  158.3913 C   0  0  0  0  0  0  0  0  0  0  0  0
  143.9016  142.4348  157.9829 O   0  0  0  0  0  0  0  0  0  0  0  0
  151.2970  142.3958  159.9305 H   0  0  0  0  0  0  0  0  0  0  0  0
  153.0154  142.7457  159.7628 H   0  0  0  0  0  0  0  0  0  0  0  0
  152.3265  141.3359  158.9705 H   0  0  0  0  0  0  0  0  0  0  0  0
  152.7190  143.1547  157.3377 H   0  0  0  0  0  0  0  0  0  0  0  0
  150.7575  144.8371  158.9813 H   0  0  0  0  0  0  0  0  0  0  0  0
  151.5629  145.3428  157.5001 H   0  0  0  0  0  0  0  0  0  0  0  0
  152.5023  145.0649  158.9520 H   0  0  0  0  0  0  0  0  0  0  0  0
  149.8857  142.3119  157.9334 H   0  0  0  0  0  0  0  0  0  0  0  0
  150.1571  143.4577  156.6488 H   0  0  0  0  0  0  0  0  0  0  0  0
  151.6504  141.8410  155.5001 H   0  0  0  0  0  0  0  0  0  0  0  0
  151.5244  140.7194  156.8276 H   0  0  0  0  0  0  0  0  0  0  0  0
  148.9893  140.6769  156.3644 H   0  0  0  0  0  0  0  0  0  0  0  0
  150.9132  139.5966  154.2920 H   0  0  0  0  0  0  0  0  0  0  0  0
  150.0883  138.6998  155.5684 H   0  0  0  0  0  0  0  0  0  0  0  0
  148.9834  138.7118  153.1215 H   0  0  0  0  0  0  0  0  0  0  0  0
  147.9441  139.0068  154.5121 H   0  0  0  0  0  0  0  0  0  0  0  0
  148.9426  140.9968  152.5031 H   0  0  0  0  0  0  0  0  0  0  0  0
  147.4119  140.9687  153.3569 H   0  0  0  0  0  0  0  0  0  0  0  0
  149.8895  142.3499  154.0164 H   0  0  0  0  0  0  0  0  0  0  0  0
  148.2369  143.6440  154.9748 H   0  0  0  0  0  0  0  0  0  0  0  0
  146.3299  144.2844  155.6951 H   0  0  0  0  0  0  0  0  0  0  0  0
  145.0107  143.1380  155.7171 H   0  0  0  0  0  0  0  0  0  0  0  0
  147.7248  144.4839  157.9219 H   0  0  0  0  0  0  0  0  0  0  0  0
  1  2  1  0  0  0  0
  1 21  1  0  0  0  0
  1 22  1  0  0  0  0
  1 23  1  0  0  0  0
  2  3  1  0  0  0  0
  2  4  1  0  0  0  0
  2 24  1  0  0  0  0
  3 25  1  0  0  0  0
  3 26  1  0  0  0  0
  3 27  1  0  0  0  0
  4  5  1  0  0  0  0
  4 28  1  0  0  0  0
  4 29  1  0  0  0  0
  5  6  1  0  0  0  0
  5 30  1  0  0  0  0
  5 31  1  0  0  0  0
  6 10  1  0  0  0  0
  6  7  1  0  0  0  0
  6 32  1  0  0  0  0
  7  8  1  0  0  0  0
  7 33  1  0  0  0  0
  7 34  1  0  0  0  0
  8  9  1  0  0  0  0
  8 35  1  0  0  0  0
  8 36  1  0  0  0  0
  9 10  1  0  0  0  0
  9 37  1  0  0  0  0
  9 38  1  0  0  0  0
 10 11  1  0  0  0  0
 10 39  1  0  0  0  0
 11 12  1  0  0  0  0
 11 40  1  0  0  0  0
 12 13  2  0  0  0  0
 12 14  1  0  0  0  0
 14 15  1  0  0  0  0
 14 41  1  0  0  0  0
 14 42  1  0  0  0  0
 15 19  1  0  0  0  0
 15 16  1  0  0  0  0
 16 17  2  0  0  0  0
 16 43  1  0  0  0  0
 17 18  1  0  0  0  0
 18 19  1  0  0  0  0
 19 20  2  0  0  0  0
M  CHG  1  18  -1
M  END
> <s_m_source_file>
AV-unprocessed.smi

> <i_m_source_file_index>
2229

> <i_lp_mmshare_version>
43012

> <i_f3d_flags>
0

> <s_epik_input>
W0NIM11bQ0hdKFtDSDNdKVtDSDJdW0NIMl1bQ0BASF0xW0NIMl1bQ0gyXVtDSDJdW0NASF0xW05IXUMoPU8pW0NIMl1uMltjSF1uW25IXWMyPU8=

> <s_epik_cmdline>
J2VwaWtfcHl0aG9uJywgJy1waCcsICc3LjAnLCAnLXRuJywgJzgnLCAnLW1hJywgJzIwMCcsICctbWV0YWxfYmluZGluZycsICctaW1hZScsICc8aW5maWxlLm1hZT4nLCAnLW9tYWUnLCAnPG91dGZpbGUubWFlPic=

> <r_lp_tautomer_probability>
1

> <r_epik_Ionization_Penalty>
13.6733

> <r_epik_Ionization_Penalty_Charging>
13.6725

> <r_epik_Ionization_Penalty_Neutral>
0.000837689

> <r_epik_State_Penalty>
5.67062

> <r_epik_Charging_Adjusted_Penalty>
19.3431

> <i_epik_Tot_Q>
-1

> <i_epik_Tot_abs_Q>
1

> <r_epik_Metal_State_Penalty>
1.61781

> <b_epik_Metal_Only>
1

> <s_lp_Force_Field>
OPLS_2005

> <r_lp_Energy>
25.828

> <b_lp_Chiralities_Consistent>
1

> <s_lp_Variant>
AV-unprocessed.smi:2229-5

> <Gold.Version>
5.8.1

> <Gold.Id.Protein>
6NUR|6NUR_protein|mol2

> <Gold.PLP.Fitness>
43.2693

> <Gold.PLP.PLP>
-33.5433

> <Gold.PLP.part.hbond>
-3.4268

> <Gold.PLP.part.metal>
0.0000

> <Gold.PLP.part.buried>
-1.6229

> <Gold.PLP.part.nonpolar>
-28.0497

> <Gold.PLP.part.repulsive>
0.1291

> <Gold.PLP.ligand.clash>
0.0000

> <Gold.PLP.ligand.torsion>
0.6207

> <Gold.PLP.Chemscore.Hbond>
2.6440

> <Gold.PLP.Chemscore.CHOScore>
1.0000

> <Gold.PLP.Chemscore.Metal>
0.0000

> <Gold.Chemscore.Hbonds>
donor molecule, donor type, donor heavy atom, donor atom, acceptor molecule, acceptor atom, score
      L1  H    11    40       P1  8028  0.52

> <Gold.PLP.Chemscore.Internal.Correction>
0.0355

> <Gold.Rescore>
     Score         DG    S(hbond)    S(metal)    S(lipo)     H(rot)  DE(clash)    DE(int)     intcor
     12.12     -14.18       1.76        0.00      80.82       2.59       0.32       1.74       ----

> <Gold.Chemscore.Fitness>
12.1222

> <Gold.Chemscore.DG>
-14.1838

> <Gold.Chemscore.ZeroCoef>
-5.4800

> <Gold.Chemscore.Hbond>
1.7631

> <Gold.Chemscore.Metal>
0.0000

> <Gold.Chemscore.Lipo>
80.8176

> <Gold.Chemscore.Internal_Hbond>
0.0000

> <Gold.Chemscore.DEClash>
0.3232

> <Gold.Chemscore.DEInternal>
1.7384

> <Gold.Chemscore.Rot>
2.5939

> <Gold.Chemscore.Internal.Correction>
   9.000000E+99

> <Gold.Chemscore.Hbonds>
donor molecule, donor type, donor heavy atom, donor atom, acceptor molecule, acceptor atom, score
      L1  H    11    40       P1  8028  0.45

> <Gold.Chemscore.Hbond.Weighted>
-5.8887

> <Gold.Chemscore.Metal.Weighted>
-0.0000

> <Gold.Chemscore.Lipo.Weighted>
-9.4557

> <Gold.Chemscore.Internal_Hbond.Weighted>
0.0000

> <Gold.Chemscore.DEClash.Weighted>
0.3232

> <Gold.Chemscore.DEInternal.Weighted>
1.7384

> <Gold.Chemscore.Rot.Weighted>
6.6405

> <Gold.Chemscore.Internal.Correction.Weighted>
   9.000000E+99

> <Gold.Protein.RotatedTorsions>
[ 6907 6896 6895 6894 ] final   -0.83 input  -60.11 | X-H torsion
[ 7974 7965 7964 7962 ] final -168.93 input  175.53 | X-H torsion
[ 8008 7997 7996 7995 ] final  -15.45 input   59.86 | X-H torsion
[ 10167 10162 10161 10158 ] final  -12.78 input  -65.29 | X-H torsion
[ 10718 10713 10712 10709 ] final -146.39 input   66.30 | X-H torsion
[ 10763 10752 10751 10750 ] final   46.93 input  -60.55 | X-H torsion
[ 11005 11000 10999 10996 ] final    3.77 input  -57.11 | X-H torsion

> <Gold.Protein.ActiveResidues>
 VAL166  LYS551  ARG553  GLY616  TRP617  ASP618  TYR619  PRO620  LYS621  CYS622 
 ASP623  PHE694  ASN695  SER759  ASP760  ASP761  ALA762  ILE779  LEU786  VAL792 
 PHE793  MET794  SER795  GLU796  ALA797  LYS798  CYS799  TRP800  GLU811  SER814 

> <Gold.Protein.RotatedAtoms>
  151.5558  135.1066  159.9960 H   0  0  0  0  0  0  0  0  0  0  0  0  # atno 6907 bound_to 6896
  152.4470  133.7551  159.6726 H   0  0  0  0  0  0  0  0  0  0  0  0  # atno 6908 bound_to 6896
  150.8388  133.7902  159.3093 H   0  0  0  0  0  0  0  0  0  0  0  0  # atno 6909 bound_to 6896
  144.7194  140.2297  143.6305 H   0  0  0  0  0  0  0  0  0  0  0  0  # atno 7974 bound_to 7965
  154.5129  140.2196  155.9121 H   0  0  0  0  0  0  0  0  0  0  0  0  # atno 8008 bound_to 7997
  156.1574  140.3149  155.8714 H   0  0  0  0  0  0  0  0  0  0  0  0  # atno 8009 bound_to 7997
  155.3820  140.0473  157.3034 H   0  0  0  0  0  0  0  0  0  0  0  0  # atno 8010 bound_to 7997
  140.7168  143.5496  150.9316 H   0  0  0  0  0  0  0  0  0  0  0  0  # atno 10167 bound_to 10162
  156.3944  130.7902  151.2107 H   0  0  0  0  0  0  0  0  0  0  0  0  # atno 10718 bound_to 10713
  152.9805  135.5992  154.3679 H   0  0  0  0  0  0  0  0  0  0  0  0  # atno 10763 bound_to 10752
  154.3355  135.2768  155.2451 H   0  0  0  0  0  0  0  0  0  0  0  0  # atno 10764 bound_to 10752
  154.4556  135.5979  153.6276 H   0  0  0  0  0  0  0  0  0  0  0  0  # atno 10765 bound_to 10752
  140.5893  133.9939  155.8082 H   0  0  0  0  0  0  0  0  0  0  0  0  # atno 11005 bound_to 11000
  145.8422  139.2135  143.1820 LP  0  0  0  0  0  0  0  0  0  0  0  0  # atno 17320 bound_to 7965
  146.0336  140.8234  142.9864 LP  0  0  0  0  0  0  0  0  0  0  0  0  # atno 17321 bound_to 7965
  139.9220  143.6594  152.3094 LP  0  0  0  0  0  0  0  0  0  0  0  0  # atno 17342 bound_to 10162
  139.7014  144.7634  151.1266 LP  0  0  0  0  0  0  0  0  0  0  0  0  # atno 17343 bound_to 10162
  157.7501  131.0306  150.4143 LP  0  0  0  0  0  0  0  0  0  0  0  0  # atno 17370 bound_to 10713
  156.4411  130.3992  149.6697 LP  0  0  0  0  0  0  0  0  0  0  0  0  # atno 17371 bound_to 10713
  141.0945  133.9865  157.3183 LP  0  0  0  0  0  0  0  0  0  0  0  0  # atno 17394 bound_to 11000
  139.9281  135.0201  156.8306 LP  0  0  0  0  0  0  0  0  0  0  0  0  # atno 17395 bound_to 11000

$$$$
