#       Name:                AV-unprocessed.smi:2801
#       Creating user name   scv26
#       Creation time:       Fri Mar 27 15:23:05 2020


#       File generated by GOLD software.
#

@<TRIPOS>MOLECULE
AV-unprocessed.smi:2801
    36    36     1
SMALL
NO_CHARGES


@<TRIPOS>ATOM
      1 ****        -3.9247   0.0456  -1.1703 C.3            1 S1                 0.0000
      2 ****        -2.4020   0.1870  -1.1189 C.3            1 S1                 0.0000
      3 ****        -1.8280  -1.1138  -1.0784 O.3            1 S1                 0.0000
      4 ****        -0.4029  -1.1553  -1.0989 C.3            1 S1                 0.0000
      5 ****         0.0235  -2.6033  -1.4060 C.3            1 S1                 0.0000
      6 ****        -0.3377  -3.0398  -2.8313 C.3            1 S1                 0.0000
      7 ****         0.1581  -0.6859   0.2535 C.2            1 S1                 0.0000
      8 ****        -0.0650  -1.3488   1.2663 O.2            1 S1                 0.0000
      9 ****         0.8479   0.4691   0.2258 N.am           1 S1                 0.0000
     10 ****         1.4852   1.1742   1.2860 C.ar           1 S1                 0.0000
     11 ****         1.8059   0.5905   2.5388 C.ar           1 S1                 0.0000
     12 ****         2.4528   1.3673   3.5208 C.ar           1 S1                 0.0000
     13 ****         2.7710   2.6530   3.2631 N.pl3          1 S1                 1.0000
     14 ****         2.4988   3.2488   2.0838 C.ar           1 S1                 0.0000
     15 ****         1.8516   2.5255   1.0615 C.ar           1 S1                 0.0000
     16 ****         1.5895   3.1470  -0.1275 O.co2          1 S1                -1.0000
     17 ****        -4.4062   1.0229  -1.2036 H              1 S1                 0.0000
     18 ****        -4.2977  -0.4820  -0.2920 H              1 S1                 0.0000
     19 ****        -4.2361  -0.5119  -2.0540 H              1 S1                 0.0000
     20 ****        -2.0507   0.7246  -2.0008 H              1 S1                 0.0000
     21 ****        -2.1200   0.7708  -0.2421 H              1 S1                 0.0000
     22 ****        -0.0293  -0.5072  -1.8947 H              1 S1                 0.0000
     23 ****         1.1018  -2.7051  -1.2753 H              1 S1                 0.0000
     24 ****        -0.4375  -3.2882  -0.6928 H              1 S1                 0.0000
     25 ****        -0.0085  -4.0618  -3.0192 H              1 S1                 0.0000
     26 ****         0.1371  -2.3961  -3.5722 H              1 S1                 0.0000
     27 ****        -1.4149  -3.0027  -2.9955 H              1 S1                 0.0000
     28 ****         0.8791   0.9405  -0.6673 H              1 S1                 0.0000
     29 ****         1.5824  -0.4395   2.7662 H              1 S1                 0.0000
     30 ****         2.7293   0.9976   4.4971 H              1 S1                 0.0000
     31 ****         2.8073   4.2802   1.9924 H              1 S1                 0.0000
     32 ****         3.2408   3.1964   3.9870 H              1 S1                 0.0000
     33 ****        -2.1628  -1.6234  -1.8711 LP             1 S1                 0.0000
     34 ****        -2.1375  -1.5614  -0.2395 LP             1 S1                 0.0000
     35 ****        -0.6079  -2.1864   1.2060 LP             1 S1                 0.0000
     36 ****         0.2966  -1.0497   2.1493 LP             1 S1                 0.0000
@<TRIPOS>BOND
    1    1    2 1     
    2    1   17 1     
    3    1   18 1     
    4    1   19 1     
    5    2    3 1     
    6    2   20 1     
    7    2   21 1     
    8    3    4 1     
    9    4    5 1     
   10    4    7 1     
   11    4   22 1     
   12    5    6 1     
   13    5   23 1     
   14    5   24 1     
   15    6   25 1     
   16    6   26 1     
   17    6   27 1     
   18    7    8 2     
   19    7    9 am    
   20    9   28 1     
   21    9   10 1     
   22   10   11 ar    
   23   10   15 ar    
   24   11   12 ar    
   25   11   29 1     
   26   12   13 ar    
   27   12   30 1     
   28   13   14 ar    
   29   13   32 1     
   30   14   15 ar    
   31   14   31 1     
   32   15   16 ar    
   33    3   33 1     
   34    3   34 1     
   35    8   35 1     
   36    8   36 1     
@<TRIPOS>SUBSTRUCTURE
      1 S1             1
@<TRIPOS>SET
LONE_PAIRS      STATIC     ATOMS    <user>   **** ""
5 33 34 35 36 16
DONOR_HYDROGENS      STATIC     ATOMS    <user>   **** ""
2 28 32
ATOM$BLUE        STATIC     ATOMS    COLORGROUP SYSTEM
5 33 34 35 36 16
ATOM$RED        STATIC     ATOMS    COLORGROUP SYSTEM
2 28 32
