AV-unprocessed.smi:66|AV-procd|sdf|623|dock4
  -GOLD-   2262016513D 1   1.00000     0.00000
 Structure written by MMmdl.
 28 30  0  0  0  0  0  0  0  0  2 V2000
  150.7661  136.9233  158.8160 O   0  0  0  0  0  0  0  0  0  0  0  0
  149.7596  137.6620  158.7480 C   0  0  0  0  0  0  0  0  0  0  0  0
  148.6020  137.3421  159.0997 O   0  5  0  0  0  0  0  0  0  0  0  0
  149.9734  139.0729  158.1797 C   0  0  2  0  0  0  0  0  0  0  0  0
  149.5798  139.1763  156.6890 C   0  0  0  0  0  0  0  0  0  0  0  0
  150.7572  139.8989  156.0342 C   0  0  2  0  0  0  0  0  0  0  0  0
  150.9393  139.5239  154.6853 O   0  0  0  0  0  0  0  0  0  0  0  0
  151.9330  139.4924  156.9151 C   0  0  0  0  0  0  0  0  0  0  0  0
  151.3819  139.4718  158.2669 N   0  0  0  0  0  0  0  0  0  0  0  0
  151.7059  140.4901  159.1930 C   0  0  0  0  0  0  0  0  0  0  0  0
  152.2872  140.1718  160.3753 N   0  0  0  0  0  0  0  0  0  0  0  0
  152.5824  141.1609  161.2290 C   0  0  0  0  0  0  0  0  0  0  0  0
  152.3835  142.4812  161.0966 N   0  0  0  0  0  0  0  0  0  0  0  0
  151.8054  142.8173  159.9362 C   0  0  0  0  0  0  0  0  0  0  0  0
  151.4772  144.1040  159.5306 N   0  0  0  0  0  0  0  0  0  0  0  0
  150.9357  143.8854  158.3332 C   0  0  0  0  0  0  0  0  0  0  0  0
  150.8795  142.6066  157.9284 N   0  0  0  0  0  0  0  0  0  0  0  0
  151.4448  141.8552  158.9458 C   0  0  0  0  0  0  0  0  0  0  0  0
  150.5061  142.2825  157.0456 H   0  0  0  0  0  0  0  0  0  0  0  0
  149.3578  139.7773  158.7414 H   0  0  0  0  0  0  0  0  0  0  0  0
  149.4521  138.1882  156.2424 H   0  0  0  0  0  0  0  0  0  0  0  0
  148.6437  139.7171  156.5473 H   0  0  0  0  0  0  0  0  0  0  0  0
  150.6089  140.9781  156.0955 H   0  0  0  0  0  0  0  0  0  0  0  0
  150.6043  138.6470  154.5739 H   0  0  0  0  0  0  0  0  0  0  0  0
  152.2573  138.4780  156.6774 H   0  0  0  0  0  0  0  0  0  0  0  0
  152.7989  140.1374  156.7662 H   0  0  0  0  0  0  0  0  0  0  0  0
  153.0460  140.8519  162.1541 H   0  0  0  0  0  0  0  0  0  0  0  0
  150.5627  144.6928  157.7205 H   0  0  0  0  0  0  0  0  0  0  0  0
  1  2  2  0  0  0  0
  2  3  1  0  0  0  0
  2  4  1  0  0  0  0
  4  9  1  0  0  0  0
  4  5  1  0  0  0  0
  4 20  1  0  0  0  0
  5  6  1  0  0  0  0
  5 21  1  0  0  0  0
  5 22  1  0  0  0  0
  6  7  1  0  0  0  0
  6  8  1  0  0  0  0
  6 23  1  0  0  0  0
  7 24  1  0  0  0  0
  8  9  1  0  0  0  0
  8 25  1  0  0  0  0
  8 26  1  0  0  0  0
  9 10  1  0  0  0  0
 10 18  1  0  0  0  0
 10 11  2  0  0  0  0
 11 12  1  0  0  0  0
 12 13  2  0  0  0  0
 12 27  1  0  0  0  0
 13 14  1  0  0  0  0
 14 18  2  0  0  0  0
 14 15  1  0  0  0  0
 15 16  2  0  0  0  0
 16 17  1  0  0  0  0
 16 28  1  0  0  0  0
 17 19  1  0  0  0  0
 17 18  1  0  0  0  0
M  CHG  1   3  -1
M  END
> <s_m_source_file>
AV-unprocessed.smi

> <i_m_source_file_index>
66

> <i_lp_mmshare_version>
43012

> <i_f3d_flags>
0

> <s_epik_input>
Tz1DKFtPSF0pW0NAQEhdMVtDSDJdW0NAQEhdKFtPSF0pW0NIMl1OMWMobltjSF1uMiljKGMyMylbbkhdW2NIXW4z

> <s_epik_cmdline>
J2VwaWtfcHl0aG9uJywgJy1waCcsICc3LjAnLCAnLXRuJywgJzgnLCAnLW1hJywgJzIwMCcsICctbWV0YWxfYmluZGluZycsICctaW1hZScsICc8aW5maWxlLm1hZT4nLCAnLW9tYWUnLCAnPG91dGZpbGUubWFlPic=

> <r_lp_tautomer_probability>
0.0419193

> <r_epik_Ionization_Penalty>
0.0157405

> <r_epik_Ionization_Penalty_Charging>
0.000248217

> <r_epik_Ionization_Penalty_Neutral>
0.0154923

> <r_epik_State_Penalty>
1.99742

> <r_epik_Charging_Adjusted_Penalty>
1.99767

> <i_epik_Tot_Q>
-1

> <i_epik_Tot_abs_Q>
1

> <r_epik_Metal_State_Penalty>
2.31035

> <b_epik_Metal_Only>
0

> <s_lp_Force_Field>
OPLS_2005

> <r_lp_Energy>
22.103

> <b_lp_Chiralities_Consistent>
1

> <s_lp_Variant>
AV-unprocessed.smi:66-7

> <Gold.Version>
5.8.1

> <Gold.Id.Protein>
6NUR|6NUR_protein|mol2

> <Gold.PLP.Fitness>
36.7408

> <Gold.PLP.PLP>
-27.4740

> <Gold.PLP.part.hbond>
-2.8683

> <Gold.PLP.part.metal>
0.0000

> <Gold.PLP.part.buried>
-6.4998

> <Gold.PLP.part.nonpolar>
-19.9037

> <Gold.PLP.part.repulsive>
0.0545

> <Gold.PLP.ligand.clash>
0.0000

> <Gold.PLP.ligand.torsion>
0.8188

> <Gold.PLP.Chemscore.Hbond>
2.5600

> <Gold.PLP.Chemscore.CHOScore>
1.0000

> <Gold.PLP.Chemscore.Metal>
0.0000

> <Gold.Chemscore.Hbonds>
donor molecule, donor type, donor heavy atom, donor atom, acceptor molecule, acceptor atom, score
      P1  H  6896  6908       L1     1  1.12
      P1  H  7989  7998       L1     7  1.00
      L1  C    16    28       P1  8028  0.79

> <Gold.PLP.Chemscore.Internal.Correction>
0.2244

> <Gold.Rescore>
     Score         DG    S(hbond)    S(metal)    S(lipo)     H(rot)  DE(clash)    DE(int)     intcor
      7.79      -8.65       1.93        0.00      26.06       2.48       0.02       0.83       ----

> <Gold.Chemscore.Fitness>
7.7917

> <Gold.Chemscore.DG>
-8.6480

> <Gold.Chemscore.ZeroCoef>
-5.4800

> <Gold.Chemscore.Hbond>
1.9336

> <Gold.Chemscore.Metal>
0.0000

> <Gold.Chemscore.Lipo>
26.0572

> <Gold.Chemscore.Internal_Hbond>
0.0000

> <Gold.Chemscore.DEClash>
0.0243

> <Gold.Chemscore.DEInternal>
0.8319

> <Gold.Chemscore.Rot>
2.4762

> <Gold.Chemscore.Internal.Correction>
   9.000000E+99

> <Gold.Chemscore.Hbonds>
donor molecule, donor type, donor heavy atom, donor atom, acceptor molecule, acceptor atom, score
      P1  H  6896  6908       L1     1  0.55
      P1  H  7989  7998       L1     7  0.94

> <Gold.Chemscore.Hbond.Weighted>
-6.4583

> <Gold.Chemscore.Metal.Weighted>
-0.0000

> <Gold.Chemscore.Lipo.Weighted>
-3.0487

> <Gold.Chemscore.Internal_Hbond.Weighted>
0.0000

> <Gold.Chemscore.DEClash.Weighted>
0.0243

> <Gold.Chemscore.DEInternal.Weighted>
0.8319

> <Gold.Chemscore.Rot.Weighted>
6.3391

> <Gold.Chemscore.Internal.Correction.Weighted>
   9.000000E+99

> <Gold.Protein.RotatedTorsions>
[ 6907 6896 6895 6894 ] final -128.55 input  -60.11 | X-H torsion
[ 7974 7965 7964 7962 ] final   12.46 input  175.53 | X-H torsion
[ 8008 7997 7996 7995 ] final  130.14 input   59.86 | X-H torsion
[ 10167 10162 10161 10158 ] final  -91.19 input  -65.29 | X-H torsion
[ 10718 10713 10712 10709 ] final   56.08 input   66.30 | X-H torsion
[ 10763 10752 10751 10750 ] final  126.11 input  -60.55 | X-H torsion
[ 11005 11000 10999 10996 ] final  140.66 input  -57.11 | X-H torsion

> <Gold.Protein.ActiveResidues>
 VAL166  LYS551  ARG553  GLY616  TRP617  ASP618  TYR619  PRO620  LYS621  CYS622 
 ASP623  PHE694  ASN695  SER759  ASP760  ASP761  ALA762  ILE779  LEU786  VAL792 
 PHE793  MET794  SER795  GLU796  ALA797  LYS798  CYS799  TRP800  GLU811  SER814 

> <Gold.Protein.RotatedAtoms>
  150.9191  133.6902  159.2836 H   0  0  0  0  0  0  0  0  0  0  0  0  # atno 6907 bound_to 6896
  151.4363  135.1014  159.9666 H   0  0  0  0  0  0  0  0  0  0  0  0  # atno 6908 bound_to 6896
  152.4970  133.8610  159.7305 H   0  0  0  0  0  0  0  0  0  0  0  0  # atno 6909 bound_to 6896
  146.2351  139.9334  142.8493 H   0  0  0  0  0  0  0  0  0  0  0  0  # atno 7974 bound_to 7965
  156.2949  140.2603  156.2713 H   0  0  0  0  0  0  0  0  0  0  0  0  # atno 8008 bound_to 7997
  154.9692  140.0391  157.2245 H   0  0  0  0  0  0  0  0  0  0  0  0  # atno 8009 bound_to 7997
  154.7874  140.2806  155.6022 H   0  0  0  0  0  0  0  0  0  0  0  0  # atno 8010 bound_to 7997
  140.3474  143.2909  151.9766 H   0  0  0  0  0  0  0  0  0  0  0  0  # atno 10167 bound_to 10162
  157.5401  130.8691  149.8809 H   0  0  0  0  0  0  0  0  0  0  0  0  # atno 10718 bound_to 10713
  153.6880  135.3303  155.3195 H   0  0  0  0  0  0  0  0  0  0  0  0  # atno 10763 bound_to 10752
  154.8448  135.4425  154.1537 H   0  0  0  0  0  0  0  0  0  0  0  0  # atno 10764 bound_to 10752
  153.2571  135.6987  153.7694 H   0  0  0  0  0  0  0  0  0  0  0  0  # atno 10765 bound_to 10752
  140.0344  134.9336  157.0724 H   0  0  0  0  0  0  0  0  0  0  0  0  # atno 11005 bound_to 11000
  145.2022  140.9859  143.4149 LP  0  0  0  0  0  0  0  0  0  0  0  0  # atno 17320 bound_to 7965
  144.9763  139.3828  143.6284 LP  0  0  0  0  0  0  0  0  0  0  0  0  # atno 17321 bound_to 7965
  139.4831  144.6105  151.7442 LP  0  0  0  0  0  0  0  0  0  0  0  0  # atno 17342 bound_to 10162
  140.5252  144.0817  150.6035 LP  0  0  0  0  0  0  0  0  0  0  0  0  # atno 17343 bound_to 10162
  156.0489  130.3722  150.1248 LP  0  0  0  0  0  0  0  0  0  0  0  0  # atno 17370 bound_to 10713
  156.9428  130.9750  151.3513 LP  0  0  0  0  0  0  0  0  0  0  0  0  # atno 17371 bound_to 10713
  140.4172  134.1918  155.7164 LP  0  0  0  0  0  0  0  0  0  0  0  0  # atno 17394 bound_to 11000
  141.1849  133.8335  157.1124 LP  0  0  0  0  0  0  0  0  0  0  0  0  # atno 17395 bound_to 11000

$$$$
