AV-unprocessed.smi:1703|AV-procd|sdf|6872|dock9
  -GOLD-   22720 8 73D 1   1.00000     0.00000
 Structure written by MMmdl.
 49 51  0  0  0  0  0  0  0  0  2 V2000
  154.7728  126.3017  154.9922 C   0  0  0  0  0  0  0  0  0  0  0  0
  154.4276  127.7132  154.5062 C   0  0  1  0  0  0  0  0  0  0  0  0
  153.0603  128.1879  155.0296 C   0  0  0  0  0  0  0  0  0  0  0  0
  152.7681  129.5596  154.6319 N   0  0  0  0  0  0  0  0  0  0  0  0
  151.4439  129.9673  155.1047 C   0  0  0  0  0  0  0  0  0  0  0  0
  150.4032  130.2483  154.0030 C   0  0  1  0  0  0  0  0  0  0  0  0
  150.1266  129.0353  153.3314 O   0  0  0  0  0  0  0  0  0  0  0  0
  149.0990  130.8205  154.5918 C   0  0  0  0  0  0  0  0  0  0  0  0
  148.4777  131.8385  153.7275 N   0  0  0  0  0  0  0  0  0  0  0  0
  148.7638  133.1656  153.5872 C   0  0  0  0  0  0  0  0  0  0  0  0
  149.8233  133.9396  154.3007 C   0  0  0  0  0  0  0  0  0  0  0  0
  149.8018  135.3108  153.9706 O   0  0  0  0  0  0  0  0  0  0  0  0
  147.9035  133.6680  152.6573 N   0  3  0  0  0  0  0  0  0  0  0  0
  147.0606  132.6564  152.1969 C   0  0  0  0  0  0  0  0  0  0  0  0
  146.0345  132.6844  151.2573 C   0  0  0  0  0  0  0  0  0  0  0  0
  145.3685  131.4659  151.0111 C   0  0  0  0  0  0  0  0  0  0  0  0
  145.7311  130.2823  151.6859 C   0  0  0  0  0  0  0  0  0  0  0  0
  146.7719  130.2670  152.6377 C   0  0  0  0  0  0  0  0  0  0  0  0
  147.4245  131.4765  152.8780 C   0  0  0  0  0  0  0  0  0  0  0  0
  153.8364  130.4306  155.1207 C   0  0  0  0  0  0  0  0  0  0  0  0
  155.2349  129.9793  154.6536 C   0  0  2  0  0  0  0  0  0  0  0  0
  155.5047  130.2733  153.1679 C   0  0  0  0  0  0  0  0  0  0  0  0
  155.4434  128.6016  154.9676 O   0  0  0  0  0  0  0  0  0  0  0  0
  154.0291  125.5782  154.6571 H   0  0  0  0  0  0  0  0  0  0  0  0
  154.8154  126.2586  156.0808 H   0  0  0  0  0  0  0  0  0  0  0  0
  155.7421  125.9838  154.6077 H   0  0  0  0  0  0  0  0  0  0  0  0
  154.4183  127.7073  153.4158 H   0  0  0  0  0  0  0  0  0  0  0  0
  152.2837  127.5216  154.6520 H   0  0  0  0  0  0  0  0  0  0  0  0
  153.0374  128.1065  156.1176 H   0  0  0  0  0  0  0  0  0  0  0  0
  151.0393  129.1915  155.7566 H   0  0  0  0  0  0  0  0  0  0  0  0
  151.5496  130.8529  155.7333 H   0  0  0  0  0  0  0  0  0  0  0  0
  150.7913  130.9605  153.2769 H   0  0  0  0  0  0  0  0  0  0  0  0
  150.9258  128.5315  153.2904 H   0  0  0  0  0  0  0  0  0  0  0  0
  148.3771  130.0302  154.7981 H   0  0  0  0  0  0  0  0  0  0  0  0
  149.3039  131.2937  155.5522 H   0  0  0  0  0  0  0  0  0  0  0  0
  149.6856  133.8336  155.3772 H   0  0  0  0  0  0  0  0  0  0  0  0
  150.8041  133.5277  154.0630 H   0  0  0  0  0  0  0  0  0  0  0  0
  149.1682  135.4451  153.2821 H   0  0  0  0  0  0  0  0  0  0  0  0
  145.7574  133.5892  150.7366 H   0  0  0  0  0  0  0  0  0  0  0  0
  144.5655  131.4381  150.2887 H   0  0  0  0  0  0  0  0  0  0  0  0
  145.2017  129.3658  151.4688 H   0  0  0  0  0  0  0  0  0  0  0  0
  147.0448  129.3522  153.1424 H   0  0  0  0  0  0  0  0  0  0  0  0
  153.6769  131.4583  154.7980 H   0  0  0  0  0  0  0  0  0  0  0  0
  153.8189  130.4451  156.2116 H   0  0  0  0  0  0  0  0  0  0  0  0
  155.9751  130.5382  155.2269 H   0  0  0  0  0  0  0  0  0  0  0  0
  155.4583  131.3445  152.9709 H   0  0  0  0  0  0  0  0  0  0  0  0
  154.7769  129.7913  152.5157 H   0  0  0  0  0  0  0  0  0  0  0  0
  156.4964  129.9270  152.8766 H   0  0  0  0  0  0  0  0  0  0  0  0
  147.8994  134.6345  152.3579 H   0  0  0  0  0  0  0  0  0  0  0  0
  1  2  1  0  0  0  0
  1 24  1  0  0  0  0
  1 25  1  0  0  0  0
  1 26  1  0  0  0  0
  2 23  1  0  0  0  0
  2  3  1  0  0  0  0
  2 27  1  0  0  0  0
  3  4  1  0  0  0  0
  3 28  1  0  0  0  0
  3 29  1  0  0  0  0
  4  5  1  0  0  0  0
  4 20  1  0  0  0  0
  5  6  1  0  0  0  0
  5 30  1  0  0  0  0
  5 31  1  0  0  0  0
  6  7  1  0  0  0  0
  6  8  1  0  0  0  0
  6 32  1  0  0  0  0
  7 33  1  0  0  0  0
  8  9  1  0  0  0  0
  8 34  1  0  0  0  0
  8 35  1  0  0  0  0
  9 19  1  0  0  0  0
  9 10  1  0  0  0  0
 10 11  1  0  0  0  0
 10 13  2  0  0  0  0
 11 12  1  0  0  0  0
 11 36  1  0  0  0  0
 11 37  1  0  0  0  0
 12 38  1  0  0  0  0
 13 14  1  0  0  0  0
 13 49  1  0  0  0  0
 14 19  2  0  0  0  0
 14 15  1  0  0  0  0
 15 16  2  0  0  0  0
 15 39  1  0  0  0  0
 16 17  1  0  0  0  0
 16 40  1  0  0  0  0
 17 18  2  0  0  0  0
 17 41  1  0  0  0  0
 18 19  1  0  0  0  0
 18 42  1  0  0  0  0
 20 21  1  0  0  0  0
 20 43  1  0  0  0  0
 20 44  1  0  0  0  0
 21 22  1  0  0  0  0
 21 23  1  0  0  0  0
 21 45  1  0  0  0  0
 22 46  1  0  0  0  0
 22 47  1  0  0  0  0
 22 48  1  0  0  0  0
M  CHG  1  13   1
M  END
> <s_m_source_file>
AV-unprocessed.smi

> <i_m_source_file_index>
1703

> <i_lp_mmshare_version>
43012

> <i_f3d_flags>
0

> <s_epik_input>
W0NIM11bQ0BASF0xW0NIMl1OKFtDSDJdW0NASF0oTzEpW0NIM10pW0NIMl1bQ0BIXShbT0hdKVtDSDJdbihjKG4yKVtDSDJdW09IXSljKGMyMylbY0hdW2NIXVtjSF1bY0hdMw==

> <s_epik_cmdline>
J2VwaWtfcHl0aG9uJywgJy1waCcsICc3LjAnLCAnLXRuJywgJzgnLCAnLW1hJywgJzIwMCcsICctbWV0YWxfYmluZGluZycsICctaW1hZScsICc8aW5maWxlLm1hZT4nLCAnLW9tYWUnLCAnPG91dGZpbGUubWFlPic=

> <r_epik_Ionization_Penalty>
1.7682

> <r_epik_Ionization_Penalty_Charging>
1.55298

> <r_epik_Ionization_Penalty_Neutral>
0.215215

> <r_epik_State_Penalty>
1.83821

> <r_epik_Charging_Adjusted_Penalty>
3.39119

> <i_epik_Tot_Q>
1

> <i_epik_Tot_abs_Q>
1

> <r_epik_Metal_State_Penalty>
5.89206

> <b_epik_Metal_Only>
0

> <s_lp_Force_Field>
OPLS_2005

> <r_lp_Energy>
35.5587

> <b_lp_Chiralities_Consistent>
1

> <s_lp_Variant>
AV-unprocessed.smi:1703-20

> <Gold.Version>
5.8.1

> <Gold.Id.Protein>
6NUR|6NUR_protein|mol2

> <Gold.PLP.Fitness>
45.5917

> <Gold.PLP.PLP>
-38.9452

> <Gold.PLP.part.hbond>
-3.1549

> <Gold.PLP.part.metal>
0.0000

> <Gold.PLP.part.buried>
-1.8957

> <Gold.PLP.part.nonpolar>
-32.5098

> <Gold.PLP.part.repulsive>
0.0763

> <Gold.PLP.ligand.clash>
0.0000

> <Gold.PLP.ligand.torsion>
1.5808

> <Gold.PLP.Chemscore.Hbond>
3.2592

> <Gold.PLP.Chemscore.CHOScore>
0.0000

> <Gold.PLP.Chemscore.Metal>
0.0000

> <Gold.Chemscore.Hbonds>
donor molecule, donor type, donor heavy atom, donor atom, acceptor molecule, acceptor atom, score
      L1  H     7    33       P1 10737  0.58
      L1  H    12    38       P1  7948  0.82
      L1  H    13    49       P1  7948  1.86

> <Gold.PLP.Chemscore.Internal.Correction>
0.0304

> <Gold.Rescore>
     Score         DG    S(hbond)    S(metal)    S(lipo)     H(rot)  DE(clash)    DE(int)     intcor
     10.78     -12.61       1.18        0.00      91.88       2.96       0.19       1.64       ----

> <Gold.Chemscore.Fitness>
10.7797

> <Gold.Chemscore.DG>
-12.6131

> <Gold.Chemscore.ZeroCoef>
-5.4800

> <Gold.Chemscore.Hbond>
1.1825

> <Gold.Chemscore.Metal>
0.0000

> <Gold.Chemscore.Lipo>
91.8756

> <Gold.Chemscore.Internal_Hbond>
0.0000

> <Gold.Chemscore.DEClash>
0.1885

> <Gold.Chemscore.DEInternal>
1.6449

> <Gold.Chemscore.Rot>
2.9555

> <Gold.Chemscore.Internal.Correction>
   9.000000E+99

> <Gold.Chemscore.Hbonds>
donor molecule, donor type, donor heavy atom, donor atom, acceptor molecule, acceptor atom, score
      L1  H     7    33       P1 10737  0.56
      L1  H    12    38       P1  7948  0.28
      L1  H    13    49       P1  7948  0.49

> <Gold.Chemscore.Hbond.Weighted>
-3.9497

> <Gold.Chemscore.Metal.Weighted>
-0.0000

> <Gold.Chemscore.Lipo.Weighted>
-10.7494

> <Gold.Chemscore.Internal_Hbond.Weighted>
0.0000

> <Gold.Chemscore.DEClash.Weighted>
0.1885

> <Gold.Chemscore.DEInternal.Weighted>
1.6449

> <Gold.Chemscore.Rot.Weighted>
7.5660

> <Gold.Chemscore.Internal.Correction.Weighted>
   9.000000E+99

> <Gold.Protein.RotatedTorsions>
[ 6907 6896 6895 6894 ] final -149.90 input  -60.11 | X-H torsion
[ 7974 7965 7964 7962 ] final  108.64 input  175.53 | X-H torsion
[ 8008 7997 7996 7995 ] final  -30.22 input   59.86 | X-H torsion
[ 10167 10162 10161 10158 ] final -121.15 input  -65.29 | X-H torsion
[ 10718 10713 10712 10709 ] final  127.66 input   66.30 | X-H torsion
[ 10763 10752 10751 10750 ] final   56.69 input  -60.55 | X-H torsion
[ 11005 11000 10999 10996 ] final  172.78 input  -57.11 | X-H torsion

> <Gold.Protein.ActiveResidues>
 VAL166  LYS551  ARG553  GLY616  TRP617  ASP618  TYR619  PRO620  LYS621  CYS622 
 ASP623  PHE694  ASN695  SER759  ASP760  ASP761  ALA762  ILE779  LEU786  VAL792 
 PHE793  MET794  SER795  GLU796  ALA797  LYS798  CYS799  TRP800  GLU811  SER814 

> <Gold.Protein.RotatedAtoms>
  151.1909  133.4668  159.2594 H   0  0  0  0  0  0  0  0  0  0  0  0  # atno 6907 bound_to 6896
  151.1165  135.0055  159.8528 H   0  0  0  0  0  0  0  0  0  0  0  0  # atno 6908 bound_to 6896
  152.5453  134.1823  159.8693 H   0  0  0  0  0  0  0  0  0  0  0  0  # atno 6909 bound_to 6896
  145.2780  139.2642  143.3930 H   0  0  0  0  0  0  0  0  0  0  0  0  # atno 7974 bound_to 7965
  154.4259  140.1797  156.1372 H   0  0  0  0  0  0  0  0  0  0  0  0  # atno 8008 bound_to 7997
  156.0020  140.3359  155.6830 H   0  0  0  0  0  0  0  0  0  0  0  0  # atno 8009 bound_to 7997
  155.6229  140.0662  157.2663 H   0  0  0  0  0  0  0  0  0  0  0  0  # atno 8010 bound_to 7997
  140.0281  143.5276  152.2189 H   0  0  0  0  0  0  0  0  0  0  0  0  # atno 10167 bound_to 10162
  157.5313  131.1098  150.9004 H   0  0  0  0  0  0  0  0  0  0  0  0  # atno 10718 bound_to 10713
  152.9836  135.5667  154.5270 H   0  0  0  0  0  0  0  0  0  0  0  0  # atno 10763 bound_to 10752
  154.4748  135.2786  155.1617 H   0  0  0  0  0  0  0  0  0  0  0  0  # atno 10764 bound_to 10752
  154.3150  135.6280  153.5535 H   0  0  0  0  0  0  0  0  0  0  0  0  # atno 10765 bound_to 10752
  140.3334  134.7338  157.4150 H   0  0  0  0  0  0  0  0  0  0  0  0  # atno 11005 bound_to 11000
  146.3225  140.3241  142.8635 LP  0  0  0  0  0  0  0  0  0  0  0  0  # atno 17320 bound_to 7965
  144.9277  140.7940  143.5708 LP  0  0  0  0  0  0  0  0  0  0  0  0  # atno 17321 bound_to 7965
  139.6094  144.7605  151.2986 LP  0  0  0  0  0  0  0  0  0  0  0  0  # atno 17342 bound_to 10162
  140.7314  143.6853  150.7966 LP  0  0  0  0  0  0  0  0  0  0  0  0  # atno 17343 bound_to 10162
  156.9584  130.5446  149.5285 LP  0  0  0  0  0  0  0  0  0  0  0  0  # atno 17370 bound_to 10713
  156.0425  130.5505  150.8804 LP  0  0  0  0  0  0  0  0  0  0  0  0  # atno 17371 bound_to 10713
  140.0842  134.5690  155.8509 LP  0  0  0  0  0  0  0  0  0  0  0  0  # atno 17394 bound_to 11000
  141.2057  133.6649  156.6200 LP  0  0  0  0  0  0  0  0  0  0  0  0  # atno 17395 bound_to 11000

$$$$
