AV-unprocessed.smi:788|AV-procd|sdf|3731|dock1
  -GOLD-   22720 1163D 1   1.00000     0.00000
 Structure written by MMmdl.
 35 36  0  0  0  0  0  0  0  0  1 V2000
  151.0591  137.7958  154.7988 C   0  0  0  0  0  0  0  0  0  0  0  0
  150.2960  139.1322  154.7483 C   0  0  2  0  0  0  0  0  0  0  0  0
  150.8868  140.1261  155.7675 C   0  0  0  0  0  0  0  0  0  0  0  0
  150.1551  141.4756  155.7454 C   0  0  0  0  0  0  0  0  0  0  0  0
  148.6475  141.2929  155.9782 C   0  0  0  0  0  0  0  0  0  0  0  0
  148.0155  140.3144  154.9685 C   0  0  1  0  0  0  0  0  0  0  0  0
  147.8772  140.9451  153.5666 C   0  0  0  0  0  0  0  0  0  0  0  0
  148.7727  138.9581  154.9815 C   0  0  1  0  0  0  0  0  0  0  0  0
  148.2090  138.0310  154.0020 N   0  0  0  0  0  0  0  0  0  0  0  0
  146.9147  137.6908  153.8903 C   0  0  0  0  0  0  0  0  0  0  0  0
  146.0432  138.1398  154.6324 O   0  0  0  0  0  0  0  0  0  0  0  0
  146.6077  136.8166  152.9079 N   0  0  0  0  0  0  0  0  0  0  0  0
  145.3682  136.2412  152.5001 C   0  0  0  0  0  0  0  0  0  0  0  0
  144.2206  136.3259  153.1933 N   0  0  0  0  0  0  0  0  0  0  0  0
  143.1756  135.6679  152.5590 N   0  0  0  0  0  0  0  0  0  0  0  0
  143.5736  135.1083  151.4133 C   0  0  0  0  0  0  0  0  0  0  0  0
  145.2636  135.3329  150.9981 S   0  0  0  0  0  0  0  0  0  0  0  0
  150.9201  137.2971  155.7585 H   0  0  0  0  0  0  0  0  0  0  0  0
  152.1290  137.9513  154.6582 H   0  0  0  0  0  0  0  0  0  0  0  0
  150.7292  137.1117  154.0166 H   0  0  0  0  0  0  0  0  0  0  0  0
  150.4474  139.5484  153.7515 H   0  0  0  0  0  0  0  0  0  0  0  0
  150.8292  139.7007  156.7704 H   0  0  0  0  0  0  0  0  0  0  0  0
  151.9459  140.2854  155.5623 H   0  0  0  0  0  0  0  0  0  0  0  0
  150.5693  142.1312  156.5116 H   0  0  0  0  0  0  0  0  0  0  0  0
  150.3291  141.9739  154.7914 H   0  0  0  0  0  0  0  0  0  0  0  0
  148.4891  140.9143  156.9887 H   0  0  0  0  0  0  0  0  0  0  0  0
  148.1431  142.2590  155.9363 H   0  0  0  0  0  0  0  0  0  0  0  0
  146.9985  140.1236  155.3144 H   0  0  0  0  0  0  0  0  0  0  0  0
  148.8457  141.1431  153.1089 H   0  0  0  0  0  0  0  0  0  0  0  0
  147.3392  141.8918  153.6185 H   0  0  0  0  0  0  0  0  0  0  0  0
  147.3188  140.2990  152.8890 H   0  0  0  0  0  0  0  0  0  0  0  0
  148.6502  138.5171  155.9731 H   0  0  0  0  0  0  0  0  0  0  0  0
  148.8592  137.6150  153.3502 H   0  0  0  0  0  0  0  0  0  0  0  0
  147.4035  136.5039  152.3711 H   0  0  0  0  0  0  0  0  0  0  0  0
  142.8674  134.5597  150.8078 H   0  0  0  0  0  0  0  0  0  0  0  0
  1  2  1  0  0  0  0
  1 18  1  0  0  0  0
  1 19  1  0  0  0  0
  1 20  1  0  0  0  0
  2  8  1  0  0  0  0
  2  3  1  0  0  0  0
  2 21  1  0  0  0  0
  3  4  1  0  0  0  0
  3 22  1  0  0  0  0
  3 23  1  0  0  0  0
  4  5  1  0  0  0  0
  4 24  1  0  0  0  0
  4 25  1  0  0  0  0
  5  6  1  0  0  0  0
  5 26  1  0  0  0  0
  5 27  1  0  0  0  0
  6  7  1  0  0  0  0
  6  8  1  0  0  0  0
  6 28  1  0  0  0  0
  7 29  1  0  0  0  0
  7 30  1  0  0  0  0
  7 31  1  0  0  0  0
  8  9  1  0  0  0  0
  8 32  1  0  0  0  0
  9 10  1  0  0  0  0
  9 33  1  0  0  0  0
 10 11  2  0  0  0  0
 10 12  1  0  0  0  0
 12 13  1  0  0  0  0
 12 34  1  0  0  0  0
 13 17  1  0  0  0  0
 13 14  2  0  0  0  0
 14 15  1  0  0  0  0
 15 16  2  0  0  0  0
 16 17  1  0  0  0  0
 16 35  1  0  0  0  0
M  END
> <s_m_source_file>
AV-unprocessed.smi

> <i_m_source_file_index>
788

> <i_lp_mmshare_version>
43012

> <i_f3d_flags>
0

> <s_epik_input>
W0NIM11bQ0BASF0xW0NIMl1bQ0gyXVtDSDJdW0NAQEhdKFtDSDNdKVtDQEhdMVtOSF1DKD1PKVtOSF1jMm5uW2NIXXMy

> <s_epik_cmdline>
J2VwaWtfcHl0aG9uJywgJy1waCcsICc3LjAnLCAnLXRuJywgJzgnLCAnLW1hJywgJzIwMCcsICctbWV0YWxfYmluZGluZycsICctaW1hZScsICc8aW5maWxlLm1hZT4nLCAnLW9tYWUnLCAnPG91dGZpbGUubWFlPic=

> <r_lp_tautomer_probability>
1

> <r_epik_Ionization_Penalty>
0.000304078

> <r_epik_Ionization_Penalty_Charging>
0

> <r_epik_Ionization_Penalty_Neutral>
0.000304078

> <r_epik_State_Penalty>
-0

> <r_epik_Charging_Adjusted_Penalty>
0

> <i_epik_Tot_Q>
0

> <i_epik_Tot_abs_Q>
0

> <r_epik_Metal_State_Penalty>
0.164801

> <b_epik_Metal_Only>
0

> <s_lp_Force_Field>
OPLS_2005

> <r_lp_Energy>
15.5702

> <b_lp_Chiralities_Consistent>
1

> <s_lp_Variant>
AV-unprocessed.smi:788-1

> <Gold.Version>
5.8.1

> <Gold.Id.Protein>
6NUR|6NUR_protein|mol2

> <Gold.PLP.Fitness>
33.5519

> <Gold.PLP.PLP>
-25.2023

> <Gold.PLP.part.hbond>
-2.0000

> <Gold.PLP.part.metal>
0.0000

> <Gold.PLP.part.buried>
-2.6412

> <Gold.PLP.part.nonpolar>
-21.5986

> <Gold.PLP.part.repulsive>
0.2866

> <Gold.PLP.ligand.clash>
0.0000

> <Gold.PLP.ligand.torsion>
0.0568

> <Gold.PLP.Chemscore.Hbond>
1.8160

> <Gold.PLP.Chemscore.CHOScore>
1.0000

> <Gold.PLP.Chemscore.Metal>
0.0000

> <Gold.Chemscore.Hbonds>
donor molecule, donor type, donor heavy atom, donor atom, acceptor molecule, acceptor atom, score
      L1  H     9    33       P1  7948  0.85
      L1  H    12    34       P1  7948  1.00
      L1  C    16    35       P1 10186  0.98

> <Gold.PLP.Chemscore.Internal.Correction>
0.0152

> <Gold.Rescore>
     Score         DG    S(hbond)    S(metal)    S(lipo)     H(rot)  DE(clash)    DE(int)     intcor
     13.85     -16.62       1.91        0.00      62.55       1.00       0.10       2.67       ----

> <Gold.Chemscore.Fitness>
13.8505

> <Gold.Chemscore.DG>
-16.6215

> <Gold.Chemscore.ZeroCoef>
-5.4800

> <Gold.Chemscore.Hbond>
1.9113

> <Gold.Chemscore.Metal>
0.0000

> <Gold.Chemscore.Lipo>
62.5463

> <Gold.Chemscore.Internal_Hbond>
0.0000

> <Gold.Chemscore.DEClash>
0.0993

> <Gold.Chemscore.DEInternal>
2.6717

> <Gold.Chemscore.Rot>
1.0000

> <Gold.Chemscore.Internal.Correction>
   9.000000E+99

> <Gold.Chemscore.Hbonds>
donor molecule, donor type, donor heavy atom, donor atom, acceptor molecule, acceptor atom, score
      L1  H     9    33       P1  7948  0.80
      L1  H    12    34       P1  7948  1.00

> <Gold.Chemscore.Hbond.Weighted>
-6.3836

> <Gold.Chemscore.Metal.Weighted>
-0.0000

> <Gold.Chemscore.Lipo.Weighted>
-7.3179

> <Gold.Chemscore.Internal_Hbond.Weighted>
0.0000

> <Gold.Chemscore.DEClash.Weighted>
0.0993

> <Gold.Chemscore.DEInternal.Weighted>
2.6717

> <Gold.Chemscore.Rot.Weighted>
2.5600

> <Gold.Chemscore.Internal.Correction.Weighted>
   9.000000E+99

> <Gold.Protein.RotatedTorsions>
[ 6907 6896 6895 6894 ] final  -84.39 input  -60.11 | X-H torsion
[ 7974 7965 7964 7962 ] final  140.52 input  175.53 | X-H torsion
[ 8008 7997 7996 7995 ] final  -37.22 input   59.86 | X-H torsion
[ 10167 10162 10161 10158 ] final -153.08 input  -65.29 | X-H torsion
[ 10718 10713 10712 10709 ] final   73.89 input   66.30 | X-H torsion
[ 10763 10752 10751 10750 ] final  -64.37 input  -60.55 | X-H torsion
[ 11005 11000 10999 10996 ] final -170.52 input  -57.11 | X-H torsion

> <Gold.Protein.ActiveResidues>
 VAL166  LYS551  ARG553  GLY616  TRP617  ASP618  TYR619  PRO620  LYS621  CYS622 
 ASP623  PHE694  ASN695  SER759  ASP760  ASP761  ALA762  ILE779  LEU786  VAL792 
 PHE793  MET794  SER795  GLU796  ALA797  LYS798  CYS799  TRP800  GLU811  SER814 

> <Gold.Protein.RotatedAtoms>
  150.6877  134.3366  159.4849 H   0  0  0  0  0  0  0  0  0  0  0  0  # atno 6907 bound_to 6896
  152.1225  134.9193  160.0571 H   0  0  0  0  0  0  0  0  0  0  0  0  # atno 6908 bound_to 6896
  152.0393  133.3936  159.4367 H   0  0  0  0  0  0  0  0  0  0  0  0  # atno 6909 bound_to 6896
  144.9179  139.5206  143.5677 H   0  0  0  0  0  0  0  0  0  0  0  0  # atno 7974 bound_to 7965
  154.4057  140.1610  156.2502 H   0  0  0  0  0  0  0  0  0  0  0  0  # atno 8008 bound_to 7997
  155.9126  140.3426  155.6087 H   0  0  0  0  0  0  0  0  0  0  0  0  # atno 8009 bound_to 7997
  155.7318  140.0781  157.2276 H   0  0  0  0  0  0  0  0  0  0  0  0  # atno 8010 bound_to 7997
  139.7127  143.9083  152.2474 H   0  0  0  0  0  0  0  0  0  0  0  0  # atno 10167 bound_to 10162
  157.6568  130.9651  150.1134 H   0  0  0  0  0  0  0  0  0  0  0  0  # atno 10718 bound_to 10713
  154.3290  135.6180  153.5542 H   0  0  0  0  0  0  0  0  0  0  0  0  # atno 10763 bound_to 10752
  152.9813  135.5742  154.4983 H   0  0  0  0  0  0  0  0  0  0  0  0  # atno 10764 bound_to 10752
  154.4666  135.2858  155.1650 H   0  0  0  0  0  0  0  0  0  0  0  0  # atno 10765 bound_to 10752
  140.5186  134.5731  157.5041 H   0  0  0  0  0  0  0  0  0  0  0  0  # atno 11005 bound_to 11000
  146.3191  139.8036  142.8960 LP  0  0  0  0  0  0  0  0  0  0  0  0  # atno 17320 bound_to 7965
  145.3345  141.0274  143.3427 LP  0  0  0  0  0  0  0  0  0  0  0  0  # atno 17321 bound_to 7965
  139.8956  144.6941  150.8721 LP  0  0  0  0  0  0  0  0  0  0  0  0  # atno 17342 bound_to 10162
  140.7737  143.3552  151.1935 LP  0  0  0  0  0  0  0  0  0  0  0  0  # atno 17343 bound_to 10162
  156.2024  130.3661  149.8771 LP  0  0  0  0  0  0  0  0  0  0  0  0  # atno 17370 bound_to 10713
  156.6671  130.8805  151.3556 LP  0  0  0  0  0  0  0  0  0  0  0  0  # atno 17371 bound_to 10713
  139.9618  134.7439  156.0220 LP  0  0  0  0  0  0  0  0  0  0  0  0  # atno 17394 bound_to 11000
  141.1346  133.6578  156.3559 LP  0  0  0  0  0  0  0  0  0  0  0  0  # atno 17395 bound_to 11000

$$$$
