#       Name:                AV-unprocessed.smi:952
#       Creating user name   scv26
#       Creation time:       Fri Mar 27 02:16:25 2020


#       File generated by GOLD software.
#

@<TRIPOS>MOLECULE
AV-unprocessed.smi:952
    40    40     1
SMALL
NO_CHARGES


@<TRIPOS>ATOM
      1 ****        -4.2877  -2.5187  -1.0647 C.3            1 S1                 0.0000
      2 ****        -2.8202  -2.1019  -1.2068 C.3            1 S1                 0.0000
      3 ****        -2.5843  -1.1883  -2.4208 C.3            1 S1                 0.0000
      4 ****        -1.1789  -0.8219  -2.5526 N.am           1 S1                 0.0000
      5 ****        -0.5655   0.1418  -1.8494 C.2            1 S1                 0.0000
      6 ****        -1.1442   0.8420  -1.0168 O.2            1 S1                 0.0000
      7 ****         0.9222   0.3574  -2.1520 C.3            1 S1                 0.0000
      8 ****         1.6403   0.9077  -1.0064 N.am           1 S1                 0.0000
      9 ****         2.1514   0.1867   0.0046 C.2            1 S1                 0.0000
     10 ****         2.1310  -1.0447   0.0303 O.2            1 S1                 0.0000
     11 ****         2.7571   0.9867   1.1673 C.3            1 S1                 0.0000
     12 ****         3.9130   0.2400   1.8646 C.3            1 S1                 0.0000
     13 ****         1.7023   1.3801   2.0952 N.pl3          1 S1                 0.0000
     14 ****         0.9807   2.5570   2.1059 C.2            1 S1                 0.0000
     15 ****         0.0610   2.4677   3.1110 C.2            1 S1                 0.0000
     16 ****         0.2859   1.1748   3.6596 C.2            1 S1                 0.0000
     17 ****         1.2600   0.5238   3.0459 N.2            1 S1                 0.0000
     18 ****        -4.4253  -3.1653  -0.1978 H              1 S1                 0.0000
     19 ****        -4.6296  -3.0639  -1.9448 H              1 S1                 0.0000
     20 ****        -4.9328  -1.6490  -0.9366 H              1 S1                 0.0000
     21 ****        -2.5053  -1.5954  -0.2934 H              1 S1                 0.0000
     22 ****        -2.1995  -2.9945  -1.2934 H              1 S1                 0.0000
     23 ****        -2.8867  -1.7006  -3.3345 H              1 S1                 0.0000
     24 ****        -3.2006  -0.2903  -2.3501 H              1 S1                 0.0000
     25 ****        -0.6307  -1.3456  -3.2196 H              1 S1                 0.0000
     26 ****         1.3831  -0.5764  -2.4796 H              1 S1                 0.0000
     27 ****         1.0090   1.0585  -2.9821 H              1 S1                 0.0000
     28 ****         1.6964   1.9140  -0.9469 H              1 S1                 0.0000
     29 ****         3.1748   1.9055   0.7521 H              1 S1                 0.0000
     30 ****         4.7150   0.0155   1.1608 H              1 S1                 0.0000
     31 ****         3.5887  -0.7035   2.3056 H              1 S1                 0.0000
     32 ****         4.3406   0.8473   2.6629 H              1 S1                 0.0000
     33 ****         1.1777   3.3518   1.4015 H              1 S1                 0.0000
     34 ****        -0.6672   3.2093   3.4039 H              1 S1                 0.0000
     35 ****        -0.2303   0.6910   4.4757 H              1 S1                 0.0000
     36 ****        -2.1186   0.7047  -0.8385 LP             1 S1                 0.0000
     37 ****        -0.6395   1.5476  -0.5194 LP             1 S1                 0.0000
     38 ****         1.7198  -1.5538  -0.7258 LP             1 S1                 0.0000
     39 ****         2.5255  -1.5352   0.8073 LP             1 S1                 0.0000
     40 ****         1.5957  -0.3977   3.2411 LP             1 S1                 0.0000
@<TRIPOS>BOND
    1    1    2 1     
    2    1   18 1     
    3    1   19 1     
    4    1   20 1     
    5    2    3 1     
    6    2   21 1     
    7    2   22 1     
    8    3    4 1     
    9    3   23 1     
   10    3   24 1     
   11    4    5 am    
   12    4   25 1     
   13    5    6 2     
   14    5    7 1     
   15    7    8 1     
   16    7   26 1     
   17    7   27 1     
   18    8    9 am    
   19    8   28 1     
   20    9   10 2     
   21    9   11 1     
   22   11   12 1     
   23   11   13 1     
   24   11   29 1     
   25   12   30 1     
   26   12   31 1     
   27   12   32 1     
   28   13   17 1     
   29   13   14 1     
   30   14   15 2     
   31   14   33 1     
   32   15   16 1     
   33   15   34 1     
   34   16   17 2     
   35   16   35 1     
   36    6   36 1     
   37    6   37 1     
   38   10   38 1     
   39   10   39 1     
   40   17   40 1     
@<TRIPOS>SUBSTRUCTURE
      1 S1             1
@<TRIPOS>SET
LONE_PAIRS      STATIC     ATOMS    <user>   **** ""
5 36 37 38 39 40
DONOR_HYDROGENS      STATIC     ATOMS    <user>   **** ""
2 25 28
ATOM$BLUE        STATIC     ATOMS    COLORGROUP SYSTEM
5 36 37 38 39 40
ATOM$RED        STATIC     ATOMS    COLORGROUP SYSTEM
2 25 28
