AV-unprocessed.smi:127|AV-procd|sdf|1153|dock2
  -GOLD-   2262018293D 1   1.00000     0.00000
 Structure written by MMmdl.
 28 29  0  0  0  0  0  0  0  0  2 V2000
  156.2102  139.2750  158.6517 O   0  0  0  0  0  0  0  0  0  0  0  0
  156.1867  139.9342  159.7140 C   0  0  0  0  0  0  0  0  0  0  0  0
  157.0543  140.7569  160.0794 O   0  5  0  0  0  0  0  0  0  0  0  0
  154.9905  139.7182  160.6459 C   0  0  0  0  0  0  0  0  0  0  0  0
  154.2552  140.9468  160.9117 N   0  0  0  0  0  0  0  0  0  0  0  0
  154.3331  141.4931  162.2182 C   0  0  0  0  0  0  0  0  0  0  0  0
  155.0912  141.0385  163.0769 O   0  0  0  0  0  0  0  0  0  0  0  0
  153.4538  142.6329  162.4548 C   0  0  0  0  0  0  0  0  0  0  0  0
  153.4686  143.2479  163.6498 F   0  0  0  0  0  0  0  0  0  0  0  0
  152.6230  143.0855  161.4917 C   0  0  0  0  0  0  0  0  0  0  0  0
  152.5399  142.5106  160.2352 N   0  0  0  0  0  0  0  0  0  0  0  0
  151.5960  143.0490  159.1828 C   0  0  2  0  0  0  0  0  0  0  0  0
  152.1106  144.3893  158.6458 C   0  0  0  0  0  0  0  0  0  0  0  0
  151.3761  145.3783  159.5244 C   0  0  0  0  0  0  0  0  0  0  0  0
  150.0390  144.6743  159.7262 C   0  0  0  0  0  0  0  0  0  0  0  0
  150.3448  143.2823  159.7641 O   0  0  0  0  0  0  0  0  0  0  0  0
  153.3685  141.4140  159.9104 C   0  0  0  0  0  0  0  0  0  0  0  0
  153.3191  140.8997  158.7904 O   0  0  0  0  0  0  0  0  0  0  0  0
  154.2994  138.9838  160.2295 H   0  0  0  0  0  0  0  0  0  0  0  0
  155.3081  139.2923  161.5990 H   0  0  0  0  0  0  0  0  0  0  0  0
  152.0019  143.9368  161.7270 H   0  0  0  0  0  0  0  0  0  0  0  0
  151.5087  142.2698  158.4241 H   0  0  0  0  0  0  0  0  0  0  0  0
  153.1973  144.4700  158.6954 H   0  0  0  0  0  0  0  0  0  0  0  0
  151.7949  144.4922  157.6069 H   0  0  0  0  0  0  0  0  0  0  0  0
  151.8929  145.4921  160.4781 H   0  0  0  0  0  0  0  0  0  0  0  0
  151.2758  146.3642  159.0700 H   0  0  0  0  0  0  0  0  0  0  0  0
  149.5271  144.9967  160.6332 H   0  0  0  0  0  0  0  0  0  0  0  0
  149.3794  144.8624  158.8780 H   0  0  0  0  0  0  0  0  0  0  0  0
  1  2  2  0  0  0  0
  2  3  1  0  0  0  0
  2  4  1  0  0  0  0
  4  5  1  0  0  0  0
  4 19  1  0  0  0  0
  4 20  1  0  0  0  0
  5 17  1  0  0  0  0
  5  6  1  0  0  0  0
  6  7  2  0  0  0  0
  6  8  1  0  0  0  0
  8  9  1  0  0  0  0
  8 10  2  0  0  0  0
 10 11  1  0  0  0  0
 10 21  1  0  0  0  0
 11 12  1  0  0  0  0
 11 17  1  0  0  0  0
 12 16  1  0  0  0  0
 12 13  1  0  0  0  0
 12 22  1  0  0  0  0
 13 14  1  0  0  0  0
 13 23  1  0  0  0  0
 13 24  1  0  0  0  0
 14 15  1  0  0  0  0
 14 25  1  0  0  0  0
 14 26  1  0  0  0  0
 15 16  1  0  0  0  0
 15 27  1  0  0  0  0
 15 28  1  0  0  0  0
 17 18  2  0  0  0  0
M  CHG  1   3  -1
M  END
> <s_m_source_file>
AV-unprocessed.smi

> <i_m_source_file_index>
127

> <i_lp_mmshare_version>
43012

> <i_f3d_flags>
0

> <s_epik_input>
Tz1DKFtPSF0pW0NIMl1uMWMoPU8pYyhGKVtjSF1uKGMxPU8pW0NAQEhdMltDSDJdW0NIMl1bQ0gyXU8y

> <s_epik_cmdline>
J2VwaWtfcHl0aG9uJywgJy1waCcsICc3LjAnLCAnLXRuJywgJzgnLCAnLW1hJywgJzIwMCcsICctbWV0YWxfYmluZGluZycsICctaW1hZScsICc8aW5maWxlLm1hZT4nLCAnLW9tYWUnLCAnPG91dGZpbGUubWFlPic=

> <r_lp_tautomer_probability>
1

> <r_epik_Ionization_Penalty>
0.00125813

> <r_epik_Ionization_Penalty_Charging>
0.00125813

> <r_epik_Ionization_Penalty_Neutral>
6.20402e-12

> <r_epik_State_Penalty>
0.000832915

> <r_epik_Charging_Adjusted_Penalty>
0.00209104

> <i_epik_Tot_Q>
-1

> <i_epik_Tot_abs_Q>
1

> <r_epik_Metal_State_Penalty>
-0

> <b_epik_Metal_Only>
0

> <s_epik_Chemistry_Notes>
This compound contains an acetal/aminal-like group ( X-CH(R)-Y where X, Y are N, S, or O) that may be acid/base labile, releasing an aldehyde.

> <s_lp_Force_Field>
OPLS_2005

> <r_lp_Energy>
23.3893

> <b_lp_Chiralities_Consistent>
1

> <s_lp_Variant>
AV-unprocessed.smi:127-1

> <Gold.Version>
5.8.1

> <Gold.Id.Protein>
6NUR|6NUR_protein|mol2

> <Gold.PLP.Fitness>
51.0116

> <Gold.PLP.PLP>
-45.9687

> <Gold.PLP.part.hbond>
-4.8660

> <Gold.PLP.part.metal>
0.0000

> <Gold.PLP.part.buried>
-2.5162

> <Gold.PLP.part.nonpolar>
-38.6680

> <Gold.PLP.part.repulsive>
0.1394

> <Gold.PLP.ligand.clash>
0.0000

> <Gold.PLP.ligand.torsion>
0.5016

> <Gold.PLP.Chemscore.Hbond>
2.0000

> <Gold.PLP.Chemscore.CHOScore>
0.0000

> <Gold.PLP.Chemscore.Metal>
0.0000

> <Gold.Chemscore.Hbonds>
donor molecule, donor type, donor heavy atom, donor atom, acceptor molecule, acceptor atom, score
      P1  H  7997  8010       L1     1  2.00

> <Gold.PLP.Chemscore.Internal.Correction>
0.0461

> <Gold.Rescore>
     Score         DG    S(hbond)    S(metal)    S(lipo)     H(rot)  DE(clash)    DE(int)     intcor
     10.64     -11.33       0.98        0.00      67.53       2.08       0.13       0.56       ----

> <Gold.Chemscore.Fitness>
10.6360

> <Gold.Chemscore.DG>
-11.3297

> <Gold.Chemscore.ZeroCoef>
-5.4800

> <Gold.Chemscore.Hbond>
0.9773

> <Gold.Chemscore.Metal>
0.0000

> <Gold.Chemscore.Lipo>
67.5338

> <Gold.Chemscore.Internal_Hbond>
0.0000

> <Gold.Chemscore.DEClash>
0.1288

> <Gold.Chemscore.DEInternal>
0.5649

> <Gold.Chemscore.Rot>
2.0765

> <Gold.Chemscore.Internal.Correction>
   9.000000E+99

> <Gold.Chemscore.Hbonds>
donor molecule, donor type, donor heavy atom, donor atom, acceptor molecule, acceptor atom, score
      P1  H  7997  8010       L1     1  0.92

> <Gold.Chemscore.Hbond.Weighted>
-3.2641

> <Gold.Chemscore.Metal.Weighted>
-0.0000

> <Gold.Chemscore.Lipo.Weighted>
-7.9015

> <Gold.Chemscore.Internal_Hbond.Weighted>
0.0000

> <Gold.Chemscore.DEClash.Weighted>
0.1288

> <Gold.Chemscore.DEInternal.Weighted>
0.5649

> <Gold.Chemscore.Rot.Weighted>
5.3159

> <Gold.Chemscore.Internal.Correction.Weighted>
   9.000000E+99

> <Gold.Protein.RotatedTorsions>
[ 6907 6896 6895 6894 ] final  156.46 input  -60.11 | X-H torsion
[ 7974 7965 7964 7962 ] final -165.88 input  175.53 | X-H torsion
[ 8008 7997 7996 7995 ] final  -32.33 input   59.86 | X-H torsion
[ 10167 10162 10161 10158 ] final  -37.57 input  -65.29 | X-H torsion
[ 10718 10713 10712 10709 ] final  -49.11 input   66.30 | X-H torsion
[ 10763 10752 10751 10750 ] final  -22.08 input  -60.55 | X-H torsion
[ 11005 11000 10999 10996 ] final  -32.68 input  -57.11 | X-H torsion

> <Gold.Protein.ActiveResidues>
 VAL166  LYS551  ARG553  GLY616  TRP617  ASP618  TYR619  PRO620  LYS621  CYS622 
 ASP623  PHE694  ASN695  SER759  ASP760  ASP761  ALA762  ILE779  LEU786  VAL792 
 PHE793  MET794  SER795  GLU796  ALA797  LYS798  CYS799  TRP800  GLU811  SER814 

> <Gold.Protein.RotatedAtoms>
  152.0293  133.3931  159.4290 H   0  0  0  0  0  0  0  0  0  0  0  0  # atno 6907 bound_to 6896
  150.6883  134.3538  159.4930 H   0  0  0  0  0  0  0  0  0  0  0  0  # atno 6908 bound_to 6896
  152.1322  134.9125  160.0609 H   0  0  0  0  0  0  0  0  0  0  0  0  # atno 6909 bound_to 6896
  144.7259  140.2749  143.6245 H   0  0  0  0  0  0  0  0  0  0  0  0  # atno 7974 bound_to 7965
  154.4183  140.1740  156.1710 H   0  0  0  0  0  0  0  0  0  0  0  0  # atno 8008 bound_to 7997
  155.9760  140.3381  155.6595 H   0  0  0  0  0  0  0  0  0  0  0  0  # atno 8009 bound_to 7997
  155.6562  140.0696  157.2560 H   0  0  0  0  0  0  0  0  0  0  0  0  # atno 8010 bound_to 7997
  140.7115  143.3333  151.2520 H   0  0  0  0  0  0  0  0  0  0  0  0  # atno 10167 bound_to 10162
  156.1924  130.4153  149.9353 H   0  0  0  0  0  0  0  0  0  0  0  0  # atno 10718 bound_to 10713
  153.6463  135.6983  153.5224 H   0  0  0  0  0  0  0  0  0  0  0  0  # atno 10763 bound_to 10752
  153.2742  135.4205  155.1016 H   0  0  0  0  0  0  0  0  0  0  0  0  # atno 10764 bound_to 10752
  154.8487  135.3586  154.6007 H   0  0  0  0  0  0  0  0  0  0  0  0  # atno 10765 bound_to 10752
  140.9572  133.7186  156.1312 H   0  0  0  0  0  0  0  0  0  0  0  0  # atno 11005 bound_to 11000
  145.8006  139.1963  143.2050 LP  0  0  0  0  0  0  0  0  0  0  0  0  # atno 17320 bound_to 7965
  146.0679  140.7900  142.9702 LP  0  0  0  0  0  0  0  0  0  0  0  0  # atno 17321 bound_to 7965
  139.6821  143.9836  152.2814 LP  0  0  0  0  0  0  0  0  0  0  0  0  # atno 17342 bound_to 10162
  139.9470  144.6645  150.8209 LP  0  0  0  0  0  0  0  0  0  0  0  0  # atno 17343 bound_to 10162
  156.7089  130.8962  151.3607 LP  0  0  0  0  0  0  0  0  0  0  0  0  # atno 17370 bound_to 10713
  157.6937  130.9260  150.0584 LP  0  0  0  0  0  0  0  0  0  0  0  0  # atno 17371 bound_to 10713
  140.7519  134.4035  157.5540 LP  0  0  0  0  0  0  0  0  0  0  0  0  # atno 17394 bound_to 11000
  139.8866  134.8905  156.2576 LP  0  0  0  0  0  0  0  0  0  0  0  0  # atno 17395 bound_to 11000

$$$$
