AV-unprocessed.smi:2063|AV-procd|sdf|8411|dock5
  -GOLD-   2272011103D 1   1.00000     0.00000
 Structure written by MMmdl.
 39 40  0  0  0  0  0  0  0  0  1 V2000
  147.9735  128.5488  152.4034 C   0  0  0  0  0  0  0  0  0  0  0  0
  146.9908  129.6452  152.8395 C   0  0  0  0  0  0  0  0  0  0  0  0
  145.9265  129.9578  151.7778 C   0  0  0  0  0  0  0  0  0  0  0  0
  147.6952  130.8785  153.3125 C   0  0  0  0  0  0  0  0  0  0  0  0
  148.5523  130.8800  154.3426 N   0  0  0  0  0  0  0  0  0  0  0  0
  149.0752  132.1405  154.5929 N   0  0  0  0  0  0  0  0  0  0  0  0
  148.5959  133.0579  153.7420 C   0  0  0  0  0  0  0  0  0  0  0  0
  148.9571  134.4305  153.7752 N   0  0  0  0  0  0  0  0  0  0  0  0
  149.4444  135.1396  154.8081 C   0  0  0  0  0  0  0  0  0  0  0  0
  149.6906  134.6902  155.9277 O   0  0  0  0  0  0  0  0  0  0  0  0
  149.6370  136.4213  154.4646 N   0  0  0  0  0  0  0  0  0  0  0  0
  150.1477  137.4693  155.3457 C   0  0  1  0  0  0  0  0  0  0  0  0
  151.6099  137.1692  155.7113 C   0  0  0  0  0  0  0  0  0  0  0  0
  149.9941  138.8425  154.6648 C   0  0  1  0  0  0  0  0  0  0  0  0
  148.5792  139.1590  154.1765 C   0  0  0  0  0  0  0  0  0  0  0  0
  148.5424  140.6785  154.1517 C   0  0  0  0  0  0  0  0  0  0  0  0
  149.7448  141.0955  155.0037 C   0  0  0  0  0  0  0  0  0  0  0  0
  150.2259  139.8935  155.5893 O   0  0  0  0  0  0  0  0  0  0  0  0
  147.4563  132.4494  152.5545 S   0  0  0  0  0  0  0  0  0  0  0  0
  148.6615  128.2952  153.2106 H   0  0  0  0  0  0  0  0  0  0  0  0
  148.5675  128.8669  151.5463 H   0  0  0  0  0  0  0  0  0  0  0  0
  147.4457  127.6376  152.1211 H   0  0  0  0  0  0  0  0  0  0  0  0
  146.4539  129.2487  153.7022 H   0  0  0  0  0  0  0  0  0  0  0  0
  145.1992  130.6791  152.1520 H   0  0  0  0  0  0  0  0  0  0  0  0
  145.3820  129.0579  151.4911 H   0  0  0  0  0  0  0  0  0  0  0  0
  146.3759  130.3746  150.8758 H   0  0  0  0  0  0  0  0  0  0  0  0
  148.8202  134.9340  152.9114 H   0  0  0  0  0  0  0  0  0  0  0  0
  149.4087  136.6981  153.5211 H   0  0  0  0  0  0  0  0  0  0  0  0
  149.5597  137.4861  156.2653 H   0  0  0  0  0  0  0  0  0  0  0  0
  152.0093  137.9247  156.3882 H   0  0  0  0  0  0  0  0  0  0  0  0
  152.2449  137.1483  154.8248 H   0  0  0  0  0  0  0  0  0  0  0  0
  151.7012  136.2037  156.2097 H   0  0  0  0  0  0  0  0  0  0  0  0
  150.6997  138.9392  153.8370 H   0  0  0  0  0  0  0  0  0  0  0  0
  148.3579  138.7142  153.2060 H   0  0  0  0  0  0  0  0  0  0  0  0
  147.8432  138.7886  154.8916 H   0  0  0  0  0  0  0  0  0  0  0  0
  148.6425  141.0614  153.1356 H   0  0  0  0  0  0  0  0  0  0  0  0
  147.6043  141.0540  154.5616 H   0  0  0  0  0  0  0  0  0  0  0  0
  150.5267  141.5279  154.3779 H   0  0  0  0  0  0  0  0  0  0  0  0
  149.4814  141.8243  155.7707 H   0  0  0  0  0  0  0  0  0  0  0  0
  1  2  1  0  0  0  0
  1 20  1  0  0  0  0
  1 21  1  0  0  0  0
  1 22  1  0  0  0  0
  2  3  1  0  0  0  0
  2  4  1  0  0  0  0
  2 23  1  0  0  0  0
  3 24  1  0  0  0  0
  3 25  1  0  0  0  0
  3 26  1  0  0  0  0
  4 19  1  0  0  0  0
  4  5  2  0  0  0  0
  5  6  1  0  0  0  0
  6  7  2  0  0  0  0
  7  8  1  0  0  0  0
  7 19  1  0  0  0  0
  8  9  1  0  0  0  0
  8 27  1  0  0  0  0
  9 10  2  0  0  0  0
  9 11  1  0  0  0  0
 11 12  1  0  0  0  0
 11 28  1  0  0  0  0
 12 13  1  0  0  0  0
 12 14  1  0  0  0  0
 12 29  1  0  0  0  0
 13 30  1  0  0  0  0
 13 31  1  0  0  0  0
 13 32  1  0  0  0  0
 14 18  1  0  0  0  0
 14 15  1  0  0  0  0
 14 33  1  0  0  0  0
 15 16  1  0  0  0  0
 15 34  1  0  0  0  0
 15 35  1  0  0  0  0
 16 17  1  0  0  0  0
 16 36  1  0  0  0  0
 16 37  1  0  0  0  0
 17 18  1  0  0  0  0
 17 38  1  0  0  0  0
 17 39  1  0  0  0  0
M  END
> <s_m_source_file>
AV-unprocessed.smi

> <i_m_source_file_index>
2063

> <i_lp_mmshare_version>
43012

> <i_f3d_flags>
0

> <s_epik_input>
W0NIM11bQ0hdKFtDSDNdKWMxbm5jKHMxKVtOSF1DKD1PKVtOSF1bQ0BIXShbQ0gzXSlbQ0BASF0yW0NIMl1bQ0gyXVtDSDJdTzI=

> <s_epik_cmdline>
J2VwaWtfcHl0aG9uJywgJy1waCcsICc3LjAnLCAnLXRuJywgJzgnLCAnLW1hJywgJzIwMCcsICctbWV0YWxfYmluZGluZycsICctaW1hZScsICc8aW5maWxlLm1hZT4nLCAnLW9tYWUnLCAnPG91dGZpbGUubWFlPic=

> <r_lp_tautomer_probability>
1

> <r_epik_Ionization_Penalty>
0.00050567

> <r_epik_Ionization_Penalty_Charging>
0

> <r_epik_Ionization_Penalty_Neutral>
0.00050567

> <r_epik_State_Penalty>
-0

> <r_epik_Charging_Adjusted_Penalty>
0

> <i_epik_Tot_Q>
0

> <i_epik_Tot_abs_Q>
0

> <r_epik_Metal_State_Penalty>
0.219912

> <b_epik_Metal_Only>
0

> <s_lp_Force_Field>
OPLS_2005

> <r_lp_Energy>
10.6247

> <b_lp_Chiralities_Consistent>
1

> <s_lp_Variant>
AV-unprocessed.smi:2063-4

> <Gold.Version>
5.8.1

> <Gold.Id.Protein>
6NUR|6NUR_protein|mol2

> <Gold.PLP.Fitness>
35.0723

> <Gold.PLP.PLP>
-29.6286

> <Gold.PLP.part.hbond>
-2.0000

> <Gold.PLP.part.metal>
0.0000

> <Gold.PLP.part.buried>
-0.9291

> <Gold.PLP.part.nonpolar>
-25.9174

> <Gold.PLP.part.repulsive>
0.1564

> <Gold.PLP.ligand.clash>
0.0000

> <Gold.PLP.ligand.torsion>
0.3151

> <Gold.PLP.Chemscore.Hbond>
1.9920

> <Gold.PLP.Chemscore.CHOScore>
0.0000

> <Gold.PLP.Chemscore.Metal>
0.0000

> <Gold.Chemscore.Hbonds>
donor molecule, donor type, donor heavy atom, donor atom, acceptor molecule, acceptor atom, score
      L1  H     8    27       P1  7948  0.90
      L1  H    11    28       P1  7948  0.98

> <Gold.PLP.Chemscore.Internal.Correction>
0.0980

> <Gold.Rescore>
     Score         DG    S(hbond)    S(metal)    S(lipo)     H(rot)  DE(clash)    DE(int)     intcor
     13.77     -15.27       1.65        0.00      67.46       1.42       0.00       1.51       ----

> <Gold.Chemscore.Fitness>
13.7672

> <Gold.Chemscore.DG>
-15.2746

> <Gold.Chemscore.ZeroCoef>
-5.4800

> <Gold.Chemscore.Hbond>
1.6542

> <Gold.Chemscore.Metal>
0.0000

> <Gold.Chemscore.Lipo>
67.4585

> <Gold.Chemscore.Internal_Hbond>
0.0000

> <Gold.Chemscore.DEClash>
0.0009

> <Gold.Chemscore.DEInternal>
1.5065

> <Gold.Chemscore.Rot>
1.4152

> <Gold.Chemscore.Internal.Correction>
   9.000000E+99

> <Gold.Chemscore.Hbonds>
donor molecule, donor type, donor heavy atom, donor atom, acceptor molecule, acceptor atom, score
      L1  H     8    27       P1  7948  0.18
      L1  H    11    28       P1  7948  0.82

> <Gold.Chemscore.Hbond.Weighted>
-5.5249

> <Gold.Chemscore.Metal.Weighted>
-0.0000

> <Gold.Chemscore.Lipo.Weighted>
-7.8926

> <Gold.Chemscore.Internal_Hbond.Weighted>
0.0000

> <Gold.Chemscore.DEClash.Weighted>
0.0009

> <Gold.Chemscore.DEInternal.Weighted>
1.5065

> <Gold.Chemscore.Rot.Weighted>
3.6229

> <Gold.Chemscore.Internal.Correction.Weighted>
   9.000000E+99

> <Gold.Protein.RotatedTorsions>
[ 6907 6896 6895 6894 ] final   68.88 input  -60.11 | X-H torsion
[ 7974 7965 7964 7962 ] final  -55.21 input  175.53 | X-H torsion
[ 8008 7997 7996 7995 ] final  -64.51 input   59.86 | X-H torsion
[ 10167 10162 10161 10158 ] final -104.42 input  -65.29 | X-H torsion
[ 10718 10713 10712 10709 ] final  141.19 input   66.30 | X-H torsion
[ 10763 10752 10751 10750 ] final -102.24 input  -60.55 | X-H torsion
[ 11005 11000 10999 10996 ] final   -0.51 input  -57.11 | X-H torsion

> <Gold.Protein.ActiveResidues>
 VAL166  LYS551  ARG553  GLY616  TRP617  ASP618  TYR619  PRO620  LYS621  CYS622 
 ASP623  PHE694  ASN695  SER759  ASP760  ASP761  ALA762  ILE779  LEU786  VAL792 
 PHE793  MET794  SER795  GLU796  ALA797  LYS798  CYS799  TRP800  GLU811  SER814 

> <Gold.Protein.RotatedAtoms>
  152.4649  134.5098  159.9750 H   0  0  0  0  0  0  0  0  0  0  0  0  # atno 6907 bound_to 6896
  151.5138  133.3474  159.2897 H   0  0  0  0  0  0  0  0  0  0  0  0  # atno 6908 bound_to 6896
  150.8629  134.8014  159.7159 H   0  0  0  0  0  0  0  0  0  0  0  0  # atno 6909 bound_to 6896
  145.8768  140.8175  142.9860 H   0  0  0  0  0  0  0  0  0  0  0  0  # atno 7974 bound_to 7965
  154.4616  140.0952  156.6908 H   0  0  0  0  0  0  0  0  0  0  0  0  # atno 8008 bound_to 7997
  155.4978  140.3472  155.4347 H   0  0  0  0  0  0  0  0  0  0  0  0  # atno 8009 bound_to 7997
  156.0881  140.1390  156.9616 H   0  0  0  0  0  0  0  0  0  0  0  0  # atno 8010 bound_to 7997
  140.2094  143.3758  152.1063 H   0  0  0  0  0  0  0  0  0  0  0  0  # atno 10167 bound_to 10162
  157.3948  131.1009  151.0610 H   0  0  0  0  0  0  0  0  0  0  0  0  # atno 10718 bound_to 10713
  154.7719  135.4868  153.9666 H   0  0  0  0  0  0  0  0  0  0  0  0  # atno 10763 bound_to 10752
  153.1379  135.6766  153.9081 H   0  0  0  0  0  0  0  0  0  0  0  0  # atno 10764 bound_to 10752
  153.8765  135.3137  155.3422 H   0  0  0  0  0  0  0  0  0  0  0  0  # atno 10765 bound_to 10752
  140.6371  133.9523  155.8305 H   0  0  0  0  0  0  0  0  0  0  0  0  # atno 11005 bound_to 11000
  144.6726  140.1323  143.7443 LP  0  0  0  0  0  0  0  0  0  0  0  0  # atno 17320 bound_to 7965
  145.9071  139.2465  143.1459 LP  0  0  0  0  0  0  0  0  0  0  0  0  # atno 17321 bound_to 7965
  139.5186  144.7007  151.5500 LP  0  0  0  0  0  0  0  0  0  0  0  0  # atno 17342 bound_to 10162
  140.6334  143.9032  150.6625 LP  0  0  0  0  0  0  0  0  0  0  0  0  # atno 17343 bound_to 10162
  157.1630  130.6234  149.5617 LP  0  0  0  0  0  0  0  0  0  0  0  0  # atno 17370 bound_to 10713
  155.9807  130.4810  150.6790 LP  0  0  0  0  0  0  0  0  0  0  0  0  # atno 17371 bound_to 10713
  141.0634  134.0313  157.3627 LP  0  0  0  0  0  0  0  0  0  0  0  0  # atno 17394 bound_to 11000
  139.9094  135.0187  156.7627 LP  0  0  0  0  0  0  0  0  0  0  0  0  # atno 17395 bound_to 11000

$$$$
