AV-unprocessed.smi:1409|AV-procd|sdf|5728|dock9
  -GOLD-   22720 5363D 1   1.00000     0.00000
 Structure written by MMmdl.
 37 38  0  0  0  0  0  0  0  0  1 V2000
  144.6093  135.0539  151.1762 C   0  0  0  0  0  0  0  0  0  0  0  0
  145.8765  134.5376  151.5687 O   0  0  0  0  0  0  0  0  0  0  0  0
  145.9946  133.1792  151.7954 C   0  0  0  0  0  0  0  0  0  0  0  0
  144.9757  132.3713  151.4086 N   0  0  0  0  0  0  0  0  0  0  0  0
  145.0886  131.0453  151.6265 C   0  0  0  0  0  0  0  0  0  0  0  0
  146.2143  130.4586  152.2317 C   0  0  0  0  0  0  0  0  0  0  0  0
  147.2735  131.2936  152.6323 C   0  0  0  0  0  0  0  0  0  0  0  0
  147.1673  132.6906  152.4190 C   0  0  0  0  0  0  0  0  0  0  0  0
  148.1722  133.6370  152.7703 N   0  0  0  0  0  0  0  0  0  0  0  0
  149.1812  133.5322  153.6522 C   0  0  0  0  0  0  0  0  0  0  0  0
  149.4216  132.5521  154.3558 O   0  0  0  0  0  0  0  0  0  0  0  0
  149.9113  134.6564  153.6789 N   0  0  0  0  0  0  0  0  0  0  0  0
  151.0823  134.8912  154.5189 C   0  0  0  0  0  0  0  0  0  0  0  0
  151.1812  136.3618  154.9664 C   0  0  1  0  0  0  0  0  0  0  0  0
  152.0615  136.5339  156.2197 C   0  0  0  0  0  0  0  0  0  0  0  0
  152.3071  138.0290  156.4432 C   0  0  0  0  0  0  0  0  0  0  0  0
  152.3968  138.7675  154.7697 S   0  0  0  0  0  0  0  0  0  0  0  0
  151.4368  139.8785  154.6851 O   0  0  0  0  0  0  0  0  0  0  0  0
  153.8056  138.9532  154.3907 O   0  0  0  0  0  0  0  0  0  0  0  0
  151.7272  137.3091  153.8836 C   0  0  0  0  0  0  0  0  0  0  0  0
  144.6855  136.1331  151.0446 H   0  0  0  0  0  0  0  0  0  0  0  0
  143.8476  134.8664  151.9343 H   0  0  0  0  0  0  0  0  0  0  0  0
  144.2831  134.6274  150.2266 H   0  0  0  0  0  0  0  0  0  0  0  0
  144.2582  130.4338  151.3056 H   0  0  0  0  0  0  0  0  0  0  0  0
  146.2658  129.3904  152.3828 H   0  0  0  0  0  0  0  0  0  0  0  0
  148.1394  130.8374  153.0836 H   0  0  0  0  0  0  0  0  0  0  0  0
  148.0924  134.5284  152.3029 H   0  0  0  0  0  0  0  0  0  0  0  0
  149.6373  135.4110  153.0667 H   0  0  0  0  0  0  0  0  0  0  0  0
  150.9906  134.2499  155.3958 H   0  0  0  0  0  0  0  0  0  0  0  0
  151.9984  134.5820  154.0129 H   0  0  0  0  0  0  0  0  0  0  0  0
  150.1806  136.7085  155.2296 H   0  0  0  0  0  0  0  0  0  0  0  0
  151.6113  136.0699  157.0976 H   0  0  0  0  0  0  0  0  0  0  0  0
  153.0204  136.0405  156.0553 H   0  0  0  0  0  0  0  0  0  0  0  0
  151.4678  138.4851  156.9689 H   0  0  0  0  0  0  0  0  0  0  0  0
  153.2222  138.2352  156.9985 H   0  0  0  0  0  0  0  0  0  0  0  0
  152.5496  136.8471  153.3363 H   0  0  0  0  0  0  0  0  0  0  0  0
  150.9677  137.6214  153.1667 H   0  0  0  0  0  0  0  0  0  0  0  0
  1  2  1  0  0  0  0
  1 21  1  0  0  0  0
  1 22  1  0  0  0  0
  1 23  1  0  0  0  0
  2  3  1  0  0  0  0
  3  8  1  0  0  0  0
  3  4  2  0  0  0  0
  4  5  1  0  0  0  0
  5  6  2  0  0  0  0
  5 24  1  0  0  0  0
  6  7  1  0  0  0  0
  6 25  1  0  0  0  0
  7  8  2  0  0  0  0
  7 26  1  0  0  0  0
  8  9  1  0  0  0  0
  9 10  1  0  0  0  0
  9 27  1  0  0  0  0
 10 11  2  0  0  0  0
 10 12  1  0  0  0  0
 12 13  1  0  0  0  0
 12 28  1  0  0  0  0
 13 14  1  0  0  0  0
 13 29  1  0  0  0  0
 13 30  1  0  0  0  0
 14 20  1  0  0  0  0
 14 15  1  0  0  0  0
 14 31  1  0  0  0  0
 15 16  1  0  0  0  0
 15 32  1  0  0  0  0
 15 33  1  0  0  0  0
 16 17  1  0  0  0  0
 16 34  1  0  0  0  0
 16 35  1  0  0  0  0
 17 18  2  0  0  0  0
 17 19  2  0  0  0  0
 17 20  1  0  0  0  0
 20 36  1  0  0  0  0
 20 37  1  0  0  0  0
M  END
> <s_m_source_file>
AV-unprocessed.smi

> <i_m_source_file_index>
1409

> <i_lp_mmshare_version>
43012

> <i_f3d_flags>
0

> <s_epik_input>
W0NIM11PYzFuW2NIXVtjSF1bY0hdYzFbTkhdQyg9TylbTkhdW0NIMl1bQ0BASF0oW0NIMl0yKVtDSDJdW0NIMl1TMig9Tyk9Tw==

> <s_epik_cmdline>
J2VwaWtfcHl0aG9uJywgJy1waCcsICc3LjAnLCAnLXRuJywgJzgnLCAnLW1hJywgJzIwMCcsICctbWV0YWxfYmluZGluZycsICctaW1hZScsICc8aW5maWxlLm1hZT4nLCAnLW9tYWUnLCAnPG91dGZpbGUubWFlPic=

> <r_lp_tautomer_probability>
1

> <r_epik_Ionization_Penalty>
9.0549e-05

> <r_epik_Ionization_Penalty_Charging>
0

> <r_epik_Ionization_Penalty_Neutral>
9.0549e-05

> <r_epik_State_Penalty>
-0

> <r_epik_Charging_Adjusted_Penalty>
0

> <i_epik_Tot_Q>
0

> <i_epik_Tot_abs_Q>
0

> <r_epik_Metal_State_Penalty>
-0

> <b_epik_Metal_Only>
0

> <s_lp_Force_Field>
OPLS_2005

> <r_lp_Energy>
6.49732

> <b_lp_Chiralities_Consistent>
1

> <s_lp_Variant>
AV-unprocessed.smi:1409-2

> <Gold.Version>
5.8.1

> <Gold.Id.Protein>
6NUR|6NUR_protein|mol2

> <Gold.PLP.Fitness>
43.5180

> <Gold.PLP.PLP>
-32.7269

> <Gold.PLP.part.hbond>
-4.2047

> <Gold.PLP.part.metal>
0.0000

> <Gold.PLP.part.buried>
-4.6977

> <Gold.PLP.part.nonpolar>
-23.9503

> <Gold.PLP.part.repulsive>
0.3929

> <Gold.PLP.ligand.clash>
0.0000

> <Gold.PLP.ligand.torsion>
0.5704

> <Gold.PLP.Chemscore.Hbond>
3.9760

> <Gold.PLP.Chemscore.CHOScore>
0.0000

> <Gold.PLP.Chemscore.Metal>
0.0000

> <Gold.Chemscore.Hbonds>
donor molecule, donor type, donor heavy atom, donor atom, acceptor molecule, acceptor atom, score
      L1  H     9    27       P1  7948  0.93
      L1  H    12    28       P1  7948  0.25
      P1  H  7989  7998       L1    18  1.00
      P1  H  7997  8008       L1    19  0.22

> <Gold.PLP.Chemscore.Internal.Correction>
0.0039

> <Gold.Rescore>
     Score         DG    S(hbond)    S(metal)    S(lipo)     H(rot)  DE(clash)    DE(int)     intcor
     17.65     -19.40       3.45        0.00      55.34       1.59       0.04       1.71       ----

> <Gold.Chemscore.Fitness>
17.6535

> <Gold.Chemscore.DG>
-19.3989

> <Gold.Chemscore.ZeroCoef>
-5.4800

> <Gold.Chemscore.Hbond>
3.4490

> <Gold.Chemscore.Metal>
0.0000

> <Gold.Chemscore.Lipo>
55.3380

> <Gold.Chemscore.Internal_Hbond>
0.0000

> <Gold.Chemscore.DEClash>
0.0354

> <Gold.Chemscore.DEInternal>
1.7099

> <Gold.Chemscore.Rot>
1.5919

> <Gold.Chemscore.Internal.Correction>
   9.000000E+99

> <Gold.Chemscore.Hbonds>
donor molecule, donor type, donor heavy atom, donor atom, acceptor molecule, acceptor atom, score
      L1  H     9    27       P1  7948  0.23
      P1  H  7989  7998       L1    18  0.86
      P1  H  7997  8008       L1    19  0.03

> <Gold.Chemscore.Hbond.Weighted>
-11.5197

> <Gold.Chemscore.Metal.Weighted>
-0.0000

> <Gold.Chemscore.Lipo.Weighted>
-6.4745

> <Gold.Chemscore.Internal_Hbond.Weighted>
0.0000

> <Gold.Chemscore.DEClash.Weighted>
0.0354

> <Gold.Chemscore.DEInternal.Weighted>
1.7099

> <Gold.Chemscore.Rot.Weighted>
4.0754

> <Gold.Chemscore.Internal.Correction.Weighted>
   9.000000E+99

> <Gold.Protein.RotatedTorsions>
[ 6907 6896 6895 6894 ] final  129.83 input  -60.11 | X-H torsion
[ 7974 7965 7964 7962 ] final  -75.30 input  175.53 | X-H torsion
[ 8008 7997 7996 7995 ] final  -36.16 input   59.86 | X-H torsion
[ 10167 10162 10161 10158 ] final -147.82 input  -65.29 | X-H torsion
[ 10718 10713 10712 10709 ] final  -17.98 input   66.30 | X-H torsion
[ 10763 10752 10751 10750 ] final -152.61 input  -60.55 | X-H torsion
[ 11005 11000 10999 10996 ] final  -42.90 input  -57.11 | X-H torsion

> <Gold.Protein.ActiveResidues>
 VAL166  LYS551  ARG553  GLY616  TRP617  ASP618  TYR619  PRO620  LYS621  CYS622 
 ASP623  PHE694  ASN695  SER759  ASP760  ASP761  ALA762  ILE779  LEU786  VAL792 
 PHE793  MET794  SER795  GLU796  ALA797  LYS798  CYS799  TRP800  GLU811  SER814 

> <Gold.Protein.RotatedAtoms>
  152.3586  133.6268  159.5997 H   0  0  0  0  0  0  0  0  0  0  0  0  # atno 6907 bound_to 6896
  150.7585  133.9460  159.3479 H   0  0  0  0  0  0  0  0  0  0  0  0  # atno 6908 bound_to 6896
  151.7301  135.0877  160.0350 H   0  0  0  0  0  0  0  0  0  0  0  0  # atno 6909 bound_to 6896
  145.6278  140.9346  143.1103 H   0  0  0  0  0  0  0  0  0  0  0  0  # atno 7974 bound_to 7965
  154.4079  140.1638  156.2328 H   0  0  0  0  0  0  0  0  0  0  0  0  # atno 8008 bound_to 7997
  155.9268  140.3417  155.6194 H   0  0  0  0  0  0  0  0  0  0  0  0  # atno 8009 bound_to 7997
  155.7156  140.0762  157.2343 H   0  0  0  0  0  0  0  0  0  0  0  0  # atno 8010 bound_to 7997
  139.7587  143.8409  152.2602 H   0  0  0  0  0  0  0  0  0  0  0  0  # atno 10167 bound_to 10162
  156.5660  130.4737  149.6385 H   0  0  0  0  0  0  0  0  0  0  0  0  # atno 10718 bound_to 10713
  154.7982  135.3232  154.7614 H   0  0  0  0  0  0  0  0  0  0  0  0  # atno 10763 bound_to 10752
  153.8288  135.6881  153.4821 H   0  0  0  0  0  0  0  0  0  0  0  0  # atno 10764 bound_to 10752
  153.1685  135.4632  154.9813 H   0  0  0  0  0  0  0  0  0  0  0  0  # atno 10765 bound_to 10752
  141.0347  133.6805  156.2658 H   0  0  0  0  0  0  0  0  0  0  0  0  # atno 11005 bound_to 11000
  144.7205  139.8046  143.7383 LP  0  0  0  0  0  0  0  0  0  0  0  0  # atno 17320 bound_to 7965
  146.1380  139.4430  143.0127 LP  0  0  0  0  0  0  0  0  0  0  0  0  # atno 17321 bound_to 7965
  139.8409  144.7210  150.9332 LP  0  0  0  0  0  0  0  0  0  0  0  0  # atno 17342 bound_to 10162
  140.7805  143.3984  151.1190 LP  0  0  0  0  0  0  0  0  0  0  0  0  # atno 17343 bound_to 10162
  156.2757  130.7042  151.1852 LP  0  0  0  0  0  0  0  0  0  0  0  0  # atno 17370 bound_to 10713
  157.7358  131.0568  150.5447 LP  0  0  0  0  0  0  0  0  0  0  0  0  # atno 17371 bound_to 10713
  140.6343  134.5231  157.5563 LP  0  0  0  0  0  0  0  0  0  0  0  0  # atno 17394 bound_to 11000
  139.9232  134.8107  156.1147 LP  0  0  0  0  0  0  0  0  0  0  0  0  # atno 17395 bound_to 11000

$$$$
