AV-unprocessed.smi:107|AV-procd|sdf|1020|dock8
  -GOLD-   2262018 23D 1   1.00000     0.00000
 Structure written by MMmdl.
 31 32  0  0  0  0  0  0  0  0  1 V2000
  150.7792  143.6029  158.3737 C   0  0  0  0  0  0  0  0  0  0  0  0
  151.1478  142.2747  157.7332 C   0  0  0  0  0  0  0  0  0  0  0  0
  150.6580  141.8871  156.5274 C   0  0  0  0  0  0  0  0  0  0  0  0
  150.9736  140.6769  155.9193 N   0  0  0  0  0  0  0  0  0  0  0  0
  150.4234  140.2668  154.5654 C   0  0  1  0  0  0  0  0  0  0  0  0
  149.6879  138.9153  154.6567 C   0  0  0  0  0  0  0  0  0  0  0  0
  148.3085  139.2271  154.1014 C   0  0  2  0  0  0  0  0  0  0  0  0
  148.2458  138.9240  152.7198 O   0  0  0  0  0  0  0  0  0  0  0  0
  148.1700  140.7298  154.3666 C   0  0  2  0  0  0  0  0  0  0  0  0
  147.1394  141.4684  153.4961 C   0  0  0  0  0  0  0  0  0  0  0  0
  145.8472  141.3119  154.0425 O   0  0  0  0  0  0  0  0  0  0  0  0
  149.4889  141.2061  154.1216 O   0  0  0  0  0  0  0  0  0  0  0  0
  151.8726  139.8002  156.5619 C   0  0  0  0  0  0  0  0  0  0  0  0
  152.2162  138.7245  156.0731 O   0  0  0  0  0  0  0  0  0  0  0  0
  152.3726  140.1961  157.8004 N   0  0  0  0  0  0  0  0  0  0  0  0
  152.0686  141.3919  158.4543 C   0  0  0  0  0  0  0  0  0  0  0  0
  152.5722  141.6295  159.5510 O   0  0  0  0  0  0  0  0  0  0  0  0
  153.0113  139.5663  158.2637 H   0  0  0  0  0  0  0  0  0  0  0  0
  150.1215  144.1925  157.7344 H   0  0  0  0  0  0  0  0  0  0  0  0
  151.6741  144.1953  158.5675 H   0  0  0  0  0  0  0  0  0  0  0  0
  150.2655  143.4379  159.3212 H   0  0  0  0  0  0  0  0  0  0  0  0
  149.9897  142.5721  156.0286 H   0  0  0  0  0  0  0  0  0  0  0  0
  151.2811  140.2634  153.8902 H   0  0  0  0  0  0  0  0  0  0  0  0
  150.2201  138.1405  154.1033 H   0  0  0  0  0  0  0  0  0  0  0  0
  149.6083  138.6027  155.6991 H   0  0  0  0  0  0  0  0  0  0  0  0
  147.5314  138.6567  154.6112 H   0  0  0  0  0  0  0  0  0  0  0  0
  148.4817  138.0170  152.5984 H   0  0  0  0  0  0  0  0  0  0  0  0
  147.9308  140.8635  155.4234 H   0  0  0  0  0  0  0  0  0  0  0  0
  147.3837  142.5266  153.3994 H   0  0  0  0  0  0  0  0  0  0  0  0
  147.1223  141.0433  152.4922 H   0  0  0  0  0  0  0  0  0  0  0  0
  145.2618  141.0318  153.3554 H   0  0  0  0  0  0  0  0  0  0  0  0
  1  2  1  0  0  0  0
  1 19  1  0  0  0  0
  1 20  1  0  0  0  0
  1 21  1  0  0  0  0
  2 16  1  0  0  0  0
  2  3  2  0  0  0  0
  3  4  1  0  0  0  0
  3 22  1  0  0  0  0
  4  5  1  0  0  0  0
  4 13  1  0  0  0  0
  5 12  1  0  0  0  0
  5  6  1  0  0  0  0
  5 23  1  0  0  0  0
  6  7  1  0  0  0  0
  6 24  1  0  0  0  0
  6 25  1  0  0  0  0
  7  8  1  0  0  0  0
  7  9  1  0  0  0  0
  7 26  1  0  0  0  0
  8 27  1  0  0  0  0
  9 10  1  0  0  0  0
  9 12  1  0  0  0  0
  9 28  1  0  0  0  0
 10 11  1  0  0  0  0
 10 29  1  0  0  0  0
 10 30  1  0  0  0  0
 11 31  1  0  0  0  0
 13 14  2  0  0  0  0
 13 15  1  0  0  0  0
 15 18  1  0  0  0  0
 15 16  1  0  0  0  0
 16 17  2  0  0  0  0
M  END
> <s_m_source_file>
AV-unprocessed.smi

> <i_m_source_file_index>
107

> <i_lp_mmshare_version>
43012

> <i_f3d_flags>
0

> <s_epik_input>
Tz1jMVtuSF1jKD1PKW4oW2NIXWMxW0NIM10pW0NAQEhdMltDSDJdW0NAQEhdKFtPSF0pW0NASF0oTzIpW0NIMl1bT0hd

> <s_epik_cmdline>
J2VwaWtfcHl0aG9uJywgJy1waCcsICc3LjAnLCAnLXRuJywgJzgnLCAnLW1hJywgJzIwMCcsICctbWV0YWxfYmluZGluZycsICctaW1hZScsICc8aW5maWxlLm1hZT4nLCAnLW9tYWUnLCAnPG91dGZpbGUubWFlPic=

> <r_lp_tautomer_probability>
0.999537

> <r_epik_Ionization_Penalty>
0.00121888

> <r_epik_Ionization_Penalty_Charging>
0.00121876

> <r_epik_Ionization_Penalty_Neutral>
1.19946e-07

> <r_epik_State_Penalty>
0.000805124

> <r_epik_Charging_Adjusted_Penalty>
0.00202389

> <i_epik_Tot_Q>
0

> <i_epik_Tot_abs_Q>
0

> <r_epik_Metal_State_Penalty>
0.662472

> <b_epik_Metal_Only>
0

> <s_epik_Chemistry_Notes>
This compound contains an acetal/aminal-like group ( X-CH(R)-Y where X, Y are N, S, or O) that may be acid/base labile, releasing an aldehyde.

> <s_lp_Force_Field>
OPLS_2005

> <r_lp_Energy>
28.0991

> <b_lp_Chiralities_Consistent>
1

> <s_lp_Variant>
AV-unprocessed.smi:107-8

> <Gold.Version>
5.8.1

> <Gold.Id.Protein>
6NUR|6NUR_protein|mol2

> <Gold.PLP.Fitness>
40.4051

> <Gold.PLP.PLP>
-30.2553

> <Gold.PLP.part.hbond>
-4.4769

> <Gold.PLP.part.metal>
0.0000

> <Gold.PLP.part.buried>
-2.4140

> <Gold.PLP.part.nonpolar>
-23.6891

> <Gold.PLP.part.repulsive>
0.2762

> <Gold.PLP.ligand.clash>
0.0000

> <Gold.PLP.ligand.torsion>
0.2333

> <Gold.PLP.Chemscore.Hbond>
2.5351

> <Gold.PLP.Chemscore.CHOScore>
1.0000

> <Gold.PLP.Chemscore.Metal>
0.0000

> <Gold.Chemscore.Hbonds>
donor molecule, donor type, donor heavy atom, donor atom, acceptor molecule, acceptor atom, score
      L1  H     8    27       P1  7948  1.00
      L1  H    11    31       P1 10175  1.00
      P1  H  8011  8017       L1    12  0.49
      L1  C     3    22       P1  8028  1.00

> <Gold.PLP.Chemscore.Internal.Correction>
0.0111

> <Gold.Rescore>
     Score         DG    S(hbond)    S(metal)    S(lipo)     H(rot)  DE(clash)    DE(int)     intcor
      9.23     -11.98       2.33        0.00      48.64       2.73       1.41       1.34       ----

> <Gold.Chemscore.Fitness>
9.2259

> <Gold.Chemscore.DG>
-11.9815

> <Gold.Chemscore.ZeroCoef>
-5.4800

> <Gold.Chemscore.Hbond>
2.3316

> <Gold.Chemscore.Metal>
0.0000

> <Gold.Chemscore.Lipo>
48.6401

> <Gold.Chemscore.Internal_Hbond>
0.0000

> <Gold.Chemscore.DEClash>
1.4122

> <Gold.Chemscore.DEInternal>
1.3433

> <Gold.Chemscore.Rot>
2.7253

> <Gold.Chemscore.Internal.Correction>
   9.000000E+99

> <Gold.Chemscore.Hbonds>
donor molecule, donor type, donor heavy atom, donor atom, acceptor molecule, acceptor atom, score
      L1  H     8    27       P1  7948  0.99
      L1  H    11    31       P1 10175  0.50
      P1  H  8011  8017       L1    12  0.46

> <Gold.Chemscore.Hbond.Weighted>
-7.7874

> <Gold.Chemscore.Metal.Weighted>
-0.0000

> <Gold.Chemscore.Lipo.Weighted>
-5.6909

> <Gold.Chemscore.Internal_Hbond.Weighted>
0.0000

> <Gold.Chemscore.DEClash.Weighted>
1.4122

> <Gold.Chemscore.DEInternal.Weighted>
1.3433

> <Gold.Chemscore.Rot.Weighted>
6.9769

> <Gold.Chemscore.Internal.Correction.Weighted>
   9.000000E+99

> <Gold.Protein.RotatedTorsions>
[ 6907 6896 6895 6894 ] final  -32.52 input  -60.11 | X-H torsion
[ 7974 7965 7964 7962 ] final -103.37 input  175.53 | X-H torsion
[ 8008 7997 7996 7995 ] final   99.15 input   59.86 | X-H torsion
[ 10167 10162 10161 10158 ] final  -17.41 input  -65.29 | X-H torsion
[ 10718 10713 10712 10709 ] final   81.34 input   66.30 | X-H torsion
[ 10763 10752 10751 10750 ] final  -43.24 input  -60.55 | X-H torsion
[ 11005 11000 10999 10996 ] final   26.60 input  -57.11 | X-H torsion

> <Gold.Protein.ActiveResidues>
 VAL166  LYS551  ARG553  GLY616  TRP617  ASP618  TYR619  PRO620  LYS621  CYS622 
 ASP623  PHE694  ASN695  SER759  ASP760  ASP761  ALA762  ILE779  LEU786  VAL792 
 PHE793  MET794  SER795  GLU796  ALA797  LYS798  CYS799  TRP800  GLU811  SER814 

> <Gold.Protein.RotatedAtoms>
  151.0777  134.9838  159.8340 H   0  0  0  0  0  0  0  0  0  0  0  0  # atno 6907 bound_to 6896
  152.5416  134.2221  159.8801 H   0  0  0  0  0  0  0  0  0  0  0  0  # atno 6908 bound_to 6896
  151.2249  133.4438  159.2635 H   0  0  0  0  0  0  0  0  0  0  0  0  # atno 6909 bound_to 6896
  145.2568  140.9256  143.3064 H   0  0  0  0  0  0  0  0  0  0  0  0  # atno 7974 bound_to 7965
  156.1076  140.3233  155.8028 H   0  0  0  0  0  0  0  0  0  0  0  0  # atno 8008 bound_to 7997
  155.4729  140.0548  157.2994 H   0  0  0  0  0  0  0  0  0  0  0  0  # atno 8009 bound_to 7997
  154.4738  140.2023  155.9943 H   0  0  0  0  0  0  0  0  0  0  0  0  # atno 8010 bound_to 7997
  140.7247  143.5018  150.9859 H   0  0  0  0  0  0  0  0  0  0  0  0  # atno 10167 bound_to 10162
  157.6830  131.0000  150.2212 H   0  0  0  0  0  0  0  0  0  0  0  0  # atno 10718 bound_to 10713
  153.9923  135.6704  153.4754 H   0  0  0  0  0  0  0  0  0  0  0  0  # atno 10763 bound_to 10752
  153.0699  135.4980  154.8279 H   0  0  0  0  0  0  0  0  0  0  0  0  # atno 10764 bound_to 10752
  154.7102  135.3096  154.9171 H   0  0  0  0  0  0  0  0  0  0  0  0  # atno 10765 bound_to 10752
  140.3353  134.2393  155.7697 H   0  0  0  0  0  0  0  0  0  0  0  0  # atno 11005 bound_to 11000
  144.9454  139.4142  143.6428 LP  0  0  0  0  0  0  0  0  0  0  0  0  # atno 17320 bound_to 7965
  146.3287  139.8435  142.8886 LP  0  0  0  0  0  0  0  0  0  0  0  0  # atno 17321 bound_to 7965
  139.8728  143.7170  152.3165 LP  0  0  0  0  0  0  0  0  0  0  0  0  # atno 17342 bound_to 10162
  139.7425  144.7555  151.0630 LP  0  0  0  0  0  0  0  0  0  0  0  0  # atno 17343 bound_to 10162
  156.2863  130.3740  149.7885 LP  0  0  0  0  0  0  0  0  0  0  0  0  # atno 17370 bound_to 10713
  156.5558  130.8362  151.3313 LP  0  0  0  0  0  0  0  0  0  0  0  0  # atno 17371 bound_to 10713
  141.2053  133.7864  157.0241 LP  0  0  0  0  0  0  0  0  0  0  0  0  # atno 17394 bound_to 11000
  140.0826  134.9639  157.1649 LP  0  0  0  0  0  0  0  0  0  0  0  0  # atno 17395 bound_to 11000

$$$$
