AV-unprocessed.smi:1633|AV-procd|sdf|6533|dock1
  -GOLD-   22720 7213D 1   1.00000     0.00000
 Structure written by MMmdl.
 51 53  0  0  0  0  0  0  0  0  2 V2000
  142.8948  142.5159  157.1416 C   0  0  0  0  0  0  0  0  0  0  0  0
  143.2657  143.0745  155.7661 C   0  0  0  0  0  0  0  0  0  0  0  0
  142.3861  143.1294  154.9070 O   0  0  0  0  0  0  0  0  0  0  0  0
  144.5351  143.4886  155.5386 N   0  0  0  0  0  0  0  0  0  0  0  0
  145.0630  143.9499  154.2520 C   0  0  0  0  0  0  0  0  0  0  0  0
  146.0558  142.9017  153.7168 C   0  0  0  0  0  0  0  0  0  0  0  0
  147.1357  142.6141  154.7036 N   0  3  0  0  0  0  0  0  0  0  0  0
  148.0989  141.5839  154.2385 C   0  0  0  0  0  0  0  0  0  0  0  0
  148.9705  141.0013  155.3753 C   0  0  1  0  0  0  0  0  0  0  0  0
  148.6086  139.6523  155.5931 O   0  0  0  0  0  0  0  0  0  0  0  0
  150.4790  141.0298  155.0593 C   0  0  0  0  0  0  0  0  0  0  0  0
  151.2950  140.7928  156.2359 N   0  0  0  0  0  0  0  0  0  0  0  0
  152.0294  139.6960  156.5032 C   0  0  0  0  0  0  0  0  0  0  0  0
  152.6918  139.6734  157.6557 N   0  0  0  0  0  0  0  0  0  0  0  0
  152.3560  140.9030  158.1957 C   0  0  0  0  0  0  0  0  0  0  0  0
  152.7298  141.5005  159.4191 C   0  0  0  0  0  0  0  0  0  0  0  0
  152.2543  142.7829  159.7747 C   0  0  0  0  0  0  0  0  0  0  0  0
  152.6812  143.3870  161.1010 C   0  0  0  0  0  0  0  0  0  0  0  0
  151.3908  143.4889  158.8990 C   0  0  0  0  0  0  0  0  0  0  0  0
  150.8678  144.8679  159.2603 C   0  0  0  0  0  0  0  0  0  0  0  0
  151.0080  142.9069  157.6724 C   0  0  0  0  0  0  0  0  0  0  0  0
  151.4869  141.6298  157.3303 C   0  0  0  0  0  0  0  0  0  0  0  0
  146.6081  142.3039  156.0604 C   0  0  0  0  0  0  0  0  0  0  0  0
  145.6013  143.3668  156.5358 C   0  0  0  0  0  0  0  0  0  0  0  0
  143.0612  143.2602  157.9207 H   0  0  0  0  0  0  0  0  0  0  0  0
  143.4817  141.6258  157.3688 H   0  0  0  0  0  0  0  0  0  0  0  0
  141.8415  142.2355  157.1698 H   0  0  0  0  0  0  0  0  0  0  0  0
  144.2930  144.1437  153.5065 H   0  0  0  0  0  0  0  0  0  0  0  0
  145.5721  144.9038  154.3981 H   0  0  0  0  0  0  0  0  0  0  0  0
  145.5216  141.9786  153.4844 H   0  0  0  0  0  0  0  0  0  0  0  0
  146.4814  143.2634  152.7818 H   0  0  0  0  0  0  0  0  0  0  0  0
  147.5597  140.7624  153.7637 H   0  0  0  0  0  0  0  0  0  0  0  0
  148.7163  142.0287  153.4576 H   0  0  0  0  0  0  0  0  0  0  0  0
  148.8109  141.5478  156.3042 H   0  0  0  0  0  0  0  0  0  0  0  0
  148.5479  139.2106  154.7604 H   0  0  0  0  0  0  0  0  0  0  0  0
  150.7250  140.2695  154.3165 H   0  0  0  0  0  0  0  0  0  0  0  0
  150.7625  141.9898  154.6259 H   0  0  0  0  0  0  0  0  0  0  0  0
  152.0728  138.8631  155.8165 H   0  0  0  0  0  0  0  0  0  0  0  0
  153.3877  140.9629  160.0862 H   0  0  0  0  0  0  0  0  0  0  0  0
  153.2054  144.3293  160.9411 H   0  0  0  0  0  0  0  0  0  0  0  0
  153.3514  142.7207  161.6448 H   0  0  0  0  0  0  0  0  0  0  0  0
  151.8125  143.5760  161.7316 H   0  0  0  0  0  0  0  0  0  0  0  0
  150.2241  145.2679  158.4765 H   0  0  0  0  0  0  0  0  0  0  0  0
  151.6940  145.5649  159.4015 H   0  0  0  0  0  0  0  0  0  0  0  0
  150.2873  144.8273  160.1822 H   0  0  0  0  0  0  0  0  0  0  0  0
  150.3505  143.4346  156.9974 H   0  0  0  0  0  0  0  0  0  0  0  0
  146.1287  141.3235  156.0449 H   0  0  0  0  0  0  0  0  0  0  0  0
  147.4344  142.2417  156.7696 H   0  0  0  0  0  0  0  0  0  0  0  0
  146.0984  144.3312  156.6506 H   0  0  0  0  0  0  0  0  0  0  0  0
  145.2282  143.1057  157.5271 H   0  0  0  0  0  0  0  0  0  0  0  0
  147.6617  143.4693  154.8099 H   0  0  0  0  0  0  0  0  0  0  0  0
  1  2  1  0  0  0  0
  1 25  1  0  0  0  0
  1 26  1  0  0  0  0
  1 27  1  0  0  0  0
  2  3  2  0  0  0  0
  2  4  1  0  0  0  0
  4 24  1  0  0  0  0
  4  5  1  0  0  0  0
  5  6  1  0  0  0  0
  5 28  1  0  0  0  0
  5 29  1  0  0  0  0
  6  7  1  0  0  0  0
  6 30  1  0  0  0  0
  6 31  1  0  0  0  0
  7  8  1  0  0  0  0
  7 23  1  0  0  0  0
  7 51  1  0  0  0  0
  8  9  1  0  0  0  0
  8 32  1  0  0  0  0
  8 33  1  0  0  0  0
  9 10  1  0  0  0  0
  9 11  1  0  0  0  0
  9 34  1  0  0  0  0
 10 35  1  0  0  0  0
 11 12  1  0  0  0  0
 11 36  1  0  0  0  0
 11 37  1  0  0  0  0
 12 22  1  0  0  0  0
 12 13  1  0  0  0  0
 13 14  2  0  0  0  0
 13 38  1  0  0  0  0
 14 15  1  0  0  0  0
 15 22  2  0  0  0  0
 15 16  1  0  0  0  0
 16 17  2  0  0  0  0
 16 39  1  0  0  0  0
 17 18  1  0  0  0  0
 17 19  1  0  0  0  0
 18 40  1  0  0  0  0
 18 41  1  0  0  0  0
 18 42  1  0  0  0  0
 19 20  1  0  0  0  0
 19 21  2  0  0  0  0
 20 43  1  0  0  0  0
 20 44  1  0  0  0  0
 20 45  1  0  0  0  0
 21 22  1  0  0  0  0
 21 46  1  0  0  0  0
 23 24  1  0  0  0  0
 23 47  1  0  0  0  0
 23 48  1  0  0  0  0
 24 49  1  0  0  0  0
 24 50  1  0  0  0  0
M  CHG  1   7   1
M  END
> <s_m_source_file>
AV-unprocessed.smi

> <i_m_source_file_index>
1633

> <i_lp_mmshare_version>
43012

> <i_f3d_flags>
0

> <s_epik_input>
W0NIM11DKD1PKU4xW0NIMl1bQ0gyXU4oW0NIMl1bQ0gyXTEpW0NIMl1bQ0BIXShbT0hdKVtDSDJdbihbY0hdbjIpYyhjMjMpW2NIXWMoW0NIM10pYyhbY0hdMylbQ0gzXQ==

> <s_epik_cmdline>
J2VwaWtfcHl0aG9uJywgJy1waCcsICc3LjAnLCAnLXRuJywgJzgnLCAnLW1hJywgJzIwMCcsICctbWV0YWxfYmluZGluZycsICctaW1hZScsICc8aW5maWxlLm1hZT4nLCAnLW9tYWUnLCAnPG91dGZpbGUubWFlPic=

> <r_epik_Ionization_Penalty>
0.0939669

> <r_epik_Ionization_Penalty_Charging>
0.00645254

> <r_epik_Ionization_Penalty_Neutral>
0.0875144

> <r_epik_State_Penalty>
0.0777239

> <r_epik_Charging_Adjusted_Penalty>
0.0841764

> <i_epik_Tot_Q>
1

> <i_epik_Tot_abs_Q>
1

> <r_epik_Metal_State_Penalty>
7.71307e-05

> <b_epik_Metal_Only>
0

> <s_lp_Force_Field>
OPLS_2005

> <r_lp_Energy>
45.1144

> <b_lp_Chiralities_Consistent>
1

> <s_lp_Variant>
AV-unprocessed.smi:1633-2

> <Gold.Version>
5.8.1

> <Gold.Id.Protein>
6NUR|6NUR_protein|mol2

> <Gold.PLP.Fitness>
50.7895

> <Gold.PLP.PLP>
-43.8607

> <Gold.PLP.part.hbond>
-2.0000

> <Gold.PLP.part.metal>
0.0000

> <Gold.PLP.part.buried>
-4.9618

> <Gold.PLP.part.nonpolar>
-37.2003

> <Gold.PLP.part.repulsive>
1.0531

> <Gold.PLP.ligand.clash>
0.0000

> <Gold.PLP.ligand.torsion>
1.1095

> <Gold.PLP.Chemscore.Hbond>
3.0000

> <Gold.PLP.Chemscore.CHOScore>
0.0000

> <Gold.PLP.Chemscore.Metal>
0.0000

> <Gold.Chemscore.Hbonds>
donor molecule, donor type, donor heavy atom, donor atom, acceptor molecule, acceptor atom, score
      L1  H     7    51       P1  8028  2.00
      P1  H  7997  8008       L1    14  1.00

> <Gold.PLP.Chemscore.Internal.Correction>
0.1477

> <Gold.Rescore>
     Score         DG    S(hbond)    S(metal)    S(lipo)     H(rot)  DE(clash)    DE(int)     intcor
     13.08     -15.49       0.50        0.00     118.61       2.16       1.26       1.15       ----

> <Gold.Chemscore.Fitness>
13.0819

> <Gold.Chemscore.DG>
-15.4901

> <Gold.Chemscore.ZeroCoef>
-5.4800

> <Gold.Chemscore.Hbond>
0.4982

> <Gold.Chemscore.Metal>
0.0000

> <Gold.Chemscore.Lipo>
118.6148

> <Gold.Chemscore.Internal_Hbond>
0.0000

> <Gold.Chemscore.DEClash>
1.2581

> <Gold.Chemscore.DEInternal>
1.1502

> <Gold.Chemscore.Rot>
2.1608

> <Gold.Chemscore.Internal.Correction>
   9.000000E+99

> <Gold.Chemscore.Hbonds>
donor molecule, donor type, donor heavy atom, donor atom, acceptor molecule, acceptor atom, score
      L1  H     7    51       P1  8028  0.34
      P1  H  7997  8008       L1    14  0.07

> <Gold.Chemscore.Hbond.Weighted>
-1.6639

> <Gold.Chemscore.Metal.Weighted>
-0.0000

> <Gold.Chemscore.Lipo.Weighted>
-13.8779

> <Gold.Chemscore.Internal_Hbond.Weighted>
0.0000

> <Gold.Chemscore.DEClash.Weighted>
1.2581

> <Gold.Chemscore.DEInternal.Weighted>
1.1502

> <Gold.Chemscore.Rot.Weighted>
5.5317

> <Gold.Chemscore.Internal.Correction.Weighted>
   9.000000E+99

> <Gold.Protein.RotatedTorsions>
[ 6907 6896 6895 6894 ] final  161.74 input  -60.11 | X-H torsion
[ 7974 7965 7964 7962 ] final  -49.11 input  175.53 | X-H torsion
[ 8008 7997 7996 7995 ] final  -83.38 input   59.86 | X-H torsion
[ 10167 10162 10161 10158 ] final -110.16 input  -65.29 | X-H torsion
[ 10718 10713 10712 10709 ] final -131.58 input   66.30 | X-H torsion
[ 10763 10752 10751 10750 ] final  -39.97 input  -60.55 | X-H torsion
[ 11005 11000 10999 10996 ] final  117.80 input  -57.11 | X-H torsion

> <Gold.Protein.ActiveResidues>
 VAL166  LYS551  ARG553  GLY616  TRP617  ASP618  TYR619  PRO620  LYS621  CYS622 
 ASP623  PHE694  ASN695  SER759  ASP760  ASP761  ALA762  ILE779  LEU786  VAL792 
 PHE793  MET794  SER795  GLU796  ALA797  LYS798  CYS799  TRP800  GLU811  SER814 

> <Gold.Protein.RotatedAtoms>
  151.9510  133.3666  159.3999 H   0  0  0  0  0  0  0  0  0  0  0  0  # atno 6907 bound_to 6896
  150.6981  134.4340  159.5271 H   0  0  0  0  0  0  0  0  0  0  0  0  # atno 6908 bound_to 6896
  152.2013  134.8585  160.0558 H   0  0  0  0  0  0  0  0  0  0  0  0  # atno 6909 bound_to 6896
  145.9440  140.7635  142.9538 H   0  0  0  0  0  0  0  0  0  0  0  0  # atno 7974 bound_to 7965
  154.6185  140.0619  156.9585 H   0  0  0  0  0  0  0  0  0  0  0  0  # atno 8008 bound_to 7997
  155.1856  140.3303  155.4349 H   0  0  0  0  0  0  0  0  0  0  0  0  # atno 8009 bound_to 7997
  156.2418  140.1890  156.6949 H   0  0  0  0  0  0  0  0  0  0  0  0  # atno 8010 bound_to 7997
  140.1474  143.4227  152.1519 H   0  0  0  0  0  0  0  0  0  0  0  0  # atno 10167 bound_to 10162
  156.2258  130.7007  151.0805 H   0  0  0  0  0  0  0  0  0  0  0  0  # atno 10718 bound_to 10713
  153.9382  135.6764  153.4744 H   0  0  0  0  0  0  0  0  0  0  0  0  # atno 10763 bound_to 10752
  153.0945  135.4858  154.8750 H   0  0  0  0  0  0  0  0  0  0  0  0  # atno 10764 bound_to 10752
  154.7392  135.3156  154.8717 H   0  0  0  0  0  0  0  0  0  0  0  0  # atno 10765 bound_to 10752
  139.9087  134.9614  156.7405 H   0  0  0  0  0  0  0  0  0  0  0  0  # atno 11005 bound_to 11000
  144.6784  140.2326  143.7353 LP  0  0  0  0  0  0  0  0  0  0  0  0  # atno 17320 bound_to 7965
  145.8261  139.2065  143.1909 LP  0  0  0  0  0  0  0  0  0  0  0  0  # atno 17321 bound_to 7965
  139.5442  144.7284  151.4636 LP  0  0  0  0  0  0  0  0  0  0  0  0  # atno 17342 bound_to 10162
  140.6723  143.8266  150.7015 LP  0  0  0  0  0  0  0  0  0  0  0  0  # atno 17343 bound_to 10162
  157.7110  131.0734  150.6501 LP  0  0  0  0  0  0  0  0  0  0  0  0  # atno 17370 bound_to 10713
  156.6567  130.4500  149.5701 LP  0  0  0  0  0  0  0  0  0  0  0  0  # atno 17371 bound_to 10713
  140.6853  133.9438  155.7934 LP  0  0  0  0  0  0  0  0  0  0  0  0  # atno 17394 bound_to 11000
  141.0481  134.0525  157.3819 LP  0  0  0  0  0  0  0  0  0  0  0  0  # atno 17395 bound_to 11000

$$$$
