AV-unprocessed.smi:3274|AV-procd|sdf|12526|dock6
  -GOLD-   2272018443D 1   1.00000     0.00000
 Structure written by MMmdl.
 43 44  0  0  0  0  0  0  0  0  2 V2000
  152.3672  144.8259  157.9162 C   0  0  0  0  0  0  0  0  0  0  0  0
  152.4304  144.0736  159.2354 C   0  0  0  0  0  0  0  0  0  0  0  0
  152.1500  144.6944  160.3983 C   0  0  0  0  0  0  0  0  0  0  0  0
  152.2426  144.0488  161.7701 C   0  0  0  0  0  0  0  0  0  0  0  0
  152.5274  142.5386  161.7121 C   0  0  0  0  0  0  0  0  0  0  0  0
  153.4814  142.1882  160.5569 C   0  0  1  0  0  0  0  0  0  0  0  0
  153.9598  140.7275  160.6225 C   0  0  0  0  0  0  0  0  0  0  0  0
  152.8729  142.6051  159.1880 C   0  0  1  0  0  0  0  0  0  0  0  0
  151.7289  141.6662  158.7240 C   0  0  0  0  0  0  0  0  0  0  0  0
  151.4366  141.7895  157.2809 N   0  3  0  0  0  0  0  0  0  0  0  0
  150.1383  141.2242  156.8478 C   0  0  1  0  0  0  0  0  0  0  0  0
  148.9756  141.8784  157.6120 C   0  0  0  0  0  0  0  0  0  0  0  0
  149.9594  141.4059  155.3257 C   0  0  0  0  0  0  0  0  0  0  0  0
  148.5984  141.1687  154.8724 N   0  0  0  0  0  0  0  0  0  0  0  0
  147.7022  142.0111  154.3559 C   0  0  0  0  0  0  0  0  0  0  0  0
  146.5344  141.4483  154.0795 N   0  0  0  0  0  0  0  0  0  0  0  0
  146.7901  140.1730  154.4968 C   0  0  0  0  0  0  0  0  0  0  0  0
  148.0102  139.9539  154.9871 N   0  0  0  0  0  0  0  0  0  0  0  0
  153.2792  144.6664  157.3405 H   0  0  0  0  0  0  0  0  0  0  0  0
  152.2661  145.8988  158.0833 H   0  0  0  0  0  0  0  0  0  0  0  0
  151.5150  144.5120  157.3163 H   0  0  0  0  0  0  0  0  0  0  0  0
  151.8657  145.7368  160.3921 H   0  0  0  0  0  0  0  0  0  0  0  0
  153.0449  144.5514  162.3110 H   0  0  0  0  0  0  0  0  0  0  0  0
  151.3231  144.2374  162.3246 H   0  0  0  0  0  0  0  0  0  0  0  0
  152.9460  142.2148  162.6656 H   0  0  0  0  0  0  0  0  0  0  0  0
  151.5907  141.9929  161.5958 H   0  0  0  0  0  0  0  0  0  0  0  0
  154.3781  142.7952  160.6961 H   0  0  0  0  0  0  0  0  0  0  0  0
  153.1278  140.0238  160.6351 H   0  0  0  0  0  0  0  0  0  0  0  0
  154.5396  140.5525  161.5293 H   0  0  0  0  0  0  0  0  0  0  0  0
  154.5995  140.4833  159.7739 H   0  0  0  0  0  0  0  0  0  0  0  0
  153.6798  142.5361  158.4566 H   0  0  0  0  0  0  0  0  0  0  0  0
  151.9910  140.6243  158.9024 H   0  0  0  0  0  0  0  0  0  0  0  0
  150.8260  141.8697  159.2985 H   0  0  0  0  0  0  0  0  0  0  0  0
  151.4746  142.7631  157.0148 H   0  0  0  0  0  0  0  0  0  0  0  0
  150.1322  140.1555  157.0681 H   0  0  0  0  0  0  0  0  0  0  0  0
  148.0169  141.4814  157.2768 H   0  0  0  0  0  0  0  0  0  0  0  0
  148.9577  142.9580  157.4586 H   0  0  0  0  0  0  0  0  0  0  0  0
  149.0404  141.6956  158.6843 H   0  0  0  0  0  0  0  0  0  0  0  0
  150.2349  142.4198  155.0328 H   0  0  0  0  0  0  0  0  0  0  0  0
  150.6258  140.7330  154.7838 H   0  0  0  0  0  0  0  0  0  0  0  0
  147.9071  143.0565  154.1770 H   0  0  0  0  0  0  0  0  0  0  0  0
  146.0554  139.3831  154.4395 H   0  0  0  0  0  0  0  0  0  0  0  0
  152.1662  141.2938  156.7885 H   0  0  0  0  0  0  0  0  0  0  0  0
  1  2  1  0  0  0  0
  1 19  1  0  0  0  0
  1 20  1  0  0  0  0
  1 21  1  0  0  0  0
  2  8  1  0  0  0  0
  2  3  2  0  0  0  0
  3  4  1  0  0  0  0
  3 22  1  0  0  0  0
  4  5  1  0  0  0  0
  4 23  1  0  0  0  0
  4 24  1  0  0  0  0
  5  6  1  0  0  0  0
  5 25  1  0  0  0  0
  5 26  1  0  0  0  0
  6  7  1  0  0  0  0
  6  8  1  0  0  0  0
  6 27  1  0  0  0  0
  7 28  1  0  0  0  0
  7 29  1  0  0  0  0
  7 30  1  0  0  0  0
  8  9  1  0  0  0  0
  8 31  1  0  0  0  0
  9 10  1  0  0  0  0
  9 32  1  0  0  0  0
  9 33  1  0  0  0  0
 10 11  1  0  0  0  0
 10 34  1  0  0  0  0
 10 43  1  0  0  0  0
 11 12  1  0  0  0  0
 11 13  1  0  0  0  0
 11 35  1  0  0  0  0
 12 36  1  0  0  0  0
 12 37  1  0  0  0  0
 12 38  1  0  0  0  0
 13 14  1  0  0  0  0
 13 39  1  0  0  0  0
 13 40  1  0  0  0  0
 14 18  1  0  0  0  0
 14 15  1  0  0  0  0
 15 16  2  0  0  0  0
 15 41  1  0  0  0  0
 16 17  1  0  0  0  0
 17 18  2  0  0  0  0
 17 42  1  0  0  0  0
M  CHG  1  10   1
M  END
> <s_m_source_file>
AV-unprocessed.smi

> <i_m_source_file_index>
3274

> <i_lp_mmshare_version>
43012

> <i_f3d_flags>
0

> <s_epik_input>
W0NIM11DMT1bQ0hdW0NIMl1bQ0gyXVtDQEBIXShbQ0gzXSlbQ0BIXTFbQ0gyXVtOSF1bQ0BIXShbQ0gzXSlbQ0gyXW4yW2NIXW5bY0hdbjI=

> <s_epik_cmdline>
J2VwaWtfcHl0aG9uJywgJy1waCcsICc3LjAnLCAnLXRuJywgJzgnLCAnLW1hJywgJzIwMCcsICctbWV0YWxfYmluZGluZycsICctaW1hZScsICc8aW5maWxlLm1hZT4nLCAnLW9tYWUnLCAnPG91dGZpbGUubWFlPic=

> <r_lp_tautomer_probability>
1

> <r_epik_Ionization_Penalty>
0.0017527

> <r_epik_Ionization_Penalty_Charging>
0.00175191

> <r_epik_Ionization_Penalty_Neutral>
7.94565e-07

> <r_epik_State_Penalty>
0.00118605

> <r_epik_Charging_Adjusted_Penalty>
0.00293796

> <i_epik_Tot_Q>
1

> <i_epik_Tot_abs_Q>
1

> <r_epik_Metal_State_Penalty>
-0

> <b_epik_Metal_Only>
0

> <s_lp_Force_Field>
OPLS_2005

> <r_lp_Energy>
18.0154

> <b_lp_Chiralities_Consistent>
1

> <s_lp_Variant>
AV-unprocessed.smi:3274-5

> <Gold.Version>
5.8.1

> <Gold.Id.Protein>
6NUR|6NUR_protein|mol2

> <Gold.PLP.Fitness>
47.9944

> <Gold.PLP.PLP>
-45.5374

> <Gold.PLP.part.hbond>
0.0000

> <Gold.PLP.part.metal>
0.0000

> <Gold.PLP.part.buried>
-4.5137

> <Gold.PLP.part.nonpolar>
-40.8350

> <Gold.PLP.part.repulsive>
0.2936

> <Gold.PLP.ligand.clash>
0.0000

> <Gold.PLP.ligand.torsion>
0.3228

> <Gold.PLP.Chemscore.Hbond>
0.0000

> <Gold.PLP.Chemscore.CHOScore>
1.0000

> <Gold.PLP.Chemscore.Metal>
0.0000

> <Gold.Chemscore.Hbonds>
donor molecule, donor type, donor heavy atom, donor atom, acceptor molecule, acceptor atom, score
      L1  C    15    41       P1  8028  1.00

> <Gold.PLP.Chemscore.Internal.Correction>
0.1026

> <Gold.Rescore>
     Score         DG    S(hbond)    S(metal)    S(lipo)     H(rot)  DE(clash)    DE(int)     intcor
     13.28     -13.57       0.00        0.00     120.79       2.36       0.07       0.22       ----

> <Gold.Chemscore.Fitness>
13.2755

> <Gold.Chemscore.DG>
-13.5670

> <Gold.Chemscore.ZeroCoef>
-5.4800

> <Gold.Chemscore.Hbond>
0.0000

> <Gold.Chemscore.Metal>
0.0000

> <Gold.Chemscore.Lipo>
120.7899

> <Gold.Chemscore.Internal_Hbond>
0.0000

> <Gold.Chemscore.DEClash>
0.0739

> <Gold.Chemscore.DEInternal>
0.2176

> <Gold.Chemscore.Rot>
2.3615

> <Gold.Chemscore.Internal.Correction>
   9.000000E+99

> <Gold.Chemscore.Hbond.Weighted>
-0.0000

> <Gold.Chemscore.Metal.Weighted>
-0.0000

> <Gold.Chemscore.Lipo.Weighted>
-14.1324

> <Gold.Chemscore.Internal_Hbond.Weighted>
0.0000

> <Gold.Chemscore.DEClash.Weighted>
0.0739

> <Gold.Chemscore.DEInternal.Weighted>
0.2176

> <Gold.Chemscore.Rot.Weighted>
6.0454

> <Gold.Chemscore.Internal.Correction.Weighted>
   9.000000E+99

> <Gold.Protein.RotatedTorsions>
[ 6907 6896 6895 6894 ] final  106.78 input  -60.11 | X-H torsion
[ 7974 7965 7964 7962 ] final -179.74 input  175.53 | X-H torsion
[ 8008 7997 7996 7995 ] final  108.66 input   59.86 | X-H torsion
[ 10167 10162 10161 10158 ] final   55.13 input  -65.29 | X-H torsion
[ 10718 10713 10712 10709 ] final -143.74 input   66.30 | X-H torsion
[ 10763 10752 10751 10750 ] final -103.01 input  -60.55 | X-H torsion
[ 11005 11000 10999 10996 ] final   94.50 input  -57.11 | X-H torsion

> <Gold.Protein.ActiveResidues>
 VAL166  LYS551  ARG553  GLY616  TRP617  ASP618  TYR619  PRO620  LYS621  CYS622 
 ASP623  PHE694  ASN695  SER759  ASP760  ASP761  ALA762  ILE779  LEU786  VAL792 
 PHE793  MET794  SER795  GLU796  ALA797  LYS798  CYS799  TRP800  GLU811  SER814 

> <Gold.Protein.RotatedAtoms>
  152.5180  133.9331  159.7589 H   0  0  0  0  0  0  0  0  0  0  0  0  # atno 6907 bound_to 6896
  150.9677  133.6368  159.2750 H   0  0  0  0  0  0  0  0  0  0  0  0  # atno 6908 bound_to 6896
  151.3591  135.0906  159.9481 H   0  0  0  0  0  0  0  0  0  0  0  0  # atno 6909 bound_to 6896
  144.7139  140.0672  143.6430 H   0  0  0  0  0  0  0  0  0  0  0  0  # atno 7974 bound_to 7965
  156.1920  140.3072  155.9352 H   0  0  0  0  0  0  0  0  0  0  0  0  # atno 8008 bound_to 7997
  155.3151  140.0453  157.3054 H   0  0  0  0  0  0  0  0  0  0  0  0  # atno 8009 bound_to 7997
  154.5464  140.2278  155.8565 H   0  0  0  0  0  0  0  0  0  0  0  0  # atno 8010 bound_to 7997
  140.2228  144.3771  150.6444 H   0  0  0  0  0  0  0  0  0  0  0  0  # atno 10167 bound_to 10162
  156.3616  130.7741  151.1909 H   0  0  0  0  0  0  0  0  0  0  0  0  # atno 10718 bound_to 10713
  154.7776  135.4839  153.9777 H   0  0  0  0  0  0  0  0  0  0  0  0  # atno 10763 bound_to 10752
  153.1450  135.6780  153.8976 H   0  0  0  0  0  0  0  0  0  0  0  0  # atno 10764 bound_to 10752
  153.8638  135.3152  155.3417 H   0  0  0  0  0  0  0  0  0  0  0  0  # atno 10765 bound_to 10752
  139.8798  134.8849  156.3874 H   0  0  0  0  0  0  0  0  0  0  0  0  # atno 11005 bound_to 11000
  145.9814  139.2944  143.1039 LP  0  0  0  0  0  0  0  0  0  0  0  0  # atno 17320 bound_to 7965
  145.9006  140.9245  143.0505 LP  0  0  0  0  0  0  0  0  0  0  0  0  # atno 17321 bound_to 7965
  140.6243  143.2179  151.6630 LP  0  0  0  0  0  0  0  0  0  0  0  0  # atno 17342 bound_to 10162
  139.5138  144.3431  152.0721 LP  0  0  0  0  0  0  0  0  0  0  0  0  # atno 17343 bound_to 10162
  157.7474  131.0398  150.4569 LP  0  0  0  0  0  0  0  0  0  0  0  0  # atno 17370 bound_to 10713
  156.4781  130.4067  149.6478 LP  0  0  0  0  0  0  0  0  0  0  0  0  # atno 17371 bound_to 10713
  140.9357  133.7549  156.0081 LP  0  0  0  0  0  0  0  0  0  0  0  0  # atno 17394 bound_to 11000
  140.8279  134.3213  157.5359 LP  0  0  0  0  0  0  0  0  0  0  0  0  # atno 17395 bound_to 11000

$$$$
