AV-unprocessed.smi:3078|AV-procd|sdf|11733|dock5
  -GOLD-   2272017133D 1   1.00000     0.00000
 Structure written by MMmdl.
 23 23  0  0  0  0  0  0  0  0  2 V2000
  152.5133  138.4828  154.5535 C   0  0  0  0  0  0  0  0  0  0  0  0
  151.1188  138.8591  154.4616 N   0  0  0  0  0  0  0  0  0  0  0  0
  150.0259  138.0574  154.2136 C   0  0  0  0  0  0  0  0  0  0  0  0
  148.9174  138.8596  154.2108 C   0  0  0  0  0  0  0  0  0  0  0  0
  147.4707  138.4945  153.9865 C   0  0  2  0  0  0  0  0  0  0  0  0
  147.3465  137.0336  153.8557 N   0  3  0  0  0  0  0  0  0  0  0  0
  146.8587  139.1945  152.7581 C   0  0  0  0  0  0  0  0  0  0  0  0
  147.3654  138.6172  151.5275 N   0  0  0  0  0  0  0  0  0  0  0  0
  149.4519  140.1541  154.4731 C   0  0  0  0  0  0  0  0  0  0  0  0
  150.7658  140.1501  154.6239 N   0  0  0  0  0  0  0  0  0  0  0  0
  152.6052  137.3974  154.6021 H   0  0  0  0  0  0  0  0  0  0  0  0
  152.9575  138.9154  155.4505 H   0  0  0  0  0  0  0  0  0  0  0  0
  153.0497  138.8458  153.6764 H   0  0  0  0  0  0  0  0  0  0  0  0
  150.1275  136.9935  154.0567 H   0  0  0  0  0  0  0  0  0  0  0  0
  146.8801  138.7674  154.8623 H   0  0  0  0  0  0  0  0  0  0  0  0
  147.2995  136.6169  154.7744 H   0  0  0  0  0  0  0  0  0  0  0  0
  148.1493  136.6704  153.3625 H   0  0  0  0  0  0  0  0  0  0  0  0
  145.7703  139.1286  152.7692 H   0  0  0  0  0  0  0  0  0  0  0  0
  147.1162  140.2541  152.7623 H   0  0  0  0  0  0  0  0  0  0  0  0
  148.1401  139.1667  151.1829 H   0  0  0  0  0  0  0  0  0  0  0  0
  147.7262  137.6897  151.7017 H   0  0  0  0  0  0  0  0  0  0  0  0
  148.9249  141.0933  154.5572 H   0  0  0  0  0  0  0  0  0  0  0  0
  146.5061  136.8112  153.3416 H   0  0  0  0  0  0  0  0  0  0  0  0
  1  2  1  0  0  0  0
  1 11  1  0  0  0  0
  1 12  1  0  0  0  0
  1 13  1  0  0  0  0
  2 10  1  0  0  0  0
  2  3  1  0  0  0  0
  3  4  2  0  0  0  0
  3 14  1  0  0  0  0
  4  5  1  0  0  0  0
  4  9  1  0  0  0  0
  5  6  1  0  0  0  0
  5  7  1  0  0  0  0
  5 15  1  0  0  0  0
  6 16  1  0  0  0  0
  6 17  1  0  0  0  0
  6 23  1  0  0  0  0
  7  8  1  0  0  0  0
  7 18  1  0  0  0  0
  7 19  1  0  0  0  0
  8 20  1  0  0  0  0
  8 21  1  0  0  0  0
  9 10  2  0  0  0  0
  9 22  1  0  0  0  0
M  CHG  1   6   1
M  END
> <s_m_source_file>
AV-unprocessed.smi

> <i_m_source_file_index>
3078

> <i_lp_mmshare_version>
43012

> <i_f3d_flags>
0

> <s_epik_input>
W0NIM11uMVtjSF1jKFtjSF1uMSlbQ0BIXShbTkgyXSlbQ0gyXVtOSDJd

> <s_epik_cmdline>
J2VwaWtfcHl0aG9uJywgJy1waCcsICc3LjAnLCAnLXRuJywgJzgnLCAnLW1hJywgJzIwMCcsICctbWV0YWxfYmluZGluZycsICctaW1hZScsICc8aW5maWxlLm1hZT4nLCAnLW9tYWUnLCAnPG91dGZpbGUubWFlPic=

> <r_epik_Ionization_Penalty>
0.19937

> <r_epik_Ionization_Penalty_Charging>
0.0290541

> <r_epik_Ionization_Penalty_Neutral>
0.170316

> <r_epik_State_Penalty>
1.07715

> <r_epik_Charging_Adjusted_Penalty>
1.1062

> <i_epik_Tot_Q>
1

> <i_epik_Tot_abs_Q>
1

> <r_epik_Metal_State_Penalty>
1.07718

> <b_epik_Metal_Only>
0

> <s_lp_Force_Field>
OPLS_2005

> <r_lp_Energy>
0.880803

> <b_lp_Chiralities_Consistent>
1

> <s_lp_Variant>
AV-unprocessed.smi:3078-3

> <Gold.Version>
5.8.1

> <Gold.Id.Protein>
6NUR|6NUR_protein|mol2

> <Gold.PLP.Fitness>
39.3255

> <Gold.PLP.PLP>
-22.4284

> <Gold.PLP.part.hbond>
-5.0000

> <Gold.PLP.part.metal>
0.0000

> <Gold.PLP.part.buried>
-1.9510

> <Gold.PLP.part.nonpolar>
-15.7079

> <Gold.PLP.part.repulsive>
0.0798

> <Gold.PLP.ligand.clash>
0.0000

> <Gold.PLP.ligand.torsion>
0.0895

> <Gold.PLP.Chemscore.Hbond>
5.0000

> <Gold.PLP.Chemscore.CHOScore>
0.6875

> <Gold.PLP.Chemscore.Metal>
0.0000

> <Gold.Chemscore.Hbonds>
donor molecule, donor type, donor heavy atom, donor atom, acceptor molecule, acceptor atom, score
      L1  H     6    17       P1  7948  2.00
      L1  H     8    20       P1  7957  1.00
      L1  H     8    21       P1  7948  1.00
      P1  H  7989  7998       L1    10  1.00
      L1  C     3    14       P1  7948  0.59

> <Gold.PLP.Chemscore.Internal.Correction>
0.0134

> <Gold.Rescore>
     Score         DG    S(hbond)    S(metal)    S(lipo)     H(rot)  DE(clash)    DE(int)     intcor
     18.65     -18.87       3.76        0.00      37.98       1.40       0.00       0.22       ----

> <Gold.Chemscore.Fitness>
18.6485

> <Gold.Chemscore.DG>
-18.8722

> <Gold.Chemscore.ZeroCoef>
-5.4800

> <Gold.Chemscore.Hbond>
3.7558

> <Gold.Chemscore.Metal>
0.0000

> <Gold.Chemscore.Lipo>
37.9783

> <Gold.Chemscore.Internal_Hbond>
0.0000

> <Gold.Chemscore.DEClash>
0.0000

> <Gold.Chemscore.DEInternal>
0.2237

> <Gold.Chemscore.Rot>
1.4045

> <Gold.Chemscore.Internal.Correction>
   9.000000E+99

> <Gold.Chemscore.Hbonds>
donor molecule, donor type, donor heavy atom, donor atom, acceptor molecule, acceptor atom, score
      L1  H     6    17       P1  7948  0.95
      L1  H     8    20       P1  7957  0.55
      L1  H     8    21       P1  7948  0.99
      P1  H  7989  7998       L1    10  0.32

> <Gold.Chemscore.Hbond.Weighted>
-12.5443

> <Gold.Chemscore.Metal.Weighted>
-0.0000

> <Gold.Chemscore.Lipo.Weighted>
-4.4435

> <Gold.Chemscore.Internal_Hbond.Weighted>
0.0000

> <Gold.Chemscore.DEClash.Weighted>
0.0000

> <Gold.Chemscore.DEInternal.Weighted>
0.2237

> <Gold.Chemscore.Rot.Weighted>
3.5956

> <Gold.Chemscore.Internal.Correction.Weighted>
   9.000000E+99

> <Gold.Protein.RotatedTorsions>
[ 6907 6896 6895 6894 ] final  -51.93 input  -60.11 | X-H torsion
[ 7974 7965 7964 7962 ] final   34.48 input  175.53 | X-H torsion
[ 8008 7997 7996 7995 ] final  100.06 input   59.86 | X-H torsion
[ 10167 10162 10161 10158 ] final   95.41 input  -65.29 | X-H torsion
[ 10718 10713 10712 10709 ] final  -88.52 input   66.30 | X-H torsion
[ 10763 10752 10751 10750 ] final  158.82 input  -60.55 | X-H torsion
[ 11005 11000 10999 10996 ] final   16.55 input  -57.11 | X-H torsion

> <Gold.Protein.ActiveResidues>
 VAL166  LYS551  ARG553  GLY616  TRP617  ASP618  TYR619  PRO620  LYS621  CYS622 
 ASP623  PHE694  ASN695  SER759  ASP760  ASP761  ALA762  ILE779  LEU786  VAL792 
 PHE793  MET794  SER795  GLU796  ALA797  LYS798  CYS799  TRP800  GLU811  SER814 

> <Gold.Protein.RotatedAtoms>
  150.8565  134.7905  159.7049 H   0  0  0  0  0  0  0  0  0  0  0  0  # atno 6907 bound_to 6896
  152.4615  134.5170  159.9781 H   0  0  0  0  0  0  0  0  0  0  0  0  # atno 6908 bound_to 6896
  151.5281  133.3416  159.2949 H   0  0  0  0  0  0  0  0  0  0  0  0  # atno 6909 bound_to 6896
  146.1350  139.6264  142.9201 H   0  0  0  0  0  0  0  0  0  0  0  0  # atno 7974 bound_to 7965
  156.1166  140.3219  155.8148 H   0  0  0  0  0  0  0  0  0  0  0  0  # atno 8008 bound_to 7997
  155.4579  140.0537  157.3011 H   0  0  0  0  0  0  0  0  0  0  0  0  # atno 8009 bound_to 7997
  154.4797  140.2048  155.9807 H   0  0  0  0  0  0  0  0  0  0  0  0  # atno 8010 bound_to 7997
  139.7991  144.6821  150.9788 H   0  0  0  0  0  0  0  0  0  0  0  0  # atno 10167 bound_to 10162
  155.9983  130.4839  150.5032 H   0  0  0  0  0  0  0  0  0  0  0  0  # atno 10718 bound_to 10713
  154.2221  135.2781  155.2921 H   0  0  0  0  0  0  0  0  0  0  0  0  # atno 10763 bound_to 10752
  154.5693  135.5623  153.7083 H   0  0  0  0  0  0  0  0  0  0  0  0  # atno 10764 bound_to 10752
  153.0039  135.6317  154.2361 H   0  0  0  0  0  0  0  0  0  0  0  0  # atno 10765 bound_to 10752
  140.4458  134.1275  155.7696 H   0  0  0  0  0  0  0  0  0  0  0  0  # atno 11005 bound_to 11000
  145.5176  141.0433  143.2453 LP  0  0  0  0  0  0  0  0  0  0  0  0  # atno 17320 bound_to 7965
  144.7730  139.6692  143.7187 LP  0  0  0  0  0  0  0  0  0  0  0  0  # atno 17321 bound_to 7965
  140.7820  143.4300  151.0709 LP  0  0  0  0  0  0  0  0  0  0  0  0  # atno 17342 bound_to 10162
  139.7973  143.8134  152.3159 LP  0  0  0  0  0  0  0  0  0  0  0  0  # atno 17343 bound_to 10162
  157.3014  131.0646  151.2065 LP  0  0  0  0  0  0  0  0  0  0  0  0  # atno 17370 bound_to 10713
  157.3043  130.6858  149.6181 LP  0  0  0  0  0  0  0  0  0  0  0  0  # atno 17371 bound_to 10713
  141.1686  133.8654  157.1641 LP  0  0  0  0  0  0  0  0  0  0  0  0  # atno 17394 bound_to 11000
  140.0039  135.0016  157.0250 LP  0  0  0  0  0  0  0  0  0  0  0  0  # atno 17395 bound_to 11000

$$$$
