AV-unprocessed.smi:406|AV-procd|sdf|2499|dock5
  -GOLD-   2262022443D 1   1.00000     0.00000
 Structure written by MMmdl.
 35 36  0  0  0  0  0  0  0  0  1 V2000
  153.9212  138.8009  160.0436 C   0  0  0  0  0  0  0  0  0  0  0  0
  153.4263  139.2626  158.6690 C   0  0  0  0  0  0  0  0  0  0  0  0
  153.6395  138.1985  157.5802 C   0  0  0  0  0  0  0  0  0  0  0  0
  152.5839  138.2380  156.5752 N   0  0  0  0  0  0  0  0  0  0  0  0
  152.7777  138.4143  155.2586 C   0  0  0  0  0  0  0  0  0  0  0  0
  153.8885  138.5686  154.7510 O   0  0  0  0  0  0  0  0  0  0  0  0
  151.5279  138.4139  154.3772 C   0  0  0  0  0  0  0  0  0  0  0  0
  150.7104  139.6438  154.6436 C   0  0  0  0  0  0  0  0  0  0  0  0
  149.4503  139.9186  154.1692 C   0  0  0  0  0  0  0  0  0  0  0  0
  148.8629  141.4625  154.7272 S   0  0  0  0  0  0  0  0  0  0  0  0
  150.3841  141.6912  155.5750 C   0  0  0  0  0  0  0  0  0  0  0  0
  150.6380  142.8366  156.3748 N   0  0  0  0  0  0  0  0  0  0  0  0
  151.4053  142.9699  157.4757 C   0  0  0  0  0  0  0  0  0  0  0  0
  152.0147  141.9969  157.9177 O   0  0  0  0  0  0  0  0  0  0  0  0
  151.4935  144.3179  158.1290 C   0  0  0  0  0  0  0  0  0  0  0  0
  152.4811  144.4655  159.2668 C   0  0  0  0  0  0  0  0  0  0  0  0
  151.0028  144.4617  159.5580 C   0  0  0  0  0  0  0  0  0  0  0  0
  151.2218  140.6551  155.4629 N   0  0  0  0  0  0  0  0  0  0  0  0
  153.7552  139.5726  160.7955 H   0  0  0  0  0  0  0  0  0  0  0  0
  154.9887  138.5799  160.0237 H   0  0  0  0  0  0  0  0  0  0  0  0
  153.3976  137.9014  160.3686 H   0  0  0  0  0  0  0  0  0  0  0  0
  152.3671  139.5140  158.7345 H   0  0  0  0  0  0  0  0  0  0  0  0
  153.9449  140.1823  158.3954 H   0  0  0  0  0  0  0  0  0  0  0  0
  154.6139  138.3252  157.1052 H   0  0  0  0  0  0  0  0  0  0  0  0
  153.6403  137.2045  158.0283 H   0  0  0  0  0  0  0  0  0  0  0  0
  151.6367  138.1191  156.9041 H   0  0  0  0  0  0  0  0  0  0  0  0
  151.8138  138.3607  153.3258 H   0  0  0  0  0  0  0  0  0  0  0  0
  150.9499  137.5122  154.5837 H   0  0  0  0  0  0  0  0  0  0  0  0
  148.8330  139.3068  153.5282 H   0  0  0  0  0  0  0  0  0  0  0  0
  150.1459  143.6706  156.0897 H   0  0  0  0  0  0  0  0  0  0  0  0
  151.3305  145.1850  157.4918 H   0  0  0  0  0  0  0  0  0  0  0  0
  153.0531  143.5896  159.5681 H   0  0  0  0  0  0  0  0  0  0  0  0
  153.0167  145.4103  159.3321 H   0  0  0  0  0  0  0  0  0  0  0  0
  150.5344  145.4067  159.8251 H   0  0  0  0  0  0  0  0  0  0  0  0
  150.5994  143.5907  160.0713 H   0  0  0  0  0  0  0  0  0  0  0  0
  1  2  1  0  0  0  0
  1 19  1  0  0  0  0
  1 20  1  0  0  0  0
  1 21  1  0  0  0  0
  2  3  1  0  0  0  0
  2 22  1  0  0  0  0
  2 23  1  0  0  0  0
  3  4  1  0  0  0  0
  3 24  1  0  0  0  0
  3 25  1  0  0  0  0
  4  5  1  0  0  0  0
  4 26  1  0  0  0  0
  5  6  2  0  0  0  0
  5  7  1  0  0  0  0
  7  8  1  0  0  0  0
  7 27  1  0  0  0  0
  7 28  1  0  0  0  0
  8 18  1  0  0  0  0
  8  9  2  0  0  0  0
  9 10  1  0  0  0  0
  9 29  1  0  0  0  0
 10 11  1  0  0  0  0
 11 12  1  0  0  0  0
 11 18  2  0  0  0  0
 12 13  1  0  0  0  0
 12 30  1  0  0  0  0
 13 14  2  0  0  0  0
 13 15  1  0  0  0  0
 15 17  1  0  0  0  0
 15 16  1  0  0  0  0
 15 31  1  0  0  0  0
 16 17  1  0  0  0  0
 16 32  1  0  0  0  0
 16 33  1  0  0  0  0
 17 34  1  0  0  0  0
 17 35  1  0  0  0  0
M  END
> <s_m_source_file>
AV-unprocessed.smi

> <i_m_source_file_index>
406

> <i_lp_mmshare_version>
43012

> <i_f3d_flags>
0

> <s_epik_input>
W0NIM11bQ0gyXVtDSDJdW05IXUMoPU8pW0NIMl1jMVtjSF1zYyhuMSlbTkhdQyg9TylbQ0hdMltDSDJdW0NIMl0y

> <s_epik_cmdline>
J2VwaWtfcHl0aG9uJywgJy1waCcsICc3LjAnLCAnLXRuJywgJzgnLCAnLW1hJywgJzIwMCcsICctbWV0YWxfYmluZGluZycsICctaW1hZScsICc8aW5maWxlLm1hZT4nLCAnLW9tYWUnLCAnPG91dGZpbGUubWFlPic=

> <r_lp_tautomer_probability>
1

> <r_epik_Ionization_Penalty>
0.000156784

> <r_epik_Ionization_Penalty_Charging>
0

> <r_epik_Ionization_Penalty_Neutral>
0.000156784

> <r_epik_State_Penalty>
-0

> <r_epik_Charging_Adjusted_Penalty>
0

> <i_epik_Tot_Q>
0

> <i_epik_Tot_abs_Q>
0

> <r_epik_Metal_State_Penalty>
0.0968639

> <b_epik_Metal_Only>
0

> <s_lp_Force_Field>
OPLS_2005

> <r_lp_Energy>
11.5054

> <b_lp_Chiralities_Consistent>
1

> <s_lp_Variant>
AV-unprocessed.smi:406-1

> <Gold.Version>
5.8.1

> <Gold.Id.Protein>
6NUR|6NUR_protein|mol2

> <Gold.PLP.Fitness>
43.8110

> <Gold.PLP.PLP>
-38.2979

> <Gold.PLP.part.hbond>
-3.0384

> <Gold.PLP.part.metal>
0.0000

> <Gold.PLP.part.buried>
-1.5667

> <Gold.PLP.part.nonpolar>
-32.1808

> <Gold.PLP.part.repulsive>
0.2489

> <Gold.PLP.ligand.clash>
0.0000

> <Gold.PLP.ligand.torsion>
0.5818

> <Gold.PLP.Chemscore.Hbond>
1.7680

> <Gold.PLP.Chemscore.CHOScore>
0.4269

> <Gold.PLP.Chemscore.Metal>
0.0000

> <Gold.Chemscore.Hbonds>
donor molecule, donor type, donor heavy atom, donor atom, acceptor molecule, acceptor atom, score
      L1  H    12    30       P1  8028  1.00
      P1  H  7997  8009       L1     6  0.82
      L1  C     9    29       P1  7957  0.38

> <Gold.PLP.Chemscore.Internal.Correction>
0.0919

> <Gold.Rescore>
     Score         DG    S(hbond)    S(metal)    S(lipo)     H(rot)  DE(clash)    DE(int)     intcor
     14.10     -16.36       1.89        0.00      80.83       1.91       0.07       2.19       ----

> <Gold.Chemscore.Fitness>
14.0983

> <Gold.Chemscore.DG>
-16.3578

> <Gold.Chemscore.ZeroCoef>
-5.4800

> <Gold.Chemscore.Hbond>
1.8872

> <Gold.Chemscore.Metal>
0.0000

> <Gold.Chemscore.Lipo>
80.8263

> <Gold.Chemscore.Internal_Hbond>
0.0000

> <Gold.Chemscore.DEClash>
0.0703

> <Gold.Chemscore.DEInternal>
2.1891

> <Gold.Chemscore.Rot>
1.9070

> <Gold.Chemscore.Internal.Correction>
   9.000000E+99

> <Gold.Chemscore.Hbonds>
donor molecule, donor type, donor heavy atom, donor atom, acceptor molecule, acceptor atom, score
      L1  H    12    30       P1  8028  1.00
      P1  H  7997  8009       L1     6  0.27

> <Gold.Chemscore.Hbond.Weighted>
-6.3031

> <Gold.Chemscore.Metal.Weighted>
-0.0000

> <Gold.Chemscore.Lipo.Weighted>
-9.4567

> <Gold.Chemscore.Internal_Hbond.Weighted>
0.0000

> <Gold.Chemscore.DEClash.Weighted>
0.0703

> <Gold.Chemscore.DEInternal.Weighted>
2.1891

> <Gold.Chemscore.Rot.Weighted>
4.8820

> <Gold.Chemscore.Internal.Correction.Weighted>
   9.000000E+99

> <Gold.Protein.RotatedTorsions>
[ 6907 6896 6895 6894 ] final  144.65 input  -60.11 | X-H torsion
[ 7974 7965 7964 7962 ] final  -39.25 input  175.53 | X-H torsion
[ 8008 7997 7996 7995 ] final -125.79 input   59.86 | X-H torsion
[ 10167 10162 10161 10158 ] final  170.05 input  -65.29 | X-H torsion
[ 10718 10713 10712 10709 ] final  -97.18 input   66.30 | X-H torsion
[ 10763 10752 10751 10750 ] final   62.84 input  -60.55 | X-H torsion
[ 11005 11000 10999 10996 ] final  -79.52 input  -57.11 | X-H torsion

> <Gold.Protein.ActiveResidues>
 VAL166  LYS551  ARG553  GLY616  TRP617  ASP618  TYR619  PRO620  LYS621  CYS622 
 ASP623  PHE694  ASN695  SER759  ASP760  ASP761  ALA762  ILE779  LEU786  VAL792 
 PHE793  MET794  SER795  GLU796  ALA797  LYS798  CYS799  TRP800  GLU811  SER814 

> <Gold.Protein.RotatedAtoms>
  152.1909  133.4772  159.5007 H   0  0  0  0  0  0  0  0  0  0  0  0  # atno 6907 bound_to 6896
  150.6951  134.1714  159.4222 H   0  0  0  0  0  0  0  0  0  0  0  0  # atno 6908 bound_to 6896
  151.9628  135.0115  160.0599 H   0  0  0  0  0  0  0  0  0  0  0  0  # atno 6909 bound_to 6896
  146.0414  140.6604  142.9085 H   0  0  0  0  0  0  0  0  0  0  0  0  # atno 7974 bound_to 7965
  155.2190  140.0421  157.2945 H   0  0  0  0  0  0  0  0  0  0  0  0  # atno 8008 bound_to 7997
  154.5962  140.2440  155.7824 H   0  0  0  0  0  0  0  0  0  0  0  0  # atno 8009 bound_to 7997
  156.2292  140.2944  156.0152 H   0  0  0  0  0  0  0  0  0  0  0  0  # atno 8010 bound_to 7997
  139.5008  144.3639  151.9796 H   0  0  0  0  0  0  0  0  0  0  0  0  # atno 10167 bound_to 10162
  156.0078  130.5183  150.6336 H   0  0  0  0  0  0  0  0  0  0  0  0  # atno 10718 bound_to 10713
  152.9996  135.5451  154.6256 H   0  0  0  0  0  0  0  0  0  0  0  0  # atno 10763 bound_to 10752
  154.5546  135.2829  155.0979 H   0  0  0  0  0  0  0  0  0  0  0  0  # atno 10764 bound_to 10752
  154.2206  135.6451  153.5196 H   0  0  0  0  0  0  0  0  0  0  0  0  # atno 10765 bound_to 10752
  141.1667  133.7109  156.8135 H   0  0  0  0  0  0  0  0  0  0  0  0  # atno 11005 bound_to 11000
  144.7076  140.3914  143.7106 LP  0  0  0  0  0  0  0  0  0  0  0  0  # atno 17320 bound_to 7965
  145.6879  139.1632  143.2664 LP  0  0  0  0  0  0  0  0  0  0  0  0  # atno 17321 bound_to 7965
  140.3075  144.3576  150.6043 LP  0  0  0  0  0  0  0  0  0  0  0  0  # atno 17342 bound_to 10162
  140.5825  143.2172  151.7402 LP  0  0  0  0  0  0  0  0  0  0  0  0  # atno 17343 bound_to 10162
  157.4129  131.0826  151.1204 LP  0  0  0  0  0  0  0  0  0  0  0  0  # atno 17370 bound_to 10713
  157.1830  130.6318  149.5678 LP  0  0  0  0  0  0  0  0  0  0  0  0  # atno 17371 bound_to 10713
  140.2170  134.8785  157.3337 LP  0  0  0  0  0  0  0  0  0  0  0  0  # atno 17394 bound_to 11000
  140.2027  134.4235  155.7654 LP  0  0  0  0  0  0  0  0  0  0  0  0  # atno 17395 bound_to 11000

$$$$
