AV-unprocessed.smi:3179|AV-procd|sdf|12132|dock7
  -GOLD-   2272017573D 1   1.00000     0.00000
 Structure written by MMmdl.
 34 34  0  0  0  0  0  0  0  0  2 V2000
  152.4828  138.5029  154.7059 C   0  0  0  0  0  0  0  0  0  0  0  0
  151.1772  138.7764  155.4578 C   0  0  0  0  0  0  0  0  0  0  0  0
  151.1303  140.1568  155.9571 N   0  3  0  0  0  0  0  0  0  0  0  0
  150.2185  141.0864  155.6103 C   0  0  0  0  0  0  0  0  0  0  0  0
  149.2469  140.7806  154.7282 N   0  0  0  0  0  0  0  0  0  0  0  0
  148.1949  141.6937  154.2620 C   0  0  0  0  0  0  0  0  0  0  0  0
  147.1915  140.9690  153.3606 C   0  0  0  0  0  0  0  0  0  0  0  0
  150.2774  142.3216  156.1452 N   0  0  0  0  0  0  0  0  0  0  0  0
  151.2844  142.7943  157.1050 C   0  0  0  0  0  0  0  0  0  0  0  0
  150.6279  143.2888  158.3994 C   0  0  0  0  0  0  0  0  0  0  0  0
  151.5123  143.1174  159.5887 C   0  0  0  0  0  0  0  0  0  0  0  0
  151.2258  143.6110  160.7966 N   0  0  0  0  0  0  0  0  0  0  0  0
  152.2217  143.3352  161.7369 C   0  0  0  0  0  0  0  0  0  0  0  0
  153.2839  142.6378  161.2200 C   0  0  0  0  0  0  0  0  0  0  0  0
  153.0703  142.2997  159.5239 S   0  0  0  0  0  0  0  0  0  0  0  0
  152.5131  137.4739  154.3463 H   0  0  0  0  0  0  0  0  0  0  0  0
  153.3491  138.6547  155.3506 H   0  0  0  0  0  0  0  0  0  0  0  0
  152.5858  139.1599  153.8419 H   0  0  0  0  0  0  0  0  0  0  0  0
  150.3235  138.6051  154.8018 H   0  0  0  0  0  0  0  0  0  0  0  0
  151.0822  138.0908  156.3003 H   0  0  0  0  0  0  0  0  0  0  0  0
  149.2305  139.8461  154.3456 H   0  0  0  0  0  0  0  0  0  0  0  0
  147.6833  142.1190  155.1256 H   0  0  0  0  0  0  0  0  0  0  0  0
  148.6563  142.5189  153.7189 H   0  0  0  0  0  0  0  0  0  0  0  0
  146.4205  141.6558  153.0106 H   0  0  0  0  0  0  0  0  0  0  0  0
  146.6959  140.1575  153.8942 H   0  0  0  0  0  0  0  0  0  0  0  0
  147.6821  140.5460  152.4834 H   0  0  0  0  0  0  0  0  0  0  0  0
  149.5889  142.9988  155.8495 H   0  0  0  0  0  0  0  0  0  0  0  0
  151.9756  141.9803  157.3260 H   0  0  0  0  0  0  0  0  0  0  0  0
  151.8622  143.5952  156.6424 H   0  0  0  0  0  0  0  0  0  0  0  0
  150.3631  144.3431  158.3085 H   0  0  0  0  0  0  0  0  0  0  0  0
  149.6980  142.7483  158.5791 H   0  0  0  0  0  0  0  0  0  0  0  0
  152.0931  143.6751  162.7541 H   0  0  0  0  0  0  0  0  0  0  0  0
  154.1756  142.3061  161.7315 H   0  0  0  0  0  0  0  0  0  0  0  0
  151.8523  140.4203  156.6125 H   0  0  0  0  0  0  0  0  0  0  0  0
  1  2  1  0  0  0  0
  1 16  1  0  0  0  0
  1 17  1  0  0  0  0
  1 18  1  0  0  0  0
  2  3  1  0  0  0  0
  2 19  1  0  0  0  0
  2 20  1  0  0  0  0
  3  4  2  0  0  0  0
  3 34  1  0  0  0  0
  4  5  1  0  0  0  0
  4  8  1  0  0  0  0
  5  6  1  0  0  0  0
  5 21  1  0  0  0  0
  6  7  1  0  0  0  0
  6 22  1  0  0  0  0
  6 23  1  0  0  0  0
  7 24  1  0  0  0  0
  7 25  1  0  0  0  0
  7 26  1  0  0  0  0
  8  9  1  0  0  0  0
  8 27  1  0  0  0  0
  9 10  1  0  0  0  0
  9 28  1  0  0  0  0
  9 29  1  0  0  0  0
 10 11  1  0  0  0  0
 10 30  1  0  0  0  0
 10 31  1  0  0  0  0
 11 15  1  0  0  0  0
 11 12  2  0  0  0  0
 12 13  1  0  0  0  0
 13 14  2  0  0  0  0
 13 32  1  0  0  0  0
 14 15  1  0  0  0  0
 14 33  1  0  0  0  0
M  CHG  1   3   1
M  END
> <s_m_source_file>
AV-unprocessed.smi

> <i_m_source_file_index>
3179

> <i_lp_mmshare_version>
43012

> <i_f3d_flags>
0

> <s_epik_input>
W0NIM11bQ0gyXS9OPUMoXFtOSF1bQ0gyXVtDSDNdKVtOSF1bQ0gyXVtDSDJdYzFuW2NIXVtjSF1zMQ==

> <s_epik_cmdline>
J2VwaWtfcHl0aG9uJywgJy1waCcsICc3LjAnLCAnLXRuJywgJzgnLCAnLW1hJywgJzIwMCcsICctbWV0YWxfYmluZGluZycsICctaW1hZScsICc8aW5maWxlLm1hZT4nLCAnLW9tYWUnLCAnPG91dGZpbGUubWFlPic=

> <r_lp_tautomer_probability>
1

> <r_epik_Ionization_Penalty>
3.28801e-05

> <r_epik_Ionization_Penalty_Charging>
8.99277e-08

> <r_epik_Ionization_Penalty_Neutral>
3.27902e-05

> <r_epik_State_Penalty>
-0

> <r_epik_Charging_Adjusted_Penalty>
8.99277e-08

> <i_epik_Tot_Q>
1

> <i_epik_Tot_abs_Q>
1

> <r_epik_Metal_State_Penalty>
-0

> <b_epik_Metal_Only>
0

> <s_epik_Chemistry_Notes>
This compound has an imine and may undergo hydrolysis.

> <s_lp_Force_Field>
OPLS_2005

> <r_lp_Energy>
0.386487

> <b_lp_Chiralities_Consistent>
1

> <s_lp_Variant>
AV-unprocessed.smi:3179-1

> <Gold.Version>
5.8.1

> <Gold.Id.Protein>
6NUR|6NUR_protein|mol2

> <Gold.PLP.Fitness>
41.3921

> <Gold.PLP.PLP>
-35.8573

> <Gold.PLP.part.hbond>
-1.9435

> <Gold.PLP.part.metal>
0.0000

> <Gold.PLP.part.buried>
-6.6720

> <Gold.PLP.part.nonpolar>
-28.5446

> <Gold.PLP.part.repulsive>
0.4957

> <Gold.PLP.ligand.clash>
0.0000

> <Gold.PLP.ligand.torsion>
0.2421

> <Gold.PLP.Chemscore.Hbond>
2.0000

> <Gold.PLP.Chemscore.CHOScore>
0.0000

> <Gold.PLP.Chemscore.Metal>
0.0000

> <Gold.Chemscore.Hbonds>
donor molecule, donor type, donor heavy atom, donor atom, acceptor molecule, acceptor atom, score
      L1  H     8    27       P1  8028  2.00

> <Gold.PLP.Chemscore.Internal.Correction>
0.0190

> <Gold.Rescore>
     Score         DG    S(hbond)    S(metal)    S(lipo)     H(rot)  DE(clash)    DE(int)     intcor
     15.23     -15.50       0.99        0.00      94.97       1.72       0.03       0.25       ----

> <Gold.Chemscore.Fitness>
15.2261

> <Gold.Chemscore.DG>
-15.5033

> <Gold.Chemscore.ZeroCoef>
-5.4800

> <Gold.Chemscore.Hbond>
0.9915

> <Gold.Chemscore.Metal>
0.0000

> <Gold.Chemscore.Lipo>
94.9709

> <Gold.Chemscore.Internal_Hbond>
0.0000

> <Gold.Chemscore.DEClash>
0.0291

> <Gold.Chemscore.DEInternal>
0.2481

> <Gold.Chemscore.Rot>
1.7187

> <Gold.Chemscore.Internal.Correction>
   9.000000E+99

> <Gold.Chemscore.Hbonds>
donor molecule, donor type, donor heavy atom, donor atom, acceptor molecule, acceptor atom, score
      L1  H     8    27       P1  8028  0.98

> <Gold.Chemscore.Hbond.Weighted>
-3.3115

> <Gold.Chemscore.Metal.Weighted>
-0.0000

> <Gold.Chemscore.Lipo.Weighted>
-11.1116

> <Gold.Chemscore.Internal_Hbond.Weighted>
0.0000

> <Gold.Chemscore.DEClash.Weighted>
0.0291

> <Gold.Chemscore.DEInternal.Weighted>
0.2481

> <Gold.Chemscore.Rot.Weighted>
4.3998

> <Gold.Chemscore.Internal.Correction.Weighted>
   9.000000E+99

> <Gold.Protein.RotatedTorsions>
[ 6907 6896 6895 6894 ] final   80.36 input  -60.11 | X-H torsion
[ 7974 7965 7964 7962 ] final -130.84 input  175.53 | X-H torsion
[ 8008 7997 7996 7995 ] final  -63.62 input   59.86 | X-H torsion
[ 10167 10162 10161 10158 ] final  -90.84 input  -65.29 | X-H torsion
[ 10718 10713 10712 10709 ] final   19.47 input   66.30 | X-H torsion
[ 10763 10752 10751 10750 ] final -113.69 input  -60.55 | X-H torsion
[ 11005 11000 10999 10996 ] final -139.44 input  -57.11 | X-H torsion

> <Gold.Protein.ActiveResidues>
 VAL166  LYS551  ARG553  GLY616  TRP617  ASP618  TYR619  PRO620  LYS621  CYS622 
 ASP623  PHE694  ASN695  SER759  ASP760  ASP761  ALA762  ILE779  LEU786  VAL792 
 PHE793  MET794  SER795  GLU796  ALA797  LYS798  CYS799  TRP800  GLU811  SER814 

> <Gold.Protein.RotatedAtoms>
  152.5232  134.3369  159.9202 H   0  0  0  0  0  0  0  0  0  0  0  0  # atno 6907 bound_to 6896
  151.3319  133.3991  159.2671 H   0  0  0  0  0  0  0  0  0  0  0  0  # atno 6908 bound_to 6896
  150.9874  134.9234  159.7937 H   0  0  0  0  0  0  0  0  0  0  0  0  # atno 6909 bound_to 6896
  144.9436  140.7267  143.4831 H   0  0  0  0  0  0  0  0  0  0  0  0  # atno 7974 bound_to 7965
  154.4565  140.0971  156.6771 H   0  0  0  0  0  0  0  0  0  0  0  0  # atno 8008 bound_to 7997
  155.5123  140.3476  155.4372 H   0  0  0  0  0  0  0  0  0  0  0  0  # atno 8009 bound_to 7997
  156.0787  140.1367  156.9728 H   0  0  0  0  0  0  0  0  0  0  0  0  # atno 8010 bound_to 7997
  140.3508  143.2892  151.9728 H   0  0  0  0  0  0  0  0  0  0  0  0  # atno 10167 bound_to 10162
  157.1109  130.6508  149.5897 H   0  0  0  0  0  0  0  0  0  0  0  0  # atno 10718 bound_to 10713
  154.8407  135.4445  154.1388 H   0  0  0  0  0  0  0  0  0  0  0  0  # atno 10763 bound_to 10752
  153.2579  135.6933  153.7616 H   0  0  0  0  0  0  0  0  0  0  0  0  # atno 10764 bound_to 10752
  153.6904  135.3388  155.3176 H   0  0  0  0  0  0  0  0  0  0  0  0  # atno 10765 bound_to 10752
  140.8519  134.2275  157.4756 H   0  0  0  0  0  0  0  0  0  0  0  0  # atno 11005 bound_to 11000
  145.2952  139.1869  143.4719 LP  0  0  0  0  0  0  0  0  0  0  0  0  # atno 17320 bound_to 7965
  146.3295  140.2935  142.8616 LP  0  0  0  0  0  0  0  0  0  0  0  0  # atno 17321 bound_to 7965
  139.4826  144.6077  151.7491 LP  0  0  0  0  0  0  0  0  0  0  0  0  # atno 17342 bound_to 10162
  140.5220  144.0863  150.6026 LP  0  0  0  0  0  0  0  0  0  0  0  0  # atno 17343 bound_to 10162
  155.9850  130.4879  150.7013 LP  0  0  0  0  0  0  0  0  0  0  0  0  # atno 17370 bound_to 10713
  157.4560  131.0878  151.0796 LP  0  0  0  0  0  0  0  0  0  0  0  0  # atno 17371 bound_to 10713
  139.8704  134.9687  156.4641 LP  0  0  0  0  0  0  0  0  0  0  0  0  # atno 17394 bound_to 11000
  140.8781  133.7938  155.9436 LP  0  0  0  0  0  0  0  0  0  0  0  0  # atno 17395 bound_to 11000

$$$$
