AV-unprocessed.smi:1254|AV-procd|sdf|5278|dock3
  -GOLD-   22720 4393D 1   1.00000     0.00000
 Structure written by MMmdl.
 45 46  0  0  0  0  0  0  0  0  3 V2000
  146.3322  134.3317  162.8321 C   0  0  0  0  0  0  0  0  0  0  0  0
  146.9249  135.1362  161.7261 C   0  0  0  0  0  0  0  0  0  0  0  0
  147.3439  134.8138  160.4665 C   0  0  0  0  0  0  0  0  0  0  0  0
  147.8094  136.0545  159.9515 C   0  0  0  0  0  0  0  0  0  0  0  0
  148.3161  136.2581  158.7256 N   0  5  0  0  0  0  0  0  0  0  0  0
  148.5183  135.2134  157.8905 C   0  0  0  0  0  0  0  0  0  0  0  0
  149.4329  134.3888  157.9542 O   0  0  0  0  0  0  0  0  0  0  0  0
  147.6016  135.1171  156.9197 N   0  0  0  0  0  0  0  0  0  0  0  0
  147.5784  134.0894  155.8880 C   0  0  0  0  0  0  0  0  0  0  0  0
  147.3317  134.7147  154.5087 C   0  0  1  0  0  0  0  0  0  0  0  0
  147.2292  133.6456  153.4031 C   0  0  0  0  0  0  0  0  0  0  0  0
  146.9195  134.2751  152.0954 N   0  3  1  0  0  0  0  0  0  0  0  0
  146.8524  133.3099  150.9683 C   0  0  0  0  0  0  0  0  0  0  0  0
  145.6078  132.3977  151.0221 C   0  0  0  0  0  0  0  0  0  0  0  0
  145.8846  131.0925  151.7875 C   0  0  0  0  0  0  0  0  0  0  0  0
  145.1041  132.0901  149.6041 C   0  0  0  0  0  0  0  0  0  0  0  0
  145.6973  135.1066  152.1999 C   0  0  0  0  0  0  0  0  0  0  0  0
  145.8370  136.1256  153.3419 C   0  0  0  0  0  0  0  0  0  0  0  0
  146.1062  135.4393  154.5566 O   0  0  0  0  0  0  0  0  0  0  0  0
  147.6680  137.0460  160.8156 N   0  0  0  0  0  0  0  0  0  0  0  0
  147.1082  136.4638  161.9593 O   0  0  0  0  0  0  0  0  0  0  0  0
  145.4965  133.7338  162.4690 H   0  0  0  0  0  0  0  0  0  0  0  0
  145.9652  134.9741  163.6328 H   0  0  0  0  0  0  0  0  0  0  0  0
  147.0743  133.6546  163.2551 H   0  0  0  0  0  0  0  0  0  0  0  0
  147.3249  133.8452  159.9898 H   0  0  0  0  0  0  0  0  0  0  0  0
  146.8660  135.8080  156.9021 H   0  0  0  0  0  0  0  0  0  0  0  0
  148.5356  133.5658  155.8961 H   0  0  0  0  0  0  0  0  0  0  0  0
  146.8051  133.3528  156.1127 H   0  0  0  0  0  0  0  0  0  0  0  0
  148.1515  135.3983  154.2778 H   0  0  0  0  0  0  0  0  0  0  0  0
  148.1695  133.0984  153.3469 H   0  0  0  0  0  0  0  0  0  0  0  0
  146.4526  132.9206  153.6526 H   0  0  0  0  0  0  0  0  0  0  0  0
  146.8876  133.8581  150.0256 H   0  0  0  0  0  0  0  0  0  0  0  0
  147.7405  132.6760  150.9828 H   0  0  0  0  0  0  0  0  0  0  0  0
  144.8010  132.9219  151.5333 H   0  0  0  0  0  0  0  0  0  0  0  0
  146.6921  130.5244  151.3244 H   0  0  0  0  0  0  0  0  0  0  0  0
  145.0003  130.4546  151.8072 H   0  0  0  0  0  0  0  0  0  0  0  0
  146.1655  131.2878  152.8227 H   0  0  0  0  0  0  0  0  0  0  0  0
  145.8552  131.5542  149.0226 H   0  0  0  0  0  0  0  0  0  0  0  0
  144.8581  133.0061  149.0660 H   0  0  0  0  0  0  0  0  0  0  0  0
  144.2040  131.4751  149.6304 H   0  0  0  0  0  0  0  0  0  0  0  0
  145.5236  135.6329  151.2605 H   0  0  0  0  0  0  0  0  0  0  0  0
  144.8317  134.4653  152.3743 H   0  0  0  0  0  0  0  0  0  0  0  0
  146.6295  136.8453  153.1304 H   0  0  0  0  0  0  0  0  0  0  0  0
  144.9132  136.6934  153.4548 H   0  0  0  0  0  0  0  0  0  0  0  0
  147.6761  134.9107  151.8858 H   0  0  0  0  0  0  0  0  0  0  0  0
  1  2  1  0  0  0  0
  1 22  1  0  0  0  0
  1 23  1  0  0  0  0
  1 24  1  0  0  0  0
  2 21  1  0  0  0  0
  2  3  2  0  0  0  0
  3  4  1  0  0  0  0
  3 25  1  0  0  0  0
  4  5  1  0  0  0  0
  4 20  2  0  0  0  0
  5  6  1  0  0  0  0
  6  7  2  0  0  0  0
  6  8  1  0  0  0  0
  8  9  1  0  0  0  0
  8 26  1  0  0  0  0
  9 10  1  0  0  0  0
  9 27  1  0  0  0  0
  9 28  1  0  0  0  0
 10 19  1  0  0  0  0
 10 11  1  0  0  0  0
 10 29  1  0  0  0  0
 11 12  1  0  0  0  0
 11 30  1  0  0  0  0
 11 31  1  0  0  0  0
 12 13  1  0  0  0  0
 12 17  1  0  0  0  0
 12 45  1  0  0  0  0
 13 14  1  0  0  0  0
 13 32  1  0  0  0  0
 13 33  1  0  0  0  0
 14 15  1  0  0  0  0
 14 16  1  0  0  0  0
 14 34  1  0  0  0  0
 15 35  1  0  0  0  0
 15 36  1  0  0  0  0
 15 37  1  0  0  0  0
 16 38  1  0  0  0  0
 16 39  1  0  0  0  0
 16 40  1  0  0  0  0
 17 18  1  0  0  0  0
 17 41  1  0  0  0  0
 17 42  1  0  0  0  0
 18 19  1  0  0  0  0
 18 43  1  0  0  0  0
 18 44  1  0  0  0  0
 20 21  1  0  0  0  0
M  CHG  1   5  -1
M  CHG  1  12   1
M  END
> <s_m_source_file>
AV-unprocessed.smi

> <i_m_source_file_index>
1254

> <i_lp_mmshare_version>
43012

> <i_f3d_flags>
0

> <s_epik_input>
W0NIM11jMVtjSF1jKG5vMSlbTkhdQyg9TylbTkhdW0NIMl1bQ0BASF0yW0NIMl1OKFtDSDJdW0NIMl1PMilbQ0gyXVtDSF0oW0NIM10pW0NIM10=

> <s_epik_cmdline>
J2VwaWtfcHl0aG9uJywgJy1waCcsICc3LjAnLCAnLXRuJywgJzgnLCAnLW1hJywgJzIwMCcsICctbWV0YWxfYmluZGluZycsICctaW1hZScsICc8aW5maWxlLm1hZT4nLCAnLW9tYWUnLCAnPG91dGZpbGUubWFlPic=

> <r_epik_Ionization_Penalty>
6.33139

> <r_epik_Ionization_Penalty_Charging>
6.33128

> <r_epik_Ionization_Penalty_Neutral>
0.000104968

> <r_epik_State_Penalty>
6.32522

> <r_epik_Charging_Adjusted_Penalty>
12.6565

> <i_epik_Tot_Q>
0

> <i_epik_Tot_abs_Q>
2

> <r_epik_Metal_State_Penalty>
2.26285

> <b_epik_Metal_Only>
1

> <s_lp_Force_Field>
OPLS_2005

> <r_lp_Energy>
6.3285

> <b_lp_Chiralities_Consistent>
1

> <s_lp_Variant>
AV-unprocessed.smi:1254-10

> <Gold.Version>
5.8.1

> <Gold.Id.Protein>
6NUR|6NUR_protein|mol2

> <Gold.PLP.Fitness>
40.4694

> <Gold.PLP.PLP>
-29.2517

> <Gold.PLP.part.hbond>
-4.0000

> <Gold.PLP.part.metal>
0.0000

> <Gold.PLP.part.buried>
-4.5854

> <Gold.PLP.part.nonpolar>
-21.8559

> <Gold.PLP.part.repulsive>
0.0738

> <Gold.PLP.ligand.clash>
0.0000

> <Gold.PLP.ligand.torsion>
1.2669

> <Gold.PLP.Chemscore.Hbond>
4.5280

> <Gold.PLP.Chemscore.CHOScore>
0.0000

> <Gold.PLP.Chemscore.Metal>
0.0000

> <Gold.Chemscore.Hbonds>
donor molecule, donor type, donor heavy atom, donor atom, acceptor molecule, acceptor atom, score
      L1  H    12    45       P1  7948  2.00
      P1  H  6896  6907       L1     7  1.00
      P1  H  6931  6943       L1    20  0.52
      P1  H  6934  6947       L1    20  0.94

> <Gold.PLP.Chemscore.Internal.Correction>
0.1676

> <Gold.Rescore>
     Score         DG    S(hbond)    S(metal)    S(lipo)     H(rot)  DE(clash)    DE(int)     intcor
     18.70     -20.08       3.35        0.00      66.17       1.69       0.00       1.37       ----

> <Gold.Chemscore.Fitness>
18.7047

> <Gold.Chemscore.DG>
-20.0786

> <Gold.Chemscore.ZeroCoef>
-5.4800

> <Gold.Chemscore.Hbond>
3.3502

> <Gold.Chemscore.Metal>
0.0000

> <Gold.Chemscore.Lipo>
66.1713

> <Gold.Chemscore.Internal_Hbond>
0.0000

> <Gold.Chemscore.DEClash>
0.0029

> <Gold.Chemscore.DEInternal>
1.3710

> <Gold.Chemscore.Rot>
1.6926

> <Gold.Chemscore.Internal.Correction>
   9.000000E+99

> <Gold.Chemscore.Hbonds>
donor molecule, donor type, donor heavy atom, donor atom, acceptor molecule, acceptor atom, score
      L1  H    12    45       P1  7948  0.65
      P1  H  6896  6907       L1     7  0.99
      P1  H  6931  6943       L1    20  0.06
      P1  H  6934  6947       L1    20  0.42

> <Gold.Chemscore.Hbond.Weighted>
-11.1896

> <Gold.Chemscore.Metal.Weighted>
-0.0000

> <Gold.Chemscore.Lipo.Weighted>
-7.7420

> <Gold.Chemscore.Internal_Hbond.Weighted>
0.0000

> <Gold.Chemscore.DEClash.Weighted>
0.0029

> <Gold.Chemscore.DEInternal.Weighted>
1.3710

> <Gold.Chemscore.Rot.Weighted>
4.3330

> <Gold.Chemscore.Internal.Correction.Weighted>
   9.000000E+99

> <Gold.Protein.RotatedTorsions>
[ 6907 6896 6895 6894 ] final -109.23 input  -60.11 | X-H torsion
[ 7974 7965 7964 7962 ] final   91.49 input  175.53 | X-H torsion
[ 8008 7997 7996 7995 ] final   32.49 input   59.86 | X-H torsion
[ 10167 10162 10161 10158 ] final   -6.33 input  -65.29 | X-H torsion
[ 10718 10713 10712 10709 ] final   10.32 input   66.30 | X-H torsion
[ 10763 10752 10751 10750 ] final  121.60 input  -60.55 | X-H torsion
[ 11005 11000 10999 10996 ] final  141.82 input  -57.11 | X-H torsion

> <Gold.Protein.ActiveResidues>
 VAL166  LYS551  ARG553  GLY616  TRP617  ASP618  TYR619  PRO620  LYS621  CYS622 
 ASP623  PHE694  ASN695  SER759  ASP760  ASP761  ALA762  ILE779  LEU786  VAL792 
 PHE793  MET794  SER795  GLU796  ALA797  LYS798  CYS799  TRP800  GLU811  SER814 

> <Gold.Protein.RotatedAtoms>
  150.7549  133.9560  159.3500 H   0  0  0  0  0  0  0  0  0  0  0  0  # atno 6907 bound_to 6896
  151.7482  135.0837  160.0336 H   0  0  0  0  0  0  0  0  0  0  0  0  # atno 6908 bound_to 6896
  152.3484  133.6112  159.5962 H   0  0  0  0  0  0  0  0  0  0  0  0  # atno 6909 bound_to 6896
  145.5050  139.2276  143.2756 H   0  0  0  0  0  0  0  0  0  0  0  0  # atno 7974 bound_to 7965
  155.1234  140.3250  155.4491 H   0  0  0  0  0  0  0  0  0  0  0  0  # atno 8008 bound_to 7997
  156.2656  140.2023  156.6304 H   0  0  0  0  0  0  0  0  0  0  0  0  # atno 8009 bound_to 7997
  154.6666  140.0541  157.0108 H   0  0  0  0  0  0  0  0  0  0  0  0  # atno 8010 bound_to 7997
  140.6993  143.6206  150.8616 H   0  0  0  0  0  0  0  0  0  0  0  0  # atno 10167 bound_to 10162
  156.9793  130.5999  149.5675 H   0  0  0  0  0  0  0  0  0  0  0  0  # atno 10718 bound_to 10713
  153.6167  135.3420  155.2997 H   0  0  0  0  0  0  0  0  0  0  0  0  # atno 10763 bound_to 10752
  154.8608  135.4263  154.2251 H   0  0  0  0  0  0  0  0  0  0  0  0  # atno 10764 bound_to 10752
  153.3115  135.7032  153.7184 H   0  0  0  0  0  0  0  0  0  0  0  0  # atno 10765 bound_to 10752
  140.0430  134.9295  157.0879 H   0  0  0  0  0  0  0  0  0  0  0  0  # atno 11005 bound_to 11000
  146.2202  140.5853  142.9020 LP  0  0  0  0  0  0  0  0  0  0  0  0  # atno 17320 bound_to 7965
  144.7759  140.5738  143.6638 LP  0  0  0  0  0  0  0  0  0  0  0  0  # atno 17321 bound_to 7965
  139.9927  143.5829  152.2904 LP  0  0  0  0  0  0  0  0  0  0  0  0  # atno 17342 bound_to 10162
  139.6490  144.7660  151.2185 LP  0  0  0  0  0  0  0  0  0  0  0  0  # atno 17343 bound_to 10162
  156.0251  130.5345  150.8384 LP  0  0  0  0  0  0  0  0  0  0  0  0  # atno 17370 bound_to 10713
  157.5538  131.0944  150.9658 LP  0  0  0  0  0  0  0  0  0  0  0  0  # atno 17371 bound_to 10713
  140.4038  134.2054  155.7163 LP  0  0  0  0  0  0  0  0  0  0  0  0  # atno 17394 bound_to 11000
  141.1893  133.8242  157.0962 LP  0  0  0  0  0  0  0  0  0  0  0  0  # atno 17395 bound_to 11000

$$$$
