AV-unprocessed.smi:867|AV-procd|sdf|4001|dock9
  -GOLD-   22720 1483D 1   1.00000     0.00000
 Structure written by MMmdl.
 54 57  0  0  0  0  0  0  0  0  3 V2000
  150.8070  135.3368  155.0418 O   0  0  0  0  0  0  0  0  0  0  0  0
  149.6127  135.5610  155.2431 C   0  0  0  0  0  0  0  0  0  0  0  0
  149.1757  136.7326  155.7373 N   0  0  0  0  0  0  0  0  0  0  0  0
  150.0045  137.8937  156.0525 C   0  0  0  0  0  0  0  0  0  0  0  0
  150.2427  138.7985  154.8283 C   0  0  0  0  0  0  0  0  0  0  0  0
  149.1264  139.7987  154.5832 C   0  0  0  0  0  0  0  0  0  0  0  0
  147.9011  139.3908  154.0100 C   0  0  0  0  0  0  0  0  0  0  0  0
  146.8773  140.3417  153.8175 C   0  0  0  0  0  0  0  0  0  0  0  0
  147.1025  141.6798  154.2004 C   0  0  0  0  0  0  0  0  0  0  0  0
  148.2884  142.0337  154.7420 N   0  3  0  0  0  0  0  0  0  0  0  0
  149.2937  141.1539  154.9422 C   0  0  0  0  0  0  0  0  0  0  0  0
  148.6424  134.6334  155.0485 N   0  0  0  0  0  0  0  0  0  0  0  0
  147.1962  134.8557  155.1751 C   0  0  0  0  0  0  0  0  0  0  0  0
  146.5809  134.9488  153.7664 C   0  0  0  0  0  0  0  0  0  0  0  0
  146.8866  133.7400  152.9472 N   0  3  0  0  0  0  0  0  0  0  0  0
  146.3255  133.8050  151.5670 C   0  0  1  0  0  0  0  0  0  0  0  0
  145.7986  132.4517  151.0300 C   0  0  0  0  0  0  0  0  0  0  0  0
  144.3970  132.8083  150.4992 C   0  0  1  0  0  0  0  0  0  0  0  0
  143.4443  132.9800  151.6946 C   0  0  0  0  0  0  0  0  0  0  0  0
  143.9304  134.2987  152.3212 C   0  0  0  0  0  0  0  0  0  0  0  0
  145.0882  134.7207  151.3901 C   0  0  2  0  0  0  0  0  0  0  0  0
  144.5742  134.2489  150.0340 C   0  0  0  0  0  0  0  0  0  0  0  0
  148.3407  133.4074  152.9533 C   0  0  0  0  0  0  0  0  0  0  0  0
  148.9091  133.3563  154.3832 C   0  0  0  0  0  0  0  0  0  0  0  0
  148.1837  136.8315  155.8989 H   0  0  0  0  0  0  0  0  0  0  0  0
  149.5697  138.4680  156.8724 H   0  0  0  0  0  0  0  0  0  0  0  0
  150.9628  137.5253  156.4190 H   0  0  0  0  0  0  0  0  0  0  0  0
  151.1744  139.3496  154.9607 H   0  0  0  0  0  0  0  0  0  0  0  0
  150.3807  138.1840  153.9376 H   0  0  0  0  0  0  0  0  0  0  0  0
  147.7416  138.3602  153.7277 H   0  0  0  0  0  0  0  0  0  0  0  0
  145.9324  140.0482  153.3840 H   0  0  0  0  0  0  0  0  0  0  0  0
  146.3759  142.4716  154.0907 H   0  0  0  0  0  0  0  0  0  0  0  0
  150.1910  141.5561  155.3897 H   0  0  0  0  0  0  0  0  0  0  0  0
  146.7533  134.0204  155.7197 H   0  0  0  0  0  0  0  0  0  0  0  0
  146.9334  135.7446  155.7483 H   0  0  0  0  0  0  0  0  0  0  0  0
  145.5040  135.0778  153.8689 H   0  0  0  0  0  0  0  0  0  0  0  0
  146.9591  135.8359  153.2557 H   0  0  0  0  0  0  0  0  0  0  0  0
  147.1134  134.1669  150.9033 H   0  0  0  0  0  0  0  0  0  0  0  0
  146.4405  132.0827  150.2291 H   0  0  0  0  0  0  0  0  0  0  0  0
  145.7394  131.6739  151.7923 H   0  0  0  0  0  0  0  0  0  0  0  0
  144.0253  132.1187  149.7407 H   0  0  0  0  0  0  0  0  0  0  0  0
  142.4108  133.0734  151.3580 H   0  0  0  0  0  0  0  0  0  0  0  0
  143.4934  132.1429  152.3919 H   0  0  0  0  0  0  0  0  0  0  0  0
  143.1330  135.0428  152.3032 H   0  0  0  0  0  0  0  0  0  0  0  0
  144.2398  134.1746  153.3591 H   0  0  0  0  0  0  0  0  0  0  0  0
  145.3178  135.7860  151.4290 H   0  0  0  0  0  0  0  0  0  0  0  0
  145.3036  134.3574  149.2292 H   0  0  0  0  0  0  0  0  0  0  0  0
  143.6390  134.7257  149.7348 H   0  0  0  0  0  0  0  0  0  0  0  0
  148.5155  132.4473  152.4687 H   0  0  0  0  0  0  0  0  0  0  0  0
  148.8832  134.1544  152.3714 H   0  0  0  0  0  0  0  0  0  0  0  0
  149.9719  133.1112  154.3555 H   0  0  0  0  0  0  0  0  0  0  0  0
  148.4368  132.5499  154.9461 H   0  0  0  0  0  0  0  0  0  0  0  0
  146.4196  132.9711  153.4067 H   0  0  0  0  0  0  0  0  0  0  0  0
  148.4305  143.0067  155.0141 H   0  0  0  0  0  0  0  0  0  0  0  0
  1  2  2  0  0  0  0
  2  3  1  0  0  0  0
  2 12  1  0  0  0  0
  3  4  1  0  0  0  0
  3 25  1  0  0  0  0
  4  5  1  0  0  0  0
  4 26  1  0  0  0  0
  4 27  1  0  0  0  0
  5  6  1  0  0  0  0
  5 28  1  0  0  0  0
  5 29  1  0  0  0  0
  6 11  1  0  0  0  0
  6  7  2  0  0  0  0
  7  8  1  0  0  0  0
  7 30  1  0  0  0  0
  8  9  2  0  0  0  0
  8 31  1  0  0  0  0
  9 10  1  0  0  0  0
  9 32  1  0  0  0  0
 10 11  2  0  0  0  0
 10 54  1  0  0  0  0
 11 33  1  0  0  0  0
 12 24  1  0  0  0  0
 12 13  1  0  0  0  0
 13 14  1  0  0  0  0
 13 34  1  0  0  0  0
 13 35  1  0  0  0  0
 14 15  1  0  0  0  0
 14 36  1  0  0  0  0
 14 37  1  0  0  0  0
 15 16  1  0  0  0  0
 15 23  1  0  0  0  0
 15 53  1  0  0  0  0
 16 21  1  0  0  0  0
 16 17  1  0  0  0  0
 16 38  1  0  0  0  0
 17 18  1  0  0  0  0
 17 39  1  0  0  0  0
 17 40  1  0  0  0  0
 18 22  1  0  0  0  0
 18 19  1  0  0  0  0
 18 41  1  0  0  0  0
 19 20  1  0  0  0  0
 19 42  1  0  0  0  0
 19 43  1  0  0  0  0
 20 21  1  0  0  0  0
 20 44  1  0  0  0  0
 20 45  1  0  0  0  0
 21 22  1  0  0  0  0
 21 46  1  0  0  0  0
 22 47  1  0  0  0  0
 22 48  1  0  0  0  0
 23 24  1  0  0  0  0
 23 49  1  0  0  0  0
 23 50  1  0  0  0  0
 24 51  1  0  0  0  0
 24 52  1  0  0  0  0
M  CHG  1  10   1
M  CHG  1  15   1
M  END
> <s_m_source_file>
AV-unprocessed.smi

> <i_m_source_file_index>
867

> <i_lp_mmshare_version>
43012

> <i_f3d_flags>
0

> <s_epik_input>
W0NIMl0xW0NIMl1bQ0BASF0oW0NIMl0yKVtDQEBIXShbQ0gyXVtDQEhdMTIpTihbQ0gyXVtDSDJdMylbQ0gyXVtDSDJdTjNDKD1PKVtOSF1bQ0gyXVtDSDJdYzRbY0hdW2NIXVtjSF1uW2NIXTQ=

> <s_epik_cmdline>
J2VwaWtfcHl0aG9uJywgJy1waCcsICc3LjAnLCAnLXRuJywgJzgnLCAnLW1hJywgJzIwMCcsICctbWV0YWxfYmluZGluZycsICctaW1hZScsICc8aW5maWxlLm1hZT4nLCAnLW9tYWUnLCAnPG91dGZpbGUubWFlPic=

> <r_epik_Ionization_Penalty>
2.25108

> <r_epik_Ionization_Penalty_Charging>
2.25105

> <r_epik_Ionization_Penalty_Neutral>
2.64641e-05

> <r_epik_State_Penalty>
2.39519

> <r_epik_Charging_Adjusted_Penalty>
4.64625

> <i_epik_Tot_Q>
2

> <i_epik_Tot_abs_Q>
2

> <r_epik_Metal_State_Penalty>
2.40865

> <b_epik_Metal_Only>
0

> <s_lp_Force_Field>
OPLS_2005

> <r_lp_Energy>
106.845

> <b_lp_Chiralities_Consistent>
1

> <s_lp_Variant>
AV-unprocessed.smi:867-8

> <Gold.Version>
5.8.1

> <Gold.Id.Protein>
6NUR|6NUR_protein|mol2

> <Gold.PLP.Fitness>
46.9924

> <Gold.PLP.PLP>
-40.6579

> <Gold.PLP.part.hbond>
-2.0187

> <Gold.PLP.part.metal>
0.0000

> <Gold.PLP.part.buried>
0.3050

> <Gold.PLP.part.nonpolar>
-37.8325

> <Gold.PLP.part.repulsive>
0.3697

> <Gold.PLP.ligand.clash>
0.0000

> <Gold.PLP.ligand.torsion>
1.3760

> <Gold.PLP.Chemscore.Hbond>
2.9920

> <Gold.PLP.Chemscore.CHOScore>
0.0000

> <Gold.PLP.Chemscore.Metal>
0.0000

> <Gold.Chemscore.Hbonds>
donor molecule, donor type, donor heavy atom, donor atom, acceptor molecule, acceptor atom, score
      L1  H    10    54       P1  8028  2.00
      P1  H 10752 10764       L1     1  0.65

> <Gold.PLP.Chemscore.Internal.Correction>
0.1104

> <Gold.Rescore>
     Score         DG    S(hbond)    S(metal)    S(lipo)     H(rot)  DE(clash)    DE(int)     intcor
     18.57     -20.32       1.87        0.00     105.22       1.46       0.68       1.07       ----

> <Gold.Chemscore.Fitness>
18.5697

> <Gold.Chemscore.DG>
-20.3156

> <Gold.Chemscore.ZeroCoef>
-5.4800

> <Gold.Chemscore.Hbond>
1.8727

> <Gold.Chemscore.Metal>
0.0000

> <Gold.Chemscore.Lipo>
105.2243

> <Gold.Chemscore.Internal_Hbond>
0.0000

> <Gold.Chemscore.DEClash>
0.6755

> <Gold.Chemscore.DEInternal>
1.0704

> <Gold.Chemscore.Rot>
1.4572

> <Gold.Chemscore.Internal.Correction>
   9.000000E+99

> <Gold.Chemscore.Hbonds>
donor molecule, donor type, donor heavy atom, donor atom, acceptor molecule, acceptor atom, score
      L1  H    10    54       P1  8028  1.00
      P1  H 10752 10764       L1     1  0.62

> <Gold.Chemscore.Hbond.Weighted>
-6.2549

> <Gold.Chemscore.Metal.Weighted>
-0.0000

> <Gold.Chemscore.Lipo.Weighted>
-12.3112

> <Gold.Chemscore.Internal_Hbond.Weighted>
0.0000

> <Gold.Chemscore.DEClash.Weighted>
0.6755

> <Gold.Chemscore.DEInternal.Weighted>
1.0704

> <Gold.Chemscore.Rot.Weighted>
3.7305

> <Gold.Chemscore.Internal.Correction.Weighted>
   9.000000E+99

> <Gold.Protein.RotatedTorsions>
[ 6907 6896 6895 6894 ] final   69.68 input  -60.11 | X-H torsion
[ 7974 7965 7964 7962 ] final  142.25 input  175.53 | X-H torsion
[ 8008 7997 7996 7995 ] final -172.60 input   59.86 | X-H torsion
[ 10167 10162 10161 10158 ] final   54.40 input  -65.29 | X-H torsion
[ 10718 10713 10712 10709 ] final  -89.56 input   66.30 | X-H torsion
[ 10763 10752 10751 10750 ] final  -58.97 input  -60.55 | X-H torsion
[ 11005 11000 10999 10996 ] final  -67.35 input  -57.11 | X-H torsion

> <Gold.Protein.ActiveResidues>
 VAL166  LYS551  ARG553  GLY616  TRP617  ASP618  TYR619  PRO620  LYS621  CYS622 
 ASP623  PHE694  ASN695  SER759  ASP760  ASP761  ALA762  ILE779  LEU786  VAL792 
 PHE793  MET794  SER795  GLU796  ALA797  LYS798  CYS799  TRP800  GLU811  SER814 

> <Gold.Protein.RotatedAtoms>
  152.4701  134.4980  159.9715 H   0  0  0  0  0  0  0  0  0  0  0  0  # atno 6907 bound_to 6896
  151.5009  133.3499  159.2876 H   0  0  0  0  0  0  0  0  0  0  0  0  # atno 6908 bound_to 6896
  150.8707  134.8108  159.7214 H   0  0  0  0  0  0  0  0  0  0  0  0  # atno 6909 bound_to 6896
  144.9024  139.5404  143.5747 H   0  0  0  0  0  0  0  0  0  0  0  0  # atno 7974 bound_to 7965
  155.9467  140.1118  157.1011 H   0  0  0  0  0  0  0  0  0  0  0  0  # atno 8008 bound_to 7997
  154.4100  140.1208  156.5064 H   0  0  0  0  0  0  0  0  0  0  0  0  # atno 8009 bound_to 7997
  155.6894  140.3472  155.4890 H   0  0  0  0  0  0  0  0  0  0  0  0  # atno 8010 bound_to 7997
  140.2305  144.3692  150.6416 H   0  0  0  0  0  0  0  0  0  0  0  0  # atno 10167 bound_to 10162
  155.9985  130.4877  150.5190 H   0  0  0  0  0  0  0  0  0  0  0  0  # atno 10718 bound_to 10713
  154.2463  135.6334  153.5225 H   0  0  0  0  0  0  0  0  0  0  0  0  # atno 10763 bound_to 10752
  152.9920  135.5554  154.5855 H   0  0  0  0  0  0  0  0  0  0  0  0  # atno 10764 bound_to 10752
  154.5373  135.2892  155.1102 H   0  0  0  0  0  0  0  0  0  0  0  0  # atno 10765 bound_to 10752
  141.1506  133.6717  156.6280 H   0  0  0  0  0  0  0  0  0  0  0  0  # atno 11005 bound_to 11000
  146.3116  139.7765  142.9016 LP  0  0  0  0  0  0  0  0  0  0  0  0  # atno 17320 bound_to 7965
  145.3593  141.0323  143.3294 LP  0  0  0  0  0  0  0  0  0  0  0  0  # atno 17321 bound_to 7965
  140.6188  143.2174  151.6736 LP  0  0  0  0  0  0  0  0  0  0  0  0  # atno 17342 bound_to 10162
  139.5111  144.3518  152.0644 LP  0  0  0  0  0  0  0  0  0  0  0  0  # atno 17343 bound_to 10162
  157.3154  131.0671  151.1971 LP  0  0  0  0  0  0  0  0  0  0  0  0  # atno 17370 bound_to 10713
  157.2902  130.6793  149.6110 LP  0  0  0  0  0  0  0  0  0  0  0  0  # atno 17371 bound_to 10713
  140.3489  134.7785  157.4452 LP  0  0  0  0  0  0  0  0  0  0  0  0  # atno 17394 bound_to 11000
  140.0877  134.5644  155.8476 LP  0  0  0  0  0  0  0  0  0  0  0  0  # atno 17395 bound_to 11000

$$$$
