AV-unprocessed.smi:3063|AV-procd|sdf|11685|dock9
  -GOLD-   2272017 93D 1   1.00000     0.00000
 Structure written by MMmdl.
 44 45  0  0  0  0  0  0  0  0  1 V2000
  151.7800  140.8317  157.7087 C   0  0  0  0  0  0  0  0  0  0  0  0
  152.1947  139.7470  156.7122 C   0  0  0  0  0  0  0  0  0  0  0  0
  153.1476  139.0243  157.0045 O   0  0  0  0  0  0  0  0  0  0  0  0
  151.5205  139.6288  155.5426 N   0  0  0  0  0  0  0  0  0  0  0  0
  150.3234  140.4341  155.2581 C   0  0  0  0  0  0  0  0  0  0  0  0
  149.0432  139.7278  155.7517 C   0  0  0  0  0  0  0  0  0  0  0  0
  148.8275  138.3377  155.1157 C   0  0  0  0  0  0  0  0  0  0  0  0
  149.9086  137.4016  155.4814 N   0  0  0  0  0  0  0  0  0  0  0  0
  149.9373  136.6469  156.6113 C   0  0  0  0  0  0  0  0  0  0  0  0
  150.7890  135.7841  156.8280 O   0  0  0  0  0  0  0  0  0  0  0  0
  148.9461  136.9048  157.4824 N   0  0  0  0  0  0  0  0  0  0  0  0
  148.6871  136.1853  158.7284 C   0  0  2  0  0  0  0  0  0  0  0  0
  148.4996  134.6927  158.4144 C   0  0  0  0  0  0  0  0  0  0  0  0
  147.5048  136.8028  159.5126 C   0  0  0  0  0  0  0  0  0  0  0  0
  147.4677  136.4198  160.9137 N   0  0  0  0  0  0  0  0  0  0  0  0
  147.2817  135.1627  161.4455 C   0  0  0  0  0  0  0  0  0  0  0  0
  147.3208  135.2830  162.8045 C   0  0  0  0  0  0  0  0  0  0  0  0
  147.5313  136.6747  163.0123 C   0  0  0  0  0  0  0  0  0  0  0  0
  147.6140  137.3535  161.8790 N   0  0  0  0  0  0  0  0  0  0  0  0
  151.0123  137.3724  154.5041 C   0  0  0  0  0  0  0  0  0  0  0  0
  151.8648  138.6685  154.4797 C   0  0  0  0  0  0  0  0  0  0  0  0
  151.7113  141.8049  157.2225 H   0  0  0  0  0  0  0  0  0  0  0  0
  152.5138  140.9151  158.5113 H   0  0  0  0  0  0  0  0  0  0  0  0
  150.8167  140.5917  158.1592 H   0  0  0  0  0  0  0  0  0  0  0  0
  150.3990  141.4222  155.7145 H   0  0  0  0  0  0  0  0  0  0  0  0
  150.2397  140.6265  154.1878 H   0  0  0  0  0  0  0  0  0  0  0  0
  149.0648  139.6403  156.8384 H   0  0  0  0  0  0  0  0  0  0  0  0
  148.1842  140.3584  155.5212 H   0  0  0  0  0  0  0  0  0  0  0  0
  147.8490  137.9447  155.3943 H   0  0  0  0  0  0  0  0  0  0  0  0
  148.7787  138.4466  154.0314 H   0  0  0  0  0  0  0  0  0  0  0  0
  148.2922  137.6352  157.2407 H   0  0  0  0  0  0  0  0  0  0  0  0
  149.5767  136.2701  159.3549 H   0  0  0  0  0  0  0  0  0  0  0  0
  148.2829  134.1263  159.3206 H   0  0  0  0  0  0  0  0  0  0  0  0
  149.4021  134.2707  157.9718 H   0  0  0  0  0  0  0  0  0  0  0  0
  147.6817  134.5258  157.7128 H   0  0  0  0  0  0  0  0  0  0  0  0
  147.5538  137.8912  159.4547 H   0  0  0  0  0  0  0  0  0  0  0  0
  146.5548  136.5218  159.0565 H   0  0  0  0  0  0  0  0  0  0  0  0
  147.1411  134.2999  160.8141 H   0  0  0  0  0  0  0  0  0  0  0  0
  147.2128  134.4971  163.5371 H   0  0  0  0  0  0  0  0  0  0  0  0
  147.6239  137.2083  163.9464 H   0  0  0  0  0  0  0  0  0  0  0  0
  151.6761  136.5234  154.6736 H   0  0  0  0  0  0  0  0  0  0  0  0
  150.6005  137.1915  153.5103 H   0  0  0  0  0  0  0  0  0  0  0  0
  151.7296  139.1542  153.5127 H   0  0  0  0  0  0  0  0  0  0  0  0
  152.9241  138.4124  154.4886 H   0  0  0  0  0  0  0  0  0  0  0  0
  1  2  1  0  0  0  0
  1 22  1  0  0  0  0
  1 23  1  0  0  0  0
  1 24  1  0  0  0  0
  2  3  2  0  0  0  0
  2  4  1  0  0  0  0
  4 21  1  0  0  0  0
  4  5  1  0  0  0  0
  5  6  1  0  0  0  0
  5 25  1  0  0  0  0
  5 26  1  0  0  0  0
  6  7  1  0  0  0  0
  6 27  1  0  0  0  0
  6 28  1  0  0  0  0
  7  8  1  0  0  0  0
  7 29  1  0  0  0  0
  7 30  1  0  0  0  0
  8  9  1  0  0  0  0
  8 20  1  0  0  0  0
  9 10  2  0  0  0  0
  9 11  1  0  0  0  0
 11 12  1  0  0  0  0
 11 31  1  0  0  0  0
 12 13  1  0  0  0  0
 12 14  1  0  0  0  0
 12 32  1  0  0  0  0
 13 33  1  0  0  0  0
 13 34  1  0  0  0  0
 13 35  1  0  0  0  0
 14 15  1  0  0  0  0
 14 36  1  0  0  0  0
 14 37  1  0  0  0  0
 15 19  1  0  0  0  0
 15 16  1  0  0  0  0
 16 17  2  0  0  0  0
 16 38  1  0  0  0  0
 17 18  1  0  0  0  0
 17 39  1  0  0  0  0
 18 19  2  0  0  0  0
 18 40  1  0  0  0  0
 20 21  1  0  0  0  0
 20 41  1  0  0  0  0
 20 42  1  0  0  0  0
 21 43  1  0  0  0  0
 21 44  1  0  0  0  0
M  END
> <s_m_source_file>
AV-unprocessed.smi

> <i_m_source_file_index>
3063

> <i_lp_mmshare_version>
43012

> <i_f3d_flags>
0

> <s_epik_input>
W0NIM11DKD1PKU4xW0NIMl1bQ0gyXVtDSDJdTihbQ0gyXVtDSDJdMSlDKD1PKVtOSF1bQ0BIXShbQ0gzXSlbQ0gyXW4yW2NIXVtjSF1bY0hdbjI=

> <s_epik_cmdline>
J2VwaWtfcHl0aG9uJywgJy1waCcsICc3LjAnLCAnLXRuJywgJzgnLCAnLW1hJywgJzIwMCcsICctbWV0YWxfYmluZGluZycsICctaW1hZScsICc8aW5maWxlLm1hZT4nLCAnLW9tYWUnLCAnPG91dGZpbGUubWFlPic=

> <r_lp_tautomer_probability>
1

> <r_epik_Ionization_Penalty>
6.19559e-05

> <r_epik_Ionization_Penalty_Charging>
0

> <r_epik_Ionization_Penalty_Neutral>
6.19559e-05

> <r_epik_State_Penalty>
-0

> <r_epik_Charging_Adjusted_Penalty>
0

> <i_epik_Tot_Q>
0

> <i_epik_Tot_abs_Q>
0

> <r_epik_Metal_State_Penalty>
-0

> <b_epik_Metal_Only>
0

> <s_lp_Force_Field>
OPLS_2005

> <r_lp_Energy>
38.8795

> <b_lp_Chiralities_Consistent>
1

> <s_lp_Variant>
AV-unprocessed.smi:3063-1

> <Gold.Version>
5.8.1

> <Gold.Id.Protein>
6NUR|6NUR_protein|mol2

> <Gold.PLP.Fitness>
44.9163

> <Gold.PLP.PLP>
-37.4017

> <Gold.PLP.part.hbond>
-3.0000

> <Gold.PLP.part.metal>
0.0000

> <Gold.PLP.part.buried>
-2.1689

> <Gold.PLP.part.nonpolar>
-30.6413

> <Gold.PLP.part.repulsive>
0.0255

> <Gold.PLP.ligand.clash>
0.0000

> <Gold.PLP.ligand.torsion>
0.1911

> <Gold.PLP.Chemscore.Hbond>
2.6149

> <Gold.PLP.Chemscore.CHOScore>
0.0000

> <Gold.PLP.Chemscore.Metal>
0.0000

> <Gold.Chemscore.Hbonds>
donor molecule, donor type, donor heavy atom, donor atom, acceptor molecule, acceptor atom, score
      P1  H  6931  6943       L1    19  0.90
      P1  H  6934  6947       L1    19  0.64
      P1  H  7997  8009       L1     3  0.95

> <Gold.PLP.Chemscore.Internal.Correction>
0.0522

> <Gold.Rescore>
     Score         DG    S(hbond)    S(metal)    S(lipo)     H(rot)  DE(clash)    DE(int)     intcor
     14.56     -16.25       1.90        0.00      69.11       1.44       0.15       1.53       ----

> <Gold.Chemscore.Fitness>
14.5628

> <Gold.Chemscore.DG>
-16.2450

> <Gold.Chemscore.ZeroCoef>
-5.4800

> <Gold.Chemscore.Hbond>
1.9036

> <Gold.Chemscore.Metal>
0.0000

> <Gold.Chemscore.Lipo>
69.1053

> <Gold.Chemscore.Internal_Hbond>
0.0000

> <Gold.Chemscore.DEClash>
0.1482

> <Gold.Chemscore.DEInternal>
1.5340

> <Gold.Chemscore.Rot>
1.4368

> <Gold.Chemscore.Internal.Correction>
   9.000000E+99

> <Gold.Chemscore.Hbonds>
donor molecule, donor type, donor heavy atom, donor atom, acceptor molecule, acceptor atom, score
      P1  H  6931  6943       L1    19  0.56
      P1  H  6934  6947       L1    19  0.28
      P1  H  7997  8009       L1     3  0.21

> <Gold.Chemscore.Hbond.Weighted>
-6.3579

> <Gold.Chemscore.Metal.Weighted>
-0.0000

> <Gold.Chemscore.Lipo.Weighted>
-8.0853

> <Gold.Chemscore.Internal_Hbond.Weighted>
0.0000

> <Gold.Chemscore.DEClash.Weighted>
0.1482

> <Gold.Chemscore.DEInternal.Weighted>
1.5340

> <Gold.Chemscore.Rot.Weighted>
3.6782

> <Gold.Chemscore.Internal.Correction.Weighted>
   9.000000E+99

> <Gold.Protein.RotatedTorsions>
[ 6907 6896 6895 6894 ] final  -28.03 input  -60.11 | X-H torsion
[ 7974 7965 7964 7962 ] final -173.85 input  175.53 | X-H torsion
[ 8008 7997 7996 7995 ] final  179.58 input   59.86 | X-H torsion
[ 10167 10162 10161 10158 ] final  151.37 input  -65.29 | X-H torsion
[ 10718 10713 10712 10709 ] final   96.36 input   66.30 | X-H torsion
[ 10763 10752 10751 10750 ] final  -16.94 input  -60.55 | X-H torsion
[ 11005 11000 10999 10996 ] final -168.12 input  -57.11 | X-H torsion

> <Gold.Protein.ActiveResidues>
 VAL166  LYS551  ARG553  GLY616  TRP617  ASP618  TYR619  PRO620  LYS621  CYS622 
 ASP623  PHE694  ASN695  SER759  ASP760  ASP761  ALA762  ILE779  LEU786  VAL792 
 PHE793  MET794  SER795  GLU796  ALA797  LYS798  CYS799  TRP800  GLU811  SER814 

> <Gold.Protein.RotatedAtoms>
  151.1386  135.0168  159.8615 H   0  0  0  0  0  0  0  0  0  0  0  0  # atno 6907 bound_to 6896
  152.5452  134.1525  159.8534 H   0  0  0  0  0  0  0  0  0  0  0  0  # atno 6908 bound_to 6896
  151.1599  133.4807  159.2627 H   0  0  0  0  0  0  0  0  0  0  0  0  # atno 6909 bound_to 6896
  144.7135  140.1560  143.6380 H   0  0  0  0  0  0  0  0  0  0  0  0  # atno 7974 bound_to 7965
  156.0417  140.1305  157.0148 H   0  0  0  0  0  0  0  0  0  0  0  0  # atno 8008 bound_to 7997
  154.4394  140.1029  156.6317 H   0  0  0  0  0  0  0  0  0  0  0  0  # atno 8009 bound_to 7997
  155.5656  140.3465  155.4504 H   0  0  0  0  0  0  0  0  0  0  0  0  # atno 8010 bound_to 7997
  139.4841  144.5446  151.7505 H   0  0  0  0  0  0  0  0  0  0  0  0  # atno 10167 bound_to 10162
  157.6928  131.0575  150.4479 H   0  0  0  0  0  0  0  0  0  0  0  0  # atno 10718 bound_to 10713
  153.5662  135.7008  153.5525 H   0  0  0  0  0  0  0  0  0  0  0  0  # atno 10763 bound_to 10752
  153.3385  135.4027  155.1553 H   0  0  0  0  0  0  0  0  0  0  0  0  # atno 10764 bound_to 10752
  154.8640  135.3736  154.5182 H   0  0  0  0  0  0  0  0  0  0  0  0  # atno 10765 bound_to 10752
  140.5456  134.5479  157.5110 H   0  0  0  0  0  0  0  0  0  0  0  0  # atno 11005 bound_to 11000
  145.9073  139.2466  143.1458 LP  0  0  0  0  0  0  0  0  0  0  0  0  # atno 17320 bound_to 7965
  145.9751  140.8728  143.0143 LP  0  0  0  0  0  0  0  0  0  0  0  0  # atno 17321 bound_to 7965
  140.4991  144.1196  150.5967 LP  0  0  0  0  0  0  0  0  0  0  0  0  # atno 17342 bound_to 10162
  140.4083  143.2669  151.9864 LP  0  0  0  0  0  0  0  0  0  0  0  0  # atno 17343 bound_to 10162
  156.4833  130.4078  149.6449 LP  0  0  0  0  0  0  0  0  0  0  0  0  # atno 17370 bound_to 10713
  156.3487  130.7420  151.2376 LP  0  0  0  0  0  0  0  0  0  0  0  0  # atno 17371 bound_to 10713
  139.9481  134.7665  156.0512 LP  0  0  0  0  0  0  0  0  0  0  0  0  # atno 17394 bound_to 11000
  141.1202  133.6615  156.3195 LP  0  0  0  0  0  0  0  0  0  0  0  0  # atno 17395 bound_to 11000

$$$$
