AV-unprocessed.smi:249|AV-procd|sdf|1916|dock7
  -GOLD-   2262021 13D 1   1.00000     0.00000
 Structure written by MMmdl.
 64 67  0  0  0  0  0  0  0  0  2 V2000
  146.5542  132.1797  161.3654 C   0  0  0  0  0  0  0  0  0  0  0  0
  147.1269  133.4957  161.9141 C   0  0  0  0  0  0  0  0  0  0  0  0
  146.2984  134.6874  161.5646 N   0  3  2  0  0  0  0  0  0  0  0  0
  145.6297  134.5950  160.2357 C   0  0  0  0  0  0  0  0  0  0  0  0
  146.6254  134.7779  159.0741 C   0  0  0  0  0  0  0  0  0  0  0  0
  147.3868  136.1111  159.2110 C   0  0  2  0  0  0  0  0  0  0  0  0
  148.3427  136.3278  158.1190 N   0  0  0  0  0  0  0  0  0  0  0  0
  147.8896  136.2623  156.7296 C   0  0  0  0  0  0  0  0  0  0  0  0
  149.3385  137.2103  158.3915 C   0  0  0  0  0  0  0  0  0  0  0  0
  150.3411  136.8542  159.2387 N   0  0  0  0  0  0  0  0  0  0  0  0
  151.3385  137.7044  159.4987 C   0  0  0  0  0  0  0  0  0  0  0  0
  151.5288  138.9367  159.0245 N   0  0  0  0  0  0  0  0  0  0  0  0
  150.5251  139.3023  158.1773 C   0  0  0  0  0  0  0  0  0  0  0  0
  149.3991  138.5105  157.8148 C   0  0  0  0  0  0  0  0  0  0  0  0
  148.5774  139.2240  156.9497 N   0  0  0  0  0  0  0  0  0  0  0  0
  149.1877  140.3679  156.8014 C   0  0  0  0  0  0  0  0  0  0  0  0
  150.3787  140.4901  157.4814 N   0  0  0  0  0  0  0  0  0  0  0  0
  151.2523  141.6503  157.4918 C   0  0  0  0  0  0  0  0  0  0  0  0
  151.3151  142.4173  158.8429 C   0  0  2  0  0  0  0  0  0  0  0  0
  150.8821  143.8853  158.6087 C   0  0  0  0  0  0  0  0  0  0  0  0
  149.5417  143.9645  158.1687 O   0  0  0  0  0  0  0  0  0  0  0  0
  152.7086  142.3444  159.5383 C   0  0  2  0  0  0  0  0  0  0  0  0
  153.3200  140.9562  159.6717 C   0  0  0  0  0  0  0  0  0  0  0  0
  154.3553  141.1359  160.7767 C   0  0  0  0  0  0  0  0  0  0  0  0
  153.8692  142.1854  161.6016 O   0  0  0  0  0  0  0  0  0  0  0  0
  152.7055  142.7562  161.0170 C   0  0  0  0  0  0  0  0  0  0  0  0
  148.0391  136.2174  160.6032 C   0  0  0  0  0  0  0  0  0  0  0  0
  146.9872  136.0067  161.7122 C   0  0  2  0  0  0  0  0  0  0  0  0
  147.5570  136.2519  163.1209 C   0  0  0  0  0  0  0  0  0  0  0  0
  147.0992  131.3285  161.7743 H   0  0  0  0  0  0  0  0  0  0  0  0
  146.6353  132.1145  160.2810 H   0  0  0  0  0  0  0  0  0  0  0  0
  145.5053  132.0591  161.6379 H   0  0  0  0  0  0  0  0  0  0  0  0
  147.1699  133.3822  162.9954 H   0  0  0  0  0  0  0  0  0  0  0  0
  148.1566  133.6235  161.5812 H   0  0  0  0  0  0  0  0  0  0  0  0
  145.0853  133.6586  160.1273 H   0  0  0  0  0  0  0  0  0  0  0  0
  144.8704  135.3764  160.1805 H   0  0  0  0  0  0  0  0  0  0  0  0
  147.3202  133.9386  159.0454 H   0  0  0  0  0  0  0  0  0  0  0  0
  146.0840  134.7554  158.1275 H   0  0  0  0  0  0  0  0  0  0  0  0
  146.6343  136.8981  159.1714 H   0  0  0  0  0  0  0  0  0  0  0  0
  148.7389  136.2801  156.0454 H   0  0  0  0  0  0  0  0  0  0  0  0
  147.2405  137.1044  156.4882 H   0  0  0  0  0  0  0  0  0  0  0  0
  147.3417  135.3418  156.5345 H   0  0  0  0  0  0  0  0  0  0  0  0
  152.0945  137.3446  160.1811 H   0  0  0  0  0  0  0  0  0  0  0  0
  148.7901  141.1537  156.1756 H   0  0  0  0  0  0  0  0  0  0  0  0
  152.2548  141.3316  157.2033 H   0  0  0  0  0  0  0  0  0  0  0  0
  150.9035  142.3072  156.6948 H   0  0  0  0  0  0  0  0  0  0  0  0
  150.5862  141.9796  159.5257 H   0  0  0  0  0  0  0  0  0  0  0  0
  150.9374  144.4712  159.5249 H   0  0  0  0  0  0  0  0  0  0  0  0
  151.5318  144.3695  157.8789 H   0  0  0  0  0  0  0  0  0  0  0  0
  149.3363  144.8695  157.9901 H   0  0  0  0  0  0  0  0  0  0  0  0
  153.4123  142.9858  159.0057 H   0  0  0  0  0  0  0  0  0  0  0  0
  152.5628  140.2352  159.9836 H   0  0  0  0  0  0  0  0  0  0  0  0
  153.7859  140.5894  158.7594 H   0  0  0  0  0  0  0  0  0  0  0  0
  154.5131  140.2208  161.3479 H   0  0  0  0  0  0  0  0  0  0  0  0
  155.3136  141.4428  160.3560 H   0  0  0  0  0  0  0  0  0  0  0  0
  152.7038  143.8378  161.1534 H   0  0  0  0  0  0  0  0  0  0  0  0
  151.8321  142.3486  161.5284 H   0  0  0  0  0  0  0  0  0  0  0  0
  148.8417  135.4895  160.7178 H   0  0  0  0  0  0  0  0  0  0  0  0
  148.4982  137.2008  160.7127 H   0  0  0  0  0  0  0  0  0  0  0  0
  146.2135  136.7641  161.5741 H   0  0  0  0  0  0  0  0  0  0  0  0
  147.8519  137.2953  163.2373 H   0  0  0  0  0  0  0  0  0  0  0  0
  148.4441  135.6504  163.3191 H   0  0  0  0  0  0  0  0  0  0  0  0
  146.8168  136.0347  163.8915 H   0  0  0  0  0  0  0  0  0  0  0  0
  145.5535  134.6960  162.2466 H   0  0  0  0  0  0  0  0  0  0  0  0
  1  2  1  0  0  0  0
  1 30  1  0  0  0  0
  1 31  1  0  0  0  0
  1 32  1  0  0  0  0
  2  3  1  0  0  0  0
  2 33  1  0  0  0  0
  2 34  1  0  0  0  0
  3 28  1  0  0  0  0
  3  4  1  0  0  0  0
  3 64  1  0  0  0  0
  4  5  1  0  0  0  0
  4 35  1  0  0  0  0
  4 36  1  0  0  0  0
  5  6  1  0  0  0  0
  5 37  1  0  0  0  0
  5 38  1  0  0  0  0
  6  7  1  0  0  0  0
  6 27  1  0  0  0  0
  6 39  1  0  0  0  0
  7  8  1  0  0  0  0
  7  9  1  0  0  0  0
  8 40  1  0  0  0  0
  8 41  1  0  0  0  0
  8 42  1  0  0  0  0
  9 14  1  0  0  0  0
  9 10  2  0  0  0  0
 10 11  1  0  0  0  0
 11 12  2  0  0  0  0
 11 43  1  0  0  0  0
 12 13  1  0  0  0  0
 13 17  1  0  0  0  0
 13 14  2  0  0  0  0
 14 15  1  0  0  0  0
 15 16  2  0  0  0  0
 16 17  1  0  0  0  0
 16 44  1  0  0  0  0
 17 18  1  0  0  0  0
 18 19  1  0  0  0  0
 18 45  1  0  0  0  0
 18 46  1  0  0  0  0
 19 20  1  0  0  0  0
 19 22  1  0  0  0  0
 19 47  1  0  0  0  0
 20 21  1  0  0  0  0
 20 48  1  0  0  0  0
 20 49  1  0  0  0  0
 21 50  1  0  0  0  0
 22 26  1  0  0  0  0
 22 23  1  0  0  0  0
 22 51  1  0  0  0  0
 23 24  1  0  0  0  0
 23 52  1  0  0  0  0
 23 53  1  0  0  0  0
 24 25  1  0  0  0  0
 24 54  1  0  0  0  0
 24 55  1  0  0  0  0
 25 26  1  0  0  0  0
 26 56  1  0  0  0  0
 26 57  1  0  0  0  0
 27 28  1  0  0  0  0
 27 58  1  0  0  0  0
 27 59  1  0  0  0  0
 28 29  1  0  0  0  0
 28 60  1  0  0  0  0
 29 61  1  0  0  0  0
 29 62  1  0  0  0  0
 29 63  1  0  0  0  0
M  CHG  1   3   1
M  END
> <s_m_source_file>
AV-unprocessed.smi

> <i_m_source_file_index>
249

> <i_lp_mmshare_version>
43012

> <i_f3d_flags>
0

> <s_epik_input>
W0NIM11bQ0gyXU4xW0NIMl1bQ0gyXVtDQEhdKFtDSDJdW0NASF0xW0NIM10pTihbQ0gzXSljKG5bY0hdbjIpYyhjMjMpbltjSF1uM1tDSDJdW0NASF0oW0NIMl1bT0hdKVtDQEBIXTRbQ0gyXVtDSDJdT1tDSDJdNA==

> <s_epik_cmdline>
J2VwaWtfcHl0aG9uJywgJy1waCcsICc3LjAnLCAnLXRuJywgJzgnLCAnLW1hJywgJzIwMCcsICctbWV0YWxfYmluZGluZycsICctaW1hZScsICc8aW5maWxlLm1hZT4nLCAnLW9tYWUnLCAnPG91dGZpbGUubWFlPic=

> <r_lp_tautomer_probability>
1

> <r_epik_Ionization_Penalty>
0.00294688

> <r_epik_Ionization_Penalty_Charging>
0.00169971

> <r_epik_Ionization_Penalty_Neutral>
0.00124717

> <r_epik_State_Penalty>
-0

> <r_epik_Charging_Adjusted_Penalty>
0.00169971

> <i_epik_Tot_Q>
1

> <i_epik_Tot_abs_Q>
1

> <r_epik_Metal_State_Penalty>
-0

> <b_epik_Metal_Only>
0

> <s_lp_Force_Field>
OPLS_2005

> <r_lp_Energy>
55.1027

> <b_lp_Chiralities_Consistent>
1

> <s_lp_Variant>
AV-unprocessed.smi:249-19

> <Gold.Version>
5.8.1

> <Gold.Id.Protein>
6NUR|6NUR_protein|mol2

> <Gold.PLP.Fitness>
48.7003

> <Gold.PLP.PLP>
-47.1998

> <Gold.PLP.part.hbond>
-4.0000

> <Gold.PLP.part.metal>
0.0000

> <Gold.PLP.part.buried>
-5.7587

> <Gold.PLP.part.nonpolar>
-37.7808

> <Gold.PLP.part.repulsive>
0.0267

> <Gold.PLP.ligand.clash>
0.0000

> <Gold.PLP.ligand.torsion>
2.5355

> <Gold.PLP.Chemscore.Hbond>
1.7800

> <Gold.PLP.Chemscore.CHOScore>
0.0000

> <Gold.PLP.Chemscore.Metal>
0.0000

> <Gold.Chemscore.Hbonds>
donor molecule, donor type, donor heavy atom, donor atom, acceptor molecule, acceptor atom, score
      L1  H    21    50       P1  8029  0.64
      P1  H  6896  6907       L1    10  0.88

> <Gold.PLP.Chemscore.Internal.Correction>
1.2316

> <Gold.Rescore>
     Score         DG    S(hbond)    S(metal)    S(lipo)     H(rot)  DE(clash)    DE(int)     intcor
     12.48     -17.65       1.73        0.00     112.59       2.65       0.05       5.13       ----

> <Gold.Chemscore.Fitness>
12.4757

> <Gold.Chemscore.DG>
-17.6477

> <Gold.Chemscore.ZeroCoef>
-5.4800

> <Gold.Chemscore.Hbond>
1.7314

> <Gold.Chemscore.Metal>
0.0000

> <Gold.Chemscore.Lipo>
112.5890

> <Gold.Chemscore.Internal_Hbond>
0.0000

> <Gold.Chemscore.DEClash>
0.0451

> <Gold.Chemscore.DEInternal>
5.1269

> <Gold.Chemscore.Rot>
2.6515

> <Gold.Chemscore.Internal.Correction>
   9.000000E+99

> <Gold.Chemscore.Hbonds>
donor molecule, donor type, donor heavy atom, donor atom, acceptor molecule, acceptor atom, score
      L1  H    21    50       P1  8029  0.09
      P1  H  6896  6907       L1    10  0.66

> <Gold.Chemscore.Hbond.Weighted>
-5.7828

> <Gold.Chemscore.Metal.Weighted>
-0.0000

> <Gold.Chemscore.Lipo.Weighted>
-13.1729

> <Gold.Chemscore.Internal_Hbond.Weighted>
0.0000

> <Gold.Chemscore.DEClash.Weighted>
0.0451

> <Gold.Chemscore.DEInternal.Weighted>
5.1269

> <Gold.Chemscore.Rot.Weighted>
6.7880

> <Gold.Chemscore.Internal.Correction.Weighted>
   9.000000E+99

> <Gold.Protein.RotatedTorsions>
[ 6907 6896 6895 6894 ] final  -47.97 input  -60.11 | X-H torsion
[ 7974 7965 7964 7962 ] final -121.39 input  175.53 | X-H torsion
[ 8008 7997 7996 7995 ] final  -70.60 input   59.86 | X-H torsion
[ 10167 10162 10161 10158 ] final  144.03 input  -65.29 | X-H torsion
[ 10718 10713 10712 10709 ] final  -49.37 input   66.30 | X-H torsion
[ 10763 10752 10751 10750 ] final  -19.16 input  -60.55 | X-H torsion
[ 11005 11000 10999 10996 ] final  166.11 input  -57.11 | X-H torsion

> <Gold.Protein.ActiveResidues>
 VAL166  LYS551  ARG553  GLY616  TRP617  ASP618  TYR619  PRO620  LYS621  CYS622 
 ASP623  PHE694  ASN695  SER759  ASP760  ASP761  ALA762  ILE779  LEU786  VAL792 
 PHE793  MET794  SER795  GLU796  ALA797  LYS798  CYS799  TRP800  GLU811  SER814 

> <Gold.Protein.RotatedAtoms>
  150.8953  134.8361  159.7321 H   0  0  0  0  0  0  0  0  0  0  0  0  # atno 6907 bound_to 6896
  152.4861  134.4585  159.9607 H   0  0  0  0  0  0  0  0  0  0  0  0  # atno 6908 bound_to 6896
  151.4643  133.3546  159.2849 H   0  0  0  0  0  0  0  0  0  0  0  0  # atno 6909 bound_to 6896
  145.0409  140.8144  143.4267 H   0  0  0  0  0  0  0  0  0  0  0  0  # atno 7974 bound_to 7965
  154.5024  140.0831  156.7824 H   0  0  0  0  0  0  0  0  0  0  0  0  # atno 8008 bound_to 7997
  155.3972  140.3435  155.4236 H   0  0  0  0  0  0  0  0  0  0  0  0  # atno 8009 bound_to 7997
  156.1473  140.1547  156.8814 H   0  0  0  0  0  0  0  0  0  0  0  0  # atno 8010 bound_to 7997
  139.4956  144.6000  151.6501 H   0  0  0  0  0  0  0  0  0  0  0  0  # atno 10167 bound_to 10162
  156.1899  130.4152  149.9386 H   0  0  0  0  0  0  0  0  0  0  0  0  # atno 10718 bound_to 10713
  153.6005  135.6999  153.5386 H   0  0  0  0  0  0  0  0  0  0  0  0  # atno 10763 bound_to 10752
  153.3101  135.4103  155.1328 H   0  0  0  0  0  0  0  0  0  0  0  0  # atno 10764 bound_to 10752
  154.8583  135.3670  154.5540 H   0  0  0  0  0  0  0  0  0  0  0  0  # atno 10765 bound_to 10752
  140.2631  134.7887  157.3607 H   0  0  0  0  0  0  0  0  0  0  0  0  # atno 11005 bound_to 11000
  145.1649  139.2437  143.5372 LP  0  0  0  0  0  0  0  0  0  0  0  0  # atno 17320 bound_to 7965
  146.3509  140.1385  142.8595 LP  0  0  0  0  0  0  0  0  0  0  0  0  # atno 17321 bound_to 7965
  140.5647  144.0209  150.6187 LP  0  0  0  0  0  0  0  0  0  0  0  0  # atno 17342 bound_to 10162
  140.3307  143.3079  152.0690 LP  0  0  0  0  0  0  0  0  0  0  0  0  # atno 17343 bound_to 10162
  156.7129  130.8977  151.3611 LP  0  0  0  0  0  0  0  0  0  0  0  0  # atno 17370 bound_to 10713
  157.6922  130.9245  150.0546 LP  0  0  0  0  0  0  0  0  0  0  0  0  # atno 17371 bound_to 10713
  140.1446  134.4928  155.8006 LP  0  0  0  0  0  0  0  0  0  0  0  0  # atno 17394 bound_to 11000
  141.2188  133.6838  156.7270 LP  0  0  0  0  0  0  0  0  0  0  0  0  # atno 17395 bound_to 11000

$$$$
