AV-unprocessed.smi:16|AV-procd|sdf|87|dock4
  -GOLD-   2262015223D 1   1.00000     0.00000
 Structure written by MMmdl.
 60 64  0  0  0  0  0  0  0  0  2 V2000
  151.7185  138.6158  153.6073 C   0  0  0  0  0  0  0  0  0  0  0  0
  150.3449  138.5261  154.2853 C   0  0  0  0  0  0  0  0  0  0  0  0
  150.3615  139.0540  155.6752 N   0  3  1  0  0  0  0  0  0  0  0  0
  150.7854  140.4739  155.8023 C   0  0  0  0  0  0  0  0  0  0  0  0
  149.6702  141.4479  155.3898 C   0  0  0  0  0  0  0  0  0  0  0  0
  148.3889  141.1877  156.2065 C   0  0  1  0  0  0  0  0  0  0  0  0
  147.3286  142.0788  155.8599 O   0  0  0  0  0  0  0  0  0  0  0  0
  146.7524  141.8429  154.5786 C   0  0  0  0  0  0  0  0  0  0  0  0
  146.2333  140.4018  154.4975 C   0  0  0  0  0  0  0  0  0  0  0  0
  147.2934  139.4519  154.8165 N   0  0  0  0  0  0  0  0  0  0  0  0
  146.8775  138.1887  154.5608 C   0  0  0  0  0  0  0  0  0  0  0  0
  146.9253  137.2373  155.5305 N   0  0  0  0  0  0  0  0  0  0  0  0
  146.5032  135.9964  155.2698 C   0  0  0  0  0  0  0  0  0  0  0  0
  146.0047  135.5062  154.1326 N   0  0  0  0  0  0  0  0  0  0  0  0
  145.9448  136.4627  153.1614 C   0  0  0  0  0  0  0  0  0  0  0  0
  146.3560  137.8181  153.2934 C   0  0  0  0  0  0  0  0  0  0  0  0
  146.1571  138.4980  152.0994 N   0  0  0  0  0  0  0  0  0  0  0  0
  145.6542  137.5939  151.3033 C   0  0  0  0  0  0  0  0  0  0  0  0
  145.4874  136.3446  151.8598 N   0  0  0  0  0  0  0  0  0  0  0  0
  144.9693  135.1754  151.2076 C   0  0  0  0  0  0  0  0  0  0  0  0
  144.7538  133.8763  151.9843 C   0  0  0  0  0  0  0  0  0  0  0  0
  145.0913  133.0685  150.7107 C   0  0  0  0  0  0  0  0  0  0  0  0
  145.9786  131.8332  150.9360 C   0  0  0  0  0  0  0  0  0  0  0  0
  146.6248  131.4427  149.7413 O   0  0  0  0  0  0  0  0  0  0  0  0
  143.8770  132.6683  149.8481 C   0  0  0  0  0  0  0  0  0  0  0  0
  142.8088  132.1980  150.6452 O   0  0  0  0  0  0  0  0  0  0  0  0
  145.8321  134.3468  150.2536 C   0  0  0  0  0  0  0  0  0  0  0  0
  147.9321  139.7124  156.1133 C   0  0  1  0  0  0  0  0  0  0  0  0
  149.1221  138.7673  156.4491 C   0  0  0  0  0  0  0  0  0  0  0  0
  148.6252  141.3968  157.2507 H   0  0  0  0  0  0  0  0  0  0  0  0
  147.1644  139.5621  156.8741 H   0  0  0  0  0  0  0  0  0  0  0  0
  151.6932  138.1325  152.6304 H   0  0  0  0  0  0  0  0  0  0  0  0
  152.4853  138.1177  154.2014 H   0  0  0  0  0  0  0  0  0  0  0  0
  152.0308  139.6474  153.4483 H   0  0  0  0  0  0  0  0  0  0  0  0
  149.5929  139.0338  153.6822 H   0  0  0  0  0  0  0  0  0  0  0  0
  150.0602  137.4736  154.3092 H   0  0  0  0  0  0  0  0  0  0  0  0
  151.0531  140.6558  156.8440 H   0  0  0  0  0  0  0  0  0  0  0  0
  151.6891  140.6644  155.2245 H   0  0  0  0  0  0  0  0  0  0  0  0
  150.0024  142.4742  155.5472 H   0  0  0  0  0  0  0  0  0  0  0  0
  149.4869  141.3497  154.3210 H   0  0  0  0  0  0  0  0  0  0  0  0
  145.9282  142.5416  154.4347 H   0  0  0  0  0  0  0  0  0  0  0  0
  147.4677  142.0460  153.7821 H   0  0  0  0  0  0  0  0  0  0  0  0
  145.4064  140.2671  155.1968 H   0  0  0  0  0  0  0  0  0  0  0  0
  145.8398  140.2130  153.4976 H   0  0  0  0  0  0  0  0  0  0  0  0
  146.5742  135.2964  156.0893 H   0  0  0  0  0  0  0  0  0  0  0  0
  145.3914  137.8166  150.2792 H   0  0  0  0  0  0  0  0  0  0  0  0
  144.0463  135.4739  150.7081 H   0  0  0  0  0  0  0  0  0  0  0  0
  145.4860  133.7369  152.7819 H   0  0  0  0  0  0  0  0  0  0  0  0
  143.7392  133.7377  152.3590 H   0  0  0  0  0  0  0  0  0  0  0  0
  146.7301  132.0114  151.7054 H   0  0  0  0  0  0  0  0  0  0  0  0
  145.3835  130.9876  151.2816 H   0  0  0  0  0  0  0  0  0  0  0  0
  147.5567  131.4251  149.8965 H   0  0  0  0  0  0  0  0  0  0  0  0
  143.5222  133.5045  149.2451 H   0  0  0  0  0  0  0  0  0  0  0  0
  144.1376  131.8788  149.1433 H   0  0  0  0  0  0  0  0  0  0  0  0
  142.0489  132.7335  150.4749 H   0  0  0  0  0  0  0  0  0  0  0  0
  145.7065  134.6023  149.2010 H   0  0  0  0  0  0  0  0  0  0  0  0
  146.8886  134.3453  150.5264 H   0  0  0  0  0  0  0  0  0  0  0  0
  148.8564  137.7143  156.3591 H   0  0  0  0  0  0  0  0  0  0  0  0
  149.3716  138.9030  157.5023 H   0  0  0  0  0  0  0  0  0  0  0  0
  151.0807  138.5142  156.1352 H   0  0  0  0  0  0  0  0  0  0  0  0
  1  2  1  0  0  0  0
  1 32  1  0  0  0  0
  1 33  1  0  0  0  0
  1 34  1  0  0  0  0
  2  3  1  0  0  0  0
  2 35  1  0  0  0  0
  2 36  1  0  0  0  0
  3 29  1  0  0  0  0
  3  4  1  0  0  0  0
  3 60  1  0  0  0  0
  4  5  1  0  0  0  0
  4 37  1  0  0  0  0
  4 38  1  0  0  0  0
  5  6  1  0  0  0  0
  5 39  1  0  0  0  0
  5 40  1  0  0  0  0
  6 30  1  0  0  0  0
  6 28  1  0  0  0  0
  6  7  1  0  0  0  0
  7  8  1  0  0  0  0
  8  9  1  0  0  0  0
  8 41  1  0  0  0  0
  8 42  1  0  0  0  0
  9 10  1  0  0  0  0
  9 43  1  0  0  0  0
  9 44  1  0  0  0  0
 10 11  1  0  0  0  0
 10 28  1  0  0  0  0
 11 16  1  0  0  0  0
 11 12  2  0  0  0  0
 12 13  1  0  0  0  0
 13 14  2  0  0  0  0
 13 45  1  0  0  0  0
 14 15  1  0  0  0  0
 15 19  1  0  0  0  0
 15 16  2  0  0  0  0
 16 17  1  0  0  0  0
 17 18  2  0  0  0  0
 18 19  1  0  0  0  0
 18 46  1  0  0  0  0
 19 20  1  0  0  0  0
 20 27  1  0  0  0  0
 20 21  1  0  0  0  0
 20 47  1  0  0  0  0
 21 22  1  0  0  0  0
 21 48  1  0  0  0  0
 21 49  1  0  0  0  0
 22 23  1  0  0  0  0
 22 25  1  0  0  0  0
 22 27  1  0  0  0  0
 23 24  1  0  0  0  0
 23 50  1  0  0  0  0
 23 51  1  0  0  0  0
 24 52  1  0  0  0  0
 25 26  1  0  0  0  0
 25 53  1  0  0  0  0
 25 54  1  0  0  0  0
 26 55  1  0  0  0  0
 27 56  1  0  0  0  0
 27 57  1  0  0  0  0
 28 31  1  0  0  0  0
 28 29  1  0  0  0  0
 29 58  1  0  0  0  0
 29 59  1  0  0  0  0
M  CHG  1   3   1
M  END
> <s_m_source_file>
AV-unprocessed.smi

> <i_m_source_file_index>
16

> <i_lp_mmshare_version>
43012

> <i_f3d_flags>
0

> <s_epik_input>
W0NIM11bQ0gyXU4oW0NIMl1bQ0gyXTEpW0NIMl1bQ0BASF0oW0NAQEhdMTIpTihbQ0gyXVtDSDJdTzIpYyhuW2NIXW4zKWMoYzM0KW5bY0hdbjRbQ0hdKFtDSDJdNSlbQ0gyXUM1KFtDSDJdW09IXSlbQ0gyXVtPSF0=

> <s_epik_cmdline>
J2VwaWtfcHl0aG9uJywgJy1waCcsICc3LjAnLCAnLXRuJywgJzgnLCAnLW1hJywgJzIwMCcsICctbWV0YWxfYmluZGluZycsICctaW1hZScsICc8aW5maWxlLm1hZT4nLCAnLW9tYWUnLCAnPG91dGZpbGUubWFlPic=

> <r_lp_tautomer_probability>
1

> <r_epik_Ionization_Penalty>
0.0135603

> <r_epik_Ionization_Penalty_Charging>
0.0131385

> <r_epik_Ionization_Penalty_Neutral>
0.000421734

> <r_epik_State_Penalty>
0.0102091

> <r_epik_Charging_Adjusted_Penalty>
0.0233476

> <i_epik_Tot_Q>
1

> <i_epik_Tot_abs_Q>
1

> <r_epik_Metal_State_Penalty>
0.0103746

> <b_epik_Metal_Only>
0

> <s_lp_Force_Field>
OPLS_2005

> <r_lp_Energy>
65.3073

> <b_lp_Chiralities_Consistent>
1

> <s_lp_Variant>
AV-unprocessed.smi:16-1

> <Gold.Version>
5.8.1

> <Gold.Id.Protein>
6NUR|6NUR_protein|mol2

> <Gold.PLP.Fitness>
43.7383

> <Gold.PLP.PLP>
-37.6897

> <Gold.PLP.part.hbond>
-3.0000

> <Gold.PLP.part.metal>
0.0000

> <Gold.PLP.part.buried>
-3.5714

> <Gold.PLP.part.nonpolar>
-34.8806

> <Gold.PLP.part.repulsive>
2.9671

> <Gold.PLP.ligand.clash>
0.0000

> <Gold.PLP.ligand.torsion>
1.0137

> <Gold.PLP.Chemscore.Hbond>
1.9920

> <Gold.PLP.Chemscore.CHOScore>
0.4747

> <Gold.PLP.Chemscore.Metal>
0.0000

> <Gold.Chemscore.Hbonds>
donor molecule, donor type, donor heavy atom, donor atom, acceptor molecule, acceptor atom, score
      L1  H    24    52       P1 10747  1.00
      L1  H    26    55       P1 10186  0.63
      L1  C    18    46       P1 10171  0.28

> <Gold.PLP.Chemscore.Internal.Correction>
0.6760

> <Gold.Rescore>
     Score         DG    S(hbond)    S(metal)    S(lipo)     H(rot)  DE(clash)    DE(int)     intcor
      7.93     -13.87       1.98        0.00      87.90       3.33       2.70       3.25       ----

> <Gold.Chemscore.Fitness>
7.9255

> <Gold.Chemscore.DG>
-13.8731

> <Gold.Chemscore.ZeroCoef>
-5.4800

> <Gold.Chemscore.Hbond>
1.9824

> <Gold.Chemscore.Metal>
0.0000

> <Gold.Chemscore.Lipo>
87.8982

> <Gold.Chemscore.Internal_Hbond>
0.0000

> <Gold.Chemscore.DEClash>
2.7004

> <Gold.Chemscore.DEInternal>
3.2471

> <Gold.Chemscore.Rot>
3.3251

> <Gold.Chemscore.Internal.Correction>
   9.000000E+99

> <Gold.Chemscore.Hbonds>
donor molecule, donor type, donor heavy atom, donor atom, acceptor molecule, acceptor atom, score
      L1  H    24    52       P1 10747  0.95
      L1  H    26    55       P1 10186  0.61

> <Gold.Chemscore.Hbond.Weighted>
-6.6211

> <Gold.Chemscore.Metal.Weighted>
-0.0000

> <Gold.Chemscore.Lipo.Weighted>
-10.2841

> <Gold.Chemscore.Internal_Hbond.Weighted>
0.0000

> <Gold.Chemscore.DEClash.Weighted>
2.7004

> <Gold.Chemscore.DEInternal.Weighted>
3.2471

> <Gold.Chemscore.Rot.Weighted>
8.5122

> <Gold.Chemscore.Internal.Correction.Weighted>
   9.000000E+99

> <Gold.Protein.RotatedTorsions>
[ 6907 6896 6895 6894 ] final   -4.67 input  -60.11 | X-H torsion
[ 7974 7965 7964 7962 ] final -119.63 input  175.53 | X-H torsion
[ 8008 7997 7996 7995 ] final  -21.59 input   59.86 | X-H torsion
[ 10167 10162 10161 10158 ] final -136.29 input  -65.29 | X-H torsion
[ 10718 10713 10712 10709 ] final -168.48 input   66.30 | X-H torsion
[ 10763 10752 10751 10750 ] final   37.63 input  -60.55 | X-H torsion
[ 11005 11000 10999 10996 ] final  -53.61 input  -57.11 | X-H torsion

> <Gold.Protein.ActiveResidues>
 VAL166  LYS551  ARG553  GLY616  TRP617  ASP618  TYR619  PRO620  LYS621  CYS622 
 ASP623  PHE694  ASN695  SER759  ASP760  ASP761  ALA762  ILE779  LEU786  VAL792 
 PHE793  MET794  SER795  GLU796  ALA797  LYS798  CYS799  TRP800  GLU811  SER814 

> <Gold.Protein.RotatedAtoms>
  151.4939  135.1059  159.9810 H   0  0  0  0  0  0  0  0  0  0  0  0  # atno 6907 bound_to 6896
  152.4730  133.8068  159.6993 H   0  0  0  0  0  0  0  0  0  0  0  0  # atno 6908 bound_to 6896
  150.8750  133.7389  159.2975 H   0  0  0  0  0  0  0  0  0  0  0  0  # atno 6909 bound_to 6896
  145.0603  140.8285  143.4156 H   0  0  0  0  0  0  0  0  0  0  0  0  # atno 7974 bound_to 7965
  154.4696  140.2031  156.0028 H   0  0  0  0  0  0  0  0  0  0  0  0  # atno 8008 bound_to 7997
  156.0988  140.3247  155.7885 H   0  0  0  0  0  0  0  0  0  0  0  0  # atno 8009 bound_to 7997
  155.4832  140.0540  157.2955 H   0  0  0  0  0  0  0  0  0  0  0  0  # atno 8010 bound_to 7997
  139.8693  143.6978  152.2641 H   0  0  0  0  0  0  0  0  0  0  0  0  # atno 10167 bound_to 10162
  156.6976  130.9184  151.3076 H   0  0  0  0  0  0  0  0  0  0  0  0  # atno 10718 bound_to 10713
  153.0030  135.6272  154.2175 H   0  0  0  0  0  0  0  0  0  0  0  0  # atno 10763 bound_to 10752
  154.1918  135.2808  155.3021 H   0  0  0  0  0  0  0  0  0  0  0  0  # atno 10764 bound_to 10752
  154.5754  135.5664  153.7193 H   0  0  0  0  0  0  0  0  0  0  0  0  # atno 10765 bound_to 10752
  141.0985  133.6621  156.4198 H   0  0  0  0  0  0  0  0  0  0  0  0  # atno 11005 bound_to 11000
  145.1417  139.2568  143.5487 LP  0  0  0  0  0  0  0  0  0  0  0  0  # atno 17320 bound_to 7965
  146.3524  140.1096  142.8604 LP  0  0  0  0  0  0  0  0  0  0  0  0  # atno 17321 bound_to 7965
  139.7299  144.7584  151.0818 LP  0  0  0  0  0  0  0  0  0  0  0  0  # atno 17342 bound_to 10162
  140.7763  143.5101  150.9663 LP  0  0  0  0  0  0  0  0  0  0  0  0  # atno 17343 bound_to 10162
  157.6985  130.9308  150.0715 LP  0  0  0  0  0  0  0  0  0  0  0  0  # atno 17370 bound_to 10713
  156.1752  130.3648  149.9110 LP  0  0  0  0  0  0  0  0  0  0  0  0  # atno 17371 bound_to 10713
  140.5082  134.6421  157.5274 LP  0  0  0  0  0  0  0  0  0  0  0  0  # atno 17394 bound_to 11000
  139.9828  134.7109  155.9828 LP  0  0  0  0  0  0  0  0  0  0  0  0  # atno 17395 bound_to 11000

$$$$
