AV-unprocessed.smi:2128|AV-procd|sdf|8682|dock2
  -GOLD-   2272011433D 1   1.00000     0.00000
 Structure written by MMmdl.
 51 53  0  0  0  0  0  0  0  0  2 V2000
  152.5819  142.0974  161.1600 O   0  0  0  0  0  0  0  0  0  0  0  0
  152.2864  142.5516  160.0575 C   0  0  0  0  0  0  0  0  0  0  0  0
  151.6482  141.6251  159.0074 C   0  0  0  0  0  0  0  0  0  0  0  0
  151.4112  142.2492  157.6994 N   0  0  0  0  0  0  0  0  0  0  0  0
  150.9040  141.4368  156.6574 C   0  0  0  0  0  0  0  0  0  0  0  0
  151.4490  140.1738  156.3188 C   0  0  0  0  0  0  0  0  0  0  0  0
  150.8893  139.4188  155.2671 C   0  0  0  0  0  0  0  0  0  0  0  0
  149.7725  139.9254  154.5578 C   0  0  0  0  0  0  0  0  0  0  0  0
  149.1266  139.2628  153.4773 N   0  0  0  0  0  0  0  0  0  0  0  0
  147.8742  139.4116  153.0114 C   0  0  0  0  0  0  0  0  0  0  0  0
  147.0258  140.1724  153.4747 O   0  0  0  0  0  0  0  0  0  0  0  0
  147.6599  138.6260  151.9456 N   0  0  0  0  0  0  0  0  0  0  0  0
  146.4224  138.5642  151.1711 C   0  0  0  0  0  0  0  0  0  0  0  0
  145.3681  137.6519  151.8294 C   0  0  0  0  0  0  0  0  0  0  0  0
  145.4760  136.1880  151.4282 C   0  0  0  0  0  0  0  0  0  0  0  0
  145.0754  135.7511  150.2181 C   0  0  0  0  0  0  0  0  0  0  0  0
  145.1752  134.3087  149.7550 C   0  0  0  0  0  0  0  0  0  0  0  0
  146.0970  133.4674  150.6531 C   0  0  0  0  0  0  0  0  0  0  0  0
  145.8461  133.7636  152.1365 C   0  0  0  0  0  0  0  0  0  0  0  0
  146.0874  135.2485  152.4618 C   0  0  0  0  0  0  0  0  0  0  0  0
  149.2665  141.1853  154.9348 C   0  0  0  0  0  0  0  0  0  0  0  0
  149.8342  141.8739  155.9476 N   0  3  0  0  0  0  0  0  0  0  0  0
  151.1252  143.6835  157.6792 C   0  0  0  0  0  0  0  0  0  0  0  0
  152.2002  144.4554  158.4606 C   0  0  0  0  0  0  0  0  0  0  0  0
  152.4990  143.8416  159.7500 N   0  0  0  0  0  0  0  0  0  0  0  0
  152.3028  140.7611  158.8834 H   0  0  0  0  0  0  0  0  0  0  0  0
  150.7027  141.2629  159.4140 H   0  0  0  0  0  0  0  0  0  0  0  0
  152.2823  139.7515  156.8584 H   0  0  0  0  0  0  0  0  0  0  0  0
  151.3390  138.4675  155.0331 H   0  0  0  0  0  0  0  0  0  0  0  0
  149.7088  138.6188  152.9619 H   0  0  0  0  0  0  0  0  0  0  0  0
  148.4153  138.0331  151.6337 H   0  0  0  0  0  0  0  0  0  0  0  0
  146.0249  139.5770  151.1042 H   0  0  0  0  0  0  0  0  0  0  0  0
  146.6188  138.2557  150.1436 H   0  0  0  0  0  0  0  0  0  0  0  0
  145.4536  137.7343  152.9138 H   0  0  0  0  0  0  0  0  0  0  0  0
  144.3671  138.0046  151.5796 H   0  0  0  0  0  0  0  0  0  0  0  0
  144.6352  136.4442  149.5162 H   0  0  0  0  0  0  0  0  0  0  0  0
  144.1691  133.8884  149.7494 H   0  0  0  0  0  0  0  0  0  0  0  0
  145.5360  134.2846  148.7264 H   0  0  0  0  0  0  0  0  0  0  0  0
  145.9526  132.4066  150.4467 H   0  0  0  0  0  0  0  0  0  0  0  0
  147.1386  133.6891  150.4160 H   0  0  0  0  0  0  0  0  0  0  0  0
  144.8166  133.5010  152.3847 H   0  0  0  0  0  0  0  0  0  0  0  0
  146.4831  133.1373  152.7617 H   0  0  0  0  0  0  0  0  0  0  0  0
  147.1578  135.4511  152.5070 H   0  0  0  0  0  0  0  0  0  0  0  0
  145.6868  135.4653  153.4515 H   0  0  0  0  0  0  0  0  0  0  0  0
  148.4221  141.6641  154.4599 H   0  0  0  0  0  0  0  0  0  0  0  0
  151.0572  144.1027  156.6781 H   0  0  0  0  0  0  0  0  0  0  0  0
  150.1500  143.8392  158.1429 H   0  0  0  0  0  0  0  0  0  0  0  0
  153.1251  144.4880  157.8834 H   0  0  0  0  0  0  0  0  0  0  0  0
  151.8885  145.4886  158.6155 H   0  0  0  0  0  0  0  0  0  0  0  0
  152.9121  144.4345  160.4561 H   0  0  0  0  0  0  0  0  0  0  0  0
  149.4353  142.7809  156.1907 H   0  0  0  0  0  0  0  0  0  0  0  0
  1  2  2  0  0  0  0
  2 25  1  0  0  0  0
  2  3  1  0  0  0  0
  3  4  1  0  0  0  0
  3 26  1  0  0  0  0
  3 27  1  0  0  0  0
  4  5  1  0  0  0  0
  4 23  1  0  0  0  0
  5 22  1  0  0  0  0
  5  6  2  0  0  0  0
  6  7  1  0  0  0  0
  6 28  1  0  0  0  0
  7  8  2  0  0  0  0
  7 29  1  0  0  0  0
  8  9  1  0  0  0  0
  8 21  1  0  0  0  0
  9 10  1  0  0  0  0
  9 30  1  0  0  0  0
 10 11  2  0  0  0  0
 10 12  1  0  0  0  0
 12 13  1  0  0  0  0
 12 31  1  0  0  0  0
 13 14  1  0  0  0  0
 13 32  1  0  0  0  0
 13 33  1  0  0  0  0
 14 15  1  0  0  0  0
 14 34  1  0  0  0  0
 14 35  1  0  0  0  0
 15 20  1  0  0  0  0
 15 16  2  0  0  0  0
 16 17  1  0  0  0  0
 16 36  1  0  0  0  0
 17 18  1  0  0  0  0
 17 37  1  0  0  0  0
 17 38  1  0  0  0  0
 18 19  1  0  0  0  0
 18 39  1  0  0  0  0
 18 40  1  0  0  0  0
 19 20  1  0  0  0  0
 19 41  1  0  0  0  0
 19 42  1  0  0  0  0
 20 43  1  0  0  0  0
 20 44  1  0  0  0  0
 21 22  2  0  0  0  0
 21 45  1  0  0  0  0
 22 51  1  0  0  0  0
 23 24  1  0  0  0  0
 23 46  1  0  0  0  0
 23 47  1  0  0  0  0
 24 25  1  0  0  0  0
 24 48  1  0  0  0  0
 24 49  1  0  0  0  0
 25 50  1  0  0  0  0
M  CHG  1  22   1
M  END
> <s_m_source_file>
AV-unprocessed.smi

> <i_m_source_file_index>
2128

> <i_lp_mmshare_version>
43012

> <i_f3d_flags>
0

> <s_epik_input>
Tz1DMVtDSDJdTihbQ0gyXVtDSDJdW05IXTEpYzJbY0hdW2NIXWMoW2NIXW4yKVtOSF1DKD1PKVtOSF1bQ0gyXVtDSDJdQzM9W0NIXVtDSDJdW0NIMl1bQ0gyXVtDSDJdMw==

> <s_epik_cmdline>
J2VwaWtfcHl0aG9uJywgJy1waCcsICc3LjAnLCAnLXRuJywgJzgnLCAnLW1hJywgJzIwMCcsICctbWV0YWxfYmluZGluZycsICctaW1hZScsICc8aW5maWxlLm1hZT4nLCAnLW9tYWUnLCAnPG91dGZpbGUubWFlPic=

> <r_lp_tautomer_probability>
0.999994

> <r_epik_Ionization_Penalty>
1.98589

> <r_epik_Ionization_Penalty_Charging>
1.98586

> <r_epik_Ionization_Penalty_Neutral>
2.08865e-05

> <r_epik_State_Penalty>
2.11351

> <r_epik_Charging_Adjusted_Penalty>
4.09937

> <i_epik_Tot_Q>
1

> <i_epik_Tot_abs_Q>
1

> <r_epik_Metal_State_Penalty>
2.13405

> <b_epik_Metal_Only>
0

> <s_lp_Force_Field>
OPLS_2005

> <r_lp_Energy>
28.599

> <b_lp_Chiralities_Consistent>
1

> <s_lp_Variant>
AV-unprocessed.smi:2128-2

> <Gold.Version>
5.8.1

> <Gold.Id.Protein>
6NUR|6NUR_protein|mol2

> <Gold.PLP.Fitness>
57.8310

> <Gold.PLP.PLP>
-51.0842

> <Gold.PLP.part.hbond>
-4.0000

> <Gold.PLP.part.metal>
0.0000

> <Gold.PLP.part.buried>
-0.5556

> <Gold.PLP.part.nonpolar>
-46.8312

> <Gold.PLP.part.repulsive>
0.4924

> <Gold.PLP.ligand.clash>
0.0000

> <Gold.PLP.ligand.torsion>
1.1630

> <Gold.PLP.Chemscore.Hbond>
2.9600

> <Gold.PLP.Chemscore.CHOScore>
0.0000

> <Gold.PLP.Chemscore.Metal>
0.0000

> <Gold.Chemscore.Hbonds>
donor molecule, donor type, donor heavy atom, donor atom, acceptor molecule, acceptor atom, score
      L1  H    12    31       P1  7948  0.78
      L1  H    22    51       P1  8028  1.72

> <Gold.PLP.Chemscore.Internal.Correction>
0.1928

> <Gold.Rescore>
     Score         DG    S(hbond)    S(metal)    S(lipo)     H(rot)  DE(clash)    DE(int)     intcor
     17.51     -20.34       1.91        0.00     103.75       1.43       0.48       2.35       ----

> <Gold.Chemscore.Fitness>
17.5099

> <Gold.Chemscore.DG>
-20.3434

> <Gold.Chemscore.ZeroCoef>
-5.4800

> <Gold.Chemscore.Hbond>
1.9092

> <Gold.Chemscore.Metal>
0.0000

> <Gold.Chemscore.Lipo>
103.7486

> <Gold.Chemscore.Internal_Hbond>
0.0000

> <Gold.Chemscore.DEClash>
0.4831

> <Gold.Chemscore.DEInternal>
2.3504

> <Gold.Chemscore.Rot>
1.4266

> <Gold.Chemscore.Internal.Correction>
   9.000000E+99

> <Gold.Chemscore.Hbonds>
donor molecule, donor type, donor heavy atom, donor atom, acceptor molecule, acceptor atom, score
      L1  H    12    31       P1  7948  0.77
      L1  H    22    51       P1  8028  0.79

> <Gold.Chemscore.Hbond.Weighted>
-6.3769

> <Gold.Chemscore.Metal.Weighted>
-0.0000

> <Gold.Chemscore.Lipo.Weighted>
-12.1386

> <Gold.Chemscore.Internal_Hbond.Weighted>
0.0000

> <Gold.Chemscore.DEClash.Weighted>
0.4831

> <Gold.Chemscore.DEInternal.Weighted>
2.3504

> <Gold.Chemscore.Rot.Weighted>
3.6521

> <Gold.Chemscore.Internal.Correction.Weighted>
   9.000000E+99

> <Gold.Protein.RotatedTorsions>
[ 6907 6896 6895 6894 ] final -104.17 input  -60.11 | X-H torsion
[ 7974 7965 7964 7962 ] final   45.30 input  175.53 | X-H torsion
[ 8008 7997 7996 7995 ] final  101.62 input   59.86 | X-H torsion
[ 10167 10162 10161 10158 ] final   13.66 input  -65.29 | X-H torsion
[ 10718 10713 10712 10709 ] final  127.33 input   66.30 | X-H torsion
[ 10763 10752 10751 10750 ] final -125.77 input  -60.55 | X-H torsion
[ 11005 11000 10999 10996 ] final  -60.44 input  -57.11 | X-H torsion

> <Gold.Protein.ActiveResidues>
 VAL166  LYS551  ARG553  GLY616  TRP617  ASP618  TYR619  PRO620  LYS621  CYS622 
 ASP623  PHE694  ASN695  SER759  ASP760  ASP761  ALA762  ILE779  LEU786  VAL792 
 PHE793  MET794  SER795  GLU796  ALA797  LYS798  CYS799  TRP800  GLU811  SER814 

> <Gold.Protein.RotatedAtoms>
  150.7274  134.0319  159.3735 H   0  0  0  0  0  0  0  0  0  0  0  0  # atno 6907 bound_to 6896
  151.8288  135.0626  160.0443 H   0  0  0  0  0  0  0  0  0  0  0  0  # atno 6908 bound_to 6896
  152.2949  133.5561  159.5617 H   0  0  0  0  0  0  0  0  0  0  0  0  # atno 6909 bound_to 6896
  146.0492  139.4980  142.9729 H   0  0  0  0  0  0  0  0  0  0  0  0  # atno 7974 bound_to 7965
  156.1316  140.3194  155.8357 H   0  0  0  0  0  0  0  0  0  0  0  0  # atno 8008 bound_to 7997
  155.4321  140.0519  157.3035 H   0  0  0  0  0  0  0  0  0  0  0  0  # atno 8009 bound_to 7997
  154.4904  140.2090  155.9575 H   0  0  0  0  0  0  0  0  0  0  0  0  # atno 8010 bound_to 7997
  140.5988  143.8647  150.6944 H   0  0  0  0  0  0  0  0  0  0  0  0  # atno 10167 bound_to 10162
  157.5342  131.1098  150.8962 H   0  0  0  0  0  0  0  0  0  0  0  0  # atno 10718 bound_to 10713
  154.8739  135.4018  154.3321 H   0  0  0  0  0  0  0  0  0  0  0  0  # atno 10763 bound_to 10752
  153.4133  135.7021  153.6349 H   0  0  0  0  0  0  0  0  0  0  0  0  # atno 10764 bound_to 10752
  153.5042  135.3721  155.2525 H   0  0  0  0  0  0  0  0  0  0  0  0  # atno 10765 bound_to 10752
  141.1287  133.6622  156.5223 H   0  0  0  0  0  0  0  0  0  0  0  0  # atno 11005 bound_to 11000
  145.6753  141.0206  143.1636 LP  0  0  0  0  0  0  0  0  0  0  0  0  # atno 17320 bound_to 7965
  144.7114  139.8358  143.7413 LP  0  0  0  0  0  0  0  0  0  0  0  0  # atno 17321 bound_to 7965
  140.2188  143.3825  152.1659 LP  0  0  0  0  0  0  0  0  0  0  0  0  # atno 17342 bound_to 10162
  139.5276  144.7122  151.5171 LP  0  0  0  0  0  0  0  0  0  0  0  0  # atno 17343 bound_to 10162
  156.9534  130.5428  149.5283 LP  0  0  0  0  0  0  0  0  0  0  0  0  # atno 17370 bound_to 10713
  156.0445  130.5524  150.8850 LP  0  0  0  0  0  0  0  0  0  0  0  0  # atno 17371 bound_to 10713
  140.4282  134.7126  157.4927 LP  0  0  0  0  0  0  0  0  0  0  0  0  # atno 17394 bound_to 11000
  140.0312  134.6403  155.9104 LP  0  0  0  0  0  0  0  0  0  0  0  0  # atno 17395 bound_to 11000

$$$$
