AV-unprocessed.smi:228|AV-procd|sdf|1744|dock2
  -GOLD-   2262020253D 1   1.00000     0.00000
 Structure written by MMmdl.
 60 63  0  0  0  0  0  0  0  0  2 V2000
  146.7662  142.1809  155.1026 C   0  0  0  0  0  0  0  0  0  0  0  0
  147.6441  141.1590  154.5462 N   0  0  0  0  0  0  0  0  0  0  0  0
  149.0755  141.3114  154.8202 C   0  0  0  0  0  0  0  0  0  0  0  0
  149.4021  141.4395  156.3266 C   0  0  1  0  0  0  0  0  0  0  0  0
  149.0892  140.2105  156.9502 O   0  0  0  0  0  0  0  0  0  0  0  0
  150.8995  141.7200  156.5615 C   0  0  0  0  0  0  0  0  0  0  0  0
  151.1462  142.4198  157.8474 N   0  3  0  0  0  0  0  0  0  0  0  0
  152.1482  141.7273  158.6914 C   0  0  0  0  0  0  0  0  0  0  0  0
  152.3187  142.4607  160.0328 C   0  0  0  0  0  0  0  0  0  0  0  0
  152.6915  143.8122  159.7942 O   0  0  0  0  0  0  0  0  0  0  0  0
  151.7000  144.5159  159.0561 C   0  0  0  0  0  0  0  0  0  0  0  0
  151.5099  143.8499  157.6831 C   0  0  0  0  0  0  0  0  0  0  0  0
  147.1041  139.9140  154.6220 C   0  0  0  0  0  0  0  0  0  0  0  0
  146.9248  139.3218  155.8339 N   0  0  0  0  0  0  0  0  0  0  0  0
  146.4033  138.0949  155.9148 C   0  0  0  0  0  0  0  0  0  0  0  0
  146.0021  137.2945  154.9269 N   0  0  0  0  0  0  0  0  0  0  0  0
  146.1758  137.8802  153.7073 C   0  0  0  0  0  0  0  0  0  0  0  0
  146.7131  139.1771  153.4690 C   0  0  0  0  0  0  0  0  0  0  0  0
  146.7505  139.4300  152.1034 N   0  0  0  0  0  0  0  0  0  0  0  0
  146.2567  138.3488  151.5650 C   0  0  0  0  0  0  0  0  0  0  0  0
  145.8877  137.3634  152.4538 N   0  0  0  0  0  0  0  0  0  0  0  0
  145.3328  136.0801  152.1228 C   0  0  0  0  0  0  0  0  0  0  0  0
  146.0495  134.7797  152.4970 C   0  0  0  0  0  0  0  0  0  0  0  0
  145.5165  134.1244  151.2010 C   0  0  0  0  0  0  0  0  0  0  0  0
  146.5049  133.2248  150.4326 C   0  0  0  0  0  0  0  0  0  0  0  0
  146.7811  132.0163  151.1127 O   0  0  0  0  0  0  0  0  0  0  0  0
  144.2201  133.3166  151.3968 C   0  0  0  0  0  0  0  0  0  0  0  0
  143.0965  134.1612  151.5444 O   0  0  0  0  0  0  0  0  0  0  0  0
  145.3236  135.5685  150.6803 C   0  0  0  0  0  0  0  0  0  0  0  0
  145.8480  142.2753  154.5228 H   0  0  0  0  0  0  0  0  0  0  0  0
  147.2544  143.1559  155.1005 H   0  0  0  0  0  0  0  0  0  0  0  0
  146.4989  141.9401  156.1324 H   0  0  0  0  0  0  0  0  0  0  0  0
  149.6309  140.4793  154.3851 H   0  0  0  0  0  0  0  0  0  0  0  0
  149.4226  142.1960  154.2845 H   0  0  0  0  0  0  0  0  0  0  0  0
  148.8007  142.2194  156.7903 H   0  0  0  0  0  0  0  0  0  0  0  0
  148.9270  140.3721  157.8677 H   0  0  0  0  0  0  0  0  0  0  0  0
  151.4429  140.7738  156.5365 H   0  0  0  0  0  0  0  0  0  0  0  0
  151.3086  142.3241  155.7502 H   0  0  0  0  0  0  0  0  0  0  0  0
  151.8318  140.6996  158.8746 H   0  0  0  0  0  0  0  0  0  0  0  0
  153.1027  141.6814  158.1646 H   0  0  0  0  0  0  0  0  0  0  0  0
  151.3982  142.4224  160.6178 H   0  0  0  0  0  0  0  0  0  0  0  0
  153.0947  141.9796  160.6285 H   0  0  0  0  0  0  0  0  0  0  0  0
  150.7614  144.5391  159.6122 H   0  0  0  0  0  0  0  0  0  0  0  0
  152.0213  145.5499  158.9300 H   0  0  0  0  0  0  0  0  0  0  0  0
  152.4310  143.9296  157.1034 H   0  0  0  0  0  0  0  0  0  0  0  0
  150.7396  144.3836  157.1276 H   0  0  0  0  0  0  0  0  0  0  0  0
  146.2927  137.6967  156.9125 H   0  0  0  0  0  0  0  0  0  0  0  0
  146.1526  138.2401  150.4951 H   0  0  0  0  0  0  0  0  0  0  0  0
  144.3169  136.0694  152.5227 H   0  0  0  0  0  0  0  0  0  0  0  0
  147.1342  134.8857  152.5222 H   0  0  0  0  0  0  0  0  0  0  0  0
  145.6897  134.3229  153.4195 H   0  0  0  0  0  0  0  0  0  0  0  0
  146.1119  132.9713  149.4477 H   0  0  0  0  0  0  0  0  0  0  0  0
  147.4556  133.7333  150.2702 H   0  0  0  0  0  0  0  0  0  0  0  0
  147.3433  131.4867  150.5682 H   0  0  0  0  0  0  0  0  0  0  0  0
  144.0458  132.6456  150.5551 H   0  0  0  0  0  0  0  0  0  0  0  0
  144.2794  132.6846  152.2833 H   0  0  0  0  0  0  0  0  0  0  0  0
  142.5044  134.0027  150.8249 H   0  0  0  0  0  0  0  0  0  0  0  0
  144.3861  135.7452  150.1521 H   0  0  0  0  0  0  0  0  0  0  0  0
  146.1665  135.9368  150.0950 H   0  0  0  0  0  0  0  0  0  0  0  0
  150.2758  142.3877  158.3595 H   0  0  0  0  0  0  0  0  0  0  0  0
  1  2  1  0  0  0  0
  1 30  1  0  0  0  0
  1 31  1  0  0  0  0
  1 32  1  0  0  0  0
  2  3  1  0  0  0  0
  2 13  1  0  0  0  0
  3  4  1  0  0  0  0
  3 33  1  0  0  0  0
  3 34  1  0  0  0  0
  4  5  1  0  0  0  0
  4  6  1  0  0  0  0
  4 35  1  0  0  0  0
  5 36  1  0  0  0  0
  6  7  1  0  0  0  0
  6 37  1  0  0  0  0
  6 38  1  0  0  0  0
  7 12  1  0  0  0  0
  7  8  1  0  0  0  0
  7 60  1  0  0  0  0
  8  9  1  0  0  0  0
  8 39  1  0  0  0  0
  8 40  1  0  0  0  0
  9 10  1  0  0  0  0
  9 41  1  0  0  0  0
  9 42  1  0  0  0  0
 10 11  1  0  0  0  0
 11 12  1  0  0  0  0
 11 43  1  0  0  0  0
 11 44  1  0  0  0  0
 12 45  1  0  0  0  0
 12 46  1  0  0  0  0
 13 18  1  0  0  0  0
 13 14  2  0  0  0  0
 14 15  1  0  0  0  0
 15 16  2  0  0  0  0
 15 47  1  0  0  0  0
 16 17  1  0  0  0  0
 17 21  1  0  0  0  0
 17 18  2  0  0  0  0
 18 19  1  0  0  0  0
 19 20  2  0  0  0  0
 20 21  1  0  0  0  0
 20 48  1  0  0  0  0
 21 22  1  0  0  0  0
 22 29  1  0  0  0  0
 22 23  1  0  0  0  0
 22 49  1  0  0  0  0
 23 24  1  0  0  0  0
 23 50  1  0  0  0  0
 23 51  1  0  0  0  0
 24 25  1  0  0  0  0
 24 27  1  0  0  0  0
 24 29  1  0  0  0  0
 25 26  1  0  0  0  0
 25 52  1  0  0  0  0
 25 53  1  0  0  0  0
 26 54  1  0  0  0  0
 27 28  1  0  0  0  0
 27 55  1  0  0  0  0
 27 56  1  0  0  0  0
 28 57  1  0  0  0  0
 29 58  1  0  0  0  0
 29 59  1  0  0  0  0
M  CHG  1   7   1
M  END
> <s_m_source_file>
AV-unprocessed.smi

> <i_m_source_file_index>
228

> <i_lp_mmshare_version>
43012

> <i_f3d_flags>
0

> <s_epik_input>
W0NIMl0xW0NIMl1PW0NIMl1bQ0gyXU4xW0NIMl1bQ0BASF0oW09IXSlbQ0gyXU4oW0NIM10pYyhuW2NIXW4yKWMoYzIzKW5bY0hdbjNbQ0hdKFtDSDJdNClbQ0gyXUM0KFtDSDJdW09IXSlbQ0gyXVtPSF0=

> <s_epik_cmdline>
J2VwaWtfcHl0aG9uJywgJy1waCcsICc3LjAnLCAnLXRuJywgJzgnLCAnLW1hJywgJzIwMCcsICctbWV0YWxfYmluZGluZycsICctaW1hZScsICc8aW5maWxlLm1hZT4nLCAnLW9tYWUnLCAnPG91dGZpbGUubWFlPic=

> <r_lp_tautomer_probability>
1

> <r_epik_Ionization_Penalty>
0.403032

> <r_epik_Ionization_Penalty_Charging>
0.40072

> <r_epik_Ionization_Penalty_Neutral>
0.00231206

> <r_epik_State_Penalty>
0.387266

> <r_epik_Charging_Adjusted_Penalty>
0.787986

> <i_epik_Tot_Q>
1

> <i_epik_Tot_abs_Q>
1

> <r_epik_Metal_State_Penalty>
0.385845

> <b_epik_Metal_Only>
0

> <s_lp_Force_Field>
OPLS_2005

> <r_lp_Energy>
50.3724

> <b_lp_Chiralities_Consistent>
1

> <s_lp_Variant>
AV-unprocessed.smi:228-2

> <Gold.Version>
5.8.1

> <Gold.Id.Protein>
6NUR|6NUR_protein|mol2

> <Gold.PLP.Fitness>
54.2353

> <Gold.PLP.PLP>
-49.1900

> <Gold.PLP.part.hbond>
-2.0000

> <Gold.PLP.part.metal>
0.0000

> <Gold.PLP.part.buried>
-6.1254

> <Gold.PLP.part.nonpolar>
-43.2592

> <Gold.PLP.part.repulsive>
1.6285

> <Gold.PLP.ligand.clash>
0.0000

> <Gold.PLP.ligand.torsion>
1.9807

> <Gold.PLP.Chemscore.Hbond>
1.9913

> <Gold.PLP.Chemscore.CHOScore>
0.6074

> <Gold.PLP.Chemscore.Metal>
0.0000

> <Gold.Chemscore.Hbonds>
donor molecule, donor type, donor heavy atom, donor atom, acceptor molecule, acceptor atom, score
      L1  H    26    54       P1 10747  0.96
      L1  H    28    57       P1 10186  1.00
      L1  C    20    48       P1 10171  0.64

> <Gold.PLP.Chemscore.Internal.Correction>
1.2109

> <Gold.Rescore>
     Score         DG    S(hbond)    S(metal)    S(lipo)     H(rot)  DE(clash)    DE(int)     intcor
      5.74     -10.89       1.69        0.00     109.95       5.11       0.68       4.47       ----

> <Gold.Chemscore.Fitness>
5.7394

> <Gold.Chemscore.DG>
-10.8899

> <Gold.Chemscore.ZeroCoef>
-5.4800

> <Gold.Chemscore.Hbond>
1.6885

> <Gold.Chemscore.Metal>
0.0000

> <Gold.Chemscore.Lipo>
109.9531

> <Gold.Chemscore.Internal_Hbond>
0.0000

> <Gold.Chemscore.DEClash>
0.6818

> <Gold.Chemscore.DEInternal>
4.4687

> <Gold.Chemscore.Rot>
5.1149

> <Gold.Chemscore.Internal.Correction>
   9.000000E+99

> <Gold.Chemscore.Hbonds>
donor molecule, donor type, donor heavy atom, donor atom, acceptor molecule, acceptor atom, score
      L1  H    26    54       P1 10747  0.92
      L1  H    28    57       P1 10186  0.57

> <Gold.Chemscore.Hbond.Weighted>
-5.6396

> <Gold.Chemscore.Metal.Weighted>
-0.0000

> <Gold.Chemscore.Lipo.Weighted>
-12.8645

> <Gold.Chemscore.Internal_Hbond.Weighted>
0.0000

> <Gold.Chemscore.DEClash.Weighted>
0.6818

> <Gold.Chemscore.DEInternal.Weighted>
4.4687

> <Gold.Chemscore.Rot.Weighted>
13.0942

> <Gold.Chemscore.Internal.Correction.Weighted>
   9.000000E+99

> <Gold.Protein.RotatedTorsions>
[ 6907 6896 6895 6894 ] final -148.85 input  -60.11 | X-H torsion
[ 7974 7965 7964 7962 ] final  103.00 input  175.53 | X-H torsion
[ 8008 7997 7996 7995 ] final -140.84 input   59.86 | X-H torsion
[ 10167 10162 10161 10158 ] final  170.81 input  -65.29 | X-H torsion
[ 10718 10713 10712 10709 ] final  174.84 input   66.30 | X-H torsion
[ 10763 10752 10751 10750 ] final  162.67 input  -60.55 | X-H torsion
[ 11005 11000 10999 10996 ] final  104.40 input  -57.11 | X-H torsion

> <Gold.Protein.ActiveResidues>
 VAL166  LYS551  ARG553  GLY616  TRP617  ASP618  TYR619  PRO620  LYS621  CYS622 
 ASP623  PHE694  ASN695  SER759  ASP760  ASP761  ALA762  ILE779  LEU786  VAL792 
 PHE793  MET794  SER795  GLU796  ALA797  LYS798  CYS799  TRP800  GLU811  SER814 

> <Gold.Protein.RotatedAtoms>
  151.1757  133.4756  159.2593 H   0  0  0  0  0  0  0  0  0  0  0  0  # atno 6907 bound_to 6896
  151.1310  135.0130  159.8592 H   0  0  0  0  0  0  0  0  0  0  0  0  # atno 6908 bound_to 6896
  152.5460  134.1659  159.8630 H   0  0  0  0  0  0  0  0  0  0  0  0  # atno 6909 bound_to 6896
  145.3516  139.2438  143.3555 H   0  0  0  0  0  0  0  0  0  0  0  0  # atno 7974 bound_to 7965
  155.4680  140.0551  157.2983 H   0  0  0  0  0  0  0  0  0  0  0  0  # atno 8008 bound_to 7997
  154.4710  140.2040  155.9950 H   0  0  0  0  0  0  0  0  0  0  0  0  # atno 8009 bound_to 7997
  156.1055  140.3212  155.8005 H   0  0  0  0  0  0  0  0  0  0  0  0  # atno 8010 bound_to 7997
  139.5029  144.3555  151.9879 H   0  0  0  0  0  0  0  0  0  0  0  0  # atno 10167 bound_to 10162
  156.9437  131.0009  151.2963 H   0  0  0  0  0  0  0  0  0  0  0  0  # atno 10718 bound_to 10713
  154.2819  135.2763  155.2693 H   0  0  0  0  0  0  0  0  0  0  0  0  # atno 10763 bound_to 10752
  154.5210  135.5756  153.6684 H   0  0  0  0  0  0  0  0  0  0  0  0  # atno 10764 bound_to 10752
  152.9928  135.6204  154.2979 H   0  0  0  0  0  0  0  0  0  0  0  0  # atno 10765 bound_to 10752
  139.8791  134.9299  156.5356 H   0  0  0  0  0  0  0  0  0  0  0  0  # atno 11005 bound_to 11000
  146.2965  140.4133  142.8720 LP  0  0  0  0  0  0  0  0  0  0  0  0  # atno 17320 bound_to 7965
  144.8713  140.7276  143.6045 LP  0  0  0  0  0  0  0  0  0  0  0  0  # atno 17321 bound_to 7965
  140.2991  144.3666  150.6065 LP  0  0  0  0  0  0  0  0  0  0  0  0  # atno 17342 bound_to 10162
  140.5887  143.2169  151.7294 LP  0  0  0  0  0  0  0  0  0  0  0  0  # atno 17343 bound_to 10162
  157.5768  130.8349  149.8467 LP  0  0  0  0  0  0  0  0  0  0  0  0  # atno 17370 bound_to 10713
  156.0393  130.3743  150.1477 LP  0  0  0  0  0  0  0  0  0  0  0  0  # atno 17371 bound_to 10713
  140.8349  133.8250  155.9019 LP  0  0  0  0  0  0  0  0  0  0  0  0  # atno 17394 bound_to 11000
  140.9293  134.2042  157.4874 LP  0  0  0  0  0  0  0  0  0  0  0  0  # atno 17395 bound_to 11000

$$$$
