AV-unprocessed.smi:203|AV-procd|sdf|1589|dock2
  -GOLD-   2262019483D 1   1.00000     0.00000
 Structure written by MMmdl.
 57 61  0  0  0  0  0  0  0  0  1 V2000
  145.8447  142.5742  154.6867 O   0  0  0  0  0  0  0  0  0  0  0  0
  146.8471  141.8639  154.7031 C   0  0  0  0  0  0  0  0  0  0  0  0
  146.9916  140.5981  153.8761 C   0  0  0  0  0  0  0  0  0  0  0  0
  148.2888  139.9587  154.4128 C   0  0  2  0  0  0  0  0  0  0  0  0
  148.0742  138.6343  155.2125 C   0  0  1  0  0  0  0  0  0  0  0  0
  146.9109  137.7749  154.6495 C   0  0  0  0  0  0  0  0  0  0  0  0
  146.7216  136.4791  155.4485 C   0  0  0  0  0  0  0  0  0  0  0  0
  148.0359  135.6923  155.4816 C   0  0  0  0  0  0  0  0  0  0  0  0
  149.1634  136.5622  156.0518 C   0  0  0  0  0  0  0  0  0  0  0  0
  149.2967  137.8159  155.3098 N   0  0  0  0  0  0  0  0  0  0  0  0
  150.4212  138.4658  155.6849 C   0  0  0  0  0  0  0  0  0  0  0  0
  151.1579  139.0454  154.7055 N   0  0  0  0  0  0  0  0  0  0  0  0
  152.2726  139.7139  155.0171 C   0  0  0  0  0  0  0  0  0  0  0  0
  152.8178  139.9157  156.2190 N   0  0  0  0  0  0  0  0  0  0  0  0
  152.0818  139.3245  157.2038 C   0  0  0  0  0  0  0  0  0  0  0  0
  150.8796  138.5842  157.0273 C   0  0  0  0  0  0  0  0  0  0  0  0
  150.4147  138.1326  158.2569 N   0  0  0  0  0  0  0  0  0  0  0  0
  151.2948  138.5776  159.1119 C   0  0  0  0  0  0  0  0  0  0  0  0
  152.3281  139.3037  158.5653 N   0  0  0  0  0  0  0  0  0  0  0  0
  153.4361  139.9085  159.2827 C   0  0  0  0  0  0  0  0  0  0  0  0
  152.9882  141.0970  160.1607 C   0  0  1  0  0  0  0  0  0  0  0  0
  153.9621  141.3855  161.1439 O   0  0  0  0  0  0  0  0  0  0  0  0
  152.6842  142.3903  159.3760 C   0  0  2  0  0  0  0  0  0  0  0  0
  152.4092  143.6139  160.2556 C   0  0  0  0  0  0  0  0  0  0  0  0
  151.4561  144.4637  159.4261 C   0  0  0  0  0  0  0  0  0  0  0  0
  151.1307  143.5914  158.2130 C   0  0  0  0  0  0  0  0  0  0  0  0
  151.4917  142.2793  158.6133 O   0  0  0  0  0  0  0  0  0  0  0  0
  148.9669  141.0716  155.2406 C   0  0  0  0  0  0  0  0  0  0  0  0
  147.9431  142.0813  155.4270 N   0  0  0  0  0  0  0  0  0  0  0  0
  146.1173  139.9546  153.9769 H   0  0  0  0  0  0  0  0  0  0  0  0
  147.0929  140.8662  152.8240 H   0  0  0  0  0  0  0  0  0  0  0  0
  148.9498  139.7591  153.5690 H   0  0  0  0  0  0  0  0  0  0  0  0
  147.7980  138.9121  156.2302 H   0  0  0  0  0  0  0  0  0  0  0  0
  145.9753  138.3328  154.6584 H   0  0  0  0  0  0  0  0  0  0  0  0
  147.1006  137.5166  153.6076 H   0  0  0  0  0  0  0  0  0  0  0  0
  146.4035  136.7138  156.4650 H   0  0  0  0  0  0  0  0  0  0  0  0
  145.9315  135.8739  155.0036 H   0  0  0  0  0  0  0  0  0  0  0  0
  147.9196  134.7897  156.0819 H   0  0  0  0  0  0  0  0  0  0  0  0
  148.2967  135.3672  154.4736 H   0  0  0  0  0  0  0  0  0  0  0  0
  148.9627  136.7801  157.1016 H   0  0  0  0  0  0  0  0  0  0  0  0
  150.1023  136.0072  156.0165 H   0  0  0  0  0  0  0  0  0  0  0  0
  152.8033  140.1503  154.1839 H   0  0  0  0  0  0  0  0  0  0  0  0
  151.2153  138.3859  160.1722 H   0  0  0  0  0  0  0  0  0  0  0  0
  153.9161  139.1389  159.8883 H   0  0  0  0  0  0  0  0  0  0  0  0
  154.1764  140.2306  158.5501 H   0  0  0  0  0  0  0  0  0  0  0  0
  152.0882  140.8128  160.7072 H   0  0  0  0  0  0  0  0  0  0  0  0
  154.7560  140.9232  160.9210 H   0  0  0  0  0  0  0  0  0  0  0  0
  153.5117  142.6290  158.7042 H   0  0  0  0  0  0  0  0  0  0  0  0
  151.9218  143.3275  161.1878 H   0  0  0  0  0  0  0  0  0  0  0  0
  153.3264  144.1440  160.5136 H   0  0  0  0  0  0  0  0  0  0  0  0
  150.5553  144.6877  159.9985 H   0  0  0  0  0  0  0  0  0  0  0  0
  151.9047  145.4102  159.1229 H   0  0  0  0  0  0  0  0  0  0  0  0
  150.0807  143.6462  157.9249 H   0  0  0  0  0  0  0  0  0  0  0  0
  151.7368  143.8840  157.3540 H   0  0  0  0  0  0  0  0  0  0  0  0
  149.3600  140.7219  156.1952 H   0  0  0  0  0  0  0  0  0  0  0  0
  149.7960  141.5146  154.6874 H   0  0  0  0  0  0  0  0  0  0  0  0
  148.0627  142.8686  156.0481 H   0  0  0  0  0  0  0  0  0  0  0  0
  1  2  2  0  0  0  0
  2 29  1  0  0  0  0
  2  3  1  0  0  0  0
  3  4  1  0  0  0  0
  3 30  1  0  0  0  0
  3 31  1  0  0  0  0
  4  5  1  0  0  0  0
  4 28  1  0  0  0  0
  4 32  1  0  0  0  0
  5 10  1  0  0  0  0
  5  6  1  0  0  0  0
  5 33  1  0  0  0  0
  6  7  1  0  0  0  0
  6 34  1  0  0  0  0
  6 35  1  0  0  0  0
  7  8  1  0  0  0  0
  7 36  1  0  0  0  0
  7 37  1  0  0  0  0
  8  9  1  0  0  0  0
  8 38  1  0  0  0  0
  8 39  1  0  0  0  0
  9 10  1  0  0  0  0
  9 40  1  0  0  0  0
  9 41  1  0  0  0  0
 10 11  1  0  0  0  0
 11 16  1  0  0  0  0
 11 12  2  0  0  0  0
 12 13  1  0  0  0  0
 13 14  2  0  0  0  0
 13 42  1  0  0  0  0
 14 15  1  0  0  0  0
 15 19  1  0  0  0  0
 15 16  2  0  0  0  0
 16 17  1  0  0  0  0
 17 18  2  0  0  0  0
 18 19  1  0  0  0  0
 18 43  1  0  0  0  0
 19 20  1  0  0  0  0
 20 21  1  0  0  0  0
 20 44  1  0  0  0  0
 20 45  1  0  0  0  0
 21 22  1  0  0  0  0
 21 23  1  0  0  0  0
 21 46  1  0  0  0  0
 22 47  1  0  0  0  0
 23 27  1  0  0  0  0
 23 24  1  0  0  0  0
 23 48  1  0  0  0  0
 24 25  1  0  0  0  0
 24 49  1  0  0  0  0
 24 50  1  0  0  0  0
 25 26  1  0  0  0  0
 25 51  1  0  0  0  0
 25 52  1  0  0  0  0
 26 27  1  0  0  0  0
 26 53  1  0  0  0  0
 26 54  1  0  0  0  0
 28 29  1  0  0  0  0
 28 55  1  0  0  0  0
 28 56  1  0  0  0  0
 29 57  1  0  0  0  0
M  END
> <s_m_source_file>
AV-unprocessed.smi

> <i_m_source_file_index>
203

> <i_lp_mmshare_version>
43012

> <i_f3d_flags>
0

> <s_epik_input>
Tz1DMVtDSDJdW0NASF0oW0NIMl1bTkhdMSlbQ0BASF0yW0NIMl1bQ0gyXVtDSDJdW0NIMl1OMmMobltjSF1uMyljKGMzNCluW2NIXW40W0NIMl1bQ0BIXShbT0hdKVtDQEBIXTVbQ0gyXVtDSDJdW0NIMl1PNQ==

> <s_epik_cmdline>
J2VwaWtfcHl0aG9uJywgJy1waCcsICc3LjAnLCAnLXRuJywgJzgnLCAnLW1hJywgJzIwMCcsICctbWV0YWxfYmluZGluZycsICctaW1hZScsICc8aW5maWxlLm1hZT4nLCAnLW9tYWUnLCAnPG91dGZpbGUubWFlPic=

> <r_lp_tautomer_probability>
1

> <r_epik_Ionization_Penalty>
0.00175146

> <r_epik_Ionization_Penalty_Charging>
0

> <r_epik_Ionization_Penalty_Neutral>
0.00175146

> <r_epik_State_Penalty>
0.00109045

> <r_epik_Charging_Adjusted_Penalty>
0.00109045

> <i_epik_Tot_Q>
0

> <i_epik_Tot_abs_Q>
0

> <r_epik_Metal_State_Penalty>
-0

> <b_epik_Metal_Only>
0

> <s_lp_Force_Field>
OPLS_2005

> <r_lp_Energy>
57.3309

> <b_lp_Chiralities_Consistent>
1

> <s_lp_Variant>
AV-unprocessed.smi:203-8

> <Gold.Version>
5.8.1

> <Gold.Id.Protein>
6NUR|6NUR_protein|mol2

> <Gold.PLP.Fitness>
47.0917

> <Gold.PLP.PLP>
-43.6496

> <Gold.PLP.part.hbond>
-2.2033

> <Gold.PLP.part.metal>
0.0000

> <Gold.PLP.part.buried>
-5.9027

> <Gold.PLP.part.nonpolar>
-37.9146

> <Gold.PLP.part.repulsive>
0.6478

> <Gold.PLP.ligand.clash>
0.0000

> <Gold.PLP.ligand.torsion>
1.4209

> <Gold.PLP.Chemscore.Hbond>
2.0000

> <Gold.PLP.Chemscore.CHOScore>
0.0000

> <Gold.PLP.Chemscore.Metal>
0.0000

> <Gold.Chemscore.Hbonds>
donor molecule, donor type, donor heavy atom, donor atom, acceptor molecule, acceptor atom, score
      L1  H    29    57       P1  8028  0.57
      P1  H  7997  8009       L1    14  1.00

> <Gold.PLP.Chemscore.Internal.Correction>
0.2839

> <Gold.Rescore>
     Score         DG    S(hbond)    S(metal)    S(lipo)     H(rot)  DE(clash)    DE(int)     intcor
      9.56     -15.92       1.99        0.00      91.89       2.72       0.05       6.31       ----

> <Gold.Chemscore.Fitness>
9.5576

> <Gold.Chemscore.DG>
-15.9178

> <Gold.Chemscore.ZeroCoef>
-5.4800

> <Gold.Chemscore.Hbond>
1.9887

> <Gold.Chemscore.Metal>
0.0000

> <Gold.Chemscore.Lipo>
91.8904

> <Gold.Chemscore.Internal_Hbond>
0.0000

> <Gold.Chemscore.DEClash>
0.0514

> <Gold.Chemscore.DEInternal>
6.3088

> <Gold.Chemscore.Rot>
2.7171

> <Gold.Chemscore.Internal.Correction>
   9.000000E+99

> <Gold.Chemscore.Hbonds>
donor molecule, donor type, donor heavy atom, donor atom, acceptor molecule, acceptor atom, score
      L1  H    29    57       P1  8028  0.37
      P1  H  7997  8009       L1    14  0.78

> <Gold.Chemscore.Hbond.Weighted>
-6.6423

> <Gold.Chemscore.Metal.Weighted>
-0.0000

> <Gold.Chemscore.Lipo.Weighted>
-10.7512

> <Gold.Chemscore.Internal_Hbond.Weighted>
0.0000

> <Gold.Chemscore.DEClash.Weighted>
0.0514

> <Gold.Chemscore.DEInternal.Weighted>
6.3088

> <Gold.Chemscore.Rot.Weighted>
6.9557

> <Gold.Chemscore.Internal.Correction.Weighted>
   9.000000E+99

> <Gold.Protein.RotatedTorsions>
[ 6907 6896 6895 6894 ] final   53.07 input  -60.11 | X-H torsion
[ 7974 7965 7964 7962 ] final -133.15 input  175.53 | X-H torsion
[ 8008 7997 7996 7995 ] final -149.74 input   59.86 | X-H torsion
[ 10167 10162 10161 10158 ] final -159.60 input  -65.29 | X-H torsion
[ 10718 10713 10712 10709 ] final  -49.59 input   66.30 | X-H torsion
[ 10763 10752 10751 10750 ] final -141.56 input  -60.55 | X-H torsion
[ 11005 11000 10999 10996 ] final  -50.87 input  -57.11 | X-H torsion

> <Gold.Protein.ActiveResidues>
 VAL166  LYS551  ARG553  GLY616  TRP617  ASP618  TYR619  PRO620  LYS621  CYS622 
 ASP623  PHE694  ASN695  SER759  ASP760  ASP761  ALA762  ILE779  LEU786  VAL792 
 PHE793  MET794  SER795  GLU796  ALA797  LYS798  CYS799  TRP800  GLU811  SER814 

> <Gold.Protein.RotatedAtoms>
  152.3299  134.7273  160.0292 H   0  0  0  0  0  0  0  0  0  0  0  0  # atno 6907 bound_to 6896
  151.7693  133.3334  159.3448 H   0  0  0  0  0  0  0  0  0  0  0  0  # atno 6908 bound_to 6896
  150.7417  134.5965  159.6059 H   0  0  0  0  0  0  0  0  0  0  0  0  # atno 6909 bound_to 6896
  144.9220  140.7025  143.4959 H   0  0  0  0  0  0  0  0  0  0  0  0  # atno 7974 bound_to 7965
  155.6124  140.0673  157.2702 H   0  0  0  0  0  0  0  0  0  0  0  0  # atno 8008 bound_to 7997
  154.4250  140.1799  156.1334 H   0  0  0  0  0  0  0  0  0  0  0  0  # atno 8009 bound_to 7997
  156.0074  140.3330  155.6910 H   0  0  0  0  0  0  0  0  0  0  0  0  # atno 8010 bound_to 7997
  139.6602  143.9925  152.2220 H   0  0  0  0  0  0  0  0  0  0  0  0  # atno 10167 bound_to 10162
  156.1879  130.4152  149.9414 H   0  0  0  0  0  0  0  0  0  0  0  0  # atno 10718 bound_to 10713
  154.8541  135.3521  154.5887 H   0  0  0  0  0  0  0  0  0  0  0  0  # atno 10763 bound_to 10752
  153.6497  135.6994  153.5218 H   0  0  0  0  0  0  0  0  0  0  0  0  # atno 10764 bound_to 10752
  153.2904  135.4236  155.1120 H   0  0  0  0  0  0  0  0  0  0  0  0  # atno 10765 bound_to 10752
  141.0840  133.6647  156.3794 H   0  0  0  0  0  0  0  0  0  0  0  0  # atno 11005 bound_to 11000
  145.3281  139.1768  143.4552 LP  0  0  0  0  0  0  0  0  0  0  0  0  # atno 17320 bound_to 7965
  146.3209  140.3307  142.8640 LP  0  0  0  0  0  0  0  0  0  0  0  0  # atno 17321 bound_to 7965
  139.9663  144.6524  150.8032 LP  0  0  0  0  0  0  0  0  0  0  0  0  # atno 17342 bound_to 10162
  140.7577  143.3091  151.2888 LP  0  0  0  0  0  0  0  0  0  0  0  0  # atno 17343 bound_to 10162
  156.7163  130.8990  151.3614 LP  0  0  0  0  0  0  0  0  0  0  0  0  # atno 17370 bound_to 10713
  157.6910  130.9234  150.0514 LP  0  0  0  0  0  0  0  0  0  0  0  0  # atno 17371 bound_to 10713
  140.5405  134.6125  157.5378 LP  0  0  0  0  0  0  0  0  0  0  0  0  # atno 17394 bound_to 11000
  139.9656  134.7378  156.0145 LP  0  0  0  0  0  0  0  0  0  0  0  0  # atno 17395 bound_to 11000

$$$$
