AV-unprocessed.smi:2399|AV-procd|sdf|9500|dock7
  -GOLD-   2272013133D 1   1.00000     0.00000
 Structure written by MMmdl.
 53 55  0  0  0  0  0  0  0  0  2 V2000
  146.4891  137.6945  162.9673 C   0  0  0  0  0  0  0  0  0  0  0  0
  146.9315  137.3924  161.6523 O   0  0  0  0  0  0  0  0  0  0  0  0
  147.0104  136.0651  161.2778 C   0  0  0  0  0  0  0  0  0  0  0  0
  146.7540  134.9843  162.1596 C   0  0  0  0  0  0  0  0  0  0  0  0
  146.8591  133.6655  161.6848 C   0  0  0  0  0  0  0  0  0  0  0  0
  147.2192  133.4701  160.3397 C   0  0  0  0  0  0  0  0  0  0  0  0
  147.3493  132.0771  159.7607 C   0  0  0  0  0  0  0  0  0  0  0  0
  147.4634  134.4892  159.4916 N   0  0  0  0  0  0  0  0  0  0  0  0
  147.3646  135.7662  159.9368 C   0  0  0  0  0  0  0  0  0  0  0  0
  147.6077  136.8936  159.1046 N   0  0  0  0  0  0  0  0  0  0  0  0
  148.7595  137.2719  158.5238 C   0  0  0  0  0  0  0  0  0  0  0  0
  149.8348  136.6790  158.6150 O   0  0  0  0  0  0  0  0  0  0  0  0
  148.5940  138.3925  157.8060 N   0  0  0  0  0  0  0  0  0  0  0  0
  149.6372  139.0540  157.0279 C   0  0  2  0  0  0  0  0  0  0  0  0
  150.9433  139.0984  157.8404 C   0  0  0  0  0  0  0  0  0  0  0  0
  152.0303  139.9088  157.1085 C   0  0  0  0  0  0  0  0  0  0  0  0
  151.5741  141.2889  156.7835 N   0  3  2  0  0  0  0  0  0  0  0  0
  151.4926  142.2065  157.9599 C   0  0  0  0  0  0  0  0  0  0  0  0
  151.5656  143.6940  157.5897 C   0  0  0  0  0  0  0  0  0  0  0  0
  151.9512  144.4035  158.8901 C   0  0  0  0  0  0  0  0  0  0  0  0
  152.7262  143.3723  159.7213 C   0  0  0  0  0  0  0  0  0  0  0  0
  152.6691  142.0569  158.9358 C   0  0  0  0  0  0  0  0  0  0  0  0
  150.3443  141.2451  155.9452 C   0  0  0  0  0  0  0  0  0  0  0  0
  149.2011  140.4798  156.6375 C   0  0  0  0  0  0  0  0  0  0  0  0
  146.4788  138.7758  163.1030 H   0  0  0  0  0  0  0  0  0  0  0  0
  147.1580  137.2743  163.7194 H   0  0  0  0  0  0  0  0  0  0  0  0
  145.4752  137.3315  163.1405 H   0  0  0  0  0  0  0  0  0  0  0  0
  146.4780  135.1394  163.1913 H   0  0  0  0  0  0  0  0  0  0  0  0
  146.6667  132.8284  162.3398 H   0  0  0  0  0  0  0  0  0  0  0  0
  147.3428  131.3214  160.5465 H   0  0  0  0  0  0  0  0  0  0  0  0
  148.2820  131.9788  159.2044 H   0  0  0  0  0  0  0  0  0  0  0  0
  146.5212  131.8724  159.0822 H   0  0  0  0  0  0  0  0  0  0  0  0
  146.8007  137.4724  158.9238 H   0  0  0  0  0  0  0  0  0  0  0  0
  147.6760  138.8127  157.7890 H   0  0  0  0  0  0  0  0  0  0  0  0
  149.8251  138.4808  156.1178 H   0  0  0  0  0  0  0  0  0  0  0  0
  150.7603  139.5296  158.8253 H   0  0  0  0  0  0  0  0  0  0  0  0
  151.3020  138.0836  158.0172 H   0  0  0  0  0  0  0  0  0  0  0  0
  152.9518  139.9227  157.6887 H   0  0  0  0  0  0  0  0  0  0  0  0
  152.2831  139.4057  156.1741 H   0  0  0  0  0  0  0  0  0  0  0  0
  150.5647  142.0338  158.5064 H   0  0  0  0  0  0  0  0  0  0  0  0
  152.3442  143.8568  156.8426 H   0  0  0  0  0  0  0  0  0  0  0  0
  150.6286  144.0787  157.1858 H   0  0  0  0  0  0  0  0  0  0  0  0
  152.5352  145.3049  158.7023 H   0  0  0  0  0  0  0  0  0  0  0  0
  151.0511  144.7038  159.4284 H   0  0  0  0  0  0  0  0  0  0  0  0
  153.7583  143.6821  159.8890 H   0  0  0  0  0  0  0  0  0  0  0  0
  152.2588  143.2554  160.6999 H   0  0  0  0  0  0  0  0  0  0  0  0
  152.5605  141.1974  159.5982 H   0  0  0  0  0  0  0  0  0  0  0  0
  153.5998  141.9313  158.3803 H   0  0  0  0  0  0  0  0  0  0  0  0
  150.0201  142.2459  155.6635 H   0  0  0  0  0  0  0  0  0  0  0  0
  150.5904  140.7455  155.0071 H   0  0  0  0  0  0  0  0  0  0  0  0
  148.3403  140.4353  155.9694 H   0  0  0  0  0  0  0  0  0  0  0  0
  148.8696  141.0266  157.5209 H   0  0  0  0  0  0  0  0  0  0  0  0
  152.2932  141.6846  156.1945 H   0  0  0  0  0  0  0  0  0  0  0  0
  1  2  1  0  0  0  0
  1 25  1  0  0  0  0
  1 26  1  0  0  0  0
  1 27  1  0  0  0  0
  2  3  1  0  0  0  0
  3  9  1  0  0  0  0
  3  4  2  0  0  0  0
  4  5  1  0  0  0  0
  4 28  1  0  0  0  0
  5  6  2  0  0  0  0
  5 29  1  0  0  0  0
  6  7  1  0  0  0  0
  6  8  1  0  0  0  0
  7 30  1  0  0  0  0
  7 31  1  0  0  0  0
  7 32  1  0  0  0  0
  8  9  2  0  0  0  0
  9 10  1  0  0  0  0
 10 11  1  0  0  0  0
 10 33  1  0  0  0  0
 11 12  2  0  0  0  0
 11 13  1  0  0  0  0
 13 14  1  0  0  0  0
 13 34  1  0  0  0  0
 14 24  1  0  0  0  0
 14 15  1  0  0  0  0
 14 35  1  0  0  0  0
 15 16  1  0  0  0  0
 15 36  1  0  0  0  0
 15 37  1  0  0  0  0
 16 17  1  0  0  0  0
 16 38  1  0  0  0  0
 16 39  1  0  0  0  0
 17 18  1  0  0  0  0
 17 23  1  0  0  0  0
 17 53  1  0  0  0  0
 18 22  1  0  0  0  0
 18 19  1  0  0  0  0
 18 40  1  0  0  0  0
 19 20  1  0  0  0  0
 19 41  1  0  0  0  0
 19 42  1  0  0  0  0
 20 21  1  0  0  0  0
 20 43  1  0  0  0  0
 20 44  1  0  0  0  0
 21 22  1  0  0  0  0
 21 45  1  0  0  0  0
 21 46  1  0  0  0  0
 22 47  1  0  0  0  0
 22 48  1  0  0  0  0
 23 24  1  0  0  0  0
 23 49  1  0  0  0  0
 23 50  1  0  0  0  0
 24 51  1  0  0  0  0
 24 52  1  0  0  0  0
M  CHG  1  17   1
M  END
> <s_m_source_file>
AV-unprocessed.smi

> <i_m_source_file_index>
2399

> <i_lp_mmshare_version>
43012

> <i_f3d_flags>
0

> <s_epik_input>
W0NIM11PYzFbY0hdW2NIXWMoW0NIM10pbmMxW05IXUMoPU8pW05IXVtDSF0yW0NIMl1bQ0gyXU4oW0NIMl1bQ0gyXTIpW0NIXTNbQ0gyXVtDSDJdW0NIMl1bQ0gyXTM=

> <s_epik_cmdline>
J2VwaWtfcHl0aG9uJywgJy1waCcsICc3LjAnLCAnLXRuJywgJzgnLCAnLW1hJywgJzIwMCcsICctbWV0YWxfYmluZGluZycsICctaW1hZScsICc8aW5maWxlLm1hZT4nLCAnLW9tYWUnLCAnPG91dGZpbGUubWFlPic=

> <r_lp_tautomer_probability>
1

> <r_epik_Ionization_Penalty>
0.00183805

> <r_epik_Ionization_Penalty_Charging>
0.00179121

> <r_epik_Ionization_Penalty_Neutral>
4.68398e-05

> <r_epik_State_Penalty>
0.00121448

> <r_epik_Charging_Adjusted_Penalty>
0.0030057

> <i_epik_Tot_Q>
1

> <i_epik_Tot_abs_Q>
1

> <r_epik_Metal_State_Penalty>
-0

> <b_epik_Metal_Only>
0

> <s_lp_Force_Field>
OPLS_2005

> <r_lp_Energy>
44.4335

> <b_lp_Chiralities_Consistent>
1

> <s_lp_Variant>
AV-unprocessed.smi:2399-2

> <Gold.Version>
5.8.1

> <Gold.Id.Protein>
6NUR|6NUR_protein|mol2

> <Gold.PLP.Fitness>
51.8327

> <Gold.PLP.PLP>
-46.5864

> <Gold.PLP.part.hbond>
-3.0000

> <Gold.PLP.part.metal>
0.0000

> <Gold.PLP.part.buried>
-3.4880

> <Gold.PLP.part.nonpolar>
-39.5449

> <Gold.PLP.part.repulsive>
0.4205

> <Gold.PLP.ligand.clash>
0.0000

> <Gold.PLP.ligand.torsion>
1.1037

> <Gold.PLP.Chemscore.Hbond>
2.4663

> <Gold.PLP.Chemscore.CHOScore>
0.0000

> <Gold.PLP.Chemscore.Metal>
0.0000

> <Gold.Chemscore.Hbonds>
donor molecule, donor type, donor heavy atom, donor atom, acceptor molecule, acceptor atom, score
      P1  H  6896  6909       L1    12  0.24
      P1  H  6931  6943       L1     2  0.21
      P1  H  6934  6947       L1     2  0.96

> <Gold.PLP.Chemscore.Internal.Correction>
0.0549

> <Gold.Rescore>
     Score         DG    S(hbond)    S(metal)    S(lipo)     H(rot)  DE(clash)    DE(int)     intcor
     18.95     -21.65       1.50        0.00     125.52       1.38       0.08       2.62       ----

> <Gold.Chemscore.Fitness>
18.9478

> <Gold.Chemscore.DG>
-21.6469

> <Gold.Chemscore.ZeroCoef>
-5.4800

> <Gold.Chemscore.Hbond>
1.5034

> <Gold.Chemscore.Metal>
0.0000

> <Gold.Chemscore.Lipo>
125.5168

> <Gold.Chemscore.Internal_Hbond>
0.0000

> <Gold.Chemscore.DEClash>
0.0775

> <Gold.Chemscore.DEInternal>
2.6215

> <Gold.Chemscore.Rot>
1.3828

> <Gold.Chemscore.Internal.Correction>
   9.000000E+99

> <Gold.Chemscore.Hbonds>
donor molecule, donor type, donor heavy atom, donor atom, acceptor molecule, acceptor atom, score
      P1  H  6896  6909       L1    12  0.25
      P1  H  6931  6943       L1     2  0.02
      P1  H  6934  6947       L1     2  0.32

> <Gold.Chemscore.Hbond.Weighted>
-5.0213

> <Gold.Chemscore.Metal.Weighted>
-0.0000

> <Gold.Chemscore.Lipo.Weighted>
-14.6855

> <Gold.Chemscore.Internal_Hbond.Weighted>
0.0000

> <Gold.Chemscore.DEClash.Weighted>
0.0775

> <Gold.Chemscore.DEInternal.Weighted>
2.6215

> <Gold.Chemscore.Rot.Weighted>
3.5399

> <Gold.Chemscore.Internal.Correction.Weighted>
   9.000000E+99

> <Gold.Protein.RotatedTorsions>
[ 6907 6896 6895 6894 ] final   77.40 input  -60.11 | X-H torsion
[ 7974 7965 7964 7962 ] final  169.17 input  175.53 | X-H torsion
[ 8008 7997 7996 7995 ] final  -53.78 input   59.86 | X-H torsion
[ 10167 10162 10161 10158 ] final   -3.02 input  -65.29 | X-H torsion
[ 10718 10713 10712 10709 ] final   15.40 input   66.30 | X-H torsion
[ 10763 10752 10751 10750 ] final   -1.34 input  -60.55 | X-H torsion
[ 11005 11000 10999 10996 ] final   91.11 input  -57.11 | X-H torsion

> <Gold.Protein.ActiveResidues>
 VAL166  LYS551  ARG553  GLY616  TRP617  ASP618  TYR619  PRO620  LYS621  CYS622 
 ASP623  PHE694  ASN695  SER759  ASP760  ASP761  ALA762  ILE779  LEU786  VAL792 
 PHE793  MET794  SER795  GLU796  ALA797  LYS798  CYS799  TRP800  GLU811  SER814 

> <Gold.Protein.RotatedAtoms>
  152.5116  134.3823  159.9355 H   0  0  0  0  0  0  0  0  0  0  0  0  # atno 6907 bound_to 6896
  151.3780  133.3825  159.2714 H   0  0  0  0  0  0  0  0  0  0  0  0  # atno 6908 bound_to 6896
  150.9526  134.8944  159.7740 H   0  0  0  0  0  0  0  0  0  0  0  0  # atno 6909 bound_to 6896
  144.7364  139.9015  143.6409 H   0  0  0  0  0  0  0  0  0  0  0  0  # atno 7974 bound_to 7965
  154.4143  140.1192  156.5208 H   0  0  0  0  0  0  0  0  0  0  0  0  # atno 8008 bound_to 7997
  155.6704  140.3496  155.4797 H   0  0  0  0  0  0  0  0  0  0  0  0  # atno 8009 bound_to 7997
  155.9638  140.1128  157.0863 H   0  0  0  0  0  0  0  0  0  0  0  0  # atno 8010 bound_to 7997
  140.6874  143.6589  150.8284 H   0  0  0  0  0  0  0  0  0  0  0  0  # atno 10167 bound_to 10162
  157.0529  130.6277  149.5771 H   0  0  0  0  0  0  0  0  0  0  0  0  # atno 10718 bound_to 10713
  153.3437  135.6982  153.6846 H   0  0  0  0  0  0  0  0  0  0  0  0  # atno 10763 bound_to 10752
  153.5601  135.3536  155.2796 H   0  0  0  0  0  0  0  0  0  0  0  0  # atno 10764 bound_to 10752
  154.8641  135.4247  154.2655 H   0  0  0  0  0  0  0  0  0  0  0  0  # atno 10765 bound_to 10752
  139.8844  134.8654  156.3381 H   0  0  0  0  0  0  0  0  0  0  0  0  # atno 11005 bound_to 11000
  146.1068  139.4069  143.0312 LP  0  0  0  0  0  0  0  0  0  0  0  0  # atno 17320 bound_to 7965
  145.7500  140.9976  143.1255 LP  0  0  0  0  0  0  0  0  0  0  0  0  # atno 17321 bound_to 7965
  140.0298  143.5456  152.2765 LP  0  0  0  0  0  0  0  0  0  0  0  0  # atno 17342 bound_to 10162
  139.6244  144.7634  151.2670 LP  0  0  0  0  0  0  0  0  0  0  0  0  # atno 17343 bound_to 10162
  156.0002  130.5079  150.7634 LP  0  0  0  0  0  0  0  0  0  0  0  0  # atno 17370 bound_to 10713
  157.5016  131.0919  151.0308 LP  0  0  0  0  0  0  0  0  0  0  0  0  # atno 17371 bound_to 10713
  140.9677  133.7347  156.0490 LP  0  0  0  0  0  0  0  0  0  0  0  0  # atno 17394 bound_to 11000
  140.7910  134.3617  157.5464 LP  0  0  0  0  0  0  0  0  0  0  0  0  # atno 17395 bound_to 11000

$$$$
