AV-unprocessed.smi:3249|AV-procd|sdf|12422|dock9
  -GOLD-   2272018303D 1   1.00000     0.00000
 Structure written by MMmdl.
 44 45  0  0  0  0  0  0  0  0  2 V2000
  145.4171  144.4428  152.9966 C   0  0  0  0  0  0  0  0  0  0  0  0
  145.9885  143.4334  153.9500 C   0  0  0  0  0  0  0  0  0  0  0  0
  145.6983  143.2762  155.3347 C   0  0  0  0  0  0  0  0  0  0  0  0
  146.3795  142.2894  155.8926 N   0  0  0  0  0  0  0  0  0  0  0  0
  147.1223  141.7754  154.8869 N   0  0  0  0  0  0  0  0  0  0  0  0
  148.0339  140.6631  155.1345 C   0  0  1  0  0  0  0  0  0  0  0  0
  147.5847  139.4434  154.3085 C   0  0  0  0  0  0  0  0  0  0  0  0
  149.5159  141.0596  154.8860 C   0  0  2  0  0  0  0  0  0  0  0  0
  150.4680  139.8509  154.9736 C   0  0  0  0  0  0  0  0  0  0  0  0
  149.9302  142.0996  155.8576 N   0  3  0  0  0  0  0  0  0  0  0  0
  149.6174  141.8065  157.2724 C   0  0  0  0  0  0  0  0  0  0  0  0
  150.4745  142.6558  158.2230 C   0  0  1  0  0  0  0  0  0  0  0  0
  151.4418  141.8050  159.0728 C   0  0  0  0  0  0  0  0  0  0  0  0
  152.3438  142.7034  159.9267 C   0  0  0  0  0  0  0  0  0  0  0  0
  153.0361  143.7386  159.0343 C   0  0  0  0  0  0  0  0  0  0  0  0
  151.9987  144.4893  158.1846 C   0  0  0  0  0  0  0  0  0  0  0  0
  151.2322  143.5606  157.4233 O   0  0  0  0  0  0  0  0  0  0  0  0
  146.9126  142.4573  153.7062 C   0  0  0  0  0  0  0  0  0  0  0  0
  144.4958  144.8840  153.3774 H   0  0  0  0  0  0  0  0  0  0  0  0
  145.1830  143.9974  152.0295 H   0  0  0  0  0  0  0  0  0  0  0  0
  146.1137  145.2612  152.8144 H   0  0  0  0  0  0  0  0  0  0  0  0
  145.0179  143.8488  155.9480 H   0  0  0  0  0  0  0  0  0  0  0  0
  147.9285  140.4017  156.1887 H   0  0  0  0  0  0  0  0  0  0  0  0
  148.1246  138.5404  154.5910 H   0  0  0  0  0  0  0  0  0  0  0  0
  147.7387  139.6062  153.2412 H   0  0  0  0  0  0  0  0  0  0  0  0
  146.5244  139.2379  154.4609 H   0  0  0  0  0  0  0  0  0  0  0  0
  149.5908  141.4828  153.8829 H   0  0  0  0  0  0  0  0  0  0  0  0
  150.2396  139.1026  154.2155 H   0  0  0  0  0  0  0  0  0  0  0  0
  150.4061  139.3673  155.9490 H   0  0  0  0  0  0  0  0  0  0  0  0
  151.5060  140.1416  154.8147 H   0  0  0  0  0  0  0  0  0  0  0  0
  150.9347  142.1857  155.7913 H   0  0  0  0  0  0  0  0  0  0  0  0
  148.5589  141.9690  157.4749 H   0  0  0  0  0  0  0  0  0  0  0  0
  149.8182  140.7501  157.4561 H   0  0  0  0  0  0  0  0  0  0  0  0
  149.8156  143.2340  158.8738 H   0  0  0  0  0  0  0  0  0  0  0  0
  150.8874  141.1223  159.7172 H   0  0  0  0  0  0  0  0  0  0  0  0
  152.0594  141.1864  158.4200 H   0  0  0  0  0  0  0  0  0  0  0  0
  151.7457  143.2118  160.6841 H   0  0  0  0  0  0  0  0  0  0  0  0
  153.0834  142.1052  160.4599 H   0  0  0  0  0  0  0  0  0  0  0  0
  153.6072  144.4406  159.6426 H   0  0  0  0  0  0  0  0  0  0  0  0
  153.7507  143.2392  158.3785 H   0  0  0  0  0  0  0  0  0  0  0  0
  151.3411  145.0913  158.8140 H   0  0  0  0  0  0  0  0  0  0  0  0
  152.4999  145.1755  157.5014 H   0  0  0  0  0  0  0  0  0  0  0  0
  147.4328  142.1947  152.7967 H   0  0  0  0  0  0  0  0  0  0  0  0
  149.5149  142.9817  155.5944 H   0  0  0  0  0  0  0  0  0  0  0  0
  1  2  1  0  0  0  0
  1 19  1  0  0  0  0
  1 20  1  0  0  0  0
  1 21  1  0  0  0  0
  2 18  2  0  0  0  0
  2  3  1  0  0  0  0
  3  4  2  0  0  0  0
  3 22  1  0  0  0  0
  4  5  1  0  0  0  0
  5  6  1  0  0  0  0
  5 18  1  0  0  0  0
  6  7  1  0  0  0  0
  6  8  1  0  0  0  0
  6 23  1  0  0  0  0
  7 24  1  0  0  0  0
  7 25  1  0  0  0  0
  7 26  1  0  0  0  0
  8  9  1  0  0  0  0
  8 10  1  0  0  0  0
  8 27  1  0  0  0  0
  9 28  1  0  0  0  0
  9 29  1  0  0  0  0
  9 30  1  0  0  0  0
 10 11  1  0  0  0  0
 10 31  1  0  0  0  0
 10 44  1  0  0  0  0
 11 12  1  0  0  0  0
 11 32  1  0  0  0  0
 11 33  1  0  0  0  0
 12 17  1  0  0  0  0
 12 13  1  0  0  0  0
 12 34  1  0  0  0  0
 13 14  1  0  0  0  0
 13 35  1  0  0  0  0
 13 36  1  0  0  0  0
 14 15  1  0  0  0  0
 14 37  1  0  0  0  0
 14 38  1  0  0  0  0
 15 16  1  0  0  0  0
 15 39  1  0  0  0  0
 15 40  1  0  0  0  0
 16 17  1  0  0  0  0
 16 41  1  0  0  0  0
 16 42  1  0  0  0  0
 18 43  1  0  0  0  0
M  CHG  1  10   1
M  END
> <s_m_source_file>
AV-unprocessed.smi

> <i_m_source_file_index>
3249

> <i_lp_mmshare_version>
43012

> <i_f3d_flags>
0

> <s_epik_input>
W0NIM11jMVtjSF1ubihbY0hdMSlbQ0BIXShbQ0gzXSlbQ0BIXShbQ0gzXSlbTkhdW0NIMl1bQ0BASF0yW0NIMl1bQ0gyXVtDSDJdW0NIMl1PMg==

> <s_epik_cmdline>
J2VwaWtfcHl0aG9uJywgJy1waCcsICc3LjAnLCAnLXRuJywgJzgnLCAnLW1hJywgJzIwMCcsICctbWV0YWxfYmluZGluZycsICctaW1hZScsICc8aW5maWxlLm1hZT4nLCAnLW9tYWUnLCAnPG91dGZpbGUubWFlPic=

> <r_lp_tautomer_probability>
1

> <r_epik_Ionization_Penalty>
0.00659207

> <r_epik_Ionization_Penalty_Charging>
0.00656881

> <r_epik_Ionization_Penalty_Neutral>
2.32662e-05

> <r_epik_State_Penalty>
0.0048654

> <r_epik_Charging_Adjusted_Penalty>
0.0114342

> <i_epik_Tot_Q>
1

> <i_epik_Tot_abs_Q>
1

> <r_epik_Metal_State_Penalty>
-0

> <b_epik_Metal_Only>
0

> <s_lp_Force_Field>
OPLS_2005

> <r_lp_Energy>
17.782

> <b_lp_Chiralities_Consistent>
1

> <s_lp_Variant>
AV-unprocessed.smi:3249-6

> <Gold.Version>
5.8.1

> <Gold.Id.Protein>
6NUR|6NUR_protein|mol2

> <Gold.PLP.Fitness>
45.5276

> <Gold.PLP.PLP>
-41.4214

> <Gold.PLP.part.hbond>
-1.0000

> <Gold.PLP.part.metal>
0.0000

> <Gold.PLP.part.buried>
-5.8345

> <Gold.PLP.part.nonpolar>
-34.9422

> <Gold.PLP.part.repulsive>
0.4151

> <Gold.PLP.ligand.clash>
0.0000

> <Gold.PLP.ligand.torsion>
0.9987

> <Gold.PLP.Chemscore.Hbond>
2.0000

> <Gold.PLP.Chemscore.CHOScore>
0.0000

> <Gold.PLP.Chemscore.Metal>
0.0000

> <Gold.Chemscore.Hbonds>
donor molecule, donor type, donor heavy atom, donor atom, acceptor molecule, acceptor atom, score
      L1  H    10    44       P1  8028  2.00

> <Gold.PLP.Chemscore.Internal.Correction>
0.1036

> <Gold.Rescore>
     Score         DG    S(hbond)    S(metal)    S(lipo)     H(rot)  DE(clash)    DE(int)     intcor
     16.87     -17.91       1.00        0.00     111.32       1.53       0.10       0.93       ----

> <Gold.Chemscore.Fitness>
16.8742

> <Gold.Chemscore.DG>
-17.9087

> <Gold.Chemscore.ZeroCoef>
-5.4800

> <Gold.Chemscore.Hbond>
0.9968

> <Gold.Chemscore.Metal>
0.0000

> <Gold.Chemscore.Lipo>
111.3208

> <Gold.Chemscore.Internal_Hbond>
0.0000

> <Gold.Chemscore.DEClash>
0.1026

> <Gold.Chemscore.DEInternal>
0.9320

> <Gold.Chemscore.Rot>
1.5333

> <Gold.Chemscore.Internal.Correction>
   9.000000E+99

> <Gold.Chemscore.Hbonds>
donor molecule, donor type, donor heavy atom, donor atom, acceptor molecule, acceptor atom, score
      L1  H    10    44       P1  8028  1.00

> <Gold.Chemscore.Hbond.Weighted>
-3.3294

> <Gold.Chemscore.Metal.Weighted>
-0.0000

> <Gold.Chemscore.Lipo.Weighted>
-13.0245

> <Gold.Chemscore.Internal_Hbond.Weighted>
0.0000

> <Gold.Chemscore.DEClash.Weighted>
0.1026

> <Gold.Chemscore.DEInternal.Weighted>
0.9320

> <Gold.Chemscore.Rot.Weighted>
3.9252

> <Gold.Chemscore.Internal.Correction.Weighted>
   9.000000E+99

> <Gold.Protein.RotatedTorsions>
[ 6907 6896 6895 6894 ] final   65.26 input  -60.11 | X-H torsion
[ 7974 7965 7964 7962 ] final -134.41 input  175.53 | X-H torsion
[ 8008 7997 7996 7995 ] final   35.52 input   59.86 | X-H torsion
[ 10167 10162 10161 10158 ] final  113.03 input  -65.29 | X-H torsion
[ 10718 10713 10712 10709 ] final -139.35 input   66.30 | X-H torsion
[ 10763 10752 10751 10750 ] final  151.54 input  -60.55 | X-H torsion
[ 11005 11000 10999 10996 ] final   72.73 input  -57.11 | X-H torsion

> <Gold.Protein.ActiveResidues>
 VAL166  LYS551  ARG553  GLY616  TRP617  ASP618  TYR619  PRO620  LYS621  CYS622 
 ASP623  PHE694  ASN695  SER759  ASP760  ASP761  ALA762  ILE779  LEU786  VAL792 
 PHE793  MET794  SER795  GLU796  ALA797  LYS798  CYS799  TRP800  GLU811  SER814 

> <Gold.Protein.RotatedAtoms>
  152.4394  134.5621  159.9896 H   0  0  0  0  0  0  0  0  0  0  0  0  # atno 6907 bound_to 6896
  151.5722  133.3382  159.3000 H   0  0  0  0  0  0  0  0  0  0  0  0  # atno 6908 bound_to 6896
  150.8298  134.7579  159.6908 H   0  0  0  0  0  0  0  0  0  0  0  0  # atno 6909 bound_to 6896
  144.9106  140.6889  143.5028 H   0  0  0  0  0  0  0  0  0  0  0  0  # atno 7974 bound_to 7965
  155.1724  140.3293  155.4390 H   0  0  0  0  0  0  0  0  0  0  0  0  # atno 8008 bound_to 7997
  156.2505  140.1941  156.6777 H   0  0  0  0  0  0  0  0  0  0  0  0  # atno 8009 bound_to 7997
  154.6328  140.0580  156.9739 H   0  0  0  0  0  0  0  0  0  0  0  0  # atno 8010 bound_to 7997
  139.6491  144.7128  151.2083 H   0  0  0  0  0  0  0  0  0  0  0  0  # atno 10167 bound_to 10162
  156.3098  130.7475  151.1548 H   0  0  0  0  0  0  0  0  0  0  0  0  # atno 10718 bound_to 10713
  154.1054  135.2843  155.3242 H   0  0  0  0  0  0  0  0  0  0  0  0  # atno 10763 bound_to 10752
  154.6526  135.5363  153.7924 H   0  0  0  0  0  0  0  0  0  0  0  0  # atno 10764 bound_to 10752
  153.0364  135.6514  154.1215 H   0  0  0  0  0  0  0  0  0  0  0  0  # atno 10765 bound_to 10752
  139.9476  134.7285  156.0942 H   0  0  0  0  0  0  0  0  0  0  0  0  # atno 11005 bound_to 11000
  145.3462  139.1719  143.4459 LP  0  0  0  0  0  0  0  0  0  0  0  0  # atno 17320 bound_to 7965
  146.3156  140.3508  142.8656 LP  0  0  0  0  0  0  0  0  0  0  0  0  # atno 17321 bound_to 7965
  140.7529  143.6180  150.8540 LP  0  0  0  0  0  0  0  0  0  0  0  0  # atno 17342 bound_to 10162
  139.9826  143.5934  152.2937 LP  0  0  0  0  0  0  0  0  0  0  0  0  # atno 17343 bound_to 10162
  157.7388  131.0536  150.5271 LP  0  0  0  0  0  0  0  0  0  0  0  0  # atno 17370 bound_to 10713
  156.5409  130.4208  149.6154 LP  0  0  0  0  0  0  0  0  0  0  0  0  # atno 17371 bound_to 10713
  141.1130  133.6637  156.3025 LP  0  0  0  0  0  0  0  0  0  0  0  0  # atno 17394 bound_to 11000
  140.5797  134.5758  157.5477 LP  0  0  0  0  0  0  0  0  0  0  0  0  # atno 17395 bound_to 11000

$$$$
