AV-unprocessed.smi:1050|AV-procd|sdf|4613|dock2
  -GOLD-   22720 3113D 1   1.00000     0.00000
 Structure written by MMmdl.
 48 49  0  0  0  0  0  0  0  0  1 V2000
  148.3341  126.2089  151.9318 C   0  0  0  0  0  0  0  0  0  0  0  0
  148.2033  127.1607  152.9824 O   0  0  0  0  0  0  0  0  0  0  0  0
  147.5993  128.3681  152.6984 C   0  0  0  0  0  0  0  0  0  0  0  0
  146.6143  128.4124  151.6954 C   0  0  0  0  0  0  0  0  0  0  0  0
  145.9976  129.6428  151.4062 C   0  0  0  0  0  0  0  0  0  0  0  0
  146.3913  130.8000  152.1208 C   0  0  0  0  0  0  0  0  0  0  0  0
  145.7898  132.0760  151.9210 N   0  0  0  0  0  0  0  0  0  0  0  0
  144.9817  132.4868  150.9269 C   0  0  0  0  0  0  0  0  0  0  0  0
  144.6068  131.7794  149.9920 O   0  0  0  0  0  0  0  0  0  0  0  0
  144.5313  133.9556  151.0043 C   0  0  1  0  0  0  0  0  0  0  0  0
  143.6575  134.2142  152.2410 C   0  0  0  0  0  0  0  0  0  0  0  0
  145.6614  134.8203  151.0845 O   0  0  0  0  0  0  0  0  0  0  0  0
  145.3604  136.1957  151.2839 C   0  0  0  0  0  0  0  0  0  0  0  0
  147.3851  130.6560  153.1248 C   0  0  0  0  0  0  0  0  0  0  0  0
  147.8151  131.7708  153.8708 N   0  0  0  0  0  0  0  0  0  0  0  0
  149.2122  132.1331  153.6318 C   0  0  0  0  0  0  0  0  0  0  0  0
  149.5434  133.4891  154.2849 C   0  0  0  0  0  0  0  0  0  0  0  0
  149.1784  133.4376  155.7068 N   0  0  0  0  0  0  0  0  0  0  0  0
  150.0940  133.4768  156.7037 C   0  0  0  0  0  0  0  0  0  0  0  0
  151.5719  133.6648  156.3545 C   0  0  0  0  0  0  0  0  0  0  0  0
  149.7891  133.3692  157.8916 O   0  0  0  0  0  0  0  0  0  0  0  0
  147.7380  133.2039  155.8786 C   0  0  0  0  0  0  0  0  0  0  0  0
  147.3829  131.8357  155.2682 C   0  0  0  0  0  0  0  0  0  0  0  0
  147.9715  129.4663  153.3980 N   0  0  0  0  0  0  0  0  0  0  0  0
  148.8278  125.3157  152.3140 H   0  0  0  0  0  0  0  0  0  0  0  0
  148.9416  126.5982  151.1134 H   0  0  0  0  0  0  0  0  0  0  0  0
  147.3603  125.9077  151.5429 H   0  0  0  0  0  0  0  0  0  0  0  0
  146.3307  127.5171  151.1620 H   0  0  0  0  0  0  0  0  0  0  0  0
  145.2229  129.6683  150.6560 H   0  0  0  0  0  0  0  0  0  0  0  0
  146.0753  132.7898  152.5759 H   0  0  0  0  0  0  0  0  0  0  0  0
  143.9446  134.2077  150.1186 H   0  0  0  0  0  0  0  0  0  0  0  0
  142.7806  133.5657  152.2487 H   0  0  0  0  0  0  0  0  0  0  0  0
  143.3038  135.2452  152.2542 H   0  0  0  0  0  0  0  0  0  0  0  0
  144.2089  134.0452  153.1667 H   0  0  0  0  0  0  0  0  0  0  0  0
  146.2882  136.7543  151.4062 H   0  0  0  0  0  0  0  0  0  0  0  0
  144.7625  136.3412  152.1844 H   0  0  0  0  0  0  0  0  0  0  0  0
  144.8273  136.6272  150.4365 H   0  0  0  0  0  0  0  0  0  0  0  0
  149.8547  131.3538  154.0446 H   0  0  0  0  0  0  0  0  0  0  0  0
  149.4209  132.1796  152.5627 H   0  0  0  0  0  0  0  0  0  0  0  0
  150.5952  133.7283  154.1240 H   0  0  0  0  0  0  0  0  0  0  0  0
  148.9789  134.2862  153.7990 H   0  0  0  0  0  0  0  0  0  0  0  0
  151.7253  134.5919  155.8012 H   0  0  0  0  0  0  0  0  0  0  0  0
  151.9357  132.8290  155.7562 H   0  0  0  0  0  0  0  0  0  0  0  0
  152.1778  133.7149  157.2601 H   0  0  0  0  0  0  0  0  0  0  0  0
  147.4060  133.2420  156.9147 H   0  0  0  0  0  0  0  0  0  0  0  0
  147.1870  133.9941  155.3664 H   0  0  0  0  0  0  0  0  0  0  0  0
  146.3065  131.6700  155.3270 H   0  0  0  0  0  0  0  0  0  0  0  0
  147.8652  131.0420  155.8408 H   0  0  0  0  0  0  0  0  0  0  0  0
  1  2  1  0  0  0  0
  1 25  1  0  0  0  0
  1 26  1  0  0  0  0
  1 27  1  0  0  0  0
  2  3  1  0  0  0  0
  3 24  1  0  0  0  0
  3  4  2  0  0  0  0
  4  5  1  0  0  0  0
  4 28  1  0  0  0  0
  5  6  2  0  0  0  0
  5 29  1  0  0  0  0
  6  7  1  0  0  0  0
  6 14  1  0  0  0  0
  7  8  1  0  0  0  0
  7 30  1  0  0  0  0
  8  9  2  0  0  0  0
  8 10  1  0  0  0  0
 10 11  1  0  0  0  0
 10 12  1  0  0  0  0
 10 31  1  0  0  0  0
 11 32  1  0  0  0  0
 11 33  1  0  0  0  0
 11 34  1  0  0  0  0
 12 13  1  0  0  0  0
 13 35  1  0  0  0  0
 13 36  1  0  0  0  0
 13 37  1  0  0  0  0
 14 15  1  0  0  0  0
 14 24  2  0  0  0  0
 15 23  1  0  0  0  0
 15 16  1  0  0  0  0
 16 17  1  0  0  0  0
 16 38  1  0  0  0  0
 16 39  1  0  0  0  0
 17 18  1  0  0  0  0
 17 40  1  0  0  0  0
 17 41  1  0  0  0  0
 18 19  1  0  0  0  0
 18 22  1  0  0  0  0
 19 20  1  0  0  0  0
 19 21  2  0  0  0  0
 20 42  1  0  0  0  0
 20 43  1  0  0  0  0
 20 44  1  0  0  0  0
 22 23  1  0  0  0  0
 22 45  1  0  0  0  0
 22 46  1  0  0  0  0
 23 47  1  0  0  0  0
 23 48  1  0  0  0  0
M  END
> <s_m_source_file>
AV-unprocessed.smi

> <i_m_source_file_index>
1050

> <i_lp_mmshare_version>
43012

> <i_f3d_flags>
0

> <s_epik_input>
W0NIM11PYzFbY0hdW2NIXWMoW05IXUMoPU8pW0NASF0oW0NIM10pT1tDSDNdKWMobjEpTjJbQ0gyXVtDSDJdTihDKD1PKVtDSDNdKVtDSDJdW0NIMl0y

> <s_epik_cmdline>
J2VwaWtfcHl0aG9uJywgJy1waCcsICc3LjAnLCAnLXRuJywgJzgnLCAnLW1hJywgJzIwMCcsICctbWV0YWxfYmluZGluZycsICctaW1hZScsICc8aW5maWxlLm1hZT4nLCAnLW9tYWUnLCAnPG91dGZpbGUubWFlPic=

> <r_lp_tautomer_probability>
1

> <r_epik_Ionization_Penalty>
0.000150604

> <r_epik_Ionization_Penalty_Charging>
0

> <r_epik_Ionization_Penalty_Neutral>
0.000150604

> <r_epik_State_Penalty>
-0

> <r_epik_Charging_Adjusted_Penalty>
0

> <i_epik_Tot_Q>
0

> <i_epik_Tot_abs_Q>
0

> <r_epik_Metal_State_Penalty>
-0

> <b_epik_Metal_Only>
0

> <s_lp_Force_Field>
OPLS_2005

> <r_lp_Energy>
41.0836

> <b_lp_Chiralities_Consistent>
1

> <s_lp_Variant>
AV-unprocessed.smi:1050-2

> <Gold.Version>
5.8.1

> <Gold.Id.Protein>
6NUR|6NUR_protein|mol2

> <Gold.PLP.Fitness>
37.3260

> <Gold.PLP.PLP>
-35.2744

> <Gold.PLP.part.hbond>
-1.4194

> <Gold.PLP.part.metal>
0.0000

> <Gold.PLP.part.buried>
-5.9977

> <Gold.PLP.part.nonpolar>
-28.3681

> <Gold.PLP.part.repulsive>
0.5419

> <Gold.PLP.ligand.clash>
0.0000

> <Gold.PLP.ligand.torsion>
0.6473

> <Gold.PLP.Chemscore.Hbond>
1.0000

> <Gold.PLP.Chemscore.CHOScore>
0.0000

> <Gold.PLP.Chemscore.Metal>
0.0000

> <Gold.Chemscore.Hbonds>
donor molecule, donor type, donor heavy atom, donor atom, acceptor molecule, acceptor atom, score
      P1  H  6896  6908       L1    21  1.00

> <Gold.PLP.Chemscore.Internal.Correction>
0.3462

> <Gold.Rescore>
     Score         DG    S(hbond)    S(metal)    S(lipo)     H(rot)  DE(clash)    DE(int)     intcor
     11.71     -13.67       1.13        0.00      75.09       1.71       0.14       1.81       ----

> <Gold.Chemscore.Fitness>
11.7112

> <Gold.Chemscore.DG>
-13.6680

> <Gold.Chemscore.ZeroCoef>
-5.4800

> <Gold.Chemscore.Hbond>
1.1322

> <Gold.Chemscore.Metal>
0.0000

> <Gold.Chemscore.Lipo>
75.0881

> <Gold.Chemscore.Internal_Hbond>
0.0000

> <Gold.Chemscore.DEClash>
0.1448

> <Gold.Chemscore.DEInternal>
1.8120

> <Gold.Chemscore.Rot>
1.7106

> <Gold.Chemscore.Internal.Correction>
   9.000000E+99

> <Gold.Chemscore.Hbonds>
donor molecule, donor type, donor heavy atom, donor atom, acceptor molecule, acceptor atom, score
      P1  H  6896  6908       L1    21  0.98
      P1  H 10785 10796       L1     9  0.01

> <Gold.Chemscore.Hbond.Weighted>
-3.7817

> <Gold.Chemscore.Metal.Weighted>
-0.0000

> <Gold.Chemscore.Lipo.Weighted>
-8.7853

> <Gold.Chemscore.Internal_Hbond.Weighted>
0.0000

> <Gold.Chemscore.DEClash.Weighted>
0.1448

> <Gold.Chemscore.DEInternal.Weighted>
1.8120

> <Gold.Chemscore.Rot.Weighted>
4.3790

> <Gold.Chemscore.Internal.Correction.Weighted>
   9.000000E+99

> <Gold.Protein.RotatedTorsions>
[ 6907 6896 6895 6894 ] final  103.09 input  -60.11 | X-H torsion
[ 7974 7965 7964 7962 ] final  175.22 input  175.53 | X-H torsion
[ 8008 7997 7996 7995 ] final -131.89 input   59.86 | X-H torsion
[ 10167 10162 10161 10158 ] final  -59.21 input  -65.29 | X-H torsion
[ 10718 10713 10712 10709 ] final  135.75 input   66.30 | X-H torsion
[ 10763 10752 10751 10750 ] final  152.98 input  -60.55 | X-H torsion
[ 11005 11000 10999 10996 ] final -179.97 input  -57.11 | X-H torsion

> <Gold.Protein.ActiveResidues>
 VAL166  LYS551  ARG553  GLY616  TRP617  ASP618  TYR619  PRO620  LYS621  CYS622 
 ASP623  PHE694  ASN695  SER759  ASP760  ASP761  ALA762  ILE779  LEU786  VAL792 
 PHE793  MET794  SER795  GLU796  ALA797  LYS798  CYS799  TRP800  GLU811  SER814 

> <Gold.Protein.RotatedAtoms>
  152.5305  133.9878  159.7836 H   0  0  0  0  0  0  0  0  0  0  0  0  # atno 6907 bound_to 6896
  151.0120  133.5948  159.2688 H   0  0  0  0  0  0  0  0  0  0  0  0  # atno 6908 bound_to 6896
  151.3019  135.0777  159.9295 H   0  0  0  0  0  0  0  0  0  0  0  0  # atno 6909 bound_to 6896
  144.7206  139.9914  143.6440 H   0  0  0  0  0  0  0  0  0  0  0  0  # atno 7974 bound_to 7965
  155.3199  140.0461  157.3039 H   0  0  0  0  0  0  0  0  0  0  0  0  # atno 8008 bound_to 7997
  154.5386  140.2280  155.8646 H   0  0  0  0  0  0  0  0  0  0  0  0  # atno 8009 bound_to 7997
  156.1859  140.3062  155.9243 H   0  0  0  0  0  0  0  0  0  0  0  0  # atno 8010 bound_to 7997
  140.6149  143.2399  151.5621 H   0  0  0  0  0  0  0  0  0  0  0  0  # atno 10167 bound_to 10162
  157.4538  131.1068  151.0002 H   0  0  0  0  0  0  0  0  0  0  0  0  # atno 10718 bound_to 10713
  154.1289  135.2828  155.3190 H   0  0  0  0  0  0  0  0  0  0  0  0  # atno 10763 bound_to 10752
  154.6370  135.5415  153.7748 H   0  0  0  0  0  0  0  0  0  0  0  0  # atno 10764 bound_to 10752
  153.0288  135.6477  154.1440 H   0  0  0  0  0  0  0  0  0  0  0  0  # atno 10765 bound_to 10752
  140.4127  134.6677  157.4622 H   0  0  0  0  0  0  0  0  0  0  0  0  # atno 11005 bound_to 11000
  146.0409  139.3420  143.0698 LP  0  0  0  0  0  0  0  0  0  0  0  0  # atno 17320 bound_to 7965
  145.8336  140.9618  143.0836 LP  0  0  0  0  0  0  0  0  0  0  0  0  # atno 17321 bound_to 7965
  139.5390  144.2699  152.1312 LP  0  0  0  0  0  0  0  0  0  0  0  0  # atno 17342 bound_to 10162
  140.1906  144.4755  150.6481 LP  0  0  0  0  0  0  0  0  0  0  0  0  # atno 17343 bound_to 10162
  157.0822  130.5908  149.5423 LP  0  0  0  0  0  0  0  0  0  0  0  0  # atno 17370 bound_to 10713
  155.9998  130.5075  150.7621 LP  0  0  0  0  0  0  0  0  0  0  0  0  # atno 17371 bound_to 10713
  140.0256  134.6482  155.9178 LP  0  0  0  0  0  0  0  0  0  0  0  0  # atno 17394 bound_to 11000
  141.1815  133.6547  156.5039 LP  0  0  0  0  0  0  0  0  0  0  0  0  # atno 17395 bound_to 11000

$$$$
