AV-unprocessed.smi:1217|AV-procd|sdf|5102|dock7
  -GOLD-   22720 4153D 1   1.00000     0.00000
 Structure written by MMmdl.
 34 35  0  0  0  0  0  0  0  0  1 V2000
  151.4763  145.2644  158.9982 C   0  0  0  0  0  0  0  0  0  0  0  0
  151.8605  143.9302  158.3403 C   0  0  2  0  0  0  0  0  0  0  0  0
  150.8034  143.5518  157.4047 N   0  0  0  0  0  0  0  0  0  0  0  0
  150.6641  142.3489  156.8274 C   0  0  0  0  0  0  0  0  0  0  0  0
  151.4305  141.4053  157.0232 O   0  0  0  0  0  0  0  0  0  0  0  0
  149.5853  142.3189  156.0251 N   0  0  0  0  0  0  0  0  0  0  0  0
  149.1305  141.2522  155.2048 C   0  0  0  0  0  0  0  0  0  0  0  0
  147.9546  141.5226  154.4688 C   0  0  0  0  0  0  0  0  0  0  0  0
  147.4248  140.5314  153.6200 C   0  0  0  0  0  0  0  0  0  0  0  0
  148.0870  139.2945  153.5263 C   0  0  0  0  0  0  0  0  0  0  0  0
  149.2526  139.1069  154.2918 C   0  0  0  0  0  0  0  0  0  0  0  0
  149.7612  140.0550  155.1070 N   0  0  0  0  0  0  0  0  0  0  0  0
  152.0688  142.8068  159.3762 C   0  0  2  0  0  0  0  0  0  0  0  0
  152.7012  143.2602  160.6936 C   0  0  0  0  0  0  0  0  0  0  0  0
  153.3924  142.0097  161.2170 C   0  0  0  0  0  0  0  0  0  0  0  0
  153.3869  141.0522  160.0232 C   0  0  0  0  0  0  0  0  0  0  0  0
  153.0152  141.8554  158.9131 O   0  0  0  0  0  0  0  0  0  0  0  0
  152.2577  145.6152  159.6723 H   0  0  0  0  0  0  0  0  0  0  0  0
  150.5556  145.1727  159.5754 H   0  0  0  0  0  0  0  0  0  0  0  0
  151.3233  146.0409  158.2479 H   0  0  0  0  0  0  0  0  0  0  0  0
  152.7952  144.0868  157.7988 H   0  0  0  0  0  0  0  0  0  0  0  0
  150.1211  144.2624  157.1859 H   0  0  0  0  0  0  0  0  0  0  0  0
  149.0324  143.1621  155.9861 H   0  0  0  0  0  0  0  0  0  0  0  0
  147.4593  142.4791  154.5515 H   0  0  0  0  0  0  0  0  0  0  0  0
  146.5266  140.7184  153.0504 H   0  0  0  0  0  0  0  0  0  0  0  0
  147.7122  138.5106  152.8851 H   0  0  0  0  0  0  0  0  0  0  0  0
  149.7916  138.1722  154.2479 H   0  0  0  0  0  0  0  0  0  0  0  0
  151.1258  142.2939  159.5763 H   0  0  0  0  0  0  0  0  0  0  0  0
  153.4470  144.0344  160.5077 H   0  0  0  0  0  0  0  0  0  0  0  0
  151.9687  143.6621  161.3943 H   0  0  0  0  0  0  0  0  0  0  0  0
  154.4079  142.2380  161.5419 H   0  0  0  0  0  0  0  0  0  0  0  0
  152.8579  141.5765  162.0630 H   0  0  0  0  0  0  0  0  0  0  0  0
  154.3545  140.5768  159.8608 H   0  0  0  0  0  0  0  0  0  0  0  0
  152.6413  140.2682  160.1632 H   0  0  0  0  0  0  0  0  0  0  0  0
  1  2  1  0  0  0  0
  1 18  1  0  0  0  0
  1 19  1  0  0  0  0
  1 20  1  0  0  0  0
  2  3  1  0  0  0  0
  2 13  1  0  0  0  0
  2 21  1  0  0  0  0
  3  4  1  0  0  0  0
  3 22  1  0  0  0  0
  4  5  2  0  0  0  0
  4  6  1  0  0  0  0
  6  7  1  0  0  0  0
  6 23  1  0  0  0  0
  7 12  1  0  0  0  0
  7  8  2  0  0  0  0
  8  9  1  0  0  0  0
  8 24  1  0  0  0  0
  9 10  2  0  0  0  0
  9 25  1  0  0  0  0
 10 11  1  0  0  0  0
 10 26  1  0  0  0  0
 11 12  2  0  0  0  0
 11 27  1  0  0  0  0
 13 17  1  0  0  0  0
 13 14  1  0  0  0  0
 13 28  1  0  0  0  0
 14 15  1  0  0  0  0
 14 29  1  0  0  0  0
 14 30  1  0  0  0  0
 15 16  1  0  0  0  0
 15 31  1  0  0  0  0
 15 32  1  0  0  0  0
 16 17  1  0  0  0  0
 16 33  1  0  0  0  0
 16 34  1  0  0  0  0
M  END
> <s_m_source_file>
AV-unprocessed.smi

> <i_m_source_file_index>
1217

> <i_lp_mmshare_version>
43012

> <i_f3d_flags>
0

> <s_epik_input>
TzFbQ0gyXVtDSDJdW0NIMl1bQ0BIXTFbQ0BIXShbQ0gzXSlbTkhdQyg9TylbTkhdYzJbY0hdW2NIXVtjSF1bY0hdbjI=

> <s_epik_cmdline>
J2VwaWtfcHl0aG9uJywgJy1waCcsICc3LjAnLCAnLXRuJywgJzgnLCAnLW1hJywgJzIwMCcsICctbWV0YWxfYmluZGluZycsICctaW1hZScsICc8aW5maWxlLm1hZT4nLCAnLW9tYWUnLCAnPG91dGZpbGUubWFlPic=

> <r_lp_tautomer_probability>
1

> <r_epik_Ionization_Penalty>
4.51768e-05

> <r_epik_Ionization_Penalty_Charging>
0

> <r_epik_Ionization_Penalty_Neutral>
4.51768e-05

> <r_epik_State_Penalty>
-0

> <r_epik_Charging_Adjusted_Penalty>
0

> <i_epik_Tot_Q>
0

> <i_epik_Tot_abs_Q>
0

> <r_epik_Metal_State_Penalty>
-0

> <b_epik_Metal_Only>
0

> <s_lp_Force_Field>
OPLS_2005

> <r_lp_Energy>
20.7335

> <b_lp_Chiralities_Consistent>
1

> <s_lp_Variant>
AV-unprocessed.smi:1217-1

> <Gold.Version>
5.8.1

> <Gold.Id.Protein>
6NUR|6NUR_protein|mol2

> <Gold.PLP.Fitness>
43.5879

> <Gold.PLP.PLP>
-39.5293

> <Gold.PLP.part.hbond>
-2.0000

> <Gold.PLP.part.metal>
0.0000

> <Gold.PLP.part.buried>
-3.5646

> <Gold.PLP.part.nonpolar>
-35.0545

> <Gold.PLP.part.repulsive>
0.2118

> <Gold.PLP.ligand.clash>
0.0000

> <Gold.PLP.ligand.torsion>
0.7772

> <Gold.PLP.Chemscore.Hbond>
1.8640

> <Gold.PLP.Chemscore.CHOScore>
0.0000

> <Gold.PLP.Chemscore.Metal>
0.0000

> <Gold.Chemscore.Hbonds>
donor molecule, donor type, donor heavy atom, donor atom, acceptor molecule, acceptor atom, score
      L1  H     3    22       P1  8028  0.78
      L1  H     6    23       P1  8028  1.00

> <Gold.PLP.Chemscore.Internal.Correction>
0.0210

> <Gold.Rescore>
     Score         DG    S(hbond)    S(metal)    S(lipo)     H(rot)  DE(clash)    DE(int)     intcor
     14.67     -19.86       1.95        0.00      94.59       1.25       0.04       5.16       ----

> <Gold.Chemscore.Fitness>
14.6661

> <Gold.Chemscore.DG>
-19.8615

> <Gold.Chemscore.ZeroCoef>
-5.4800

> <Gold.Chemscore.Hbond>
1.9509

> <Gold.Chemscore.Metal>
0.0000

> <Gold.Chemscore.Lipo>
94.5896

> <Gold.Chemscore.Internal_Hbond>
0.0000

> <Gold.Chemscore.DEClash>
0.0383

> <Gold.Chemscore.DEInternal>
5.1571

> <Gold.Chemscore.Rot>
1.2506

> <Gold.Chemscore.Internal.Correction>
   9.000000E+99

> <Gold.Chemscore.Hbonds>
donor molecule, donor type, donor heavy atom, donor atom, acceptor molecule, acceptor atom, score
      L1  H     3    22       P1  8028  0.56
      L1  H     6    23       P1  8028  0.94

> <Gold.Chemscore.Hbond.Weighted>
-6.5161

> <Gold.Chemscore.Metal.Weighted>
-0.0000

> <Gold.Chemscore.Lipo.Weighted>
-11.0670

> <Gold.Chemscore.Internal_Hbond.Weighted>
0.0000

> <Gold.Chemscore.DEClash.Weighted>
0.0383

> <Gold.Chemscore.DEInternal.Weighted>
5.1571

> <Gold.Chemscore.Rot.Weighted>
3.2016

> <Gold.Chemscore.Internal.Correction.Weighted>
   9.000000E+99

> <Gold.Protein.RotatedTorsions>
[ 6907 6896 6895 6894 ] final   43.24 input  -60.11 | X-H torsion
[ 7974 7965 7964 7962 ] final  -53.53 input  175.53 | X-H torsion
[ 8008 7997 7996 7995 ] final  137.71 input   59.86 | X-H torsion
[ 10167 10162 10161 10158 ] final   27.12 input  -65.29 | X-H torsion
[ 10718 10713 10712 10709 ] final  -87.61 input   66.30 | X-H torsion
[ 10763 10752 10751 10750 ] final   30.29 input  -60.55 | X-H torsion
[ 11005 11000 10999 10996 ] final   54.84 input  -57.11 | X-H torsion

> <Gold.Protein.ActiveResidues>
 VAL166  LYS551  ARG553  GLY616  TRP617  ASP618  TYR619  PRO620  LYS621  CYS622 
 ASP623  PHE694  ASN695  SER759  ASP760  ASP761  ALA762  ILE779  LEU786  VAL792 
 PHE793  MET794  SER795  GLU796  ALA797  LYS798  CYS799  TRP800  GLU811  SER814 

> <Gold.Protein.RotatedAtoms>
  152.2178  134.8441  160.0489 H   0  0  0  0  0  0  0  0  0  0  0  0  # atno 6907 bound_to 6896
  151.9236  133.3587  159.3914 H   0  0  0  0  0  0  0  0  0  0  0  0  # atno 6908 bound_to 6896
  150.6992  134.4535  159.5391 H   0  0  0  0  0  0  0  0  0  0  0  0  # atno 6909 bound_to 6896
  145.8957  140.8034  142.9768 H   0  0  0  0  0  0  0  0  0  0  0  0  # atno 7974 bound_to 7965
  156.3001  140.2412  156.3954 H   0  0  0  0  0  0  0  0  0  0  0  0  # atno 8008 bound_to 7997
  154.8576  140.0421  157.1664 H   0  0  0  0  0  0  0  0  0  0  0  0  # atno 8009 bound_to 7997
  154.8931  140.2966  155.5363 H   0  0  0  0  0  0  0  0  0  0  0  0  # atno 8010 bound_to 7997
  140.4965  144.0383  150.6316 H   0  0  0  0  0  0  0  0  0  0  0  0  # atno 10167 bound_to 10162
  155.9985  130.4806  150.4893 H   0  0  0  0  0  0  0  0  0  0  0  0  # atno 10718 bound_to 10713
  153.0380  135.6468  154.1022 H   0  0  0  0  0  0  0  0  0  0  0  0  # atno 10763 bound_to 10752
  154.0734  135.2879  155.3305 H   0  0  0  0  0  0  0  0  0  0  0  0  # atno 10764 bound_to 10752
  154.6579  135.5402  153.8046 H   0  0  0  0  0  0  0  0  0  0  0  0  # atno 10765 bound_to 10752
  140.0654  134.5543  155.9105 H   0  0  0  0  0  0  0  0  0  0  0  0  # atno 11005 bound_to 11000
  144.6733  140.1599  143.7423 LP  0  0  0  0  0  0  0  0  0  0  0  0  # atno 17320 bound_to 7965
  145.8853  139.2345  143.1581 LP  0  0  0  0  0  0  0  0  0  0  0  0  # atno 17321 bound_to 7965
  140.3667  143.2877  152.0323 LP  0  0  0  0  0  0  0  0  0  0  0  0  # atno 17342 bound_to 10162
  139.4862  144.6261  151.7161 LP  0  0  0  0  0  0  0  0  0  0  0  0  # atno 17343 bound_to 10162
  157.2889  131.0622  151.2147 LP  0  0  0  0  0  0  0  0  0  0  0  0  # atno 17370 bound_to 10713
  157.3167  130.6916  149.6246 LP  0  0  0  0  0  0  0  0  0  0  0  0  # atno 17371 bound_to 10713
  141.1990  133.6605  156.5824 LP  0  0  0  0  0  0  0  0  0  0  0  0  # atno 17394 bound_to 11000
  140.3706  134.7608  157.4596 LP  0  0  0  0  0  0  0  0  0  0  0  0  # atno 17395 bound_to 11000

$$$$
