#       Name:                AV-unprocessed.smi:1703
#       Creating user name   scv26
#       Creation time:       Fri Mar 27 08:08:02 2020


#       File generated by GOLD software.
#

@<TRIPOS>MOLECULE
AV-unprocessed.smi:1703
    56    58     1
SMALL
NO_CHARGES


@<TRIPOS>ATOM
      1 ****        -4.8245   2.7909  -1.5630 C.3            1 S1                 0.0000
      2 ****        -3.3140   2.6571  -1.3407 C.3            1 S1                 0.0000
      3 ****        -2.8645   1.1855  -1.2719 C.3            1 S1                 0.0000
      4 ****        -1.4133   1.0974  -0.9845 N.4            1 S1                 1.0000
      5 ****        -0.9208  -0.3041  -0.9769 C.3            1 S1                 0.0000
      6 ****         0.5928  -0.4053  -1.2547 C.3            1 S1                 0.0000
      7 ****         0.8483   0.0667  -2.5629 O.3            1 S1                 0.0000
      8 ****         1.1220  -1.8531  -1.1425 C.3            1 S1                 0.0000
      9 ****         2.0810  -2.0093  -0.0394 N.pl3          1 S1                 0.0000
     10 ****         3.4239  -1.7701  -0.0085 C.2            1 S1                 0.0000
     11 ****         4.2711  -1.2755  -1.1336 C.3            1 S1                 0.0000
     12 ****         4.6877  -2.3168  -1.9880 O.3            1 S1                 0.0000
     13 ****         3.8599  -2.0730   1.2461 N.pl3          1 S1                 1.0000
     14 ****         2.7874  -2.5037   2.0279 C.ar           1 S1                 0.0000
     15 ****         2.7376  -2.9153   3.3560 C.ar           1 S1                 0.0000
     16 ****         1.4742  -3.2959   3.8534 C.ar           1 S1                 0.0000
     17 ****         0.3230  -3.2559   3.0405 C.ar           1 S1                 0.0000
     18 ****         0.3853  -2.8351   1.6955 C.ar           1 S1                 0.0000
     19 ****         1.6391  -2.4635   1.2093 C.ar           1 S1                 0.0000
     20 ****        -1.0853   1.8526   0.2501 C.3            1 S1                 0.0000
     21 ****        -1.5842   3.3062   0.1407 C.3            1 S1                 0.0000
     22 ****        -1.3352   4.1019   1.4267 C.3            1 S1                 0.0000
     23 ****        -2.9847   3.2990  -0.1137 O.3            1 S1                 0.0000
     24 ****        -5.1267   2.3216  -2.4998 H              1 S1                 0.0000
     25 ****        -5.1205   3.8393  -1.6068 H              1 S1                 0.0000
     26 ****        -5.3866   2.3203  -0.7560 H              1 S1                 0.0000
     27 ****        -2.7982   3.1614  -2.1599 H              1 S1                 0.0000
     28 ****        -3.4215   0.6543  -0.4981 H              1 S1                 0.0000
     29 ****        -3.0824   0.6924  -2.2203 H              1 S1                 0.0000
     30 ****        -1.1667  -0.7622  -0.0182 H              1 S1                 0.0000
     31 ****        -1.4504  -0.8831  -1.7353 H              1 S1                 0.0000
     32 ****         1.1475   0.2367  -0.5705 H              1 S1                 0.0000
     33 ****         0.4306  -0.5123  -3.1829 H              1 S1                 0.0000
     34 ****         0.3147  -2.5768  -1.0291 H              1 S1                 0.0000
     35 ****         1.6465  -2.1506  -2.0521 H              1 S1                 0.0000
     36 ****         3.7181  -0.5347  -1.7112 H              1 S1                 0.0000
     37 ****         5.1520  -0.7750  -0.7305 H              1 S1                 0.0000
     38 ****         3.9256  -2.6878  -2.4061 H              1 S1                 0.0000
     39 ****         3.6182  -2.9462   3.9813 H              1 S1                 0.0000
     40 ****         1.3865  -3.6258   4.8787 H              1 S1                 0.0000
     41 ****        -0.6275  -3.5564   3.4577 H              1 S1                 0.0000
     42 ****        -0.5049  -2.8139   1.0856 H              1 S1                 0.0000
     43 ****        -1.5440   1.3621   1.1102 H              1 S1                 0.0000
     44 ****        -0.0094   1.8538   0.4211 H              1 S1                 0.0000
     45 ****        -1.0731   3.8098  -0.6817 H              1 S1                 0.0000
     46 ****        -0.2712   4.1494   1.6598 H              1 S1                 0.0000
     47 ****        -1.8458   3.6494   2.2774 H              1 S1                 0.0000
     48 ****        -1.6980   5.1252   1.3272 H              1 S1                 0.0000
     49 ****        -0.9449   1.5609  -1.7507 H              1 S1                 0.0000
     50 ****         4.8246  -1.9929   1.5419 H              1 S1                 0.0000
     51 ****         1.8344   0.0812  -2.7283 LP             1 S1                 0.0000
     52 ****         0.4796   0.9906  -2.6648 LP             1 S1                 0.0000
     53 ****         5.1565  -3.0218  -1.4558 LP             1 S1                 0.0000
     54 ****         5.3097  -1.9543  -2.6821 LP             1 S1                 0.0000
     55 ****        -3.4435   2.8175   0.6331 LP             1 S1                 0.0000
     56 ****        -3.3087   4.2444  -0.1495 LP             1 S1                 0.0000
@<TRIPOS>BOND
    1    1    2 1     
    2    1   24 1     
    3    1   25 1     
    4    1   26 1     
    5    2   23 1     
    6    2    3 1     
    7    2   27 1     
    8    3    4 1     
    9    3   28 1     
   10    3   29 1     
   11    4    5 1     
   12    4   20 1     
   13    4   49 1     
   14    5    6 1     
   15    5   30 1     
   16    5   31 1     
   17    6    7 1     
   18    6    8 1     
   19    6   32 1     
   20    7   33 1     
   21    8    9 1     
   22    8   34 1     
   23    8   35 1     
   24    9   19 1     
   25    9   10 1     
   26   10   11 1     
   27   10   13 2     
   28   11   12 1     
   29   11   36 1     
   30   11   37 1     
   31   12   38 1     
   32   13   14 1     
   33   13   50 1     
   34   14   19 ar    
   35   14   15 ar    
   36   15   16 ar    
   37   15   39 1     
   38   16   17 ar    
   39   16   40 1     
   40   17   18 ar    
   41   17   41 1     
   42   18   19 ar    
   43   18   42 1     
   44   20   21 1     
   45   20   43 1     
   46   20   44 1     
   47   21   22 1     
   48   21   23 1     
   49   21   45 1     
   50   22   46 1     
   51   22   47 1     
   52   22   48 1     
   53    7   51 1     
   54    7   52 1     
   55   12   53 1     
   56   12   54 1     
   57   23   55 1     
   58   23   56 1     
@<TRIPOS>SUBSTRUCTURE
      1 S1             1
@<TRIPOS>SET
LONE_PAIRS      STATIC     ATOMS    <user>   **** ""
6 51 52 53 54 55 56
DONOR_HYDROGENS      STATIC     ATOMS    <user>   **** ""
4 49 33 38 50
ATOM$BLUE        STATIC     ATOMS    COLORGROUP SYSTEM
6 51 52 53 54 55 56
ATOM$RED        STATIC     ATOMS    COLORGROUP SYSTEM
4 49 33 38 50
