AV-unprocessed.smi:3189|AV-procd|sdf|12189|dock6
  -GOLD-   2272018 33D 1   1.00000     0.00000
 Structure written by MMmdl.
 30 31  0  0  0  0  0  0  0  0  1 V2000
  146.8781  139.4584  153.2935 C   0  0  0  0  0  0  0  0  0  0  0  0
  148.1727  139.6456  154.0624 C   0  0  0  0  0  0  0  0  0  0  0  0
  148.9728  138.5593  154.1337 N   0  0  0  0  0  0  0  0  0  0  0  0
  150.1398  138.6732  154.8003 C   0  0  0  0  0  0  0  0  0  0  0  0
  150.5606  139.8611  155.4282 C   0  0  0  0  0  0  0  0  0  0  0  0
  149.7174  140.9961  155.3691 C   0  0  0  0  0  0  0  0  0  0  0  0
  150.0530  142.2505  155.9486 N   0  0  0  0  0  0  0  0  0  0  0  0
  150.9485  142.5233  156.9177 C   0  0  0  0  0  0  0  0  0  0  0  0
  151.6196  141.6801  157.5093 O   0  0  0  0  0  0  0  0  0  0  0  0
  151.0070  143.8226  157.2586 N   0  0  0  0  0  0  0  0  0  0  0  0
  151.8505  144.4261  158.2467 C   0  0  2  0  0  0  0  0  0  0  0  0
  152.0903  143.6424  159.5185 C   0  0  0  0  0  0  0  0  0  0  0  0
  151.2473  144.8906  159.5586 C   0  0  2  0  0  0  0  0  0  0  0  0
  149.7576  144.8132  159.8294 C   0  0  0  0  0  0  0  0  0  0  0  0
  148.5001  140.8869  154.6568 C   0  0  0  0  0  0  0  0  0  0  0  0
  147.4292  142.2418  154.5219 Cl  0  0  0  0  0  0  0  0  0  0  0  0
  146.0221  139.6452  153.9425 H   0  0  0  0  0  0  0  0  0  0  0  0
  146.7878  138.4452  152.8995 H   0  0  0  0  0  0  0  0  0  0  0  0
  146.8322  140.1519  152.4532 H   0  0  0  0  0  0  0  0  0  0  0  0
  150.7623  137.7912  154.8284 H   0  0  0  0  0  0  0  0  0  0  0  0
  151.5175  139.8813  155.9264 H   0  0  0  0  0  0  0  0  0  0  0  0
  149.4941  143.0309  155.6354 H   0  0  0  0  0  0  0  0  0  0  0  0
  150.3156  144.4295  156.8420 H   0  0  0  0  0  0  0  0  0  0  0  0
  152.7156  144.9803  157.8848 H   0  0  0  0  0  0  0  0  0  0  0  0
  151.5837  142.6852  159.6296 H   0  0  0  0  0  0  0  0  0  0  0  0
  153.0831  143.6945  159.9610 H   0  0  0  0  0  0  0  0  0  0  0  0
  151.7162  145.7690  159.9977 H   0  0  0  0  0  0  0  0  0  0  0  0
  149.3367  143.8796  159.4546 H   0  0  0  0  0  0  0  0  0  0  0  0
  149.2467  145.6452  159.3445 H   0  0  0  0  0  0  0  0  0  0  0  0
  149.5703  144.8676  160.9018 H   0  0  0  0  0  0  0  0  0  0  0  0
  1  2  1  0  0  0  0
  1 17  1  0  0  0  0
  1 18  1  0  0  0  0
  1 19  1  0  0  0  0
  2 15  1  0  0  0  0
  2  3  2  0  0  0  0
  3  4  1  0  0  0  0
  4  5  2  0  0  0  0
  4 20  1  0  0  0  0
  5  6  1  0  0  0  0
  5 21  1  0  0  0  0
  6  7  1  0  0  0  0
  6 15  2  0  0  0  0
  7  8  1  0  0  0  0
  7 22  1  0  0  0  0
  8  9  2  0  0  0  0
  8 10  1  0  0  0  0
 10 11  1  0  0  0  0
 10 23  1  0  0  0  0
 11 13  1  0  0  0  0
 11 12  1  0  0  0  0
 11 24  1  0  0  0  0
 12 13  1  0  0  0  0
 12 25  1  0  0  0  0
 12 26  1  0  0  0  0
 13 14  1  0  0  0  0
 13 27  1  0  0  0  0
 14 28  1  0  0  0  0
 14 29  1  0  0  0  0
 14 30  1  0  0  0  0
 15 16  1  0  0  0  0
M  END
> <s_m_source_file>
AV-unprocessed.smi

> <i_m_source_file_index>
3189

> <i_lp_mmshare_version>
43012

> <i_f3d_flags>
0

> <s_epik_input>
W0NIM11jMW5bY0hdW2NIXWMoYzFDbClbTkhdQyg9TylbTkhdW0NAQEhdMltDSDJdW0NASF0yW0NIM10=

> <s_epik_cmdline>
J2VwaWtfcHl0aG9uJywgJy1waCcsICc3LjAnLCAnLXRuJywgJzgnLCAnLW1hJywgJzIwMCcsICctbWV0YWxfYmluZGluZycsICctaW1hZScsICc8aW5maWxlLm1hZT4nLCAnLW9tYWUnLCAnPG91dGZpbGUubWFlPic=

> <r_epik_Ionization_Penalty>
0.00994309

> <r_epik_Ionization_Penalty_Charging>
0

> <r_epik_Ionization_Penalty_Neutral>
0.00994309

> <r_epik_State_Penalty>
0.00754503

> <r_epik_Charging_Adjusted_Penalty>
0.00754503

> <i_epik_Tot_Q>
0

> <i_epik_Tot_abs_Q>
0

> <r_epik_Metal_State_Penalty>
0.00742071

> <b_epik_Metal_Only>
0

> <s_lp_Force_Field>
OPLS_2005

> <r_lp_Energy>
34.6575

> <b_lp_Chiralities_Consistent>
1

> <s_lp_Variant>
AV-unprocessed.smi:3189-3

> <Gold.Version>
5.8.1

> <Gold.Id.Protein>
6NUR|6NUR_protein|mol2

> <Gold.PLP.Fitness>
42.0536

> <Gold.PLP.PLP>
-36.6407

> <Gold.PLP.part.hbond>
-2.0000

> <Gold.PLP.part.metal>
0.0000

> <Gold.PLP.part.buried>
-0.7349

> <Gold.PLP.part.nonpolar>
-34.1936

> <Gold.PLP.part.repulsive>
0.4187

> <Gold.PLP.ligand.clash>
0.0000

> <Gold.PLP.ligand.torsion>
0.3129

> <Gold.PLP.Chemscore.Hbond>
2.0000

> <Gold.PLP.Chemscore.CHOScore>
0.0000

> <Gold.PLP.Chemscore.Metal>
0.0000

> <Gold.Chemscore.Hbonds>
donor molecule, donor type, donor heavy atom, donor atom, acceptor molecule, acceptor atom, score
      L1  H     7    22       P1  8028  1.00
      L1  H    10    23       P1  8028  1.00

> <Gold.PLP.Chemscore.Internal.Correction>
0.0388

> <Gold.Rescore>
     Score         DG    S(hbond)    S(metal)    S(lipo)     H(rot)  DE(clash)    DE(int)     intcor
     16.94     -19.62       1.92        0.00      87.91       1.00       0.06       2.62       ----

> <Gold.Chemscore.Fitness>
16.9391

> <Gold.Chemscore.DG>
-19.6156

> <Gold.Chemscore.ZeroCoef>
-5.4800

> <Gold.Chemscore.Hbond>
1.9192

> <Gold.Chemscore.Metal>
0.0000

> <Gold.Chemscore.Lipo>
87.9097

> <Gold.Chemscore.Internal_Hbond>
0.0000

> <Gold.Chemscore.DEClash>
0.0552

> <Gold.Chemscore.DEInternal>
2.6212

> <Gold.Chemscore.Rot>
1.0000

> <Gold.Chemscore.Internal.Correction>
   9.000000E+99

> <Gold.Chemscore.Hbonds>
donor molecule, donor type, donor heavy atom, donor atom, acceptor molecule, acceptor atom, score
      L1  H     7    22       P1  8028  0.99
      L1  H    10    23       P1  8028  0.88

> <Gold.Chemscore.Hbond.Weighted>
-6.4101

> <Gold.Chemscore.Metal.Weighted>
-0.0000

> <Gold.Chemscore.Lipo.Weighted>
-10.2854

> <Gold.Chemscore.Internal_Hbond.Weighted>
0.0000

> <Gold.Chemscore.DEClash.Weighted>
0.0552

> <Gold.Chemscore.DEInternal.Weighted>
2.6212

> <Gold.Chemscore.Rot.Weighted>
2.5600

> <Gold.Chemscore.Internal.Correction.Weighted>
   9.000000E+99

> <Gold.Protein.RotatedTorsions>
[ 6907 6896 6895 6894 ] final   97.89 input  -60.11 | X-H torsion
[ 7974 7965 7964 7962 ] final  177.75 input  175.53 | X-H torsion
[ 8008 7997 7996 7995 ] final  -78.92 input   59.86 | X-H torsion
[ 10167 10162 10161 10158 ] final   68.31 input  -65.29 | X-H torsion
[ 10718 10713 10712 10709 ] final  132.53 input   66.30 | X-H torsion
[ 10763 10752 10751 10750 ] final  -75.26 input  -60.55 | X-H torsion
[ 11005 11000 10999 10996 ] final  -48.21 input  -57.11 | X-H torsion

> <Gold.Protein.ActiveResidues>
 VAL166  LYS551  ARG553  GLY616  TRP617  ASP618  TYR619  PRO620  LYS621  CYS622 
 ASP623  PHE694  ASN695  SER759  ASP760  ASP761  ALA762  ILE779  LEU786  VAL792 
 PHE793  MET794  SER795  GLU796  ALA797  LYS798  CYS799  TRP800  GLU811  SER814 

> <Gold.Protein.RotatedAtoms>
  152.5417  134.0663  159.8174 H   0  0  0  0  0  0  0  0  0  0  0  0  # atno 6907 bound_to 6896
  151.0784  133.5402  159.2629 H   0  0  0  0  0  0  0  0  0  0  0  0  # atno 6908 bound_to 6896
  151.2239  135.0537  159.9014 H   0  0  0  0  0  0  0  0  0  0  0  0  # atno 6909 bound_to 6896
  144.7165  140.0293  143.6439 H   0  0  0  0  0  0  0  0  0  0  0  0  # atno 7974 bound_to 7965
  154.5735  140.0686  156.9000 H   0  0  0  0  0  0  0  0  0  0  0  0  # atno 8008 bound_to 7997
  155.2591  140.3357  155.4256 H   0  0  0  0  0  0  0  0  0  0  0  0  # atno 8009 bound_to 7997
  156.2136  140.1769  156.7624 H   0  0  0  0  0  0  0  0  0  0  0  0  # atno 8010 bound_to 7997
  140.0800  144.5079  150.7168 H   0  0  0  0  0  0  0  0  0  0  0  0  # atno 10167 bound_to 10162
  157.4862  131.1088  150.9617 H   0  0  0  0  0  0  0  0  0  0  0  0  # atno 10718 bound_to 10713
  154.4842  135.5837  153.6411 H   0  0  0  0  0  0  0  0  0  0  0  0  # atno 10763 bound_to 10752
  152.9852  135.6097  154.3208 H   0  0  0  0  0  0  0  0  0  0  0  0  # atno 10764 bound_to 10752
  154.3102  135.2845  155.2549 H   0  0  0  0  0  0  0  0  0  0  0  0  # atno 10765 bound_to 10752
  141.0687  133.6685  156.3408 H   0  0  0  0  0  0  0  0  0  0  0  0  # atno 11005 bound_to 11000
  146.0115  139.3174  143.0867 LP  0  0  0  0  0  0  0  0  0  0  0  0  # atno 17320 bound_to 7965
  145.8676  140.9439  143.0667 LP  0  0  0  0  0  0  0  0  0  0  0  0  # atno 17321 bound_to 7965
  140.7082  143.2484  151.4661 LP  0  0  0  0  0  0  0  0  0  0  0  0  # atno 17342 bound_to 10162
  139.5785  144.1764  152.1936 LP  0  0  0  0  0  0  0  0  0  0  0  0  # atno 17343 bound_to 10162
  157.0333  130.5720  149.5346 LP  0  0  0  0  0  0  0  0  0  0  0  0  # atno 17370 bound_to 10713
  156.0148  130.5242  150.8101 LP  0  0  0  0  0  0  0  0  0  0  0  0  # atno 17371 bound_to 10713
  140.5719  134.5832  157.5459 LP  0  0  0  0  0  0  0  0  0  0  0  0  # atno 17394 bound_to 11000
  139.9502  134.7631  156.0467 LP  0  0  0  0  0  0  0  0  0  0  0  0  # atno 17395 bound_to 11000

$$$$
