AV-unprocessed.smi:2335|AV-procd|sdf|9323|dock3
  -GOLD-   2272012543D 1   1.00000     0.00000
 Structure written by MMmdl.
 42 43  0  0  0  0  0  0  0  0  1 V2000
  145.7982  143.1873  153.7333 C   0  0  0  0  0  0  0  0  0  0  0  0
  146.9420  142.5354  154.5172 C   0  0  0  0  0  0  0  0  0  0  0  0
  146.9146  141.0453  154.4402 C   0  0  0  0  0  0  0  0  0  0  0  0
  146.7636  140.2675  155.5195 N   0  0  0  0  0  0  0  0  0  0  0  0
  146.7890  138.9165  155.2027 N   0  0  0  0  0  0  0  0  0  0  0  0
  146.9757  138.7145  153.8913 C   0  0  0  0  0  0  0  0  0  0  0  0
  147.0431  137.4290  153.2925 N   0  0  0  0  0  0  0  0  0  0  0  0
  146.1197  136.4519  153.3103 C   0  0  0  0  0  0  0  0  0  0  0  0
  145.0369  136.5051  153.8936 O   0  0  0  0  0  0  0  0  0  0  0  0
  146.5226  135.3942  152.5924 N   0  0  0  0  0  0  0  0  0  0  0  0
  145.7362  134.1843  152.3578 C   0  0  2  0  0  0  0  0  0  0  0  0
  146.3131  133.3570  151.2258 C   0  0  0  0  0  0  0  0  0  0  0  0
  145.1081  132.5465  150.7323 C   0  0  0  0  0  0  0  0  0  0  0  0
  145.1180  132.3576  149.2074 C   0  0  0  0  0  0  0  0  0  0  0  0
  144.9898  131.1938  151.4549 C   0  0  0  0  0  0  0  0  0  0  0  0
  143.9592  133.3153  151.0854 O   0  0  0  0  0  0  0  0  0  0  0  0
  144.2975  134.4596  151.8674 C   0  0  0  0  0  0  0  0  0  0  0  0
  143.2916  134.5514  153.0256 C   0  0  0  0  0  0  0  0  0  0  0  0
  144.1659  135.6820  150.9342 C   0  0  0  0  0  0  0  0  0  0  0  0
  147.1446  140.1728  152.9293 S   0  0  0  0  0  0  0  0  0  0  0  0
  145.8483  144.2739  153.8047 H   0  0  0  0  0  0  0  0  0  0  0  0
  144.8280  142.8723  154.1187 H   0  0  0  0  0  0  0  0  0  0  0  0
  145.8432  142.9204  152.6772 H   0  0  0  0  0  0  0  0  0  0  0  0
  147.9011  142.8909  154.1387 H   0  0  0  0  0  0  0  0  0  0  0  0
  146.8912  142.8318  155.5651 H   0  0  0  0  0  0  0  0  0  0  0  0
  147.8815  137.2429  152.7625 H   0  0  0  0  0  0  0  0  0  0  0  0
  147.4291  135.4370  152.1505 H   0  0  0  0  0  0  0  0  0  0  0  0
  145.7155  133.5620  153.2549 H   0  0  0  0  0  0  0  0  0  0  0  0
  146.6775  134.0133  150.4338 H   0  0  0  0  0  0  0  0  0  0  0  0
  147.1500  132.7332  151.5418 H   0  0  0  0  0  0  0  0  0  0  0  0
  145.9891  131.7857  148.8863 H   0  0  0  0  0  0  0  0  0  0  0  0
  145.1399  133.3170  148.6898 H   0  0  0  0  0  0  0  0  0  0  0  0
  144.2278  131.8254  148.8705 H   0  0  0  0  0  0  0  0  0  0  0  0
  145.8469  130.5549  151.2398 H   0  0  0  0  0  0  0  0  0  0  0  0
  144.0921  130.6590  151.1428 H   0  0  0  0  0  0  0  0  0  0  0  0
  144.9342  131.3217  152.5363 H   0  0  0  0  0  0  0  0  0  0  0  0
  143.4959  135.4134  153.6606 H   0  0  0  0  0  0  0  0  0  0  0  0
  143.3263  133.6600  153.6523 H   0  0  0  0  0  0  0  0  0  0  0  0
  142.2718  134.6500  152.6532 H   0  0  0  0  0  0  0  0  0  0  0  0
  144.3634  136.6147  151.4632 H   0  0  0  0  0  0  0  0  0  0  0  0
  143.1581  135.7501  150.5238 H   0  0  0  0  0  0  0  0  0  0  0  0
  144.8557  135.6230  150.0921 H   0  0  0  0  0  0  0  0  0  0  0  0
  1  2  1  0  0  0  0
  1 21  1  0  0  0  0
  1 22  1  0  0  0  0
  1 23  1  0  0  0  0
  2  3  1  0  0  0  0
  2 24  1  0  0  0  0
  2 25  1  0  0  0  0
  3 20  1  0  0  0  0
  3  4  2  0  0  0  0
  4  5  1  0  0  0  0
  5  6  2  0  0  0  0
  6  7  1  0  0  0  0
  6 20  1  0  0  0  0
  7  8  1  0  0  0  0
  7 26  1  0  0  0  0
  8  9  2  0  0  0  0
  8 10  1  0  0  0  0
 10 11  1  0  0  0  0
 10 27  1  0  0  0  0
 11 17  1  0  0  0  0
 11 12  1  0  0  0  0
 11 28  1  0  0  0  0
 12 13  1  0  0  0  0
 12 29  1  0  0  0  0
 12 30  1  0  0  0  0
 13 14  1  0  0  0  0
 13 15  1  0  0  0  0
 13 16  1  0  0  0  0
 14 31  1  0  0  0  0
 14 32  1  0  0  0  0
 14 33  1  0  0  0  0
 15 34  1  0  0  0  0
 15 35  1  0  0  0  0
 15 36  1  0  0  0  0
 16 17  1  0  0  0  0
 17 18  1  0  0  0  0
 17 19  1  0  0  0  0
 18 37  1  0  0  0  0
 18 38  1  0  0  0  0
 18 39  1  0  0  0  0
 19 40  1  0  0  0  0
 19 41  1  0  0  0  0
 19 42  1  0  0  0  0
M  END
> <s_m_source_file>
AV-unprocessed.smi

> <i_m_source_file_index>
2335

> <i_lp_mmshare_version>
43012

> <i_f3d_flags>
0

> <s_epik_input>
W0NIM11bQ0gyXWMxbm5jKHMxKVtOSF1DKD1PKVtOSF1bQ0BASF0oQyhPMikoW0NIM10pW0NIM10pW0NIMl1DMihbQ0gzXSlbQ0gzXQ==

> <s_epik_cmdline>
J2VwaWtfcHl0aG9uJywgJy1waCcsICc3LjAnLCAnLXRuJywgJzgnLCAnLW1hJywgJzIwMCcsICctbWV0YWxfYmluZGluZycsICctaW1hZScsICc8aW5maWxlLm1hZT4nLCAnLW9tYWUnLCAnPG91dGZpbGUubWFlPic=

> <r_lp_tautomer_probability>
1

> <r_epik_Ionization_Penalty>
0.000542824

> <r_epik_Ionization_Penalty_Charging>
0

> <r_epik_Ionization_Penalty_Neutral>
0.000542824

> <r_epik_State_Penalty>
-0

> <r_epik_Charging_Adjusted_Penalty>
0

> <i_epik_Tot_Q>
0

> <i_epik_Tot_abs_Q>
0

> <r_epik_Metal_State_Penalty>
0.227439

> <b_epik_Metal_Only>
0

> <s_lp_Force_Field>
OPLS_2005

> <r_lp_Energy>
12.6376

> <b_lp_Chiralities_Consistent>
1

> <s_lp_Variant>
AV-unprocessed.smi:2335-1

> <Gold.Version>
5.8.1

> <Gold.Id.Protein>
6NUR|6NUR_protein|mol2

> <Gold.PLP.Fitness>
35.5251

> <Gold.PLP.PLP>
-30.8953

> <Gold.PLP.part.hbond>
-2.0000

> <Gold.PLP.part.metal>
0.0000

> <Gold.PLP.part.buried>
-0.9781

> <Gold.PLP.part.nonpolar>
-27.6612

> <Gold.PLP.part.repulsive>
0.3556

> <Gold.PLP.ligand.clash>
0.0000

> <Gold.PLP.ligand.torsion>
0.6975

> <Gold.PLP.Chemscore.Hbond>
2.0000

> <Gold.PLP.Chemscore.CHOScore>
0.0000

> <Gold.PLP.Chemscore.Metal>
0.0000

> <Gold.Chemscore.Hbonds>
donor molecule, donor type, donor heavy atom, donor atom, acceptor molecule, acceptor atom, score
      L1  H     7    26       P1  7948  1.00
      L1  H    10    27       P1  7948  1.00

> <Gold.PLP.Chemscore.Internal.Correction>
0.0247

> <Gold.Rescore>
     Score         DG    S(hbond)    S(metal)    S(lipo)     H(rot)  DE(clash)    DE(int)     intcor
     14.77     -18.16       1.96        0.00      78.92       1.21       0.05       3.33       ----

> <Gold.Chemscore.Fitness>
14.7750

> <Gold.Chemscore.DG>
-18.1558

> <Gold.Chemscore.ZeroCoef>
-5.4800

> <Gold.Chemscore.Hbond>
1.9557

> <Gold.Chemscore.Metal>
0.0000

> <Gold.Chemscore.Lipo>
78.9163

> <Gold.Chemscore.Internal_Hbond>
0.0000

> <Gold.Chemscore.DEClash>
0.0543

> <Gold.Chemscore.DEInternal>
3.3265

> <Gold.Chemscore.Rot>
1.2068

> <Gold.Chemscore.Internal.Correction>
   9.000000E+99

> <Gold.Chemscore.Hbonds>
donor molecule, donor type, donor heavy atom, donor atom, acceptor molecule, acceptor atom, score
      L1  H     7    26       P1  7948  0.98
      L1  H    10    27       P1  7948  0.97

> <Gold.Chemscore.Hbond.Weighted>
-6.5322

> <Gold.Chemscore.Metal.Weighted>
-0.0000

> <Gold.Chemscore.Lipo.Weighted>
-9.2332

> <Gold.Chemscore.Internal_Hbond.Weighted>
0.0000

> <Gold.Chemscore.DEClash.Weighted>
0.0543

> <Gold.Chemscore.DEInternal.Weighted>
3.3265

> <Gold.Chemscore.Rot.Weighted>
3.0895

> <Gold.Chemscore.Internal.Correction.Weighted>
   9.000000E+99

> <Gold.Protein.RotatedTorsions>
[ 6907 6896 6895 6894 ] final  104.68 input  -60.11 | X-H torsion
[ 7974 7965 7964 7962 ] final   70.66 input  175.53 | X-H torsion
[ 8008 7997 7996 7995 ] final -160.24 input   59.86 | X-H torsion
[ 10167 10162 10161 10158 ] final -173.42 input  -65.29 | X-H torsion
[ 10718 10713 10712 10709 ] final   80.12 input   66.30 | X-H torsion
[ 10763 10752 10751 10750 ] final  -12.70 input  -60.55 | X-H torsion
[ 11005 11000 10999 10996 ] final  155.28 input  -57.11 | X-H torsion

> <Gold.Protein.ActiveResidues>
 VAL166  LYS551  ARG553  GLY616  TRP617  ASP618  TYR619  PRO620  LYS621  CYS622 
 ASP623  PHE694  ASN695  SER759  ASP760  ASP761  ALA762  ILE779  LEU786  VAL792 
 PHE793  MET794  SER795  GLU796  ALA797  LYS798  CYS799  TRP800  GLU811  SER814 

> <Gold.Protein.RotatedAtoms>
  152.5256  133.9641  159.7730 H   0  0  0  0  0  0  0  0  0  0  0  0  # atno 6907 bound_to 6896
  150.9926  133.6127  159.2713 H   0  0  0  0  0  0  0  0  0  0  0  0  # atno 6908 bound_to 6896
  151.3265  135.0837  159.9377 H   0  0  0  0  0  0  0  0  0  0  0  0  # atno 6909 bound_to 6896
  145.7754  139.2862  143.1297 H   0  0  0  0  0  0  0  0  0  0  0  0  # atno 7974 bound_to 7965
  155.7746  140.0856  157.2090 H   0  0  0  0  0  0  0  0  0  0  0  0  # atno 8008 bound_to 7997
  154.3994  140.1519  156.3038 H   0  0  0  0  0  0  0  0  0  0  0  0  # atno 8009 bound_to 7997
  155.8714  140.3425  155.5826 H   0  0  0  0  0  0  0  0  0  0  0  0  # atno 8010 bound_to 7997
  139.5689  144.1688  152.1355 H   0  0  0  0  0  0  0  0  0  0  0  0  # atno 10167 bound_to 10162
  157.6797  130.9945  150.2033 H   0  0  0  0  0  0  0  0  0  0  0  0  # atno 10718 bound_to 10713
  153.5024  135.7017  153.5824 H   0  0  0  0  0  0  0  0  0  0  0  0  # atno 10763 bound_to 10752
  153.3950  135.3886  155.1949 H   0  0  0  0  0  0  0  0  0  0  0  0  # atno 10764 bound_to 10752
  154.8709  135.3867  154.4496 H   0  0  0  0  0  0  0  0  0  0  0  0  # atno 10765 bound_to 10752
  140.1567  134.8638  157.2522 H   0  0  0  0  0  0  0  0  0  0  0  0  # atno 11005 bound_to 11000
  146.0128  140.8420  142.9962 LP  0  0  0  0  0  0  0  0  0  0  0  0  # atno 17320 bound_to 7965
  144.6805  140.2515  143.7331 LP  0  0  0  0  0  0  0  0  0  0  0  0  # atno 17321 bound_to 7965
  140.1217  144.5367  150.6858 LP  0  0  0  0  0  0  0  0  0  0  0  0  # atno 17342 bound_to 10162
  140.6973  143.2412  151.4963 LP  0  0  0  0  0  0  0  0  0  0  0  0  # atno 17343 bound_to 10162
  156.2719  130.3723  149.8022 LP  0  0  0  0  0  0  0  0  0  0  0  0  # atno 17370 bound_to 10713
  156.5737  130.8435  151.3363 LP  0  0  0  0  0  0  0  0  0  0  0  0  # atno 17371 bound_to 10713
  140.2539  134.3650  155.7431 LP  0  0  0  0  0  0  0  0  0  0  0  0  # atno 17394 bound_to 11000
  141.2205  133.7332  156.8978 LP  0  0  0  0  0  0  0  0  0  0  0  0  # atno 17395 bound_to 11000

$$$$
