AV-unprocessed.smi:1712|AV-procd|sdf|6902|dock1
  -GOLD-   22720 8103D 1   1.00000     0.00000
 Structure written by MMmdl.
 37 38  0  0  0  0  0  0  0  0  1 V2000
  147.2656  132.9246  153.1351 C   0  0  0  0  0  0  0  0  0  0  0  0
  148.5527  132.3924  153.8158 C   0  0  1  0  0  0  0  0  0  0  0  0
  148.9708  133.3701  154.9512 C   0  0  0  0  0  0  0  0  0  0  0  0
  149.1857  134.7378  154.4830 N   0  0  0  0  0  0  0  0  0  0  0  0
  149.8315  135.7017  155.1556 C   0  0  0  0  0  0  0  0  0  0  0  0
  150.3203  135.5456  156.2747 O   0  0  0  0  0  0  0  0  0  0  0  0
  149.8659  136.8455  154.4524 N   0  0  0  0  0  0  0  0  0  0  0  0
  150.4340  138.0827  154.8482 C   0  0  0  0  0  0  0  0  0  0  0  0
  150.1232  139.3398  154.2624 C   0  0  0  0  0  0  0  0  0  0  0  0
  150.8031  140.3222  154.8364 N   0  0  0  0  0  0  0  0  0  0  0  0
  151.5442  139.7042  155.7835 N   0  0  0  0  0  0  0  0  0  0  0  0
  151.3520  138.3409  155.8273 C   0  0  0  0  0  0  0  0  0  0  0  0
  148.4205  130.9898  154.2779 N   0  0  0  0  0  0  0  0  0  0  0  0
  147.7578  130.1274  153.2924 C   0  0  0  0  0  0  0  0  0  0  0  0
  147.6418  128.6657  153.7579 C   0  0  0  0  0  0  0  0  0  0  0  0
  148.9328  128.1555  154.0587 O   0  0  0  0  0  0  0  0  0  0  0  0
  149.5825  128.9144  155.0688 C   0  0  0  0  0  0  0  0  0  0  0  0
  149.7120  130.3790  154.6161 C   0  0  0  0  0  0  0  0  0  0  0  0
  152.1694  140.2204  156.3861 H   0  0  0  0  0  0  0  0  0  0  0  0
  147.3677  133.9578  152.8063 H   0  0  0  0  0  0  0  0  0  0  0  0
  146.4127  132.8785  153.8131 H   0  0  0  0  0  0  0  0  0  0  0  0
  147.0111  132.3714  152.2326 H   0  0  0  0  0  0  0  0  0  0  0  0
  149.3425  132.4234  153.0634 H   0  0  0  0  0  0  0  0  0  0  0  0
  148.2411  133.3351  155.7620 H   0  0  0  0  0  0  0  0  0  0  0  0
  149.9247  133.0817  155.3881 H   0  0  0  0  0  0  0  0  0  0  0  0
  148.8159  134.9646  153.5717 H   0  0  0  0  0  0  0  0  0  0  0  0
  149.4323  136.8329  153.5408 H   0  0  0  0  0  0  0  0  0  0  0  0
  149.4408  139.5675  153.4568 H   0  0  0  0  0  0  0  0  0  0  0  0
  151.8707  137.7061  156.5303 H   0  0  0  0  0  0  0  0  0  0  0  0
  146.7459  130.4763  153.0954 H   0  0  0  0  0  0  0  0  0  0  0  0
  148.2976  130.1645  152.3451 H   0  0  0  0  0  0  0  0  0  0  0  0
  146.9975  128.5895  154.6352 H   0  0  0  0  0  0  0  0  0  0  0  0
  147.1915  128.0541  152.9761 H   0  0  0  0  0  0  0  0  0  0  0  0
  149.0232  128.8470  156.0032 H   0  0  0  0  0  0  0  0  0  0  0  0
  150.5682  128.4876  155.2550 H   0  0  0  0  0  0  0  0  0  0  0  0
  150.3830  130.4332  153.7576 H   0  0  0  0  0  0  0  0  0  0  0  0
  150.1930  130.9173  155.4302 H   0  0  0  0  0  0  0  0  0  0  0  0
  1  2  1  0  0  0  0
  1 20  1  0  0  0  0
  1 21  1  0  0  0  0
  1 22  1  0  0  0  0
  2  3  1  0  0  0  0
  2 13  1  0  0  0  0
  2 23  1  0  0  0  0
  3  4  1  0  0  0  0
  3 24  1  0  0  0  0
  3 25  1  0  0  0  0
  4  5  1  0  0  0  0
  4 26  1  0  0  0  0
  5  6  2  0  0  0  0
  5  7  1  0  0  0  0
  7  8  1  0  0  0  0
  7 27  1  0  0  0  0
  8 12  2  0  0  0  0
  8  9  1  0  0  0  0
  9 10  2  0  0  0  0
  9 28  1  0  0  0  0
 10 11  1  0  0  0  0
 11 19  1  0  0  0  0
 11 12  1  0  0  0  0
 12 29  1  0  0  0  0
 13 18  1  0  0  0  0
 13 14  1  0  0  0  0
 14 15  1  0  0  0  0
 14 30  1  0  0  0  0
 14 31  1  0  0  0  0
 15 16  1  0  0  0  0
 15 32  1  0  0  0  0
 15 33  1  0  0  0  0
 16 17  1  0  0  0  0
 17 18  1  0  0  0  0
 17 34  1  0  0  0  0
 17 35  1  0  0  0  0
 18 36  1  0  0  0  0
 18 37  1  0  0  0  0
M  END
> <s_m_source_file>
AV-unprocessed.smi

> <i_m_source_file_index>
1712

> <i_lp_mmshare_version>
43012

> <i_f3d_flags>
0

> <s_epik_input>
W0NIMl0xW0NIMl1PW0NIMl1bQ0gyXU4xW0NASF0oW0NIM10pW0NIMl1bTkhdQyg9TylbTkhdYzJbY0hdbltuSF1bY0hdMg==

> <s_epik_cmdline>
J2VwaWtfcHl0aG9uJywgJy1waCcsICc3LjAnLCAnLXRuJywgJzgnLCAnLW1hJywgJzIwMCcsICctbWV0YWxfYmluZGluZycsICctaW1hZScsICc8aW5maWxlLm1hZT4nLCAnLW9tYWUnLCAnPG91dGZpbGUubWFlPic=

> <r_lp_tautomer_probability>
0.5

> <r_epik_Ionization_Penalty>
0.242772

> <r_epik_Ionization_Penalty_Charging>
0

> <r_epik_Ionization_Penalty_Neutral>
0.242772

> <r_epik_State_Penalty>
0.233765

> <r_epik_Charging_Adjusted_Penalty>
0.233765

> <i_epik_Tot_Q>
0

> <i_epik_Tot_abs_Q>
0

> <r_epik_Metal_State_Penalty>
0.233764

> <b_epik_Metal_Only>
0

> <s_lp_Force_Field>
OPLS_2005

> <r_lp_Energy>
31.3121

> <b_lp_Chiralities_Consistent>
1

> <s_lp_Variant>
AV-unprocessed.smi:1712-2

> <Gold.Version>
5.8.1

> <Gold.Id.Protein>
6NUR|6NUR_protein|mol2

> <Gold.PLP.Fitness>
38.4400

> <Gold.PLP.PLP>
-27.9621

> <Gold.PLP.part.hbond>
-3.6529

> <Gold.PLP.part.metal>
0.0000

> <Gold.PLP.part.buried>
-3.9657

> <Gold.PLP.part.nonpolar>
-20.6800

> <Gold.PLP.part.repulsive>
0.5536

> <Gold.PLP.ligand.clash>
0.0000

> <Gold.PLP.ligand.torsion>
0.3630

> <Gold.PLP.Chemscore.Hbond>
2.7114

> <Gold.PLP.Chemscore.CHOScore>
1.0000

> <Gold.PLP.Chemscore.Metal>
0.0000

> <Gold.Chemscore.Hbonds>
donor molecule, donor type, donor heavy atom, donor atom, acceptor molecule, acceptor atom, score
      L1  H     4    26       P1  7948  0.77
      L1  H     7    27       P1  7948  1.00
      P1  H  7989  7998       L1    10  0.95
      L1  C     9    28       P1  7957  1.00

> <Gold.PLP.Chemscore.Internal.Correction>
0.0699

> <Gold.Rescore>
     Score         DG    S(hbond)    S(metal)    S(lipo)     H(rot)  DE(clash)    DE(int)     intcor
     12.35     -13.76       1.74        0.00      56.84       1.63       0.01       1.40       ----

> <Gold.Chemscore.Fitness>
12.3486

> <Gold.Chemscore.DG>
-13.7580

> <Gold.Chemscore.ZeroCoef>
-5.4800

> <Gold.Chemscore.Hbond>
1.7376

> <Gold.Chemscore.Metal>
0.0000

> <Gold.Chemscore.Lipo>
56.8397

> <Gold.Chemscore.Internal_Hbond>
0.0000

> <Gold.Chemscore.DEClash>
0.0137

> <Gold.Chemscore.DEInternal>
1.3957

> <Gold.Chemscore.Rot>
1.6311

> <Gold.Chemscore.Internal.Correction>
   9.000000E+99

> <Gold.Chemscore.Hbonds>
donor molecule, donor type, donor heavy atom, donor atom, acceptor molecule, acceptor atom, score
      L1  H     4    26       P1  7948  0.40
      L1  H     7    27       P1  7948  0.90
      P1  H  7989  7998       L1    10  0.20

> <Gold.Chemscore.Hbond.Weighted>
-5.8034

> <Gold.Chemscore.Metal.Weighted>
-0.0000

> <Gold.Chemscore.Lipo.Weighted>
-6.6502

> <Gold.Chemscore.Internal_Hbond.Weighted>
0.0000

> <Gold.Chemscore.DEClash.Weighted>
0.0137

> <Gold.Chemscore.DEInternal.Weighted>
1.3957

> <Gold.Chemscore.Rot.Weighted>
4.1757

> <Gold.Chemscore.Internal.Correction.Weighted>
   9.000000E+99

> <Gold.Protein.RotatedTorsions>
[ 6907 6896 6895 6894 ] final -160.32 input  -60.11 | X-H torsion
[ 7974 7965 7964 7962 ] final  176.48 input  175.53 | X-H torsion
[ 8008 7997 7996 7995 ] final -127.42 input   59.86 | X-H torsion
[ 10167 10162 10161 10158 ] final -128.12 input  -65.29 | X-H torsion
[ 10718 10713 10712 10709 ] final  -16.42 input   66.30 | X-H torsion
[ 10763 10752 10751 10750 ] final   55.87 input  -60.55 | X-H torsion
[ 11005 11000 10999 10996 ] final  -40.28 input  -57.11 | X-H torsion

> <Gold.Protein.ActiveResidues>
 VAL166  LYS551  ARG553  GLY616  TRP617  ASP618  TYR619  PRO620  LYS621  CYS622 
 ASP623  PHE694  ASN695  SER759  ASP760  ASP761  ALA762  ILE779  LEU786  VAL792 
 PHE793  MET794  SER795  GLU796  ALA797  LYS798  CYS799  TRP800  GLU811  SER814 

> <Gold.Protein.RotatedAtoms>
  151.3473  133.3939  159.2676 H   0  0  0  0  0  0  0  0  0  0  0  0  # atno 6907 bound_to 6896
  150.9830  134.9182  159.7865 H   0  0  0  0  0  0  0  0  0  0  0  0  # atno 6908 bound_to 6896
  152.5223  134.3437  159.9278 H   0  0  0  0  0  0  0  0  0  0  0  0  # atno 6909 bound_to 6896
  144.7183  140.0103  143.6440 H   0  0  0  0  0  0  0  0  0  0  0  0  # atno 7974 bound_to 7965
  155.2460  140.0430  157.2981 H   0  0  0  0  0  0  0  0  0  0  0  0  # atno 8008 bound_to 7997
  154.5799  140.2397  155.8039 H   0  0  0  0  0  0  0  0  0  0  0  0  # atno 8009 bound_to 7997
  156.2185  140.2977  155.9904 H   0  0  0  0  0  0  0  0  0  0  0  0  # atno 8010 bound_to 7997
  139.9537  143.6028  152.2467 H   0  0  0  0  0  0  0  0  0  0  0  0  # atno 10167 bound_to 10162
  156.5878  130.4791  149.6292 H   0  0  0  0  0  0  0  0  0  0  0  0  # atno 10718 bound_to 10713
  152.9823  135.5696  154.5137 H   0  0  0  0  0  0  0  0  0  0  0  0  # atno 10763 bound_to 10752
  154.4637  135.2782  155.1696 H   0  0  0  0  0  0  0  0  0  0  0  0  # atno 10764 bound_to 10752
  154.3273  135.6256  153.5588 H   0  0  0  0  0  0  0  0  0  0  0  0  # atno 10765 bound_to 10752
  141.0163  133.6884  156.2300 H   0  0  0  0  0  0  0  0  0  0  0  0  # atno 11005 bound_to 11000
  146.0263  139.3295  143.0782 LP  0  0  0  0  0  0  0  0  0  0  0  0  # atno 17320 bound_to 7965
  145.8507  140.9530  143.0751 LP  0  0  0  0  0  0  0  0  0  0  0  0  # atno 17321 bound_to 7965
  139.6608  144.7662  151.1966 LP  0  0  0  0  0  0  0  0  0  0  0  0  # atno 17342 bound_to 10162
  140.7575  143.6013  150.8697 LP  0  0  0  0  0  0  0  0  0  0  0  0  # atno 17343 bound_to 10162
  156.2575  130.6943  151.1701 LP  0  0  0  0  0  0  0  0  0  0  0  0  # atno 17370 bound_to 10713
  157.7311  131.0611  150.5695 LP  0  0  0  0  0  0  0  0  0  0  0  0  # atno 17371 bound_to 10713
  140.6649  134.4929  157.5585 LP  0  0  0  0  0  0  0  0  0  0  0  0  # atno 17394 bound_to 11000
  139.9119  134.8327  156.1499 LP  0  0  0  0  0  0  0  0  0  0  0  0  # atno 17395 bound_to 11000

$$$$
