AV-unprocessed.smi:2254|AV-procd|sdf|9124|dock4
  -GOLD-   2272012323D 1   1.00000     0.00000
 Structure written by MMmdl.
 41 42  0  0  0  0  0  0  0  0  1 V2000
  152.3768  144.0167  161.4461 C   0  0  0  0  0  0  0  0  0  0  0  0
  152.8192  142.6186  161.0518 C   0  0  0  0  0  0  0  0  0  0  0  0
  153.3766  141.8497  162.0775 N   0  0  0  0  0  0  0  0  0  0  0  0
  153.7880  140.6489  161.8323 C   0  0  0  0  0  0  0  0  0  0  0  0
  153.6930  140.0832  160.5495 N   0  0  0  0  0  0  0  0  0  0  0  0
  154.2015  138.7093  160.3996 C   0  0  0  0  0  0  0  0  0  0  0  0
  153.1168  137.6493  160.6977 C   0  0  1  0  0  0  0  0  0  0  0  0
  153.4738  136.3998  160.1419 O   0  0  0  0  0  0  0  0  0  0  0  0
  152.8865  137.4338  162.2035 C   0  0  0  0  0  0  0  0  0  0  0  0
  154.0543  136.8889  162.7974 O   0  0  0  0  0  0  0  0  0  0  0  0
  153.8334  136.3890  164.1054 C   0  0  0  0  0  0  0  0  0  0  0  0
  153.7966  134.8732  164.1256 C   0  0  0  0  0  0  0  0  0  0  0  0
  154.1461  134.1385  162.9727 C   0  0  0  0  0  0  0  0  0  0  0  0
  154.1006  132.7306  162.9896 C   0  0  0  0  0  0  0  0  0  0  0  0
  153.6992  132.0519  164.1568 C   0  0  0  0  0  0  0  0  0  0  0  0
  153.6442  130.3276  164.1770 Cl  0  0  0  0  0  0  0  0  0  0  0  0
  153.3402  132.7823  165.3065 C   0  0  0  0  0  0  0  0  0  0  0  0
  153.3858  134.1899  165.2900 C   0  0  0  0  0  0  0  0  0  0  0  0
  153.1471  140.7579  159.4971 C   0  0  0  0  0  0  0  0  0  0  0  0
  153.0469  140.2452  158.3810 O   0  0  0  0  0  0  0  0  0  0  0  0
  152.6907  142.1265  159.7894 C   0  0  0  0  0  0  0  0  0  0  0  0
  152.0929  142.9175  158.6326 C   0  0  0  0  0  0  0  0  0  0  0  0
  151.3112  144.1487  161.2561 H   0  0  0  0  0  0  0  0  0  0  0  0
  152.9286  144.7661  160.8782 H   0  0  0  0  0  0  0  0  0  0  0  0
  152.5520  144.2048  162.5061 H   0  0  0  0  0  0  0  0  0  0  0  0
  154.2251  140.0058  162.5983 H   0  0  0  0  0  0  0  0  0  0  0  0
  154.6369  138.5477  159.4113 H   0  0  0  0  0  0  0  0  0  0  0  0
  155.0404  138.5647  161.0840 H   0  0  0  0  0  0  0  0  0  0  0  0
  152.1667  137.9464  160.2517 H   0  0  0  0  0  0  0  0  0  0  0  0
  154.4071  136.3916  159.9922 H   0  0  0  0  0  0  0  0  0  0  0  0
  152.6710  138.3952  162.6724 H   0  0  0  0  0  0  0  0  0  0  0  0
  152.0215  136.7913  162.3781 H   0  0  0  0  0  0  0  0  0  0  0  0
  154.6300  136.7215  164.7727 H   0  0  0  0  0  0  0  0  0  0  0  0
  152.8940  136.7851  164.4947 H   0  0  0  0  0  0  0  0  0  0  0  0
  154.4532  134.6509  162.0729 H   0  0  0  0  0  0  0  0  0  0  0  0
  154.3736  132.1729  162.1058 H   0  0  0  0  0  0  0  0  0  0  0  0
  153.0286  132.2643  166.2018 H   0  0  0  0  0  0  0  0  0  0  0  0
  153.1063  134.7436  166.1746 H   0  0  0  0  0  0  0  0  0  0  0  0
  152.8178  143.0056  157.8226 H   0  0  0  0  0  0  0  0  0  0  0  0
  151.7912  143.9257  158.9116 H   0  0  0  0  0  0  0  0  0  0  0  0
  151.2116  142.4063  158.2436 H   0  0  0  0  0  0  0  0  0  0  0  0
  1  2  1  0  0  0  0
  1 23  1  0  0  0  0
  1 24  1  0  0  0  0
  1 25  1  0  0  0  0
  2 21  2  0  0  0  0
  2  3  1  0  0  0  0
  3  4  2  0  0  0  0
  4  5  1  0  0  0  0
  4 26  1  0  0  0  0
  5  6  1  0  0  0  0
  5 19  1  0  0  0  0
  6  7  1  0  0  0  0
  6 27  1  0  0  0  0
  6 28  1  0  0  0  0
  7  8  1  0  0  0  0
  7  9  1  0  0  0  0
  7 29  1  0  0  0  0
  8 30  1  0  0  0  0
  9 10  1  0  0  0  0
  9 31  1  0  0  0  0
  9 32  1  0  0  0  0
 10 11  1  0  0  0  0
 11 12  1  0  0  0  0
 11 33  1  0  0  0  0
 11 34  1  0  0  0  0
 12 18  1  0  0  0  0
 12 13  2  0  0  0  0
 13 14  1  0  0  0  0
 13 35  1  0  0  0  0
 14 15  2  0  0  0  0
 14 36  1  0  0  0  0
 15 16  1  0  0  0  0
 15 17  1  0  0  0  0
 17 18  2  0  0  0  0
 17 37  1  0  0  0  0
 18 38  1  0  0  0  0
 19 20  2  0  0  0  0
 19 21  1  0  0  0  0
 21 22  1  0  0  0  0
 22 39  1  0  0  0  0
 22 40  1  0  0  0  0
 22 41  1  0  0  0  0
M  END
> <s_m_source_file>
AV-unprocessed.smi

> <i_m_source_file_index>
2254

> <i_lp_mmshare_version>
43012

> <i_f3d_flags>
0

> <s_epik_input>
W0NIM11jMW5bY0hdbihjKD1PKWMxW0NIM10pW0NIMl1bQ0BIXShbT0hdKVtDSDJdT1tDSDJdYzJbY0hdW2NIXWMoQ2wpW2NIXVtjSF0y

> <s_epik_cmdline>
J2VwaWtfcHl0aG9uJywgJy1waCcsICc3LjAnLCAnLXRuJywgJzgnLCAnLW1hJywgJzIwMCcsICctbWV0YWxfYmluZGluZycsICctaW1hZScsICc8aW5maWxlLm1hZT4nLCAnLW9tYWUnLCAnPG91dGZpbGUubWFlPic=

> <r_lp_tautomer_probability>
1

> <r_epik_Ionization_Penalty>
5.36e-05

> <r_epik_Ionization_Penalty_Charging>
1.17753e-07

> <r_epik_Ionization_Penalty_Neutral>
5.34822e-05

> <r_epik_State_Penalty>
-0

> <r_epik_Charging_Adjusted_Penalty>
1.17753e-07

> <i_epik_Tot_Q>
0

> <i_epik_Tot_abs_Q>
0

> <r_epik_Metal_State_Penalty>
-0

> <b_epik_Metal_Only>
0

> <s_lp_Force_Field>
OPLS_2005

> <r_lp_Energy>
22.8907

> <b_lp_Chiralities_Consistent>
1

> <s_lp_Variant>
AV-unprocessed.smi:2254-2

> <Gold.Version>
5.8.1

> <Gold.Id.Protein>
6NUR|6NUR_protein|mol2

> <Gold.PLP.Fitness>
47.9586

> <Gold.PLP.PLP>
-43.8248

> <Gold.PLP.part.hbond>
-1.9947

> <Gold.PLP.part.metal>
0.0000

> <Gold.PLP.part.buried>
-3.7169

> <Gold.PLP.part.nonpolar>
-38.1188

> <Gold.PLP.part.repulsive>
0.0214

> <Gold.PLP.ligand.clash>
0.0000

> <Gold.PLP.ligand.torsion>
0.9918

> <Gold.PLP.Chemscore.Hbond>
1.9920

> <Gold.PLP.Chemscore.CHOScore>
0.0000

> <Gold.PLP.Chemscore.Metal>
0.0000

> <Gold.Chemscore.Hbonds>
donor molecule, donor type, donor heavy atom, donor atom, acceptor molecule, acceptor atom, score
      P1  H  6896  6907       L1     8  1.00
      P1  H  7997  8010       L1    20  0.86

> <Gold.PLP.Chemscore.Internal.Correction>
0.1414

> <Gold.Rescore>
     Score         DG    S(hbond)    S(metal)    S(lipo)     H(rot)  DE(clash)    DE(int)     intcor
     19.09     -20.34       1.94        0.00     126.62       2.52       0.22       1.02       ----

> <Gold.Chemscore.Fitness>
19.0921

> <Gold.Chemscore.DG>
-20.3367

> <Gold.Chemscore.ZeroCoef>
-5.4800

> <Gold.Chemscore.Hbond>
1.9413

> <Gold.Chemscore.Metal>
0.0000

> <Gold.Chemscore.Lipo>
126.6154

> <Gold.Chemscore.Internal_Hbond>
0.0000

> <Gold.Chemscore.DEClash>
0.2241

> <Gold.Chemscore.DEInternal>
1.0205

> <Gold.Chemscore.Rot>
2.5162

> <Gold.Chemscore.Internal.Correction>
   9.000000E+99

> <Gold.Chemscore.Hbonds>
donor molecule, donor type, donor heavy atom, donor atom, acceptor molecule, acceptor atom, score
      P1  H  6896  6907       L1     8  0.99
      P1  H  7997  8010       L1    20  0.80

> <Gold.Chemscore.Hbond.Weighted>
-6.4841

> <Gold.Chemscore.Metal.Weighted>
-0.0000

> <Gold.Chemscore.Lipo.Weighted>
-14.8140

> <Gold.Chemscore.Internal_Hbond.Weighted>
0.0000

> <Gold.Chemscore.DEClash.Weighted>
0.2241

> <Gold.Chemscore.DEInternal.Weighted>
1.0205

> <Gold.Chemscore.Rot.Weighted>
6.4414

> <Gold.Chemscore.Internal.Correction.Weighted>
   9.000000E+99

> <Gold.Protein.RotatedTorsions>
[ 6907 6896 6895 6894 ] final   42.58 input  -60.11 | X-H torsion
[ 7974 7965 7964 7962 ] final  -56.92 input  175.53 | X-H torsion
[ 8008 7997 7996 7995 ] final   31.04 input   59.86 | X-H torsion
[ 10167 10162 10161 10158 ] final  161.07 input  -65.29 | X-H torsion
[ 10718 10713 10712 10709 ] final -179.02 input   66.30 | X-H torsion
[ 10763 10752 10751 10750 ] final   51.52 input  -60.55 | X-H torsion
[ 11005 11000 10999 10996 ] final   41.00 input  -57.11 | X-H torsion

> <Gold.Protein.ActiveResidues>
 VAL166  LYS551  ARG553  GLY616  TRP617  ASP618  TYR619  PRO620  LYS621  CYS622 
 ASP623  PHE694  ASN695  SER759  ASP760  ASP761  ALA762  ILE779  LEU786  VAL792 
 PHE793  MET794  SER795  GLU796  ALA797  LYS798  CYS799  TRP800  GLU811  SER814 

> <Gold.Protein.RotatedAtoms>
  152.2096  134.8513  160.0498 H   0  0  0  0  0  0  0  0  0  0  0  0  # atno 6907 bound_to 6896
  151.9337  133.3613  159.3948 H   0  0  0  0  0  0  0  0  0  0  0  0  # atno 6908 bound_to 6896
  150.6973  134.4436  159.5347 H   0  0  0  0  0  0  0  0  0  0  0  0  # atno 6909 bound_to 6896
  145.8571  140.8311  142.9956 H   0  0  0  0  0  0  0  0  0  0  0  0  # atno 7974 bound_to 7965
  155.1001  140.3228  155.4549 H   0  0  0  0  0  0  0  0  0  0  0  0  # atno 8008 bound_to 7997
  156.2719  140.2062  156.6074 H   0  0  0  0  0  0  0  0  0  0  0  0  # atno 8009 bound_to 7997
  154.6836  140.0523  157.0278 H   0  0  0  0  0  0  0  0  0  0  0  0  # atno 8010 bound_to 7997
  139.4846  144.4572  151.8752 H   0  0  0  0  0  0  0  0  0  0  0  0  # atno 10167 bound_to 10162
  156.8529  130.9725  151.3090 H   0  0  0  0  0  0  0  0  0  0  0  0  # atno 10718 bound_to 10713
  152.9785  135.5843  154.4428 H   0  0  0  0  0  0  0  0  0  0  0  0  # atno 10763 bound_to 10752
  154.4027  135.2769  155.2088 H   0  0  0  0  0  0  0  0  0  0  0  0  # atno 10764 bound_to 10752
  154.3912  135.6125  153.5898 H   0  0  0  0  0  0  0  0  0  0  0  0  # atno 10765 bound_to 10752
  140.1876  134.4026  155.8164 H   0  0  0  0  0  0  0  0  0  0  0  0  # atno 11005 bound_to 11000
  144.6727  140.1040  143.7459 LP  0  0  0  0  0  0  0  0  0  0  0  0  # atno 17320 bound_to 7965
  145.9291  139.2594  143.1336 LP  0  0  0  0  0  0  0  0  0  0  0  0  # atno 17321 bound_to 7965
  140.4033  144.2465  150.5892 LP  0  0  0  0  0  0  0  0  0  0  0  0  # atno 17342 bound_to 10162
  140.5036  143.2310  151.8641 LP  0  0  0  0  0  0  0  0  0  0  0  0  # atno 17343 bound_to 10162
  157.6293  130.8716  149.9245 LP  0  0  0  0  0  0  0  0  0  0  0  0  # atno 17370 bound_to 10713
  156.0818  130.3672  150.0565 LP  0  0  0  0  0  0  0  0  0  0  0  0  # atno 17371 bound_to 10713
  141.2225  133.7031  156.8040 LP  0  0  0  0  0  0  0  0  0  0  0  0  # atno 17394 bound_to 11000
  140.2196  134.8767  157.3362 LP  0  0  0  0  0  0  0  0  0  0  0  0  # atno 17395 bound_to 11000

$$$$
