AV-unprocessed.smi:2245|AV-procd|sdf|9079|dock1
  -GOLD-   2272012283D 1   1.00000     0.00000
 Structure written by MMmdl.
 45 46  0  0  0  0  0  0  0  0  2 V2000
  151.9516  145.7534  160.1061 C   0  0  0  0  0  0  0  0  0  0  0  0
  151.9067  144.4001  159.4282 C   0  0  0  0  0  0  0  0  0  0  0  0
  152.6776  143.3264  159.9127 C   0  0  0  0  0  0  0  0  0  0  0  0
  152.5912  142.0903  159.2426 C   0  0  0  0  0  0  0  0  0  0  0  0
  153.3927  140.8934  159.7092 C   0  0  0  0  0  0  0  0  0  0  0  0
  151.8035  141.8901  158.1643 N   0  0  0  0  0  0  0  0  0  0  0  0
  151.0554  142.9167  157.6898 C   0  0  0  0  0  0  0  0  0  0  0  0
  150.1942  142.8093  156.5658 N   0  0  0  0  0  0  0  0  0  0  0  0
  150.0191  141.7536  155.7518 C   0  0  0  0  0  0  0  0  0  0  0  0
  150.6087  140.6761  155.8418 O   0  0  0  0  0  0  0  0  0  0  0  0
  149.0981  142.0121  154.8120 N   0  0  0  0  0  0  0  0  0  0  0  0
  148.6565  141.0666  153.7921 C   0  0  0  0  0  0  0  0  0  0  0  0
  148.0048  139.8129  154.4074 C   0  0  1  0  0  0  0  0  0  0  0  0
  146.9741  139.1221  153.5184 C   0  0  0  0  0  0  0  0  0  0  0  0
  146.8873  137.7309  154.1384 C   0  0  0  0  0  0  0  0  0  0  0  0
  148.2612  137.4089  154.5860 N   0  3  2  0  0  0  0  0  0  0  0  0
  148.3472  136.5168  155.7688 C   0  0  0  0  0  0  0  0  0  0  0  0
  149.5689  135.5814  155.7280 C   0  0  0  0  0  0  0  0  0  0  0  0
  149.6837  134.9676  156.9047 F   0  0  0  0  0  0  0  0  0  0  0  0
  149.4369  134.6528  154.7815 F   0  0  0  0  0  0  0  0  0  0  0  0
  150.6784  136.2851  155.5032 F   0  0  0  0  0  0  0  0  0  0  0  0
  148.9967  138.6888  154.7344 C   0  0  0  0  0  0  0  0  0  0  0  0
  151.0855  144.1899  158.3021 C   0  0  0  0  0  0  0  0  0  0  0  0
  152.8716  145.8747  160.6788 H   0  0  0  0  0  0  0  0  0  0  0  0
  151.1066  145.8604  160.7867 H   0  0  0  0  0  0  0  0  0  0  0  0
  151.9037  146.5553  159.3688 H   0  0  0  0  0  0  0  0  0  0  0  0
  153.3168  143.4474  160.7752 H   0  0  0  0  0  0  0  0  0  0  0  0
  154.0829  141.1667  160.5079 H   0  0  0  0  0  0  0  0  0  0  0  0
  153.9746  140.4800  158.8849 H   0  0  0  0  0  0  0  0  0  0  0  0
  152.7267  140.1160  160.0843 H   0  0  0  0  0  0  0  0  0  0  0  0
  149.6369  143.6271  156.3679 H   0  0  0  0  0  0  0  0  0  0  0  0
  148.6670  142.9251  154.8053 H   0  0  0  0  0  0  0  0  0  0  0  0
  147.9459  141.5800  153.1437 H   0  0  0  0  0  0  0  0  0  0  0  0
  149.5007  140.7833  153.1610 H   0  0  0  0  0  0  0  0  0  0  0  0
  147.5064  140.0909  155.3378 H   0  0  0  0  0  0  0  0  0  0  0  0
  146.0126  139.6367  153.5023 H   0  0  0  0  0  0  0  0  0  0  0  0
  147.3402  139.0535  152.4929 H   0  0  0  0  0  0  0  0  0  0  0  0
  146.2128  137.7615  154.9957 H   0  0  0  0  0  0  0  0  0  0  0  0
  146.5079  136.9880  153.4367 H   0  0  0  0  0  0  0  0  0  0  0  0
  148.4297  137.1433  156.6584 H   0  0  0  0  0  0  0  0  0  0  0  0
  147.4246  135.9443  155.8767 H   0  0  0  0  0  0  0  0  0  0  0  0
  149.8255  138.6812  154.0256 H   0  0  0  0  0  0  0  0  0  0  0  0
  149.4210  138.8212  155.7311 H   0  0  0  0  0  0  0  0  0  0  0  0
  150.4831  144.9992  157.9147 H   0  0  0  0  0  0  0  0  0  0  0  0
  148.7085  136.9237  153.8212 H   0  0  0  0  0  0  0  0  0  0  0  0
  1  2  1  0  0  0  0
  1 24  1  0  0  0  0
  1 25  1  0  0  0  0
  1 26  1  0  0  0  0
  2 23  1  0  0  0  0
  2  3  2  0  0  0  0
  3  4  1  0  0  0  0
  3 27  1  0  0  0  0
  4  5  1  0  0  0  0
  4  6  2  0  0  0  0
  5 28  1  0  0  0  0
  5 29  1  0  0  0  0
  5 30  1  0  0  0  0
  6  7  1  0  0  0  0
  7  8  1  0  0  0  0
  7 23  2  0  0  0  0
  8  9  1  0  0  0  0
  8 31  1  0  0  0  0
  9 10  2  0  0  0  0
  9 11  1  0  0  0  0
 11 12  1  0  0  0  0
 11 32  1  0  0  0  0
 12 13  1  0  0  0  0
 12 33  1  0  0  0  0
 12 34  1  0  0  0  0
 13 22  1  0  0  0  0
 13 14  1  0  0  0  0
 13 35  1  0  0  0  0
 14 15  1  0  0  0  0
 14 36  1  0  0  0  0
 14 37  1  0  0  0  0
 15 16  1  0  0  0  0
 15 38  1  0  0  0  0
 15 39  1  0  0  0  0
 16 17  1  0  0  0  0
 16 22  1  0  0  0  0
 16 45  1  0  0  0  0
 17 18  1  0  0  0  0
 17 40  1  0  0  0  0
 17 41  1  0  0  0  0
 18 19  1  0  0  0  0
 18 20  1  0  0  0  0
 18 21  1  0  0  0  0
 22 42  1  0  0  0  0
 22 43  1  0  0  0  0
 23 44  1  0  0  0  0
M  CHG  1  16   1
M  END
> <s_m_source_file>
AV-unprocessed.smi

> <i_m_source_file_index>
2245

> <i_lp_mmshare_version>
43012

> <i_f3d_flags>
0

> <s_epik_input>
W0NIM11jMVtjSF1jKFtDSDNdKW5jKFtjSF0xKVtOSF1DKD1PKVtOSF1bQ0gyXVtDQEBIXTJbQ0gyXVtDSDJdTihbQ0gyXTIpW0NIMl1DKEYpKEYpRg==

> <s_epik_cmdline>
J2VwaWtfcHl0aG9uJywgJy1waCcsICc3LjAnLCAnLXRuJywgJzgnLCAnLW1hJywgJzIwMCcsICctbWV0YWxfYmluZGluZycsICctaW1hZScsICc8aW5maWxlLm1hZT4nLCAnLW9tYWUnLCAnPG91dGZpbGUubWFlPic=

> <r_epik_Ionization_Penalty>
0.628315

> <r_epik_Ionization_Penalty_Charging>
0.628113

> <r_epik_Ionization_Penalty_Neutral>
0.000202271

> <r_epik_State_Penalty>
0.644725

> <r_epik_Charging_Adjusted_Penalty>
1.27284

> <i_epik_Tot_Q>
1

> <i_epik_Tot_abs_Q>
1

> <r_epik_Metal_State_Penalty>
0.644752

> <b_epik_Metal_Only>
0

> <s_lp_Force_Field>
OPLS_2005

> <r_lp_Energy>
28.7916

> <b_lp_Chiralities_Consistent>
1

> <s_lp_Variant>
AV-unprocessed.smi:2245-4

> <Gold.Version>
5.8.1

> <Gold.Id.Protein>
6NUR|6NUR_protein|mol2

> <Gold.PLP.Fitness>
54.1031

> <Gold.PLP.PLP>
-43.7214

> <Gold.PLP.part.hbond>
-2.9661

> <Gold.PLP.part.metal>
0.0000

> <Gold.PLP.part.buried>
-2.6863

> <Gold.PLP.part.nonpolar>
-38.5644

> <Gold.PLP.part.repulsive>
0.3351

> <Gold.PLP.ligand.clash>
0.0000

> <Gold.PLP.ligand.torsion>
0.7972

> <Gold.PLP.Chemscore.Hbond>
3.8320

> <Gold.PLP.Chemscore.CHOScore>
0.0000

> <Gold.PLP.Chemscore.Metal>
0.0000

> <Gold.Chemscore.Hbonds>
donor molecule, donor type, donor heavy atom, donor atom, acceptor molecule, acceptor atom, score
      L1  H     8    31       P1  8028  0.93
      L1  H    11    32       P1  8028  0.82
      L1  H    16    45       P1  7948  1.72

> <Gold.PLP.Chemscore.Internal.Correction>
0.4802

> <Gold.Rescore>
     Score         DG    S(hbond)    S(metal)    S(lipo)     H(rot)  DE(clash)    DE(int)     intcor
     18.41     -22.39       2.93        0.00      96.11       1.61       0.53       3.44       ----

> <Gold.Chemscore.Fitness>
18.4115

> <Gold.Chemscore.DG>
-22.3859

> <Gold.Chemscore.ZeroCoef>
-5.4800

> <Gold.Chemscore.Hbond>
2.9322

> <Gold.Chemscore.Metal>
0.0000

> <Gold.Chemscore.Lipo>
96.1089

> <Gold.Chemscore.Internal_Hbond>
0.0000

> <Gold.Chemscore.DEClash>
0.5324

> <Gold.Chemscore.DEInternal>
3.4420

> <Gold.Chemscore.Rot>
1.6143

> <Gold.Chemscore.Internal.Correction>
   9.000000E+99

> <Gold.Chemscore.Hbonds>
donor molecule, donor type, donor heavy atom, donor atom, acceptor molecule, acceptor atom, score
      L1  H     8    31       P1  8028  0.88
      L1  H    11    32       P1  8028  0.80
      L1  H    16    45       P1  7948  0.83

> <Gold.Chemscore.Hbond.Weighted>
-9.7936

> <Gold.Chemscore.Metal.Weighted>
-0.0000

> <Gold.Chemscore.Lipo.Weighted>
-11.2447

> <Gold.Chemscore.Internal_Hbond.Weighted>
0.0000

> <Gold.Chemscore.DEClash.Weighted>
0.5324

> <Gold.Chemscore.DEInternal.Weighted>
3.4420

> <Gold.Chemscore.Rot.Weighted>
4.1325

> <Gold.Chemscore.Internal.Correction.Weighted>
   9.000000E+99

> <Gold.Protein.RotatedTorsions>
[ 6907 6896 6895 6894 ] final   58.22 input  -60.11 | X-H torsion
[ 7974 7965 7964 7962 ] final   82.93 input  175.53 | X-H torsion
[ 8008 7997 7996 7995 ] final -137.15 input   59.86 | X-H torsion
[ 10167 10162 10161 10158 ] final   21.63 input  -65.29 | X-H torsion
[ 10718 10713 10712 10709 ] final  137.30 input   66.30 | X-H torsion
[ 10763 10752 10751 10750 ] final  -50.56 input  -60.55 | X-H torsion
[ 11005 11000 10999 10996 ] final -116.83 input  -57.11 | X-H torsion

> <Gold.Protein.ActiveResidues>
 VAL166  LYS551  ARG553  GLY616  TRP617  ASP618  TYR619  PRO620  LYS621  CYS622 
 ASP623  PHE694  ASN695  SER759  ASP760  ASP761  ALA762  ILE779  LEU786  VAL792 
 PHE793  MET794  SER795  GLU796  ALA797  LYS798  CYS799  TRP800  GLU811  SER814 

> <Gold.Protein.RotatedAtoms>
  152.3804  134.6599  160.0144 H   0  0  0  0  0  0  0  0  0  0  0  0  # atno 6907 bound_to 6896
  151.6864  133.3306  159.3240 H   0  0  0  0  0  0  0  0  0  0  0  0  # atno 6908 bound_to 6896
  150.7743  134.6672  159.6416 H   0  0  0  0  0  0  0  0  0  0  0  0  # atno 6909 bound_to 6896
  145.6186  139.2381  143.2151 H   0  0  0  0  0  0  0  0  0  0  0  0  # atno 7974 bound_to 7965
  155.4070  140.0509  157.3034 H   0  0  0  0  0  0  0  0  0  0  0  0  # atno 8008 bound_to 7997
  154.4964  140.2140  155.9399 H   0  0  0  0  0  0  0  0  0  0  0  0  # atno 8009 bound_to 7997
  156.1410  140.3154  155.8501 H   0  0  0  0  0  0  0  0  0  0  0  0  # atno 8010 bound_to 7997
  140.5411  143.9675  150.6520 H   0  0  0  0  0  0  0  0  0  0  0  0  # atno 10167 bound_to 10162
  157.4375  131.1054  151.0181 H   0  0  0  0  0  0  0  0  0  0  0  0  # atno 10718 bound_to 10713
  154.1124  135.6547  153.4887 H   0  0  0  0  0  0  0  0  0  0  0  0  # atno 10763 bound_to 10752
  153.0252  135.5251  154.7179 H   0  0  0  0  0  0  0  0  0  0  0  0  # atno 10764 bound_to 10752
  154.6362  135.2982  155.0127 H   0  0  0  0  0  0  0  0  0  0  0  0  # atno 10765 bound_to 10752
  141.0395  133.9857  157.3017 H   0  0  0  0  0  0  0  0  0  0  0  0  # atno 11005 bound_to 11000
  146.1449  140.7007  142.9349 LP  0  0  0  0  0  0  0  0  0  0  0  0  # atno 17320 bound_to 7965
  144.7240  140.4466  143.6987 LP  0  0  0  0  0  0  0  0  0  0  0  0  # atno 17321 bound_to 7965
  140.3076  143.3219  152.0911 LP  0  0  0  0  0  0  0  0  0  0  0  0  # atno 17342 bound_to 10162
  139.4989  144.6657  151.6362 LP  0  0  0  0  0  0  0  0  0  0  0  0  # atno 17343 bound_to 10162
  157.1056  130.6000  149.5470 LP  0  0  0  0  0  0  0  0  0  0  0  0  # atno 17370 bound_to 10713
  155.9936  130.4997  150.7386 LP  0  0  0  0  0  0  0  0  0  0  0  0  # atno 17371 bound_to 10713
  139.9265  135.0201  156.8253 LP  0  0  0  0  0  0  0  0  0  0  0  0  # atno 17394 bound_to 11000
  140.6260  133.9950  155.7640 LP  0  0  0  0  0  0  0  0  0  0  0  0  # atno 17395 bound_to 11000

$$$$
