AV-unprocessed.smi:169|AV-procd|sdf|1398|dock10
  -GOLD-   2262019143D 1   1.00000     0.00000
 Structure written by MMmdl.
 56 60  0  0  0  0  0  0  0  0  2 V2000
  145.9609  130.3241  153.3705 C   0  0  0  0  0  0  0  0  0  0  0  0
  145.7211  131.0774  152.0501 C   0  0  0  0  0  0  0  0  0  0  0  0
  145.5896  132.5492  152.2118 N   0  3  2  0  0  0  0  0  0  0  0  0
  145.6501  133.2891  150.9253 C   0  0  0  0  0  0  0  0  0  0  0  0
  144.6852  134.4904  150.8844 C   0  0  0  0  0  0  0  0  0  0  0  0
  144.6918  135.4040  152.1294 C   0  0  1  0  0  0  0  0  0  0  0  0
  143.7699  134.9056  153.2638 C   0  0  0  0  0  0  0  0  0  0  0  0
  144.7041  134.5300  154.4187 C   0  0  0  0  0  0  0  0  0  0  0  0
  146.0962  134.5061  153.7812 C   0  0  1  0  0  0  0  0  0  0  0  0
  146.4934  133.1037  153.2595 C   0  0  0  0  0  0  0  0  0  0  0  0
  146.0253  135.5065  152.7169 N   0  0  0  0  0  0  0  0  0  0  0  0
  146.4825  136.7710  152.9159 C   0  0  0  0  0  0  0  0  0  0  0  0
  146.7573  137.5823  151.8600 N   0  0  0  0  0  0  0  0  0  0  0  0
  147.2199  138.8200  152.0604 C   0  0  0  0  0  0  0  0  0  0  0  0
  147.4736  139.4389  153.2148 N   0  0  0  0  0  0  0  0  0  0  0  0
  147.1932  138.6339  154.2792 C   0  0  0  0  0  0  0  0  0  0  0  0
  146.6988  137.3007  154.2192 C   0  0  0  0  0  0  0  0  0  0  0  0
  146.5280  136.8011  155.5046 N   0  0  0  0  0  0  0  0  0  0  0  0
  146.9076  137.7799  156.2800 C   0  0  0  0  0  0  0  0  0  0  0  0
  147.3149  138.9221  155.6279 N   0  0  0  0  0  0  0  0  0  0  0  0
  147.7876  140.1546  156.2403 C   0  0  0  0  0  0  0  0  0  0  0  0
  149.2524  140.4950  155.9070 C   0  0  0  0  0  0  0  0  0  0  0  0
  149.7746  141.4987  156.9554 C   0  0  0  0  0  0  0  0  0  0  0  0
  148.9977  142.6788  157.0104 O   0  0  0  0  0  0  0  0  0  0  0  0
  150.1719  139.3046  155.5968 C   0  0  0  0  0  0  0  0  0  0  0  0
  150.5568  139.8575  154.3187 O   0  0  0  0  0  0  0  0  0  0  0  0
  149.5136  140.8502  154.4362 C   0  0  0  0  0  0  0  0  0  0  0  0
  146.0772  129.2565  153.1829 H   0  0  0  0  0  0  0  0  0  0  0  0
  145.1259  130.4405  154.0613 H   0  0  0  0  0  0  0  0  0  0  0  0
  146.8653  130.6652  153.8740 H   0  0  0  0  0  0  0  0  0  0  0  0
  146.5390  130.8714  151.3586 H   0  0  0  0  0  0  0  0  0  0  0  0
  144.8220  130.6923  151.5678 H   0  0  0  0  0  0  0  0  0  0  0  0
  146.6742  133.6120  150.7310 H   0  0  0  0  0  0  0  0  0  0  0  0
  145.3873  132.6293  150.0973 H   0  0  0  0  0  0  0  0  0  0  0  0
  144.9497  135.0909  150.0135 H   0  0  0  0  0  0  0  0  0  0  0  0
  143.6690  134.1440  150.6921 H   0  0  0  0  0  0  0  0  0  0  0  0
  144.3227  136.3845  151.8237 H   0  0  0  0  0  0  0  0  0  0  0  0
  143.0744  135.6854  153.5761 H   0  0  0  0  0  0  0  0  0  0  0  0
  143.1714  134.0484  152.9536 H   0  0  0  0  0  0  0  0  0  0  0  0
  144.6665  135.3084  155.1820 H   0  0  0  0  0  0  0  0  0  0  0  0
  144.4329  133.5885  154.8976 H   0  0  0  0  0  0  0  0  0  0  0  0
  146.8380  134.7736  154.5341 H   0  0  0  0  0  0  0  0  0  0  0  0
  146.5109  132.4205  154.1096 H   0  0  0  0  0  0  0  0  0  0  0  0
  147.5155  133.1365  152.8802 H   0  0  0  0  0  0  0  0  0  0  0  0
  147.4150  139.3967  151.1681 H   0  0  0  0  0  0  0  0  0  0  0  0
  146.9000  137.6930  157.3566 H   0  0  0  0  0  0  0  0  0  0  0  0
  147.1253  140.9575  155.9138 H   0  0  0  0  0  0  0  0  0  0  0  0
  147.6476  140.0807  157.3195 H   0  0  0  0  0  0  0  0  0  0  0  0
  149.7809  141.0523  157.9504 H   0  0  0  0  0  0  0  0  0  0  0  0
  150.7991  141.7998  156.7369 H   0  0  0  0  0  0  0  0  0  0  0  0
  149.2520  143.2402  156.2939 H   0  0  0  0  0  0  0  0  0  0  0  0
  151.0154  139.2000  156.2802 H   0  0  0  0  0  0  0  0  0  0  0  0
  149.6498  138.3546  155.4783 H   0  0  0  0  0  0  0  0  0  0  0  0
  148.6758  140.6339  153.7715 H   0  0  0  0  0  0  0  0  0  0  0  0
  149.8790  141.8649  154.2741 H   0  0  0  0  0  0  0  0  0  0  0  0
  144.6504  132.6823  152.5589 H   0  0  0  0  0  0  0  0  0  0  0  0
  1  2  1  0  0  0  0
  1 28  1  0  0  0  0
  1 29  1  0  0  0  0
  1 30  1  0  0  0  0
  2  3  1  0  0  0  0
  2 31  1  0  0  0  0
  2 32  1  0  0  0  0
  3 10  1  0  0  0  0
  3  4  1  0  0  0  0
  3 56  1  0  0  0  0
  4  5  1  0  0  0  0
  4 33  1  0  0  0  0
  4 34  1  0  0  0  0
  5  6  1  0  0  0  0
  5 35  1  0  0  0  0
  5 36  1  0  0  0  0
  6 11  1  0  0  0  0
  6  7  1  0  0  0  0
  6 37  1  0  0  0  0
  7  8  1  0  0  0  0
  7 38  1  0  0  0  0
  7 39  1  0  0  0  0
  8  9  1  0  0  0  0
  8 40  1  0  0  0  0
  8 41  1  0  0  0  0
  9 10  1  0  0  0  0
  9 11  1  0  0  0  0
  9 42  1  0  0  0  0
 10 43  1  0  0  0  0
 10 44  1  0  0  0  0
 11 12  1  0  0  0  0
 12 17  1  0  0  0  0
 12 13  2  0  0  0  0
 13 14  1  0  0  0  0
 14 15  2  0  0  0  0
 14 45  1  0  0  0  0
 15 16  1  0  0  0  0
 16 20  1  0  0  0  0
 16 17  2  0  0  0  0
 17 18  1  0  0  0  0
 18 19  2  0  0  0  0
 19 20  1  0  0  0  0
 19 46  1  0  0  0  0
 20 21  1  0  0  0  0
 21 22  1  0  0  0  0
 21 47  1  0  0  0  0
 21 48  1  0  0  0  0
 22 27  1  0  0  0  0
 22 23  1  0  0  0  0
 22 25  1  0  0  0  0
 23 24  1  0  0  0  0
 23 49  1  0  0  0  0
 23 50  1  0  0  0  0
 24 51  1  0  0  0  0
 25 26  1  0  0  0  0
 25 52  1  0  0  0  0
 25 53  1  0  0  0  0
 26 27  1  0  0  0  0
 27 54  1  0  0  0  0
 27 55  1  0  0  0  0
M  CHG  1   3   1
M  END
> <s_m_source_file>
AV-unprocessed.smi

> <i_m_source_file_index>
169

> <i_lp_mmshare_version>
43012

> <i_f3d_flags>
0

> <s_epik_input>
W0NASF0xMltDSDJdW0NIMl1OKFtDSDJdW0NIM10pW0NIMl1bQ0BIXShbQ0gyXVtDSDJdMSlOMmMobltjSF1uMyljKGMzNCluW2NIXW40W0NIMl1DNShbQ0gyXVtPSF0pW0NIMl1PW0NIMl01

> <s_epik_cmdline>
J2VwaWtfcHl0aG9uJywgJy1waCcsICc3LjAnLCAnLXRuJywgJzgnLCAnLW1hJywgJzIwMCcsICctbWV0YWxfYmluZGluZycsICctaW1hZScsICc8aW5maWxlLm1hZT4nLCAnLW9tYWUnLCAnPG91dGZpbGUubWFlPic=

> <r_lp_tautomer_probability>
1

> <r_epik_Ionization_Penalty>
0.00274162

> <r_epik_Ionization_Penalty_Charging>
0.00243722

> <r_epik_Ionization_Penalty_Neutral>
0.000304399

> <r_epik_State_Penalty>
-0

> <r_epik_Charging_Adjusted_Penalty>
0.00243722

> <i_epik_Tot_Q>
1

> <i_epik_Tot_abs_Q>
1

> <r_epik_Metal_State_Penalty>
-0

> <b_epik_Metal_Only>
0

> <s_lp_Force_Field>
OPLS_2005

> <r_lp_Energy>
78.5453

> <b_lp_Chiralities_Consistent>
1

> <s_lp_Variant>
AV-unprocessed.smi:169-1

> <Gold.Version>
5.8.1

> <Gold.Id.Protein>
6NUR|6NUR_protein|mol2

> <Gold.PLP.Fitness>
35.5493

> <Gold.PLP.PLP>
-30.0257

> <Gold.PLP.part.hbond>
-1.8953

> <Gold.PLP.part.metal>
0.0000

> <Gold.PLP.part.buried>
-3.4572

> <Gold.PLP.part.nonpolar>
-26.2945

> <Gold.PLP.part.repulsive>
1.4835

> <Gold.PLP.ligand.clash>
0.0000

> <Gold.PLP.ligand.torsion>
0.8425

> <Gold.PLP.Chemscore.Hbond>
2.0000

> <Gold.PLP.Chemscore.CHOScore>
0.2380

> <Gold.PLP.Chemscore.Metal>
0.0000

> <Gold.Chemscore.Hbonds>
donor molecule, donor type, donor heavy atom, donor atom, acceptor molecule, acceptor atom, score
      L1  H    24    51       P1  8028  0.78
      P1  H  7989  7998       L1    26  0.75
      L1  C    14    45       P1  7957  0.61

> <Gold.PLP.Chemscore.Internal.Correction>
0.4946

> <Gold.Rescore>
     Score         DG    S(hbond)    S(metal)    S(lipo)     H(rot)  DE(clash)    DE(int)     intcor
      9.24     -12.84       1.83        0.00      68.13       2.62       0.19       3.41       ----

> <Gold.Chemscore.Fitness>
9.2425

> <Gold.Chemscore.DG>
-12.8427

> <Gold.Chemscore.ZeroCoef>
-5.4800

> <Gold.Chemscore.Hbond>
1.8267

> <Gold.Chemscore.Metal>
0.0000

> <Gold.Chemscore.Lipo>
68.1347

> <Gold.Chemscore.Internal_Hbond>
0.0000

> <Gold.Chemscore.DEClash>
0.1866

> <Gold.Chemscore.DEInternal>
3.4136

> <Gold.Chemscore.Rot>
2.6212

> <Gold.Chemscore.Internal.Correction>
   9.000000E+99

> <Gold.Chemscore.Hbonds>
donor molecule, donor type, donor heavy atom, donor atom, acceptor molecule, acceptor atom, score
      L1  H    24    51       P1  8028  0.77
      P1  H  7989  7998       L1    26  0.09

> <Gold.Chemscore.Hbond.Weighted>
-6.1012

> <Gold.Chemscore.Metal.Weighted>
-0.0000

> <Gold.Chemscore.Lipo.Weighted>
-7.9718

> <Gold.Chemscore.Internal_Hbond.Weighted>
0.0000

> <Gold.Chemscore.DEClash.Weighted>
0.1866

> <Gold.Chemscore.DEInternal.Weighted>
3.4136

> <Gold.Chemscore.Rot.Weighted>
6.7102

> <Gold.Chemscore.Internal.Correction.Weighted>
   9.000000E+99

> <Gold.Protein.RotatedTorsions>
[ 6907 6896 6895 6894 ] final -155.45 input  -60.11 | X-H torsion
[ 7974 7965 7964 7962 ] final  -95.66 input  175.53 | X-H torsion
[ 8008 7997 7996 7995 ] final  125.89 input   59.86 | X-H torsion
[ 10167 10162 10161 10158 ] final  -98.15 input  -65.29 | X-H torsion
[ 10718 10713 10712 10709 ] final  -92.32 input   66.30 | X-H torsion
[ 10763 10752 10751 10750 ] final -169.99 input  -60.55 | X-H torsion
[ 11005 11000 10999 10996 ] final  -19.82 input  -57.11 | X-H torsion

> <Gold.Protein.ActiveResidues>
 VAL166  LYS551  ARG553  GLY616  TRP617  ASP618  TYR619  PRO620  LYS621  CYS622 
 ASP623  PHE694  ASN695  SER759  ASP760  ASP761  ALA762  ILE779  LEU786  VAL792 
 PHE793  MET794  SER795  GLU796  ALA797  LYS798  CYS799  TRP800  GLU811  SER814 

> <Gold.Protein.RotatedAtoms>
  151.2727  133.4247  159.2621 H   0  0  0  0  0  0  0  0  0  0  0  0  # atno 6907 bound_to 6896
  151.0431  134.9621  159.8182 H   0  0  0  0  0  0  0  0  0  0  0  0  # atno 6908 bound_to 6896
  152.5369  134.2684  159.9015 H   0  0  0  0  0  0  0  0  0  0  0  0  # atno 6909 bound_to 6896
  145.3571  140.9486  143.2521 H   0  0  0  0  0  0  0  0  0  0  0  0  # atno 7974 bound_to 7965
  156.2848  140.2706  156.2022 H   0  0  0  0  0  0  0  0  0  0  0  0  # atno 8008 bound_to 7997
  155.0349  140.0386  157.2506 H   0  0  0  0  0  0  0  0  0  0  0  0  # atno 8009 bound_to 7997
  154.7323  140.2709  155.6451 H   0  0  0  0  0  0  0  0  0  0  0  0  # atno 8010 bound_to 7997
  140.2760  143.3313  152.0488 H   0  0  0  0  0  0  0  0  0  0  0  0  # atno 10167 bound_to 10162
  156.0001  130.4982  150.5607 H   0  0  0  0  0  0  0  0  0  0  0  0  # atno 10718 bound_to 10713
  154.6463  135.2905  155.0042 H   0  0  0  0  0  0  0  0  0  0  0  0  # atno 10763 bound_to 10752
  154.1150  135.6557  153.4896 H   0  0  0  0  0  0  0  0  0  0  0  0  # atno 10764 bound_to 10752
  153.0353  135.5274  154.7352 H   0  0  0  0  0  0  0  0  0  0  0  0  # atno 10765 bound_to 10752
  140.8404  133.7931  155.9854 H   0  0  0  0  0  0  0  0  0  0  0  0  # atno 11005 bound_to 11000
  144.8674  139.5088  143.6784 LP  0  0  0  0  0  0  0  0  0  0  0  0  # atno 17320 bound_to 7965
  146.2943  139.7231  142.9138 LP  0  0  0  0  0  0  0  0  0  0  0  0  # atno 17321 bound_to 7965
  139.4976  144.6624  151.6433 LP  0  0  0  0  0  0  0  0  0  0  0  0  # atno 17342 bound_to 10162
  140.5851  143.9878  150.6291 LP  0  0  0  0  0  0  0  0  0  0  0  0  # atno 17343 bound_to 10162
  157.3517  131.0734  151.1708 LP  0  0  0  0  0  0  0  0  0  0  0  0  # atno 17370 bound_to 10713
  157.2522  130.6619  149.5936 LP  0  0  0  0  0  0  0  0  0  0  0  0  # atno 17371 bound_to 10713
  140.8901  134.2505  157.5099 LP  0  0  0  0  0  0  0  0  0  0  0  0  # atno 17394 bound_to 11000
  139.8703  134.9657  156.4539 LP  0  0  0  0  0  0  0  0  0  0  0  0  # atno 17395 bound_to 11000

$$$$
