AV-unprocessed.smi:3331|AV-procd|sdf|12819|dock10
  -GOLD-   2272019193D 1   1.00000     0.00000
 Structure written by MMmdl.
 47 48  0  0  0  0  0  0  0  0  2 V2000
  146.2776  140.7191  154.7076 C   0  0  0  0  0  0  0  0  0  0  0  0
  147.4730  140.8599  153.7485 C   0  0  1  0  0  0  0  0  0  0  0  0
  148.6228  141.6864  154.3662 C   0  0  0  0  0  0  0  0  0  0  0  0
  149.4497  140.8877  155.3990 C   0  0  2  0  0  0  0  0  0  0  0  0
  150.6601  141.6929  155.8917 C   0  0  0  0  0  0  0  0  0  0  0  0
  149.8746  139.5277  154.8073 C   0  0  0  0  0  0  0  0  0  0  0  0
  148.6783  138.7971  154.3655 N   0  0  0  0  0  0  0  0  0  0  0  0
  148.2458  137.6666  154.9813 C   0  0  0  0  0  0  0  0  0  0  0  0
  148.8715  137.1532  155.9102 O   0  0  0  0  0  0  0  0  0  0  0  0
  146.9508  136.9794  154.5024 C   0  0  2  0  0  0  0  0  0  0  0  0
  145.8962  136.8869  155.6258 C   0  0  0  0  0  0  0  0  0  0  0  0
  147.2748  135.6386  153.9656 N   0  3  0  0  0  0  0  0  0  0  0  0
  146.1353  134.8896  153.3983 C   0  0  0  0  0  0  0  0  0  0  0  0
  146.6282  133.6851  152.5837 C   0  0  0  0  0  0  0  0  0  0  0  0
  145.5920  133.1560  151.7182 N   0  0  0  0  0  0  0  0  0  0  0  0
  145.7153  132.2414  150.6935 C   0  0  0  0  0  0  0  0  0  0  0  0
  144.4711  132.0570  150.1624 C   0  0  0  0  0  0  0  0  0  0  0  0
  143.6425  132.9183  150.9343 C   0  0  0  0  0  0  0  0  0  0  0  0
  144.3171  133.5767  151.8635 N   0  0  0  0  0  0  0  0  0  0  0  0
  148.0078  139.4966  153.2584 C   0  0  0  0  0  0  0  0  0  0  0  0
  146.5427  140.1791  155.6165 H   0  0  0  0  0  0  0  0  0  0  0  0
  145.4566  140.1827  154.2316 H   0  0  0  0  0  0  0  0  0  0  0  0
  145.8990  141.6974  155.0053 H   0  0  0  0  0  0  0  0  0  0  0  0
  147.1090  141.4055  152.8770 H   0  0  0  0  0  0  0  0  0  0  0  0
  149.2857  142.0094  153.5619 H   0  0  0  0  0  0  0  0  0  0  0  0
  148.2329  142.5997  154.8171 H   0  0  0  0  0  0  0  0  0  0  0  0
  148.8165  140.6935  156.2657 H   0  0  0  0  0  0  0  0  0  0  0  0
  151.3494  141.9140  155.0762 H   0  0  0  0  0  0  0  0  0  0  0  0
  151.2123  141.1438  156.6550 H   0  0  0  0  0  0  0  0  0  0  0  0
  150.3476  142.6411  156.3301 H   0  0  0  0  0  0  0  0  0  0  0  0
  150.5404  139.6773  153.9558 H   0  0  0  0  0  0  0  0  0  0  0  0
  150.4612  138.9736  155.5415 H   0  0  0  0  0  0  0  0  0  0  0  0
  146.5141  137.5904  153.7128 H   0  0  0  0  0  0  0  0  0  0  0  0
  145.7127  137.8633  156.0766 H   0  0  0  0  0  0  0  0  0  0  0  0
  146.2092  136.2070  156.4192 H   0  0  0  0  0  0  0  0  0  0  0  0
  144.9380  136.5323  155.2468 H   0  0  0  0  0  0  0  0  0  0  0  0
  147.9486  135.7668  153.2241 H   0  0  0  0  0  0  0  0  0  0  0  0
  145.4823  134.5483  154.2016 H   0  0  0  0  0  0  0  0  0  0  0  0
  145.5486  135.5547  152.7627 H   0  0  0  0  0  0  0  0  0  0  0  0
  147.4847  133.9637  151.9678 H   0  0  0  0  0  0  0  0  0  0  0  0
  146.9619  132.8882  153.2498 H   0  0  0  0  0  0  0  0  0  0  0  0
  146.6660  131.8015  150.4305 H   0  0  0  0  0  0  0  0  0  0  0  0
  144.1954  131.4074  149.3447 H   0  0  0  0  0  0  0  0  0  0  0  0
  142.5788  133.0838  150.8472 H   0  0  0  0  0  0  0  0  0  0  0  0
  147.2083  138.9271  152.7887 H   0  0  0  0  0  0  0  0  0  0  0  0
  148.7351  139.6587  152.4613 H   0  0  0  0  0  0  0  0  0  0  0  0
  147.7063  135.0906  154.6961 H   0  0  0  0  0  0  0  0  0  0  0  0
  1  2  1  0  0  0  0
  1 21  1  0  0  0  0
  1 22  1  0  0  0  0
  1 23  1  0  0  0  0
  2 20  1  0  0  0  0
  2  3  1  0  0  0  0
  2 24  1  0  0  0  0
  3  4  1  0  0  0  0
  3 25  1  0  0  0  0
  3 26  1  0  0  0  0
  4  5  1  0  0  0  0
  4  6  1  0  0  0  0
  4 27  1  0  0  0  0
  5 28  1  0  0  0  0
  5 29  1  0  0  0  0
  5 30  1  0  0  0  0
  6  7  1  0  0  0  0
  6 31  1  0  0  0  0
  6 32  1  0  0  0  0
  7  8  1  0  0  0  0
  7 20  1  0  0  0  0
  8  9  2  0  0  0  0
  8 10  1  0  0  0  0
 10 11  1  0  0  0  0
 10 12  1  0  0  0  0
 10 33  1  0  0  0  0
 11 34  1  0  0  0  0
 11 35  1  0  0  0  0
 11 36  1  0  0  0  0
 12 13  1  0  0  0  0
 12 37  1  0  0  0  0
 12 47  1  0  0  0  0
 13 14  1  0  0  0  0
 13 38  1  0  0  0  0
 13 39  1  0  0  0  0
 14 15  1  0  0  0  0
 14 40  1  0  0  0  0
 14 41  1  0  0  0  0
 15 19  1  0  0  0  0
 15 16  1  0  0  0  0
 16 17  2  0  0  0  0
 16 42  1  0  0  0  0
 17 18  1  0  0  0  0
 17 43  1  0  0  0  0
 18 19  2  0  0  0  0
 18 44  1  0  0  0  0
 20 45  1  0  0  0  0
 20 46  1  0  0  0  0
M  CHG  1  12   1
M  END
> <s_m_source_file>
AV-unprocessed.smi

> <i_m_source_file_index>
3331

> <i_lp_mmshare_version>
43012

> <i_f3d_flags>
0

> <s_epik_input>
W0NIM11bQ0BASF0xW0NIMl1bQ0BASF0oW0NIM10pW0NIMl1OKFtDSDJdMSlDKD1PKVtDQEhdKFtDSDNdKVtOSF1bQ0gyXVtDSDJdbjJbY0hdW2NIXVtjSF1uMg==

> <s_epik_cmdline>
J2VwaWtfcHl0aG9uJywgJy1waCcsICc3LjAnLCAnLXRuJywgJzgnLCAnLW1hJywgJzIwMCcsICctbWV0YWxfYmluZGluZycsICctaW1hZScsICc8aW5maWxlLm1hZT4nLCAnLW9tYWUnLCAnPG91dGZpbGUubWFlPic=

> <r_lp_tautomer_probability>
1

> <r_epik_Ionization_Penalty>
0.189706

> <r_epik_Ionization_Penalty_Charging>
0.189703

> <r_epik_Ionization_Penalty_Neutral>
2.45875e-06

> <r_epik_State_Penalty>
0.179341

> <r_epik_Charging_Adjusted_Penalty>
0.369044

> <i_epik_Tot_Q>
1

> <i_epik_Tot_abs_Q>
1

> <r_epik_Metal_State_Penalty>
0.179578

> <b_epik_Metal_Only>
0

> <s_lp_Force_Field>
OPLS_2005

> <r_lp_Energy>
29.8768

> <b_lp_Chiralities_Consistent>
1

> <s_lp_Variant>
AV-unprocessed.smi:3331-3

> <Gold.Version>
5.8.1

> <Gold.Id.Protein>
6NUR|6NUR_protein|mol2

> <Gold.PLP.Fitness>
43.4997

> <Gold.PLP.PLP>
-31.9344

> <Gold.PLP.part.hbond>
-1.0000

> <Gold.PLP.part.metal>
0.0000

> <Gold.PLP.part.buried>
-0.4038

> <Gold.PLP.part.nonpolar>
-29.8696

> <Gold.PLP.part.repulsive>
0.1679

> <Gold.PLP.ligand.clash>
0.0000

> <Gold.PLP.ligand.torsion>
0.2490

> <Gold.PLP.Chemscore.Hbond>
2.0000

> <Gold.PLP.Chemscore.CHOScore>
2.0000

> <Gold.PLP.Chemscore.Metal>
0.0000

> <Gold.Chemscore.Hbonds>
donor molecule, donor type, donor heavy atom, donor atom, acceptor molecule, acceptor atom, score
      L1  H    12    37       P1  7948  2.00
      L1  C    16    42       P1 10747  1.00
      L1  C    18    44       P1 10186  1.00

> <Gold.PLP.Chemscore.Internal.Correction>
0.0633

> <Gold.Rescore>
     Score         DG    S(hbond)    S(metal)    S(lipo)     H(rot)  DE(clash)    DE(int)     intcor
     12.78     -14.46       1.00        0.00      86.06       1.73       1.47       0.21       ----

> <Gold.Chemscore.Fitness>
12.7777

> <Gold.Chemscore.DG>
-14.4589

> <Gold.Chemscore.ZeroCoef>
-5.4800

> <Gold.Chemscore.Hbond>
0.9960

> <Gold.Chemscore.Metal>
0.0000

> <Gold.Chemscore.Lipo>
86.0619

> <Gold.Chemscore.Internal_Hbond>
0.0000

> <Gold.Chemscore.DEClash>
1.4690

> <Gold.Chemscore.DEInternal>
0.2123

> <Gold.Chemscore.Rot>
1.7254

> <Gold.Chemscore.Internal.Correction>
   9.000000E+99

> <Gold.Chemscore.Hbonds>
donor molecule, donor type, donor heavy atom, donor atom, acceptor molecule, acceptor atom, score
      L1  H    12    37       P1  7948  1.00

> <Gold.Chemscore.Hbond.Weighted>
-3.3267

> <Gold.Chemscore.Metal.Weighted>
-0.0000

> <Gold.Chemscore.Lipo.Weighted>
-10.0692

> <Gold.Chemscore.Internal_Hbond.Weighted>
0.0000

> <Gold.Chemscore.DEClash.Weighted>
1.4690

> <Gold.Chemscore.DEInternal.Weighted>
0.2123

> <Gold.Chemscore.Rot.Weighted>
4.4170

> <Gold.Chemscore.Internal.Correction.Weighted>
   9.000000E+99

> <Gold.Protein.RotatedTorsions>
[ 6907 6896 6895 6894 ] final  150.32 input  -60.11 | X-H torsion
[ 7974 7965 7964 7962 ] final -110.81 input  175.53 | X-H torsion
[ 8008 7997 7996 7995 ] final -140.61 input   59.86 | X-H torsion
[ 10167 10162 10161 10158 ] final  115.67 input  -65.29 | X-H torsion
[ 10718 10713 10712 10709 ] final   64.13 input   66.30 | X-H torsion
[ 10763 10752 10751 10750 ] final  -64.82 input  -60.55 | X-H torsion
[ 11005 11000 10999 10996 ] final  -72.98 input  -57.11 | X-H torsion

> <Gold.Protein.ActiveResidues>
 VAL166  LYS551  ARG553  GLY616  TRP617  ASP618  TYR619  PRO620  LYS621  CYS622 
 ASP623  PHE694  ASN695  SER759  ASP760  ASP761  ALA762  ILE779  LEU786  VAL792 
 PHE793  MET794  SER795  GLU796  ALA797  LYS798  CYS799  TRP800  GLU811  SER814 

> <Gold.Protein.RotatedAtoms>
  152.1160  133.4327  159.4652 H   0  0  0  0  0  0  0  0  0  0  0  0  # atno 6907 bound_to 6896
  150.6869  134.2592  159.4551 H   0  0  0  0  0  0  0  0  0  0  0  0  # atno 6908 bound_to 6896
  152.0464  134.9679  160.0625 H   0  0  0  0  0  0  0  0  0  0  0  0  # atno 6909 bound_to 6896
  145.1637  140.8891  143.3576 H   0  0  0  0  0  0  0  0  0  0  0  0  # atno 7974 bound_to 7965
  155.4643  140.0548  157.2987 H   0  0  0  0  0  0  0  0  0  0  0  0  # atno 8008 bound_to 7997
  154.4724  140.2046  155.9915 H   0  0  0  0  0  0  0  0  0  0  0  0  # atno 8009 bound_to 7997
  156.1078  140.3209  155.8035 H   0  0  0  0  0  0  0  0  0  0  0  0  # atno 8010 bound_to 7997
  139.6300  144.7113  151.2451 H   0  0  0  0  0  0  0  0  0  0  0  0  # atno 10167 bound_to 10162
  157.6018  130.9143  149.9805 H   0  0  0  0  0  0  0  0  0  0  0  0  # atno 10718 bound_to 10713
  154.3358  135.6167  153.5573 H   0  0  0  0  0  0  0  0  0  0  0  0  # atno 10763 bound_to 10752
  152.9808  135.5758  154.4909 H   0  0  0  0  0  0  0  0  0  0  0  0  # atno 10764 bound_to 10752
  154.4604  135.2855  155.1694 H   0  0  0  0  0  0  0  0  0  0  0  0  # atno 10765 bound_to 10752
  141.1616  133.6864  156.7142 H   0  0  0  0  0  0  0  0  0  0  0  0  # atno 11005 bound_to 11000
  145.0304  139.3345  143.6027 LP  0  0  0  0  0  0  0  0  0  0  0  0  # atno 17320 bound_to 7965
  146.3479  139.9640  142.8714 LP  0  0  0  0  0  0  0  0  0  0  0  0  # atno 17321 bound_to 7965
  140.7434  143.6497  150.8260 LP  0  0  0  0  0  0  0  0  0  0  0  0  # atno 17342 bound_to 10162
  140.0120  143.5632  152.2835 LP  0  0  0  0  0  0  0  0  0  0  0  0  # atno 17343 bound_to 10162
  156.1094  130.3651  150.0076 LP  0  0  0  0  0  0  0  0  0  0  0  0  # atno 17370 bound_to 10713
  156.8178  130.9348  151.3642 LP  0  0  0  0  0  0  0  0  0  0  0  0  # atno 17371 bound_to 10713
  140.2864  134.8275  157.3979 LP  0  0  0  0  0  0  0  0  0  0  0  0  # atno 17394 bound_to 11000
  140.1386  134.5001  155.8049 LP  0  0  0  0  0  0  0  0  0  0  0  0  # atno 17395 bound_to 11000

$$$$
