AV-unprocessed.smi:1670|AV-procd|sdf|6696|dock5
  -GOLD-   22720 7433D 1   1.00000     0.00000
 Structure written by MMmdl.
 41 42  0  0  0  0  0  0  0  0  1 V2000
  150.0170  133.2556  155.6377 C   0  0  0  0  0  0  0  0  0  0  0  0
  149.6051  134.6605  155.1772 C   0  0  1  0  0  0  0  0  0  0  0  0
  150.8298  135.5906  155.0460 C   0  0  0  0  0  0  0  0  0  0  0  0
  150.4682  136.9976  155.0651 N   0  0  0  0  0  0  0  0  0  0  0  0
  150.7724  137.9730  154.1391 C   0  0  0  0  0  0  0  0  0  0  0  0
  150.2360  139.1442  154.5915 C   0  0  0  0  0  0  0  0  0  0  0  0
  149.6122  138.7789  155.8170 C   0  0  0  0  0  0  0  0  0  0  0  0
  149.7490  137.4929  156.0959 N   0  0  0  0  0  0  0  0  0  0  0  0
  148.8931  134.5554  153.9040 N   0  0  0  0  0  0  0  0  0  0  0  0
  147.8819  133.7138  153.6433 C   0  0  0  0  0  0  0  0  0  0  0  0
  147.4457  132.8862  154.4439 O   0  0  0  0  0  0  0  0  0  0  0  0
  147.3928  133.8941  152.4088 N   0  0  0  0  0  0  0  0  0  0  0  0
  146.2690  133.1604  151.8349 C   0  0  2  0  0  0  0  0  0  0  0  0
  146.5152  132.8726  150.3405 C   0  0  0  0  0  0  0  0  0  0  0  0
  145.3148  132.1544  149.6993 C   0  0  0  0  0  0  0  0  0  0  0  0
  143.9930  132.9167  149.9129 C   0  0  2  0  0  0  0  0  0  0  0  0
  143.9868  134.1030  149.1433 O   0  0  0  0  0  0  0  0  0  0  0  0
  143.7644  133.2510  151.3992 C   0  0  0  0  0  0  0  0  0  0  0  0
  144.9725  133.9672  152.0282 C   0  0  0  0  0  0  0  0  0  0  0  0
  150.5265  133.2926  156.6011 H   0  0  0  0  0  0  0  0  0  0  0  0
  150.6923  132.7843  154.9226 H   0  0  0  0  0  0  0  0  0  0  0  0
  149.1467  132.6082  155.7515 H   0  0  0  0  0  0  0  0  0  0  0  0
  148.9404  135.0670  155.9418 H   0  0  0  0  0  0  0  0  0  0  0  0
  151.5210  135.4154  155.8712 H   0  0  0  0  0  0  0  0  0  0  0  0
  151.3806  135.3728  154.1291 H   0  0  0  0  0  0  0  0  0  0  0  0
  151.3448  137.7555  153.2494 H   0  0  0  0  0  0  0  0  0  0  0  0
  150.2844  140.1145  154.1202 H   0  0  0  0  0  0  0  0  0  0  0  0
  149.0675  139.4057  156.5073 H   0  0  0  0  0  0  0  0  0  0  0  0
  149.1722  135.1968  153.1764 H   0  0  0  0  0  0  0  0  0  0  0  0
  147.8174  134.6017  151.8275 H   0  0  0  0  0  0  0  0  0  0  0  0
  146.1564  132.2115  152.3632 H   0  0  0  0  0  0  0  0  0  0  0  0
  146.7069  133.8068  149.8109 H   0  0  0  0  0  0  0  0  0  0  0  0
  147.4102  132.2617  150.2179 H   0  0  0  0  0  0  0  0  0  0  0  0
  145.4957  131.9996  148.6350 H   0  0  0  0  0  0  0  0  0  0  0  0
  145.2254  131.1600  150.1386 H   0  0  0  0  0  0  0  0  0  0  0  0
  143.1657  132.3030  149.5554 H   0  0  0  0  0  0  0  0  0  0  0  0
  144.7968  134.1510  148.6586 H   0  0  0  0  0  0  0  0  0  0  0  0
  142.8657  133.8576  151.5172 H   0  0  0  0  0  0  0  0  0  0  0  0
  143.5793  132.3258  151.9464 H   0  0  0  0  0  0  0  0  0  0  0  0
  144.7879  134.1278  153.0911 H   0  0  0  0  0  0  0  0  0  0  0  0
  145.0815  134.9572  151.5824 H   0  0  0  0  0  0  0  0  0  0  0  0
  1  2  1  0  0  0  0
  1 20  1  0  0  0  0
  1 21  1  0  0  0  0
  1 22  1  0  0  0  0
  2  3  1  0  0  0  0
  2  9  1  0  0  0  0
  2 23  1  0  0  0  0
  3  4  1  0  0  0  0
  3 24  1  0  0  0  0
  3 25  1  0  0  0  0
  4  8  1  0  0  0  0
  4  5  1  0  0  0  0
  5  6  2  0  0  0  0
  5 26  1  0  0  0  0
  6  7  1  0  0  0  0
  6 27  1  0  0  0  0
  7  8  2  0  0  0  0
  7 28  1  0  0  0  0
  9 10  1  0  0  0  0
  9 29  1  0  0  0  0
 10 11  2  0  0  0  0
 10 12  1  0  0  0  0
 12 13  1  0  0  0  0
 12 30  1  0  0  0  0
 13 19  1  0  0  0  0
 13 14  1  0  0  0  0
 13 31  1  0  0  0  0
 14 15  1  0  0  0  0
 14 32  1  0  0  0  0
 14 33  1  0  0  0  0
 15 16  1  0  0  0  0
 15 34  1  0  0  0  0
 15 35  1  0  0  0  0
 16 17  1  0  0  0  0
 16 18  1  0  0  0  0
 16 36  1  0  0  0  0
 17 37  1  0  0  0  0
 18 19  1  0  0  0  0
 18 38  1  0  0  0  0
 18 39  1  0  0  0  0
 19 40  1  0  0  0  0
 19 41  1  0  0  0  0
M  END
> <s_m_source_file>
AV-unprocessed.smi

> <i_m_source_file_index>
1670

> <i_lp_mmshare_version>
43012

> <i_f3d_flags>
0

> <s_epik_input>
bjFbY0hdW2NIXVtjSF1uMVtDSDJdW0NAQEhdKFtDSDNdKVtOSF1DKD1PKVtOSF1bQ0BASF0yW0NIMl1bQ0gyXVtDQEBIXShbT0hdKVtDSDJdW0NIMl0y

> <s_epik_cmdline>
J2VwaWtfcHl0aG9uJywgJy1waCcsICc3LjAnLCAnLXRuJywgJzgnLCAnLW1hJywgJzIwMCcsICctbWV0YWxfYmluZGluZycsICctaW1hZScsICc8aW5maWxlLm1hZT4nLCAnLW9tYWUnLCAnPG91dGZpbGUubWFlPic=

> <r_lp_tautomer_probability>
1

> <r_epik_Ionization_Penalty>
7.33369e-05

> <r_epik_Ionization_Penalty_Charging>
0

> <r_epik_Ionization_Penalty_Neutral>
7.33369e-05

> <r_epik_State_Penalty>
-0

> <r_epik_Charging_Adjusted_Penalty>
0

> <i_epik_Tot_Q>
0

> <i_epik_Tot_abs_Q>
0

> <r_epik_Metal_State_Penalty>
-0

> <b_epik_Metal_Only>
0

> <s_lp_Force_Field>
OPLS_2005

> <r_lp_Energy>
7.95732

> <b_lp_Chiralities_Consistent>
1

> <s_lp_Variant>
AV-unprocessed.smi:1670-4

> <Gold.Version>
5.8.1

> <Gold.Id.Protein>
6NUR|6NUR_protein|mol2

> <Gold.PLP.Fitness>
44.7271

> <Gold.PLP.PLP>
-34.2554

> <Gold.PLP.part.hbond>
-3.6278

> <Gold.PLP.part.metal>
0.0000

> <Gold.PLP.part.buried>
-3.5480

> <Gold.PLP.part.nonpolar>
-26.9193

> <Gold.PLP.part.repulsive>
0.0775

> <Gold.PLP.ligand.clash>
0.0000

> <Gold.PLP.ligand.torsion>
0.6152

> <Gold.PLP.Chemscore.Hbond>
2.8960

> <Gold.PLP.Chemscore.CHOScore>
1.0000

> <Gold.PLP.Chemscore.Metal>
0.0000

> <Gold.Chemscore.Hbonds>
donor molecule, donor type, donor heavy atom, donor atom, acceptor molecule, acceptor atom, score
      L1  H     9    29       P1  7948  0.85
      L1  H    12    30       P1  7948  0.90
      L1  H    17    37       P1  7921  1.00
      L1  C     5    26       P1  7949  1.00

> <Gold.PLP.Chemscore.Internal.Correction>
0.0141

> <Gold.Rescore>
     Score         DG    S(hbond)    S(metal)    S(lipo)     H(rot)  DE(clash)    DE(int)     intcor
     15.68     -17.77       2.60        0.00      79.62       2.22       0.06       2.04       ----

> <Gold.Chemscore.Fitness>
15.6759

> <Gold.Chemscore.DG>
-17.7740

> <Gold.Chemscore.ZeroCoef>
-5.4800

> <Gold.Chemscore.Hbond>
2.5951

> <Gold.Chemscore.Metal>
0.0000

> <Gold.Chemscore.Lipo>
79.6211

> <Gold.Chemscore.Internal_Hbond>
0.0000

> <Gold.Chemscore.DEClash>
0.0587

> <Gold.Chemscore.DEInternal>
2.0394

> <Gold.Chemscore.Rot>
2.2224

> <Gold.Chemscore.Internal.Correction>
   9.000000E+99

> <Gold.Chemscore.Hbonds>
donor molecule, donor type, donor heavy atom, donor atom, acceptor molecule, acceptor atom, score
      L1  H     9    29       P1  7948  0.14
      L1  H    12    30       P1  7948  0.22
      L1  H    17    37       P1  7921  1.00

> <Gold.Chemscore.Hbond.Weighted>
-8.6676

> <Gold.Chemscore.Metal.Weighted>
-0.0000

> <Gold.Chemscore.Lipo.Weighted>
-9.3157

> <Gold.Chemscore.Internal_Hbond.Weighted>
0.0000

> <Gold.Chemscore.DEClash.Weighted>
0.0587

> <Gold.Chemscore.DEInternal.Weighted>
2.0394

> <Gold.Chemscore.Rot.Weighted>
5.6893

> <Gold.Chemscore.Internal.Correction.Weighted>
   9.000000E+99

> <Gold.Protein.RotatedTorsions>
[ 6907 6896 6895 6894 ] final   81.46 input  -60.11 | X-H torsion
[ 7974 7965 7964 7962 ] final  -54.75 input  175.53 | X-H torsion
[ 8008 7997 7996 7995 ] final   41.81 input   59.86 | X-H torsion
[ 10167 10162 10161 10158 ] final -134.52 input  -65.29 | X-H torsion
[ 10718 10713 10712 10709 ] final  168.25 input   66.30 | X-H torsion
[ 10763 10752 10751 10750 ] final  163.09 input  -60.55 | X-H torsion
[ 11005 11000 10999 10996 ] final   90.26 input  -57.11 | X-H torsion

> <Gold.Protein.ActiveResidues>
 VAL166  LYS551  ARG553  GLY616  TRP617  ASP618  TYR619  PRO620  LYS621  CYS622 
 ASP623  PHE694  ASN695  SER759  ASP760  ASP761  ALA762  ILE779  LEU786  VAL792 
 PHE793  MET794  SER795  GLU796  ALA797  LYS798  CYS799  TRP800  GLU811  SER814 

> <Gold.Protein.RotatedAtoms>
  152.5269  134.3200  159.9144 H   0  0  0  0  0  0  0  0  0  0  0  0  # atno 6907 bound_to 6896
  151.3149  133.4058  159.2657 H   0  0  0  0  0  0  0  0  0  0  0  0  # atno 6908 bound_to 6896
  151.0007  134.9337  159.8009 H   0  0  0  0  0  0  0  0  0  0  0  0  # atno 6909 bound_to 6896
  145.8820  140.8137  142.9835 H   0  0  0  0  0  0  0  0  0  0  0  0  # atno 7974 bound_to 7965
  155.2757  140.3369  155.4262 H   0  0  0  0  0  0  0  0  0  0  0  0  # atno 8008 bound_to 7997
  156.2112  140.1771  156.7731 H   0  0  0  0  0  0  0  0  0  0  0  0  # atno 8009 bound_to 7997
  154.5689  140.0673  156.8919 H   0  0  0  0  0  0  0  0  0  0  0  0  # atno 8010 bound_to 7997
  139.8872  143.6766  152.2618 H   0  0  0  0  0  0  0  0  0  0  0  0  # atno 10167 bound_to 10162
  157.0398  131.0283  151.2717 H   0  0  0  0  0  0  0  0  0  0  0  0  # atno 10718 bound_to 10713
  154.2883  135.2761  155.2666 H   0  0  0  0  0  0  0  0  0  0  0  0  # atno 10763 bound_to 10752
  154.5156  135.5770  153.6643 H   0  0  0  0  0  0  0  0  0  0  0  0  # atno 10764 bound_to 10752
  152.9918  135.6192  154.3047 H   0  0  0  0  0  0  0  0  0  0  0  0  # atno 10765 bound_to 10752
  139.8859  134.8603  156.3259 H   0  0  0  0  0  0  0  0  0  0  0  0  # atno 11005 bound_to 11000
  144.6727  140.1397  143.7438 LP  0  0  0  0  0  0  0  0  0  0  0  0  # atno 17320 bound_to 7965
  145.9012  139.2432  143.1492 LP  0  0  0  0  0  0  0  0  0  0  0  0  # atno 17321 bound_to 7965
  139.7142  144.7615  151.1061 LP  0  0  0  0  0  0  0  0  0  0  0  0  # atno 17342 bound_to 10162
  140.7733  143.5291  150.9445 LP  0  0  0  0  0  0  0  0  0  0  0  0  # atno 17343 bound_to 10162
  157.5113  130.7940  149.7708 LP  0  0  0  0  0  0  0  0  0  0  0  0  # atno 17370 bound_to 10713
  156.0042  130.3864  150.2493 LP  0  0  0  0  0  0  0  0  0  0  0  0  # atno 17371 bound_to 10713
  140.9755  133.7300  156.0596 LP  0  0  0  0  0  0  0  0  0  0  0  0  # atno 17394 bound_to 11000
  140.7816  134.3719  157.5486 LP  0  0  0  0  0  0  0  0  0  0  0  0  # atno 17395 bound_to 11000

$$$$
