#       Name:                AV-unprocessed.smi:38
#       Creating user name   scv26
#       Creation time:       Thu Mar 26 16:18:18 2020


#       File generated by GOLD software.
#

@<TRIPOS>MOLECULE
AV-unprocessed.smi:38
    38    39     1
SMALL
NO_CHARGES


@<TRIPOS>ATOM
      1 ****        -4.3232   2.6838   1.6459 O.2            1 S1                 0.0000
      2 ****        -3.3653   2.2127   1.0346 C.2            1 S1                 0.0000
      3 ****        -3.3599   2.0552  -0.3207 N.pl3          1 S1                -1.0000
      4 ****        -2.2969   1.5296  -0.9974 C.2            1 S1                 0.0000
      5 ****        -2.2848   1.3801  -2.2197 O.2            1 S1                 0.0000
      6 ****        -1.1447   1.1289  -0.2667 N.am           1 S1                 0.0000
      7 ****         0.0303   0.5444  -1.0241 C.3            1 S1                 0.0000
      8 ****        -0.2623  -0.9060  -1.4382 C.3            1 S1                 0.0000
      9 ****         0.9971  -1.6282  -1.0008 C.3            1 S1                 0.0000
     10 ****         0.7256  -2.9803  -0.6931 O.3            1 S1                 0.0000
     11 ****         1.4195  -0.8209   0.2264 C.3            1 S1                 0.0000
     12 ****         2.9050  -0.9779   0.5851 C.3            1 S1                 0.0000
     13 ****         3.1369  -0.5335   1.9049 O.3            1 S1                 0.0000
     14 ****         1.1614   0.5137  -0.2007 O.3            1 S1                 0.0000
     15 ****        -1.1218   1.2793   1.1108 C.2            1 S1                 0.0000
     16 ****        -2.1750   1.7982   1.7750 C.2            1 S1                 0.0000
     17 ****        -2.1238   1.9310   3.1118 F              1 S1                 0.0000
     18 ****         0.2156   1.2213  -1.8599 H              1 S1                 0.0000
     19 ****         1.7558  -1.5637  -1.7822 H              1 S1                 0.0000
     20 ****         0.7766  -1.0722   1.0725 H              1 S1                 0.0000
     21 ****        -1.1337  -1.2757  -0.8938 H              1 S1                 0.0000
     22 ****        -0.4568  -0.9789  -2.5085 H              1 S1                 0.0000
     23 ****         0.3939  -3.4033  -1.4704 H              1 S1                 0.0000
     24 ****         3.1917  -2.0288   0.5402 H              1 S1                 0.0000
     25 ****         3.5419  -0.4380  -0.1160 H              1 S1                 0.0000
     26 ****         4.0528  -0.6516   2.1050 H              1 S1                 0.0000
     27 ****        -0.2551   0.9817   1.6808 H              1 S1                 0.0000
     28 ****        -4.2832   2.7803   2.6404 LP             1 S1                 0.0000
     29 ****        -5.1420   2.9702   1.1483 LP             1 S1                 0.0000
     30 ****        -4.1674   2.3361  -0.8395 LP             1 S1                 0.0000
     31 ****        -3.0794   1.6488  -2.7642 LP             1 S1                 0.0000
     32 ****        -1.4805   0.9899  -2.6678 LP             1 S1                 0.0000
     33 ****         0.0427  -3.0300   0.0357 LP             1 S1                 0.0000
     34 ****         1.5654  -3.4337  -0.3945 LP             1 S1                 0.0000
     35 ****         2.5809  -1.0665   2.5427 LP             1 S1                 0.0000
     36 ****         2.8970   0.4342   1.9819 LP             1 S1                 0.0000
     37 ****         1.0039   1.0925   0.5994 LP             1 S1                 0.0000
     38 ****         1.9507   0.8565  -0.7100 LP             1 S1                 0.0000
@<TRIPOS>BOND
    1    1    2 2     
    2    2   16 1     
    3    2    3 1     
    4    3    4 1     
    5    4    5 2     
    6    4    6 am    
    7    6    7 1     
    8    6   15 1     
    9    7   18 1     
   10    7   14 1     
   11    7    8 1     
   12    8    9 1     
   13    8   21 1     
   14    8   22 1     
   15    9   19 1     
   16    9   10 1     
   17    9   11 1     
   18   10   23 1     
   19   11   20 1     
   20   11   12 1     
   21   11   14 1     
   22   12   13 1     
   23   12   24 1     
   24   12   25 1     
   25   13   26 1     
   26   15   16 2     
   27   15   27 1     
   28   16   17 1     
   29    1   28 1     
   30    1   29 1     
   31    3   30 1     
   32    5   31 1     
   33    5   32 1     
   34   10   33 1     
   35   10   34 1     
   36   13   35 1     
   37   13   36 1     
   38   14   37 1     
   39   14   38 1     
@<TRIPOS>SUBSTRUCTURE
      1 S1             1
@<TRIPOS>SET
LONE_PAIRS      STATIC     ATOMS    <user>   **** ""
11 28 29 30 31 32 33 34 35 36 37 38
DONOR_HYDROGENS      STATIC     ATOMS    <user>   **** ""
2 23 26
ATOM$BLUE        STATIC     ATOMS    COLORGROUP SYSTEM
11 28 29 30 31 32 33 34 35 36 37 38
ATOM$RED        STATIC     ATOMS    COLORGROUP SYSTEM
2 23 26
