AV-unprocessed.smi:1032|AV-procd|sdf|4489|dock10
  -GOLD-   22720 2473D 1   1.00000     0.00000
 Structure written by MMmdl.
 47 48  0  0  0  0  0  0  0  0  3 V2000
  149.0607  135.6429  157.8171 C   0  0  0  0  0  0  0  0  0  0  0  0
  148.8000  135.2885  156.3427 C   0  0  2  0  0  0  0  0  0  0  0  0
  150.0957  135.0237  155.5540 C   0  0  0  0  0  0  0  0  0  0  0  0
  150.8656  136.3198  155.2429 C   0  0  0  0  0  0  0  0  0  0  0  0
  150.0049  137.2971  154.5256 N   0  3  2  0  0  0  0  0  0  0  0  0
  150.7373  138.5124  154.0847 C   0  0  0  0  0  0  0  0  0  0  0  0
  150.7901  139.6005  155.1772 C   0  0  1  0  0  0  0  0  0  0  0  0
  152.0049  140.3028  155.0005 O   0  0  0  0  0  0  0  0  0  0  0  0
  149.6234  140.5999  155.0358 C   0  0  0  0  0  0  0  0  0  0  0  0
  149.8513  141.8215  155.8021 N   0  0  0  0  0  0  0  0  0  0  0  0
  150.4033  141.8725  157.0225 C   0  0  0  0  0  0  0  0  0  0  0  0
  150.7570  140.8734  157.6479 O   0  0  0  0  0  0  0  0  0  0  0  0
  150.4921  143.1380  157.4672 N   0  0  0  0  0  0  0  0  0  0  0  0
  151.0453  143.6087  158.6893 C   0  0  0  0  0  0  0  0  0  0  0  0
  150.8769  144.9764  159.0009 C   0  0  0  0  0  0  0  0  0  0  0  0
  151.4249  145.4907  160.1936 C   0  0  0  0  0  0  0  0  0  0  0  0
  152.1143  144.6777  161.0223 N   0  3  0  0  0  0  0  0  0  0  0  0
  152.3140  143.3681  160.7608 C   0  0  0  0  0  0  0  0  0  0  0  0
  151.7889  142.7969  159.5838 C   0  0  0  0  0  0  0  0  0  0  0  0
  148.7822  137.6236  155.3030 C   0  0  0  0  0  0  0  0  0  0  0  0
  147.9651  136.3565  155.6132 C   0  0  0  0  0  0  0  0  0  0  0  0
  149.6372  136.5612  157.9248 H   0  0  0  0  0  0  0  0  0  0  0  0
  149.6127  134.8469  158.3176 H   0  0  0  0  0  0  0  0  0  0  0  0
  148.1232  135.7775  158.3570 H   0  0  0  0  0  0  0  0  0  0  0  0
  148.2219  134.3633  156.3464 H   0  0  0  0  0  0  0  0  0  0  0  0
  150.7356  134.3299  156.1006 H   0  0  0  0  0  0  0  0  0  0  0  0
  149.8469  134.5279  154.6146 H   0  0  0  0  0  0  0  0  0  0  0  0
  151.2428  136.7686  156.1630 H   0  0  0  0  0  0  0  0  0  0  0  0
  151.7380  136.0722  154.6391 H   0  0  0  0  0  0  0  0  0  0  0  0
  151.7610  138.2505  153.8107 H   0  0  0  0  0  0  0  0  0  0  0  0
  150.2733  138.8992  153.1760 H   0  0  0  0  0  0  0  0  0  0  0  0
  150.7698  139.1498  156.1692 H   0  0  0  0  0  0  0  0  0  0  0  0
  152.1975  140.7770  155.7959 H   0  0  0  0  0  0  0  0  0  0  0  0
  149.4018  140.8174  153.9889 H   0  0  0  0  0  0  0  0  0  0  0  0
  148.7160  140.1574  155.4474 H   0  0  0  0  0  0  0  0  0  0  0  0
  149.5843  142.6903  155.3622 H   0  0  0  0  0  0  0  0  0  0  0  0
  150.0740  143.8449  156.8799 H   0  0  0  0  0  0  0  0  0  0  0  0
  150.3283  145.6287  158.3368 H   0  0  0  0  0  0  0  0  0  0  0  0
  151.3350  146.5210  160.5059 H   0  0  0  0  0  0  0  0  0  0  0  0
  152.8898  142.8207  161.4928 H   0  0  0  0  0  0  0  0  0  0  0  0
  151.9786  141.7532  159.3847 H   0  0  0  0  0  0  0  0  0  0  0  0
  149.0579  138.1404  156.2230 H   0  0  0  0  0  0  0  0  0  0  0  0
  148.1587  138.3121  154.7315 H   0  0  0  0  0  0  0  0  0  0  0  0
  147.5931  135.9392  154.6762 H   0  0  0  0  0  0  0  0  0  0  0  0
  147.0826  136.6133  156.2001 H   0  0  0  0  0  0  0  0  0  0  0  0
  149.6836  136.8450  153.6810 H   0  0  0  0  0  0  0  0  0  0  0  0
  152.5044  145.0701  161.8796 H   0  0  0  0  0  0  0  0  0  0  0  0
  1  2  1  0  0  0  0
  1 22  1  0  0  0  0
  1 23  1  0  0  0  0
  1 24  1  0  0  0  0
  2 21  1  0  0  0  0
  2  3  1  0  0  0  0
  2 25  1  0  0  0  0
  3  4  1  0  0  0  0
  3 26  1  0  0  0  0
  3 27  1  0  0  0  0
  4  5  1  0  0  0  0
  4 28  1  0  0  0  0
  4 29  1  0  0  0  0
  5  6  1  0  0  0  0
  5 20  1  0  0  0  0
  5 46  1  0  0  0  0
  6  7  1  0  0  0  0
  6 30  1  0  0  0  0
  6 31  1  0  0  0  0
  7  8  1  0  0  0  0
  7  9  1  0  0  0  0
  7 32  1  0  0  0  0
  8 33  1  0  0  0  0
  9 10  1  0  0  0  0
  9 34  1  0  0  0  0
  9 35  1  0  0  0  0
 10 11  1  0  0  0  0
 10 36  1  0  0  0  0
 11 12  2  0  0  0  0
 11 13  1  0  0  0  0
 13 14  1  0  0  0  0
 13 37  1  0  0  0  0
 14 19  1  0  0  0  0
 14 15  2  0  0  0  0
 15 16  1  0  0  0  0
 15 38  1  0  0  0  0
 16 17  2  0  0  0  0
 16 39  1  0  0  0  0
 17 18  1  0  0  0  0
 17 47  1  0  0  0  0
 18 19  2  0  0  0  0
 18 40  1  0  0  0  0
 19 41  1  0  0  0  0
 20 21  1  0  0  0  0
 20 42  1  0  0  0  0
 20 43  1  0  0  0  0
 21 44  1  0  0  0  0
 21 45  1  0  0  0  0
M  CHG  1   5   1
M  CHG  1  17   1
M  END
> <s_m_source_file>
AV-unprocessed.smi

> <i_m_source_file_index>
1032

> <i_lp_mmshare_version>
43012

> <i_f3d_flags>
0

> <s_epik_input>
W0NIM11bQ0hdMVtDSDJdW0NIMl1OKFtDSDJdW0NIMl0xKVtDSDJdW0NASF0oW09IXSlbQ0gyXVtOSF1DKD1PKVtOSF1jMltjSF1bY0hdbltjSF1bY0hdMg==

> <s_epik_cmdline>
J2VwaWtfcHl0aG9uJywgJy1waCcsICc3LjAnLCAnLXRuJywgJzgnLCAnLW1hJywgJzIwMCcsICctbWV0YWxfYmluZGluZycsICctaW1hZScsICc8aW5maWxlLm1hZT4nLCAnLW9tYWUnLCAnPG91dGZpbGUubWFlPic=

> <r_epik_Ionization_Penalty>
1.02509

> <r_epik_Ionization_Penalty_Charging>
1.02507

> <r_epik_Ionization_Penalty_Neutral>
1.85474e-05

> <r_epik_State_Penalty>
1.07411

> <r_epik_Charging_Adjusted_Penalty>
2.09917

> <i_epik_Tot_Q>
2

> <i_epik_Tot_abs_Q>
2

> <r_epik_Metal_State_Penalty>
1.1725

> <b_epik_Metal_Only>
0

> <s_lp_Force_Field>
OPLS_2005

> <r_lp_Energy>
32.8821

> <b_lp_Chiralities_Consistent>
1

> <s_lp_Variant>
AV-unprocessed.smi:1032-8

> <Gold.Version>
5.8.1

> <Gold.Id.Protein>
6NUR|6NUR_protein|mol2

> <Gold.PLP.Fitness>
48.8753

> <Gold.PLP.PLP>
-36.8416

> <Gold.PLP.part.hbond>
-3.7102

> <Gold.PLP.part.metal>
0.0000

> <Gold.PLP.part.buried>
-4.8244

> <Gold.PLP.part.nonpolar>
-28.9026

> <Gold.PLP.part.repulsive>
0.2317

> <Gold.PLP.ligand.clash>
0.0000

> <Gold.PLP.ligand.torsion>
0.9212

> <Gold.PLP.Chemscore.Hbond>
4.6154

> <Gold.PLP.Chemscore.CHOScore>
0.0000

> <Gold.PLP.Chemscore.Metal>
0.0000

> <Gold.Chemscore.Hbonds>
donor molecule, donor type, donor heavy atom, donor atom, acceptor molecule, acceptor atom, score
      L1  H     5    46       P1  7948  2.00
      L1  H    10    36       P1  8028  0.63
      L1  H    13    37       P1  8028  1.00
      P1  H  7989  7998       L1     8  0.63

> <Gold.PLP.Chemscore.Internal.Correction>
0.0299

> <Gold.Rescore>
     Score         DG    S(hbond)    S(metal)    S(lipo)     H(rot)  DE(clash)    DE(int)     intcor
     17.53     -20.92       3.38        0.00      86.68       2.34       0.00       3.40       ----

> <Gold.Chemscore.Fitness>
17.5258

> <Gold.Chemscore.DG>
-20.9215

> <Gold.Chemscore.ZeroCoef>
-5.4800

> <Gold.Chemscore.Hbond>
3.3800

> <Gold.Chemscore.Metal>
0.0000

> <Gold.Chemscore.Lipo>
86.6750

> <Gold.Chemscore.Internal_Hbond>
0.0000

> <Gold.Chemscore.DEClash>
0.0004

> <Gold.Chemscore.DEInternal>
3.3953

> <Gold.Chemscore.Rot>
2.3393

> <Gold.Chemscore.Internal.Correction>
   9.000000E+99

> <Gold.Chemscore.Hbonds>
donor molecule, donor type, donor heavy atom, donor atom, acceptor molecule, acceptor atom, score
      L1  H     5    46       P1  7948  0.66
      L1  H    10    36       P1  8028  0.61
      L1  H    13    37       P1  8028  0.99
      P1  H  7989  7998       L1     8  0.11

> <Gold.Chemscore.Hbond.Weighted>
-11.2892

> <Gold.Chemscore.Metal.Weighted>
-0.0000

> <Gold.Chemscore.Lipo.Weighted>
-10.1410

> <Gold.Chemscore.Internal_Hbond.Weighted>
0.0000

> <Gold.Chemscore.DEClash.Weighted>
0.0004

> <Gold.Chemscore.DEInternal.Weighted>
3.3953

> <Gold.Chemscore.Rot.Weighted>
5.9886

> <Gold.Chemscore.Internal.Correction.Weighted>
   9.000000E+99

> <Gold.Protein.RotatedTorsions>
[ 6907 6896 6895 6894 ] final   41.94 input  -60.11 | X-H torsion
[ 7974 7965 7964 7962 ] final   57.73 input  175.53 | X-H torsion
[ 8008 7997 7996 7995 ] final  -38.38 input   59.86 | X-H torsion
[ 10167 10162 10161 10158 ] final  -63.73 input  -65.29 | X-H torsion
[ 10718 10713 10712 10709 ] final -146.86 input   66.30 | X-H torsion
[ 10763 10752 10751 10750 ] final   95.87 input  -60.55 | X-H torsion
[ 11005 11000 10999 10996 ] final   -2.07 input  -57.11 | X-H torsion

> <Gold.Protein.ActiveResidues>
 VAL166  LYS551  ARG553  GLY616  TRP617  ASP618  TYR619  PRO620  LYS621  CYS622 
 ASP623  PHE694  ASN695  SER759  ASP760  ASP761  ALA762  ILE779  LEU786  VAL792 
 PHE793  MET794  SER795  GLU796  ALA797  LYS798  CYS799  TRP800  GLU811  SER814 

> <Gold.Protein.RotatedAtoms>
  152.2016  134.8583  160.0507 H   0  0  0  0  0  0  0  0  0  0  0  0  # atno 6907 bound_to 6896
  151.9434  133.3639  159.3982 H   0  0  0  0  0  0  0  0  0  0  0  0  # atno 6908 bound_to 6896
  150.6956  134.4339  159.5305 H   0  0  0  0  0  0  0  0  0  0  0  0  # atno 6909 bound_to 6896
  145.9259  139.3767  143.0450 H   0  0  0  0  0  0  0  0  0  0  0  0  # atno 7974 bound_to 7965
  154.4038  140.1579  156.2690 H   0  0  0  0  0  0  0  0  0  0  0  0  # atno 8008 bound_to 7997
  155.8969  140.3435  155.5975 H   0  0  0  0  0  0  0  0  0  0  0  0  # atno 8009 bound_to 7997
  155.7493  140.0803  157.2199 H   0  0  0  0  0  0  0  0  0  0  0  0  # atno 8010 bound_to 7997
  140.5850  143.2332  151.6261 H   0  0  0  0  0  0  0  0  0  0  0  0  # atno 10167 bound_to 10162
  156.4002  130.7930  151.2140 H   0  0  0  0  0  0  0  0  0  0  0  0  # atno 10718 bound_to 10713
  153.2582  135.4238  155.0867 H   0  0  0  0  0  0  0  0  0  0  0  0  # atno 10763 bound_to 10752
  154.8409  135.3442  154.6415 H   0  0  0  0  0  0  0  0  0  0  0  0  # atno 10764 bound_to 10752
  153.6835  135.7037  153.5168 H   0  0  0  0  0  0  0  0  0  0  0  0  # atno 10765 bound_to 10752
  140.6543  133.9376  155.8398 H   0  0  0  0  0  0  0  0  0  0  0  0  # atno 11005 bound_to 11000
  145.8490  140.9539  143.0759 LP  0  0  0  0  0  0  0  0  0  0  0  0  # atno 17320 bound_to 7965
  144.6758  140.0382  143.7481 LP  0  0  0  0  0  0  0  0  0  0  0  0  # atno 17321 bound_to 7965
  139.5192  144.3260  152.0869 LP  0  0  0  0  0  0  0  0  0  0  0  0  # atno 17342 bound_to 10162
  140.2415  144.4264  150.6258 LP  0  0  0  0  0  0  0  0  0  0  0  0  # atno 17343 bound_to 10162
  157.7503  131.0289  150.4069 LP  0  0  0  0  0  0  0  0  0  0  0  0  # atno 17370 bound_to 10713
  156.4347  130.3979  149.6737 LP  0  0  0  0  0  0  0  0  0  0  0  0  # atno 17371 bound_to 10713
  141.0513  134.0481  157.3780 LP  0  0  0  0  0  0  0  0  0  0  0  0  # atno 17394 bound_to 11000
  139.9035  135.0172  156.7378 LP  0  0  0  0  0  0  0  0  0  0  0  0  # atno 17395 bound_to 11000

$$$$
