AV-unprocessed.smi:1900|AV-procd|sdf|7711|dock6
  -GOLD-   22720 9453D 1   1.00000     0.00000
 Structure written by MMmdl.
 44 45  0  0  0  0  0  0  0  0  2 V2000
  153.2987  138.7460  155.1237 C   0  0  0  0  0  0  0  0  0  0  0  0
  151.7716  138.6431  155.2022 C   0  0  2  0  0  0  0  0  0  0  0  0
  151.2024  137.6720  154.1473 C   0  0  0  0  0  0  0  0  0  0  0  0
  149.7194  137.6523  154.1759 N   0  3  1  0  0  0  0  0  0  0  0  0
  149.1573  136.8550  155.2985 C   0  0  0  0  0  0  0  0  0  0  0  0
  149.9308  135.5471  155.5364 C   0  0  0  0  0  0  0  0  0  0  0  0
  149.0868  134.3054  155.2036 C   0  0  0  0  0  0  0  0  0  0  0  0
  148.3570  134.4649  153.9511 N   0  0  0  0  0  0  0  0  0  0  0  0
  147.4320  133.6137  153.4855 C   0  0  0  0  0  0  0  0  0  0  0  0
  147.1074  132.5781  154.0673 O   0  0  0  0  0  0  0  0  0  0  0  0
  146.9181  134.0397  152.3201 N   0  0  0  0  0  0  0  0  0  0  0  0
  145.9170  133.4092  151.5388 C   0  0  0  0  0  0  0  0  0  0  0  0
  146.1732  132.5210  150.4592 C   0  0  0  0  0  0  0  0  0  0  0  0
  145.0469  132.0853  149.9135 N   0  0  0  0  0  0  0  0  0  0  0  0
  144.0741  132.6860  150.6354 N   0  0  0  0  0  0  0  0  0  0  0  0
  144.5567  133.5002  151.6360 C   0  0  0  0  0  0  0  0  0  0  0  0
  149.1837  139.0327  154.0581 C   0  0  0  0  0  0  0  0  0  0  0  0
  149.8128  139.9795  155.1027 C   0  0  2  0  0  0  0  0  0  0  0  0
  149.3584  141.4304  154.9099 C   0  0  0  0  0  0  0  0  0  0  0  0
  151.2303  139.9400  154.9759 O   0  0  0  0  0  0  0  0  0  0  0  0
  143.0960  132.5319  150.4353 H   0  0  0  0  0  0  0  0  0  0  0  0
  153.7667  137.7759  155.2925 H   0  0  0  0  0  0  0  0  0  0  0  0
  153.6823  139.4350  155.8768 H   0  0  0  0  0  0  0  0  0  0  0  0
  153.6208  139.1080  154.1470 H   0  0  0  0  0  0  0  0  0  0  0  0
  151.5010  138.3090  156.2051 H   0  0  0  0  0  0  0  0  0  0  0  0
  151.5187  137.9893  153.1527 H   0  0  0  0  0  0  0  0  0  0  0  0
  151.6012  136.6665  154.2869 H   0  0  0  0  0  0  0  0  0  0  0  0
  149.2165  137.4470  156.2128 H   0  0  0  0  0  0  0  0  0  0  0  0
  148.0989  136.6493  155.1383 H   0  0  0  0  0  0  0  0  0  0  0  0
  150.8385  135.5260  154.9339 H   0  0  0  0  0  0  0  0  0  0  0  0
  150.2498  135.5053  156.5788 H   0  0  0  0  0  0  0  0  0  0  0  0
  149.7159  133.4148  155.1558 H   0  0  0  0  0  0  0  0  0  0  0  0
  148.3592  134.1286  155.9960 H   0  0  0  0  0  0  0  0  0  0  0  0
  148.5589  135.2914  153.4073 H   0  0  0  0  0  0  0  0  0  0  0  0
  147.2718  134.9132  151.9578 H   0  0  0  0  0  0  0  0  0  0  0  0
  147.1195  132.1857  150.0608 H   0  0  0  0  0  0  0  0  0  0  0  0
  143.9053  134.0488  152.3000 H   0  0  0  0  0  0  0  0  0  0  0  0
  149.4177  139.3964  153.0566 H   0  0  0  0  0  0  0  0  0  0  0  0
  148.0972  139.0422  154.1336 H   0  0  0  0  0  0  0  0  0  0  0  0
  149.5350  139.6698  156.1110 H   0  0  0  0  0  0  0  0  0  0  0  0
  148.2760  141.5184  155.0073 H   0  0  0  0  0  0  0  0  0  0  0  0
  149.6379  141.8055  153.9249 H   0  0  0  0  0  0  0  0  0  0  0  0
  149.8126  142.0832  155.6555 H   0  0  0  0  0  0  0  0  0  0  0  0
  149.4362  137.1611  153.3397 H   0  0  0  0  0  0  0  0  0  0  0  0
  1  2  1  0  0  0  0
  1 22  1  0  0  0  0
  1 23  1  0  0  0  0
  1 24  1  0  0  0  0
  2 20  1  0  0  0  0
  2  3  1  0  0  0  0
  2 25  1  0  0  0  0
  3  4  1  0  0  0  0
  3 26  1  0  0  0  0
  3 27  1  0  0  0  0
  4  5  1  0  0  0  0
  4 17  1  0  0  0  0
  4 44  1  0  0  0  0
  5  6  1  0  0  0  0
  5 28  1  0  0  0  0
  5 29  1  0  0  0  0
  6  7  1  0  0  0  0
  6 30  1  0  0  0  0
  6 31  1  0  0  0  0
  7  8  1  0  0  0  0
  7 32  1  0  0  0  0
  7 33  1  0  0  0  0
  8  9  1  0  0  0  0
  8 34  1  0  0  0  0
  9 10  2  0  0  0  0
  9 11  1  0  0  0  0
 11 12  1  0  0  0  0
 11 35  1  0  0  0  0
 12 16  2  0  0  0  0
 12 13  1  0  0  0  0
 13 14  2  0  0  0  0
 13 36  1  0  0  0  0
 14 15  1  0  0  0  0
 15 21  1  0  0  0  0
 15 16  1  0  0  0  0
 16 37  1  0  0  0  0
 17 18  1  0  0  0  0
 17 38  1  0  0  0  0
 17 39  1  0  0  0  0
 18 19  1  0  0  0  0
 18 20  1  0  0  0  0
 18 40  1  0  0  0  0
 19 41  1  0  0  0  0
 19 42  1  0  0  0  0
 19 43  1  0  0  0  0
M  CHG  1   4   1
M  END
> <s_m_source_file>
AV-unprocessed.smi

> <i_m_source_file_index>
1900

> <i_lp_mmshare_version>
43012

> <i_f3d_flags>
0

> <s_epik_input>
W0NIM11bQ0BASF0xW0NIMl1OKFtDSDJdW0NASF0oTzEpW0NIM10pW0NIMl1bQ0gyXVtDSDJdW05IXUMoPU8pW05IXWMyW2NIXW5bbkhdW2NIXTI=

> <s_epik_cmdline>
J2VwaWtfcHl0aG9uJywgJy1waCcsICc3LjAnLCAnLXRuJywgJzgnLCAnLW1hJywgJzIwMCcsICctbWV0YWxfYmluZGluZycsICctaW1hZScsICc8aW5maWxlLm1hZT4nLCAnLW9tYWUnLCAnPG91dGZpbGUubWFlPic=

> <r_lp_tautomer_probability>
0.5

> <r_epik_Ionization_Penalty>
0.270543

> <r_epik_Ionization_Penalty_Charging>
0.270496

> <r_epik_Ionization_Penalty_Neutral>
4.67091e-05

> <r_epik_State_Penalty>
0.262618

> <r_epik_Charging_Adjusted_Penalty>
0.533114

> <i_epik_Tot_Q>
1

> <i_epik_Tot_abs_Q>
1

> <r_epik_Metal_State_Penalty>
0.262618

> <b_epik_Metal_Only>
0

> <s_lp_Force_Field>
OPLS_2005

> <r_lp_Energy>
20.3326

> <b_lp_Chiralities_Consistent>
1

> <s_lp_Variant>
AV-unprocessed.smi:1900-3

> <Gold.Version>
5.8.1

> <Gold.Id.Protein>
6NUR|6NUR_protein|mol2

> <Gold.PLP.Fitness>
48.0681

> <Gold.PLP.PLP>
-32.9574

> <Gold.PLP.part.hbond>
-4.0000

> <Gold.PLP.part.metal>
0.0000

> <Gold.PLP.part.buried>
-1.0529

> <Gold.PLP.part.nonpolar>
-28.0346

> <Gold.PLP.part.repulsive>
0.3708

> <Gold.PLP.ligand.clash>
0.0000

> <Gold.PLP.ligand.torsion>
1.3171

> <Gold.PLP.Chemscore.Hbond>
4.8960

> <Gold.PLP.Chemscore.CHOScore>
1.0000

> <Gold.PLP.Chemscore.Metal>
0.0000

> <Gold.Chemscore.Hbonds>
donor molecule, donor type, donor heavy atom, donor atom, acceptor molecule, acceptor atom, score
      L1  H     4    44       P1  7948  2.00
      L1  H     8    34       P1  7948  1.00
      L1  H    11    35       P1  7948  0.76
      P1  H  7989  7998       L1    20  1.00
      L1  C    13    36       P1 10747  1.00

> <Gold.PLP.Chemscore.Internal.Correction>
0.0569

> <Gold.Rescore>
     Score         DG    S(hbond)    S(metal)    S(lipo)     H(rot)  DE(clash)    DE(int)     intcor
     18.23     -20.56       3.15        0.00      81.39       1.93       1.05       1.29       ----

> <Gold.Chemscore.Fitness>
18.2302

> <Gold.Chemscore.DG>
-20.5647

> <Gold.Chemscore.ZeroCoef>
-5.4800

> <Gold.Chemscore.Hbond>
3.1483

> <Gold.Chemscore.Metal>
0.0000

> <Gold.Chemscore.Lipo>
81.3854

> <Gold.Chemscore.Internal_Hbond>
0.0000

> <Gold.Chemscore.DEClash>
1.0459

> <Gold.Chemscore.DEInternal>
1.2886

> <Gold.Chemscore.Rot>
1.9347

> <Gold.Chemscore.Internal.Correction>
   9.000000E+99

> <Gold.Chemscore.Hbonds>
donor molecule, donor type, donor heavy atom, donor atom, acceptor molecule, acceptor atom, score
      L1  H     4    44       P1  7948  0.91
      L1  H     8    34       P1  7948  0.90
      L1  H    11    35       P1  7948  0.67
      P1  H  7989  7998       L1    20  0.59

> <Gold.Chemscore.Hbond.Weighted>
-10.5154

> <Gold.Chemscore.Metal.Weighted>
-0.0000

> <Gold.Chemscore.Lipo.Weighted>
-9.5221

> <Gold.Chemscore.Internal_Hbond.Weighted>
0.0000

> <Gold.Chemscore.DEClash.Weighted>
1.0459

> <Gold.Chemscore.DEInternal.Weighted>
1.2886

> <Gold.Chemscore.Rot.Weighted>
4.9528

> <Gold.Chemscore.Internal.Correction.Weighted>
   9.000000E+99

> <Gold.Protein.RotatedTorsions>
[ 6907 6896 6895 6894 ] final -166.15 input  -60.11 | X-H torsion
[ 7974 7965 7964 7962 ] final  125.06 input  175.53 | X-H torsion
[ 8008 7997 7996 7995 ] final   24.90 input   59.86 | X-H torsion
[ 10167 10162 10161 10158 ] final  -18.81 input  -65.29 | X-H torsion
[ 10718 10713 10712 10709 ] final  -21.73 input   66.30 | X-H torsion
[ 10763 10752 10751 10750 ] final   82.42 input  -60.55 | X-H torsion
[ 11005 11000 10999 10996 ] final  -51.38 input  -57.11 | X-H torsion

> <Gold.Protein.ActiveResidues>
 VAL166  LYS551  ARG553  GLY616  TRP617  ASP618  TYR619  PRO620  LYS621  CYS622 
 ASP623  PHE694  ASN695  SER759  ASP760  ASP761  ALA762  ILE779  LEU786  VAL792 
 PHE793  MET794  SER795  GLU796  ALA797  LYS798  CYS799  TRP800  GLU811  SER814 

> <Gold.Protein.RotatedAtoms>
  151.4390  133.3648  159.2778 H   0  0  0  0  0  0  0  0  0  0  0  0  # atno 6907 bound_to 6896
  150.9171  134.8590  159.7475 H   0  0  0  0  0  0  0  0  0  0  0  0  # atno 6908 bound_to 6896
  152.4962  134.4325  159.9569 H   0  0  0  0  0  0  0  0  0  0  0  0  # atno 6909 bound_to 6896
  145.0773  139.3684  143.4927 H   0  0  0  0  0  0  0  0  0  0  0  0  # atno 7974 bound_to 7965
  155.0034  140.3128  155.4858 H   0  0  0  0  0  0  0  0  0  0  0  0  # atno 8008 bound_to 7997
  156.2921  140.2227  156.5086 H   0  0  0  0  0  0  0  0  0  0  0  0  # atno 8009 bound_to 7997
  154.7598  140.0460  157.0952 H   0  0  0  0  0  0  0  0  0  0  0  0  # atno 8010 bound_to 7997
  140.7262  143.4880  151.0030 H   0  0  0  0  0  0  0  0  0  0  0  0  # atno 10167 bound_to 10162
  156.5141  130.4617  149.6632 H   0  0  0  0  0  0  0  0  0  0  0  0  # atno 10718 bound_to 10713
  153.1201  135.4729  154.9181 H   0  0  0  0  0  0  0  0  0  0  0  0  # atno 10763 bound_to 10752
  154.7567  135.3120  154.8459 H   0  0  0  0  0  0  0  0  0  0  0  0  # atno 10764 bound_to 10752
  153.9026  135.6873  153.4808 H   0  0  0  0  0  0  0  0  0  0  0  0  # atno 10765 bound_to 10752
  141.0868  133.6641  156.3869 H   0  0  0  0  0  0  0  0  0  0  0  0  # atno 11005 bound_to 11000
  146.3530  140.0546  142.8633 LP  0  0  0  0  0  0  0  0  0  0  0  0  # atno 17320 bound_to 7965
  145.1220  140.9468  143.4594 LP  0  0  0  0  0  0  0  0  0  0  0  0  # atno 17321 bound_to 7965
  139.8582  143.7349  152.3175 LP  0  0  0  0  0  0  0  0  0  0  0  0  # atno 17342 bound_to 10162
  139.7555  144.7522  151.0442 LP  0  0  0  0  0  0  0  0  0  0  0  0  # atno 17343 bound_to 10162
  156.3212  130.7281  151.2193 LP  0  0  0  0  0  0  0  0  0  0  0  0  # atno 17370 bound_to 10713
  157.7446  131.0455  150.4847 LP  0  0  0  0  0  0  0  0  0  0  0  0  # atno 17371 bound_to 10713
  140.5345  134.6180  157.5360 LP  0  0  0  0  0  0  0  0  0  0  0  0  # atno 17394 bound_to 11000
  139.9687  134.7329  156.0085 LP  0  0  0  0  0  0  0  0  0  0  0  0  # atno 17395 bound_to 11000

$$$$
