AV-unprocessed.smi:2600|AV-procd|sdf|10182|dock10
  -GOLD-   2272014193D 1   1.00000     0.00000
 Structure written by MMmdl.
 44 45  0  0  0  0  0  0  0  0  1 V2000
  146.9531  139.2958  153.0804 C   0  0  0  0  0  0  0  0  0  0  0  0
  147.9371  140.3578  153.5981 C   0  0  0  0  0  0  0  0  0  0  0  0
  148.9752  139.8575  154.6307 C   0  0  2  0  0  0  0  0  0  0  0  0
  148.2426  139.6048  155.9679 C   0  0  0  0  0  0  0  0  0  0  0  0
  150.1454  140.8629  154.8012 C   0  0  0  0  0  0  0  0  0  0  0  0
  151.1967  140.2640  155.6360 N   0  0  0  0  0  0  0  0  0  0  0  0
  151.5830  140.6566  156.8753 C   0  0  0  0  0  0  0  0  0  0  0  0
  152.5078  140.1247  157.4905 O   0  0  0  0  0  0  0  0  0  0  0  0
  150.8837  141.6879  157.3811 N   0  0  0  0  0  0  0  0  0  0  0  0
  151.0955  142.3071  158.6874 C   0  0  0  0  0  0  0  0  0  0  0  0
  152.5895  142.4206  159.0474 C   0  0  0  0  0  0  0  0  0  0  0  0
  152.8844  142.4916  160.5152 C   0  0  0  0  0  0  0  0  0  0  0  0
  152.3266  143.2839  161.4790 C   0  0  0  0  0  0  0  0  0  0  0  0
  152.9868  142.8935  162.6758 C   0  0  0  0  0  0  0  0  0  0  0  0
  153.8874  141.9486  162.4721 N   0  0  0  0  0  0  0  0  0  0  0  0
  153.8328  141.7037  161.1456 N   0  0  0  0  0  0  0  0  0  0  0  0
  154.7160  140.6986  160.5857 C   0  0  0  0  0  0  0  0  0  0  0  0
  151.7234  139.0619  154.9862 C   0  0  0  0  0  0  0  0  0  0  0  0
  150.5807  138.0433  154.8479 C   0  0  0  0  0  0  0  0  0  0  0  0
  149.4881  138.6169  154.1259 O   0  0  0  0  0  0  0  0  0  0  0  0
  146.1994  139.7551  152.4403 H   0  0  0  0  0  0  0  0  0  0  0  0
  146.4297  138.8014  153.8990 H   0  0  0  0  0  0  0  0  0  0  0  0
  147.4530  138.5316  152.4865 H   0  0  0  0  0  0  0  0  0  0  0  0
  148.4539  140.8025  152.7467 H   0  0  0  0  0  0  0  0  0  0  0  0
  147.3547  141.1641  154.0458 H   0  0  0  0  0  0  0  0  0  0  0  0
  147.7869  140.5219  156.3423 H   0  0  0  0  0  0  0  0  0  0  0  0
  148.9073  139.2391  156.7488 H   0  0  0  0  0  0  0  0  0  0  0  0
  147.4486  138.8672  155.8493 H   0  0  0  0  0  0  0  0  0  0  0  0
  150.5961  141.1023  153.8384 H   0  0  0  0  0  0  0  0  0  0  0  0
  149.7634  141.8105  155.1807 H   0  0  0  0  0  0  0  0  0  0  0  0
  150.1434  142.0733  156.8127 H   0  0  0  0  0  0  0  0  0  0  0  0
  150.6222  143.2889  158.7296 H   0  0  0  0  0  0  0  0  0  0  0  0
  150.5876  141.7001  159.4367 H   0  0  0  0  0  0  0  0  0  0  0  0
  153.1303  141.5818  158.6089 H   0  0  0  0  0  0  0  0  0  0  0  0
  152.9965  143.3106  158.5658 H   0  0  0  0  0  0  0  0  0  0  0  0
  151.5528  144.0257  161.3496 H   0  0  0  0  0  0  0  0  0  0  0  0
  152.8400  143.2670  163.6786 H   0  0  0  0  0  0  0  0  0  0  0  0
  154.9464  140.9320  159.5465 H   0  0  0  0  0  0  0  0  0  0  0  0
  154.2351  139.7216  160.6340 H   0  0  0  0  0  0  0  0  0  0  0  0
  155.6502  140.6624  161.1475 H   0  0  0  0  0  0  0  0  0  0  0  0
  152.1152  139.3219  154.0019 H   0  0  0  0  0  0  0  0  0  0  0  0
  152.5549  138.6129  155.5309 H   0  0  0  0  0  0  0  0  0  0  0  0
  150.9292  137.1646  154.3049 H   0  0  0  0  0  0  0  0  0  0  0  0
  150.2546  137.6896  155.8261 H   0  0  0  0  0  0  0  0  0  0  0  0
  1  2  1  0  0  0  0
  1 21  1  0  0  0  0
  1 22  1  0  0  0  0
  1 23  1  0  0  0  0
  2  3  1  0  0  0  0
  2 24  1  0  0  0  0
  2 25  1  0  0  0  0
  3 20  1  0  0  0  0
  3  4  1  0  0  0  0
  3  5  1  0  0  0  0
  4 26  1  0  0  0  0
  4 27  1  0  0  0  0
  4 28  1  0  0  0  0
  5  6  1  0  0  0  0
  5 29  1  0  0  0  0
  5 30  1  0  0  0  0
  6  7  1  0  0  0  0
  6 18  1  0  0  0  0
  7  8  2  0  0  0  0
  7  9  1  0  0  0  0
  9 10  1  0  0  0  0
  9 31  1  0  0  0  0
 10 11  1  0  0  0  0
 10 32  1  0  0  0  0
 10 33  1  0  0  0  0
 11 12  1  0  0  0  0
 11 34  1  0  0  0  0
 11 35  1  0  0  0  0
 12 16  1  0  0  0  0
 12 13  2  0  0  0  0
 13 14  1  0  0  0  0
 13 36  1  0  0  0  0
 14 15  2  0  0  0  0
 14 37  1  0  0  0  0
 15 16  1  0  0  0  0
 16 17  1  0  0  0  0
 17 38  1  0  0  0  0
 17 39  1  0  0  0  0
 17 40  1  0  0  0  0
 18 19  1  0  0  0  0
 18 41  1  0  0  0  0
 18 42  1  0  0  0  0
 19 20  1  0  0  0  0
 19 43  1  0  0  0  0
 19 44  1  0  0  0  0
M  END
> <s_m_source_file>
AV-unprocessed.smi

> <i_m_source_file_index>
2600

> <i_lp_mmshare_version>
43012

> <i_f3d_flags>
0

> <s_epik_input>
W0NIM11bQ0gyXVtDQEBdMShbQ0gzXSlbQ0gyXU4oW0NIMl1bQ0gyXU8xKUMoPU8pW05IXVtDSDJdW0NIMl1jMltjSF1bY0hdbm4yW0NIM10=

> <s_epik_cmdline>
J2VwaWtfcHl0aG9uJywgJy1waCcsICc3LjAnLCAnLXRuJywgJzgnLCAnLW1hJywgJzIwMCcsICctbWV0YWxfYmluZGluZycsICctaW1hZScsICc8aW5maWxlLm1hZT4nLCAnLW9tYWUnLCAnPG91dGZpbGUubWFlPic=

> <r_lp_tautomer_probability>
1

> <r_epik_Ionization_Penalty>
0.00252014

> <r_epik_Ionization_Penalty_Charging>
0

> <r_epik_Ionization_Penalty_Neutral>
0.00252014

> <r_epik_State_Penalty>
0.00172506

> <r_epik_Charging_Adjusted_Penalty>
0.00172506

> <i_epik_Tot_Q>
0

> <i_epik_Tot_abs_Q>
0

> <r_epik_Metal_State_Penalty>
-0

> <b_epik_Metal_Only>
0

> <s_lp_Force_Field>
OPLS_2005

> <r_lp_Energy>
29.2507

> <b_lp_Chiralities_Consistent>
1

> <s_lp_Variant>
AV-unprocessed.smi:2600-2

> <Gold.Version>
5.8.1

> <Gold.Id.Protein>
6NUR|6NUR_protein|mol2

> <Gold.PLP.Fitness>
46.4429

> <Gold.PLP.PLP>
-44.5255

> <Gold.PLP.part.hbond>
-2.0000

> <Gold.PLP.part.metal>
0.0000

> <Gold.PLP.part.buried>
-1.3921

> <Gold.PLP.part.nonpolar>
-40.4822

> <Gold.PLP.part.repulsive>
0.2844

> <Gold.PLP.ligand.clash>
0.0000

> <Gold.PLP.ligand.torsion>
0.5567

> <Gold.PLP.Chemscore.Hbond>
1.0000

> <Gold.PLP.Chemscore.CHOScore>
0.0000

> <Gold.PLP.Chemscore.Metal>
0.0000

> <Gold.Chemscore.Hbonds>
donor molecule, donor type, donor heavy atom, donor atom, acceptor molecule, acceptor atom, score
      P1  H  7997  8009       L1     8  0.98

> <Gold.PLP.Chemscore.Internal.Correction>
0.0308

> <Gold.Rescore>
     Score         DG    S(hbond)    S(metal)    S(lipo)     H(rot)  DE(clash)    DE(int)     intcor
     14.58     -16.94       0.95        0.00     103.19       1.47       0.15       2.21       ----

> <Gold.Chemscore.Fitness>
14.5772

> <Gold.Chemscore.DG>
-16.9386

> <Gold.Chemscore.ZeroCoef>
-5.4800

> <Gold.Chemscore.Hbond>
0.9454

> <Gold.Chemscore.Metal>
0.0000

> <Gold.Chemscore.Lipo>
103.1870

> <Gold.Chemscore.Internal_Hbond>
0.0000

> <Gold.Chemscore.DEClash>
0.1548

> <Gold.Chemscore.DEInternal>
2.2066

> <Gold.Chemscore.Rot>
1.4735

> <Gold.Chemscore.Internal.Correction>
   9.000000E+99

> <Gold.Chemscore.Hbonds>
donor molecule, donor type, donor heavy atom, donor atom, acceptor molecule, acceptor atom, score
      P1  H  7997  8009       L1     8  0.87

> <Gold.Chemscore.Hbond.Weighted>
-3.1578

> <Gold.Chemscore.Metal.Weighted>
-0.0000

> <Gold.Chemscore.Lipo.Weighted>
-12.0729

> <Gold.Chemscore.Internal_Hbond.Weighted>
0.0000

> <Gold.Chemscore.DEClash.Weighted>
0.1548

> <Gold.Chemscore.DEInternal.Weighted>
2.2066

> <Gold.Chemscore.Rot.Weighted>
3.7721

> <Gold.Chemscore.Internal.Correction.Weighted>
   9.000000E+99

> <Gold.Protein.RotatedTorsions>
[ 6907 6896 6895 6894 ] final -139.04 input  -60.11 | X-H torsion
[ 7974 7965 7964 7962 ] final    3.18 input  175.53 | X-H torsion
[ 8008 7997 7996 7995 ] final  176.35 input   59.86 | X-H torsion
[ 10167 10162 10161 10158 ] final  152.67 input  -65.29 | X-H torsion
[ 10718 10713 10712 10709 ] final   72.69 input   66.30 | X-H torsion
[ 10763 10752 10751 10750 ] final  127.82 input  -60.55 | X-H torsion
[ 11005 11000 10999 10996 ] final  -12.13 input  -57.11 | X-H torsion

> <Gold.Protein.ActiveResidues>
 VAL166  LYS551  ARG553  GLY616  TRP617  ASP618  TYR619  PRO620  LYS621  CYS622 
 ASP623  PHE694  ASN695  SER759  ASP760  ASP761  ALA762  ILE779  LEU786  VAL792 
 PHE793  MET794  SER795  GLU796  ALA797  LYS798  CYS799  TRP800  GLU811  SER814 

> <Gold.Protein.RotatedAtoms>
  151.0427  133.5692  159.2649 H   0  0  0  0  0  0  0  0  0  0  0  0  # atno 6907 bound_to 6896
  151.2732  135.0690  159.9152 H   0  0  0  0  0  0  0  0  0  0  0  0  # atno 6908 bound_to 6896
  152.5367  134.0154  159.8011 H   0  0  0  0  0  0  0  0  0  0  0  0  # atno 6909 bound_to 6896
  146.2445  140.0724  142.8361 H   0  0  0  0  0  0  0  0  0  0  0  0  # atno 7974 bound_to 7965
  156.0774  140.1386  156.9755 H   0  0  0  0  0  0  0  0  0  0  0  0  # atno 8008 bound_to 7997
  154.4565  140.0959  156.6823 H   0  0  0  0  0  0  0  0  0  0  0  0  # atno 8009 bound_to 7997
  155.5131  140.3454  155.4394 H   0  0  0  0  0  0  0  0  0  0  0  0  # atno 8010 bound_to 7997
  139.4831  144.5338  151.7679 H   0  0  0  0  0  0  0  0  0  0  0  0  # atno 10167 bound_to 10162
  157.6513  130.9591  150.0964 H   0  0  0  0  0  0  0  0  0  0  0  0  # atno 10718 bound_to 10713
  153.7156  135.3261  155.3255 H   0  0  0  0  0  0  0  0  0  0  0  0  # atno 10763 bound_to 10752
  154.8372  135.4487  154.1269 H   0  0  0  0  0  0  0  0  0  0  0  0  # atno 10764 bound_to 10752
  153.2375  135.6967  153.7899 H   0  0  0  0  0  0  0  0  0  0  0  0  # atno 10765 bound_to 10752
  140.7625  133.8504  155.9136 H   0  0  0  0  0  0  0  0  0  0  0  0  # atno 11005 bound_to 11000
  145.0804  140.9217  143.4829 LP  0  0  0  0  0  0  0  0  0  0  0  0  # atno 17320 bound_to 7965
  145.0876  139.2913  143.5751 LP  0  0  0  0  0  0  0  0  0  0  0  0  # atno 17321 bound_to 7965
  140.4867  144.1370  150.5942 LP  0  0  0  0  0  0  0  0  0  0  0  0  # atno 17342 bound_to 10162
  140.4217  143.2609  151.9707 LP  0  0  0  0  0  0  0  0  0  0  0  0  # atno 17343 bound_to 10162
  156.1899  130.3654  149.8924 LP  0  0  0  0  0  0  0  0  0  0  0  0  # atno 17370 bound_to 10713
  156.6855  130.8875  151.3581 LP  0  0  0  0  0  0  0  0  0  0  0  0  # atno 17371 bound_to 10713
  140.9650  134.1606  157.4623 LP  0  0  0  0  0  0  0  0  0  0  0  0  # atno 17394 bound_to 11000
  139.8768  134.9958  156.5764 LP  0  0  0  0  0  0  0  0  0  0  0  0  # atno 17395 bound_to 11000

$$$$
