AV-unprocessed.smi:2003|AV-procd|sdf|8117|dock7
  -GOLD-   2272010353D 1   1.00000     0.00000
 Structure written by MMmdl.
 43 44  0  0  0  0  0  0  0  0  1 V2000
  153.7753  141.7135  160.7104 C   0  0  0  0  0  0  0  0  0  0  0  0
  152.8509  142.3262  159.7002 C   0  0  0  0  0  0  0  0  0  0  0  0
  151.6190  141.8051  159.2079 C   0  0  0  0  0  0  0  0  0  0  0  0
  151.2170  142.7683  158.3234 C   0  0  0  0  0  0  0  0  0  0  0  0
  150.1005  142.8060  157.5487 N   0  0  0  0  0  0  0  0  0  0  0  0
  149.1338  141.8806  157.4214 C   0  0  0  0  0  0  0  0  0  0  0  0
  149.0948  140.7996  158.0093 O   0  0  0  0  0  0  0  0  0  0  0  0
  148.1913  142.2835  156.5603 N   0  0  0  0  0  0  0  0  0  0  0  0
  146.9998  141.5149  156.2184 C   0  0  0  0  0  0  0  0  0  0  0  0
  146.4863  141.8594  154.7983 C   0  0  2  0  0  0  0  0  0  0  0  0
  147.6335  141.5952  153.7966 C   0  0  0  0  0  0  0  0  0  0  0  0
  145.9037  143.2143  154.6825 N   0  0  0  0  0  0  0  0  0  0  0  0
  144.6825  143.3720  155.4785 C   0  0  0  0  0  0  0  0  0  0  0  0
  144.0694  144.7767  155.3469 C   0  0  0  0  0  0  0  0  0  0  0  0
  143.8033  145.0560  153.9787 O   0  0  0  0  0  0  0  0  0  0  0  0
  144.9746  144.9797  153.1768 C   0  0  0  0  0  0  0  0  0  0  0  0
  145.5944  143.5768  153.2964 C   0  0  0  0  0  0  0  0  0  0  0  0
  152.1548  143.7767  158.3069 N   0  0  0  0  0  0  0  0  0  0  0  0
  152.1733  145.0044  157.5358 C   0  0  0  0  0  0  0  0  0  0  0  0
  153.1639  143.4988  159.1605 N   0  0  0  0  0  0  0  0  0  0  0  0
  153.3868  140.7618  161.0733 H   0  0  0  0  0  0  0  0  0  0  0  0
  153.9054  142.3684  161.5722 H   0  0  0  0  0  0  0  0  0  0  0  0
  154.7594  141.5270  160.2797 H   0  0  0  0  0  0  0  0  0  0  0  0
  151.1319  140.8788  159.4725 H   0  0  0  0  0  0  0  0  0  0  0  0
  149.9855  143.6464  157.0015 H   0  0  0  0  0  0  0  0  0  0  0  0
  148.2916  143.1871  156.1211 H   0  0  0  0  0  0  0  0  0  0  0  0
  147.2358  140.4512  156.2804 H   0  0  0  0  0  0  0  0  0  0  0  0
  146.2260  141.6801  156.9685 H   0  0  0  0  0  0  0  0  0  0  0  0
  145.7018  141.1360  154.5703 H   0  0  0  0  0  0  0  0  0  0  0  0
  148.1073  140.6311  153.9827 H   0  0  0  0  0  0  0  0  0  0  0  0
  148.4077  142.3603  153.8636 H   0  0  0  0  0  0  0  0  0  0  0  0
  147.2796  141.5631  152.7668 H   0  0  0  0  0  0  0  0  0  0  0  0
  143.9456  142.6259  155.1773 H   0  0  0  0  0  0  0  0  0  0  0  0
  144.8887  143.2037  156.5343 H   0  0  0  0  0  0  0  0  0  0  0  0
  143.1381  144.8384  155.9103 H   0  0  0  0  0  0  0  0  0  0  0  0
  144.7422  145.5316  155.7570 H   0  0  0  0  0  0  0  0  0  0  0  0
  144.7104  145.1894  152.1402 H   0  0  0  0  0  0  0  0  0  0  0  0
  145.6878  145.7451  153.4866 H   0  0  0  0  0  0  0  0  0  0  0  0
  146.4970  143.5653  152.6872 H   0  0  0  0  0  0  0  0  0  0  0  0
  144.9127  142.8419  152.8653 H   0  0  0  0  0  0  0  0  0  0  0  0
  152.2116  144.7673  156.4723 H   0  0  0  0  0  0  0  0  0  0  0  0
  153.0432  145.6090  157.7960 H   0  0  0  0  0  0  0  0  0  0  0  0
  151.2698  145.5793  157.7412 H   0  0  0  0  0  0  0  0  0  0  0  0
  1  2  1  0  0  0  0
  1 21  1  0  0  0  0
  1 22  1  0  0  0  0
  1 23  1  0  0  0  0
  2 20  2  0  0  0  0
  2  3  1  0  0  0  0
  3  4  2  0  0  0  0
  3 24  1  0  0  0  0
  4  5  1  0  0  0  0
  4 18  1  0  0  0  0
  5  6  1  0  0  0  0
  5 25  1  0  0  0  0
  6  7  2  0  0  0  0
  6  8  1  0  0  0  0
  8  9  1  0  0  0  0
  8 26  1  0  0  0  0
  9 10  1  0  0  0  0
  9 27  1  0  0  0  0
  9 28  1  0  0  0  0
 10 11  1  0  0  0  0
 10 12  1  0  0  0  0
 10 29  1  0  0  0  0
 11 30  1  0  0  0  0
 11 31  1  0  0  0  0
 11 32  1  0  0  0  0
 12 17  1  0  0  0  0
 12 13  1  0  0  0  0
 13 14  1  0  0  0  0
 13 33  1  0  0  0  0
 13 34  1  0  0  0  0
 14 15  1  0  0  0  0
 14 35  1  0  0  0  0
 14 36  1  0  0  0  0
 15 16  1  0  0  0  0
 16 17  1  0  0  0  0
 16 37  1  0  0  0  0
 16 38  1  0  0  0  0
 17 39  1  0  0  0  0
 17 40  1  0  0  0  0
 18 19  1  0  0  0  0
 18 20  1  0  0  0  0
 19 41  1  0  0  0  0
 19 42  1  0  0  0  0
 19 43  1  0  0  0  0
M  END
> <s_m_source_file>
AV-unprocessed.smi

> <i_m_source_file_index>
2003

> <i_lp_mmshare_version>
43012

> <i_f3d_flags>
0

> <s_epik_input>
W0NIM11jMVtjSF1jKG4objEpW0NIM10pW05IXUMoPU8pW05IXVtDSDJdW0NASF0oW0NIM10pTjJbQ0gyXVtDSDJdT1tDSDJdW0NIMl0y

> <s_epik_cmdline>
J2VwaWtfcHl0aG9uJywgJy1waCcsICc3LjAnLCAnLXRuJywgJzgnLCAnLW1hJywgJzIwMCcsICctbWV0YWxfYmluZGluZycsICctaW1hZScsICc8aW5maWxlLm1hZT4nLCAnLW9tYWUnLCAnPG91dGZpbGUubWFlPic=

> <r_lp_tautomer_probability>
1

> <r_epik_Ionization_Penalty>
0.233974

> <r_epik_Ionization_Penalty_Charging>
0

> <r_epik_Ionization_Penalty_Neutral>
0.233974

> <r_epik_State_Penalty>
0.224627

> <r_epik_Charging_Adjusted_Penalty>
0.224627

> <i_epik_Tot_Q>
0

> <i_epik_Tot_abs_Q>
0

> <r_epik_Metal_State_Penalty>
0.224624

> <b_epik_Metal_Only>
0

> <s_lp_Force_Field>
OPLS_2005

> <r_lp_Energy>
33.8314

> <b_lp_Chiralities_Consistent>
1

> <s_lp_Variant>
AV-unprocessed.smi:2003-1

> <Gold.Version>
5.8.1

> <Gold.Id.Protein>
6NUR|6NUR_protein|mol2

> <Gold.PLP.Fitness>
45.7696

> <Gold.PLP.PLP>
-40.3349

> <Gold.PLP.part.hbond>
-2.0000

> <Gold.PLP.part.metal>
0.0000

> <Gold.PLP.part.buried>
-8.7969

> <Gold.PLP.part.nonpolar>
-30.2346

> <Gold.PLP.part.repulsive>
0.3611

> <Gold.PLP.ligand.clash>
0.0000

> <Gold.PLP.ligand.torsion>
0.2926

> <Gold.PLP.Chemscore.Hbond>
1.9920

> <Gold.PLP.Chemscore.CHOScore>
0.0000

> <Gold.PLP.Chemscore.Metal>
0.0000

> <Gold.Chemscore.Hbonds>
donor molecule, donor type, donor heavy atom, donor atom, acceptor molecule, acceptor atom, score
      L1  H     5    25       P1  8028  0.99
      L1  H     8    26       P1  8028  1.00

> <Gold.PLP.Chemscore.Internal.Correction>
0.0438

> <Gold.Rescore>
     Score         DG    S(hbond)    S(metal)    S(lipo)     H(rot)  DE(clash)    DE(int)     intcor
     14.98     -17.89       1.80        0.00      87.48       1.49       1.45       1.45       ----

> <Gold.Chemscore.Fitness>
14.9834

> <Gold.Chemscore.DG>
-17.8883

> <Gold.Chemscore.ZeroCoef>
-5.4800

> <Gold.Chemscore.Hbond>
1.7955

> <Gold.Chemscore.Metal>
0.0000

> <Gold.Chemscore.Lipo>
87.4827

> <Gold.Chemscore.Internal_Hbond>
0.0000

> <Gold.Chemscore.DEClash>
1.4518

> <Gold.Chemscore.DEInternal>
1.4531

> <Gold.Chemscore.Rot>
1.4938

> <Gold.Chemscore.Internal.Correction>
   9.000000E+99

> <Gold.Chemscore.Hbonds>
donor molecule, donor type, donor heavy atom, donor atom, acceptor molecule, acceptor atom, score
      L1  H     5    25       P1  8028  0.87
      L1  H     8    26       P1  8028  0.74

> <Gold.Chemscore.Hbond.Weighted>
-5.9970

> <Gold.Chemscore.Metal.Weighted>
-0.0000

> <Gold.Chemscore.Lipo.Weighted>
-10.2355

> <Gold.Chemscore.Internal_Hbond.Weighted>
0.0000

> <Gold.Chemscore.DEClash.Weighted>
1.4518

> <Gold.Chemscore.DEInternal.Weighted>
1.4531

> <Gold.Chemscore.Rot.Weighted>
3.8242

> <Gold.Chemscore.Internal.Correction.Weighted>
   9.000000E+99

> <Gold.Protein.RotatedTorsions>
[ 6907 6896 6895 6894 ] final   17.42 input  -60.11 | X-H torsion
[ 7974 7965 7964 7962 ] final  168.16 input  175.53 | X-H torsion
[ 8008 7997 7996 7995 ] final  -54.07 input   59.86 | X-H torsion
[ 10167 10162 10161 10158 ] final  176.90 input  -65.29 | X-H torsion
[ 10718 10713 10712 10709 ] final  129.32 input   66.30 | X-H torsion
[ 10763 10752 10751 10750 ] final  -33.51 input  -60.55 | X-H torsion
[ 11005 11000 10999 10996 ] final   13.89 input  -57.11 | X-H torsion

> <Gold.Protein.ActiveResidues>
 VAL166  LYS551  ARG553  GLY616  TRP617  ASP618  TYR619  PRO620  LYS621  CYS622 
 ASP623  PHE694  ASN695  SER759  ASP760  ASP761  ALA762  ILE779  LEU786  VAL792 
 PHE793  MET794  SER795  GLU796  ALA797  LYS798  CYS799  TRP800  GLU811  SER814 

> <Gold.Protein.RotatedAtoms>
  151.8493  135.0563  160.0456 H   0  0  0  0  0  0  0  0  0  0  0  0  # atno 6907 bound_to 6896
  152.2749  133.5412  159.5470 H   0  0  0  0  0  0  0  0  0  0  0  0  # atno 6908 bound_to 6896
  150.7166  134.0562  159.3858 H   0  0  0  0  0  0  0  0  0  0  0  0  # atno 6909 bound_to 6896
  144.7398  139.8867  143.6400 H   0  0  0  0  0  0  0  0  0  0  0  0  # atno 7974 bound_to 7965
  154.4151  140.1185  156.5256 H   0  0  0  0  0  0  0  0  0  0  0  0  # atno 8008 bound_to 7997
  155.6658  140.3496  155.4780 H   0  0  0  0  0  0  0  0  0  0  0  0  # atno 8009 bound_to 7997
  155.9674  140.1135  157.0832 H   0  0  0  0  0  0  0  0  0  0  0  0  # atno 8010 bound_to 7997
  139.5232  144.2861  152.0504 H   0  0  0  0  0  0  0  0  0  0  0  0  # atno 10167 bound_to 10162
  157.5165  131.1097  150.9217 H   0  0  0  0  0  0  0  0  0  0  0  0  # atno 10718 bound_to 10713
  153.8314  135.6866  153.4814 H   0  0  0  0  0  0  0  0  0  0  0  0  # atno 10763 bound_to 10752
  153.1509  135.4618  154.9633 H   0  0  0  0  0  0  0  0  0  0  0  0  # atno 10764 bound_to 10752
  154.7885  135.3293  154.7776 H   0  0  0  0  0  0  0  0  0  0  0  0  # atno 10765 bound_to 10752
  140.4757  134.0986  155.7741 H   0  0  0  0  0  0  0  0  0  0  0  0  # atno 11005 bound_to 11000
  146.1172  139.4184  143.0251 LP  0  0  0  0  0  0  0  0  0  0  0  0  # atno 17320 bound_to 7965
  145.7358  141.0026  143.1327 LP  0  0  0  0  0  0  0  0  0  0  0  0  # atno 17321 bound_to 7965
  140.2314  144.4364  150.6298 LP  0  0  0  0  0  0  0  0  0  0  0  0  # atno 17342 bound_to 10162
  140.6352  143.2194  151.6409 LP  0  0  0  0  0  0  0  0  0  0  0  0  # atno 17343 bound_to 10162
  156.9841  130.5538  149.5298 LP  0  0  0  0  0  0  0  0  0  0  0  0  # atno 17370 bound_to 10713
  156.0324  130.5414  150.8567 LP  0  0  0  0  0  0  0  0  0  0  0  0  # atno 17371 bound_to 10713
  141.1556  133.8889  157.1986 LP  0  0  0  0  0  0  0  0  0  0  0  0  # atno 17394 bound_to 11000
  139.9858  135.0082  156.9858 LP  0  0  0  0  0  0  0  0  0  0  0  0  # atno 17395 bound_to 11000

$$$$
