AV-unprocessed.smi:109|AV-procd|sdf|1051|dock7
  -GOLD-   2262018103D 1   1.00000     0.00000
 Structure written by MMmdl.
 58 61  0  0  0  0  0  0  0  0  1 V2000
  150.9983  139.4156  154.3693 O   0  0  0  0  0  0  0  0  0  0  0  0
  151.1207  139.4318  155.7751 C   0  0  0  0  0  0  0  0  0  0  0  0
  151.6829  140.7880  156.2357 C   0  0  0  0  0  0  0  0  0  0  0  0
  150.6513  141.6913  156.9557 C   0  0  2  0  0  0  0  0  0  0  0  0
  149.7310  142.2605  155.9681 N   0  0  0  0  0  0  0  0  0  0  0  0
  148.8975  141.4940  155.2291 C   0  0  0  0  0  0  0  0  0  0  0  0
  148.6314  141.7825  153.9290 N   0  0  0  0  0  0  0  0  0  0  0  0
  147.8002  141.0061  153.2283 C   0  0  0  0  0  0  0  0  0  0  0  0
  147.1432  139.9155  153.6275 N   0  0  0  0  0  0  0  0  0  0  0  0
  147.4044  139.6194  154.9336 C   0  0  0  0  0  0  0  0  0  0  0  0
  148.2648  140.3569  155.7946 C   0  0  0  0  0  0  0  0  0  0  0  0
  148.2875  139.7710  157.0530 N   0  0  0  0  0  0  0  0  0  0  0  0
  147.4858  138.7468  156.9379 C   0  0  0  0  0  0  0  0  0  0  0  0
  146.9094  138.5803  155.6982 N   0  0  0  0  0  0  0  0  0  0  0  0
  145.9588  137.4973  155.2825 C   0  0  2  0  0  0  0  0  0  0  0  0
  146.3696  136.9637  154.0584 O   0  0  0  0  0  0  0  0  0  0  0  0
  145.3428  137.1101  153.0811 C   0  0  1  0  0  0  0  0  0  0  0  0
  145.4161  135.9803  152.0392 C   0  0  0  0  0  0  0  0  0  0  0  0
  144.4210  136.1542  151.0530 O   0  0  0  0  0  0  0  0  0  0  0  0
  144.0439  137.2318  153.8912 C   0  0  1  0  0  0  0  0  0  0  0  0
  143.5294  135.9606  154.2427 O   0  0  0  0  0  0  0  0  0  0  0  0
  144.5011  137.9816  155.1325 C   0  0  2  0  0  0  0  0  0  0  0  0
  144.3737  139.3805  154.9471 O   0  0  0  0  0  0  0  0  0  0  0  0
  151.2983  142.8410  157.7807 C   0  0  0  0  0  0  0  0  0  0  0  0
  152.3045  142.3388  158.8467 C   0  0  0  0  0  0  0  0  0  0  0  0
  152.9019  143.4859  159.6785 C   0  0  0  0  0  0  0  0  0  0  0  0
  151.8072  144.3252  160.3479 C   0  0  0  0  0  0  0  0  0  0  0  0
  150.8174  144.8530  159.3027 C   0  0  0  0  0  0  0  0  0  0  0  0
  150.2153  143.7039  158.4790 C   0  0  0  0  0  0  0  0  0  0  0  0
  146.0664  136.7286  156.0490 H   0  0  0  0  0  0  0  0  0  0  0  0
  145.5161  138.0609  152.5762 H   0  0  0  0  0  0  0  0  0  0  0  0
  143.2692  137.7673  153.3403 H   0  0  0  0  0  0  0  0  0  0  0  0
  143.9304  137.7081  156.0210 H   0  0  0  0  0  0  0  0  0  0  0  0
  151.6069  138.7817  154.0218 H   0  0  0  0  0  0  0  0  0  0  0  0
  150.1388  139.2417  156.2085 H   0  0  0  0  0  0  0  0  0  0  0  0
  151.7783  138.6184  156.0827 H   0  0  0  0  0  0  0  0  0  0  0  0
  152.5138  140.5703  156.9044 H   0  0  0  0  0  0  0  0  0  0  0  0
  152.1052  141.3207  155.3825 H   0  0  0  0  0  0  0  0  0  0  0  0
  150.1134  141.0674  157.6690 H   0  0  0  0  0  0  0  0  0  0  0  0
  149.7954  143.2609  155.8460 H   0  0  0  0  0  0  0  0  0  0  0  0
  147.6382  141.3002  152.2020 H   0  0  0  0  0  0  0  0  0  0  0  0
  147.2901  138.0779  157.7634 H   0  0  0  0  0  0  0  0  0  0  0  0
  146.3895  135.9942  151.5486 H   0  0  0  0  0  0  0  0  0  0  0  0
  145.3098  134.9989  152.5016 H   0  0  0  0  0  0  0  0  0  0  0  0
  144.5013  137.0259  150.6968 H   0  0  0  0  0  0  0  0  0  0  0  0
  143.5338  135.8894  155.1853 H   0  0  0  0  0  0  0  0  0  0  0  0
  144.4259  139.5653  154.0220 H   0  0  0  0  0  0  0  0  0  0  0  0
  151.8452  143.4846  157.0894 H   0  0  0  0  0  0  0  0  0  0  0  0
  151.8137  141.6244  159.5089 H   0  0  0  0  0  0  0  0  0  0  0  0
  153.1344  141.8114  158.3796 H   0  0  0  0  0  0  0  0  0  0  0  0
  153.5742  143.0830  160.4368 H   0  0  0  0  0  0  0  0  0  0  0  0
  153.5094  144.1243  159.0356 H   0  0  0  0  0  0  0  0  0  0  0  0
  151.2771  143.7194  161.0840 H   0  0  0  0  0  0  0  0  0  0  0  0
  152.2545  145.1568  160.8930 H   0  0  0  0  0  0  0  0  0  0  0  0
  150.0220  145.4123  159.7960 H   0  0  0  0  0  0  0  0  0  0  0  0
  151.3230  145.5546  158.6381 H   0  0  0  0  0  0  0  0  0  0  0  0
  149.5297  144.1320  157.7474 H   0  0  0  0  0  0  0  0  0  0  0  0
  149.6093  143.0719  159.1295 H   0  0  0  0  0  0  0  0  0  0  0  0
  1  2  1  0  0  0  0
  1 34  1  0  0  0  0
  2  3  1  0  0  0  0
  2 35  1  0  0  0  0
  2 36  1  0  0  0  0
  3  4  1  0  0  0  0
  3 37  1  0  0  0  0
  3 38  1  0  0  0  0
  4  5  1  0  0  0  0
  4 24  1  0  0  0  0
  4 39  1  0  0  0  0
  5  6  1  0  0  0  0
  5 40  1  0  0  0  0
  6 11  1  0  0  0  0
  6  7  2  0  0  0  0
  7  8  1  0  0  0  0
  8  9  2  0  0  0  0
  8 41  1  0  0  0  0
  9 10  1  0  0  0  0
 10 14  1  0  0  0  0
 10 11  2  0  0  0  0
 11 12  1  0  0  0  0
 12 13  2  0  0  0  0
 13 14  1  0  0  0  0
 13 42  1  0  0  0  0
 14 15  1  0  0  0  0
 15 30  1  0  0  0  0
 15 22  1  0  0  0  0
 15 16  1  0  0  0  0
 16 17  1  0  0  0  0
 17 31  1  0  0  0  0
 17 18  1  0  0  0  0
 17 20  1  0  0  0  0
 18 19  1  0  0  0  0
 18 43  1  0  0  0  0
 18 44  1  0  0  0  0
 19 45  1  0  0  0  0
 20 32  1  0  0  0  0
 20 21  1  0  0  0  0
 20 22  1  0  0  0  0
 21 46  1  0  0  0  0
 22 33  1  0  0  0  0
 22 23  1  0  0  0  0
 23 47  1  0  0  0  0
 24 29  1  0  0  0  0
 24 25  1  0  0  0  0
 24 48  1  0  0  0  0
 25 26  1  0  0  0  0
 25 49  1  0  0  0  0
 25 50  1  0  0  0  0
 26 27  1  0  0  0  0
 26 51  1  0  0  0  0
 26 52  1  0  0  0  0
 27 28  1  0  0  0  0
 27 53  1  0  0  0  0
 27 54  1  0  0  0  0
 28 29  1  0  0  0  0
 28 55  1  0  0  0  0
 28 56  1  0  0  0  0
 29 57  1  0  0  0  0
 29 58  1  0  0  0  0
M  END
> <s_m_source_file>
AV-unprocessed.smi

> <i_m_source_file_index>
109

> <i_lp_mmshare_version>
43012

> <i_f3d_flags>
0

> <s_epik_input>
W0NIMl0xW0NIMl1bQ0gyXVtDSDJdW0NIMl1bQ0hdMVtDQEhdKFtDSDJdW0NIMl1bT0hdKVtOSF1jKG5bY0hdbjIpYyhjMjMpbltjSF1uM1tDQEBIXTRPW0NASF0oW0NIMl1bT0hdKVtDQEBIXShbT0hdKVtDQEhdNFtPSF0=

> <s_epik_cmdline>
J2VwaWtfcHl0aG9uJywgJy1waCcsICc3LjAnLCAnLXRuJywgJzgnLCAnLW1hJywgJzIwMCcsICctbWV0YWxfYmluZGluZycsICctaW1hZScsICc8aW5maWxlLm1hZT4nLCAnLW9tYWUnLCAnPG91dGZpbGUubWFlPic=

> <r_lp_tautomer_probability>
1

> <r_epik_Ionization_Penalty>
0.000793976

> <r_epik_Ionization_Penalty_Charging>
0

> <r_epik_Ionization_Penalty_Neutral>
0.000793976

> <r_epik_State_Penalty>
-0

> <r_epik_Charging_Adjusted_Penalty>
0

> <i_epik_Tot_Q>
0

> <i_epik_Tot_abs_Q>
0

> <r_epik_Metal_State_Penalty>
-0

> <b_epik_Metal_Only>
0

> <s_epik_Chemistry_Notes>
This compound contains an acetal/aminal-like group ( X-CH(R)-Y where X, Y are N, S, or O) that may be acid/base labile, releasing an aldehyde.

> <s_lp_Force_Field>
OPLS_2005

> <r_lp_Energy>
55.8609

> <b_lp_Chiralities_Consistent>
1

> <s_lp_Variant>
AV-unprocessed.smi:109-21

> <Gold.Version>
5.8.1

> <Gold.Id.Protein>
6NUR|6NUR_protein|mol2

> <Gold.PLP.Fitness>
50.7387

> <Gold.PLP.PLP>
-38.7589

> <Gold.PLP.part.hbond>
-5.0000

> <Gold.PLP.part.metal>
0.0000

> <Gold.PLP.part.buried>
-5.2242

> <Gold.PLP.part.nonpolar>
-29.6858

> <Gold.PLP.part.repulsive>
0.5828

> <Gold.PLP.ligand.clash>
0.0000

> <Gold.PLP.ligand.torsion>
1.1171

> <Gold.PLP.Chemscore.Hbond>
4.3008

> <Gold.PLP.Chemscore.CHOScore>
0.4008

> <Gold.PLP.Chemscore.Metal>
0.0000

> <Gold.Chemscore.Hbonds>
donor molecule, donor type, donor heavy atom, donor atom, acceptor molecule, acceptor atom, score
      L1  H     5    40       P1  8028  0.90
      L1  H    19    45       P1 10171  1.00
      L1  H    23    47       P1 10175  0.94
      P1  H  7989  7998       L1     1  0.85
      P1  H  8011  8017       L1     7  0.41
      L1  C     8    41       P1  7957  0.38

> <Gold.PLP.Chemscore.Internal.Correction>
0.1093

> <Gold.Rescore>
     Score         DG    S(hbond)    S(metal)    S(lipo)     H(rot)  DE(clash)    DE(int)     intcor
     11.24     -14.34       3.64        0.00      91.47       5.47       0.13       2.97       ----

> <Gold.Chemscore.Fitness>
11.2370

> <Gold.Chemscore.DG>
-14.3363

> <Gold.Chemscore.ZeroCoef>
-5.4800

> <Gold.Chemscore.Hbond>
3.6371

> <Gold.Chemscore.Metal>
0.0000

> <Gold.Chemscore.Lipo>
91.4686

> <Gold.Chemscore.Internal_Hbond>
0.0000

> <Gold.Chemscore.DEClash>
0.1296

> <Gold.Chemscore.DEInternal>
2.9697

> <Gold.Chemscore.Rot>
5.4662

> <Gold.Chemscore.Internal.Correction>
   9.000000E+99

> <Gold.Chemscore.Hbonds>
donor molecule, donor type, donor heavy atom, donor atom, acceptor molecule, acceptor atom, score
      L1  H     5    40       P1  8028  0.88
      L1  H    19    45       P1 10171  0.97
      L1  H    23    47       P1 10175  0.90
      P1  H  7989  7998       L1     1  0.14
      P1  H  8011  8017       L1     7  0.07

> <Gold.Chemscore.Hbond.Weighted>
-12.1480

> <Gold.Chemscore.Metal.Weighted>
-0.0000

> <Gold.Chemscore.Lipo.Weighted>
-10.7018

> <Gold.Chemscore.Internal_Hbond.Weighted>
0.0000

> <Gold.Chemscore.DEClash.Weighted>
0.1296

> <Gold.Chemscore.DEInternal.Weighted>
2.9697

> <Gold.Chemscore.Rot.Weighted>
13.9935

> <Gold.Chemscore.Internal.Correction.Weighted>
   9.000000E+99

> <Gold.Protein.RotatedTorsions>
[ 6907 6896 6895 6894 ] final  157.18 input  -60.11 | X-H torsion
[ 7974 7965 7964 7962 ] final -144.90 input  175.53 | X-H torsion
[ 8008 7997 7996 7995 ] final  -30.19 input   59.86 | X-H torsion
[ 10167 10162 10161 10158 ] final  100.97 input  -65.29 | X-H torsion
[ 10718 10713 10712 10709 ] final  -82.73 input   66.30 | X-H torsion
[ 10763 10752 10751 10750 ] final  119.29 input  -60.55 | X-H torsion
[ 11005 11000 10999 10996 ] final   37.02 input  -57.11 | X-H torsion

> <Gold.Protein.ActiveResidues>
 VAL166  LYS551  ARG553  GLY616  TRP617  ASP618  TYR619  PRO620  LYS621  CYS622 
 ASP623  PHE694  ASN695  SER759  ASP760  ASP761  ALA762  ILE779  LEU786  VAL792 
 PHE793  MET794  SER795  GLU796  ALA797  LYS798  CYS799  TRP800  GLU811  SER814 

> <Gold.Protein.RotatedAtoms>
  152.0189  133.3891  159.4249 H   0  0  0  0  0  0  0  0  0  0  0  0  # atno 6907 bound_to 6896
  150.6892  134.3647  159.4975 H   0  0  0  0  0  0  0  0  0  0  0  0  # atno 6908 bound_to 6896
  152.1418  134.9056  160.0604 H   0  0  0  0  0  0  0  0  0  0  0  0  # atno 6909 bound_to 6896
  144.8265  140.5651  143.5544 H   0  0  0  0  0  0  0  0  0  0  0  0  # atno 7974 bound_to 7965
  154.4260  140.1798  156.1367 H   0  0  0  0  0  0  0  0  0  0  0  0  # atno 8008 bound_to 7997
  156.0024  140.3358  155.6834 H   0  0  0  0  0  0  0  0  0  0  0  0  # atno 8009 bound_to 7997
  155.6224  140.0661  157.2665 H   0  0  0  0  0  0  0  0  0  0  0  0  # atno 8010 bound_to 7997
  139.7479  144.6992  151.0475 H   0  0  0  0  0  0  0  0  0  0  0  0  # atno 10167 bound_to 10162
  156.0028  130.4643  150.4149 H   0  0  0  0  0  0  0  0  0  0  0  0  # atno 10718 bound_to 10713
  153.5808  135.3484  155.2874 H   0  0  0  0  0  0  0  0  0  0  0  0  # atno 10763 bound_to 10752
  154.8668  135.4181  154.2623 H   0  0  0  0  0  0  0  0  0  0  0  0  # atno 10764 bound_to 10752
  153.3409  135.7050  153.6939 H   0  0  0  0  0  0  0  0  0  0  0  0  # atno 10765 bound_to 10752
  140.2267  134.3576  155.7981 H   0  0  0  0  0  0  0  0  0  0  0  0  # atno 11005 bound_to 11000
  145.4990  139.1484  143.3668 LP  0  0  0  0  0  0  0  0  0  0  0  0  # atno 17320 bound_to 7965
  146.2570  140.5129  142.8869 LP  0  0  0  0  0  0  0  0  0  0  0  0  # atno 17321 bound_to 7965
  140.7794  143.4844  150.9976 LP  0  0  0  0  0  0  0  0  0  0  0  0  # atno 17342 bound_to 10162
  139.8532  143.7411  152.3177 LP  0  0  0  0  0  0  0  0  0  0  0  0  # atno 17343 bound_to 10162
  157.2209  131.0482  151.2547 LP  0  0  0  0  0  0  0  0  0  0  0  0  # atno 17370 bound_to 10713
  157.3801  130.7226  149.6624 LP  0  0  0  0  0  0  0  0  0  0  0  0  # atno 17371 bound_to 10713
  141.2220  133.7223  156.8665 LP  0  0  0  0  0  0  0  0  0  0  0  0  # atno 17394 bound_to 11000
  140.1792  134.9045  157.2928 LP  0  0  0  0  0  0  0  0  0  0  0  0  # atno 17395 bound_to 11000

$$$$
