AV-unprocessed.smi:2239|AV-procd|sdf|9056|dock5
  -GOLD-   2272012263D 1   1.00000     0.00000
 Structure written by MMmdl.
 33 34  0  0  0  0  0  0  0  0  1 V2000
  152.9155  142.3142  161.5357 C   0  0  0  0  0  0  0  0  0  0  0  0
  152.4291  143.1475  160.3686 C   0  0  0  0  0  0  0  0  0  0  0  0
  153.3077  143.5362  159.3386 C   0  0  0  0  0  0  0  0  0  0  0  0
  152.7919  144.3132  158.2860 C   0  0  0  0  0  0  0  0  0  0  0  0
  151.4289  144.6672  158.3065 C   0  0  0  0  0  0  0  0  0  0  0  0
  150.6148  144.2358  159.3780 C   0  0  0  0  0  0  0  0  0  0  0  0
  149.2574  144.6480  159.3082 N   0  0  0  0  0  0  0  0  0  0  0  0
  148.3567  144.7110  160.3048 C   0  0  0  0  0  0  0  0  0  0  0  0
  148.5644  144.3893  161.4752 O   0  0  0  0  0  0  0  0  0  0  0  0
  147.1788  145.1781  159.8659 N   0  0  0  0  0  0  0  0  0  0  0  0
  145.9964  145.3825  160.6970 C   0  0  0  0  0  0  0  0  0  0  0  0
  144.8600  144.3994  160.3610 C   0  0  0  0  0  0  0  0  0  0  0  0
  143.7139  144.4397  161.3556 C   0  0  0  0  0  0  0  0  0  0  0  0
  143.8438  143.8274  162.7312 C   0  0  0  0  0  0  0  0  0  0  0  0
  142.9482  143.1840  161.6985 C   0  0  0  0  0  0  0  0  0  0  0  0
  151.1223  143.4869  160.3887 N   0  0  0  0  0  0  0  0  0  0  0  0
  153.9304  141.9528  161.3674 H   0  0  0  0  0  0  0  0  0  0  0  0
  152.2676  141.4497  161.6839 H   0  0  0  0  0  0  0  0  0  0  0  0
  152.9115  142.9080  162.4501 H   0  0  0  0  0  0  0  0  0  0  0  0
  154.3489  143.2491  159.3524 H   0  0  0  0  0  0  0  0  0  0  0  0
  153.4303  144.6335  157.4760 H   0  0  0  0  0  0  0  0  0  0  0  0
  151.0172  145.2638  157.5055 H   0  0  0  0  0  0  0  0  0  0  0  0
  148.9377  144.9352  158.3953 H   0  0  0  0  0  0  0  0  0  0  0  0
  147.0944  145.4169  158.8887 H   0  0  0  0  0  0  0  0  0  0  0  0
  146.2899  145.2651  161.7403 H   0  0  0  0  0  0  0  0  0  0  0  0
  145.6455  146.4103  160.5917 H   0  0  0  0  0  0  0  0  0  0  0  0
  144.4613  144.6352  159.3740 H   0  0  0  0  0  0  0  0  0  0  0  0
  145.2480  143.3820  160.2978 H   0  0  0  0  0  0  0  0  0  0  0  0
  143.1186  145.3488  161.2948 H   0  0  0  0  0  0  0  0  0  0  0  0
  144.7739  143.3177  162.9753 H   0  0  0  0  0  0  0  0  0  0  0  0
  143.3660  144.3476  163.5587 H   0  0  0  0  0  0  0  0  0  0  0  0
  141.8728  143.2738  161.8387 H   0  0  0  0  0  0  0  0  0  0  0  0
  143.2844  142.2466  161.2597 H   0  0  0  0  0  0  0  0  0  0  0  0
  1  2  1  0  0  0  0
  1 17  1  0  0  0  0
  1 18  1  0  0  0  0
  1 19  1  0  0  0  0
  2 16  1  0  0  0  0
  2  3  2  0  0  0  0
  3  4  1  0  0  0  0
  3 20  1  0  0  0  0
  4  5  2  0  0  0  0
  4 21  1  0  0  0  0
  5  6  1  0  0  0  0
  5 22  1  0  0  0  0
  6  7  1  0  0  0  0
  6 16  2  0  0  0  0
  7  8  1  0  0  0  0
  7 23  1  0  0  0  0
  8  9  2  0  0  0  0
  8 10  1  0  0  0  0
 10 11  1  0  0  0  0
 10 24  1  0  0  0  0
 11 12  1  0  0  0  0
 11 25  1  0  0  0  0
 11 26  1  0  0  0  0
 12 13  1  0  0  0  0
 12 27  1  0  0  0  0
 12 28  1  0  0  0  0
 13 15  1  0  0  0  0
 13 14  1  0  0  0  0
 13 29  1  0  0  0  0
 14 15  1  0  0  0  0
 14 30  1  0  0  0  0
 14 31  1  0  0  0  0
 15 32  1  0  0  0  0
 15 33  1  0  0  0  0
M  END
> <s_m_source_file>
AV-unprocessed.smi

> <i_m_source_file_index>
2239

> <i_lp_mmshare_version>
43012

> <i_f3d_flags>
0

> <s_epik_input>
W0NIM11jMVtjSF1bY0hdW2NIXWMobjEpW05IXUMoPU8pW05IXVtDSDJdW0NIMl1bQ0hdMltDSDJdW0NIMl0y

> <s_epik_cmdline>
J2VwaWtfcHl0aG9uJywgJy1waCcsICc3LjAnLCAnLXRuJywgJzgnLCAnLW1hJywgJzIwMCcsICctbWV0YWxfYmluZGluZycsICctaW1hZScsICc8aW5maWxlLm1hZT4nLCAnLW9tYWUnLCAnPG91dGZpbGUubWFlPic=

> <r_lp_tautomer_probability>
1

> <r_epik_Ionization_Penalty>
8.79162e-05

> <r_epik_Ionization_Penalty_Charging>
0

> <r_epik_Ionization_Penalty_Neutral>
8.79162e-05

> <r_epik_State_Penalty>
-0

> <r_epik_Charging_Adjusted_Penalty>
0

> <i_epik_Tot_Q>
0

> <i_epik_Tot_abs_Q>
0

> <r_epik_Metal_State_Penalty>
-0

> <b_epik_Metal_Only>
0

> <s_lp_Force_Field>
OPLS_2005

> <r_lp_Energy>
14.6393

> <b_lp_Chiralities_Consistent>
1

> <s_lp_Variant>
AV-unprocessed.smi:2239-1

> <Gold.Version>
5.8.1

> <Gold.Id.Protein>
6NUR|6NUR_protein|mol2

> <Gold.PLP.Fitness>
47.7470

> <Gold.PLP.PLP>
-39.7271

> <Gold.PLP.part.hbond>
-3.8595

> <Gold.PLP.part.metal>
0.0000

> <Gold.PLP.part.buried>
-4.3106

> <Gold.PLP.part.nonpolar>
-32.1441

> <Gold.PLP.part.repulsive>
0.5944

> <Gold.PLP.ligand.clash>
0.0000

> <Gold.PLP.ligand.torsion>
0.4196

> <Gold.PLP.Chemscore.Hbond>
2.7680

> <Gold.PLP.Chemscore.CHOScore>
0.0000

> <Gold.PLP.Chemscore.Metal>
0.0000

> <Gold.Chemscore.Hbonds>
donor molecule, donor type, donor heavy atom, donor atom, acceptor molecule, acceptor atom, score
      L1  H     7    23       P1  8029  1.00
      L1  H    10    24       P1  8029  1.00
      P1  H  6933  6944       L1     9  0.78

> <Gold.PLP.Chemscore.Internal.Correction>
0.5550

> <Gold.Rescore>
     Score         DG    S(hbond)    S(metal)    S(lipo)     H(rot)  DE(clash)    DE(int)     intcor
     20.73     -22.44       2.78        0.00      95.43       1.37       0.02       1.69       ----

> <Gold.Chemscore.Fitness>
20.7268

> <Gold.Chemscore.DG>
-22.4374

> <Gold.Chemscore.ZeroCoef>
-5.4800

> <Gold.Chemscore.Hbond>
2.7828

> <Gold.Chemscore.Metal>
0.0000

> <Gold.Chemscore.Lipo>
95.4325

> <Gold.Chemscore.Internal_Hbond>
0.0000

> <Gold.Chemscore.DEClash>
0.0186

> <Gold.Chemscore.DEInternal>
1.6919

> <Gold.Chemscore.Rot>
1.3682

> <Gold.Chemscore.Internal.Correction>
   9.000000E+99

> <Gold.Chemscore.Hbonds>
donor molecule, donor type, donor heavy atom, donor atom, acceptor molecule, acceptor atom, score
      L1  H     7    23       P1  8029  0.76
      L1  H    10    24       P1  8029  0.95
      P1  H  6933  6944       L1     9  0.37

> <Gold.Chemscore.Hbond.Weighted>
-9.2944

> <Gold.Chemscore.Metal.Weighted>
-0.0000

> <Gold.Chemscore.Lipo.Weighted>
-11.1656

> <Gold.Chemscore.Internal_Hbond.Weighted>
0.0000

> <Gold.Chemscore.DEClash.Weighted>
0.0186

> <Gold.Chemscore.DEInternal.Weighted>
1.6919

> <Gold.Chemscore.Rot.Weighted>
3.5027

> <Gold.Chemscore.Internal.Correction.Weighted>
   9.000000E+99

> <Gold.Protein.RotatedTorsions>
[ 6907 6896 6895 6894 ] final   47.72 input  -60.11 | X-H torsion
[ 7974 7965 7964 7962 ] final -166.49 input  175.53 | X-H torsion
[ 8008 7997 7996 7995 ] final -106.06 input   59.86 | X-H torsion
[ 10167 10162 10161 10158 ] final   -9.70 input  -65.29 | X-H torsion
[ 10718 10713 10712 10709 ] final  174.54 input   66.30 | X-H torsion
[ 10763 10752 10751 10750 ] final  -29.27 input  -60.55 | X-H torsion
[ 11005 11000 10999 10996 ] final  -89.92 input  -57.11 | X-H torsion

> <Gold.Protein.ActiveResidues>
 VAL166  LYS551  ARG553  GLY616  TRP617  ASP618  TYR619  PRO620  LYS621  CYS622 
 ASP623  PHE694  ASN695  SER759  ASP760  ASP761  ALA762  ILE779  LEU786  VAL792 
 PHE793  MET794  SER795  GLU796  ALA797  LYS798  CYS799  TRP800  GLU811  SER814 

> <Gold.Protein.RotatedAtoms>
  152.2713  134.7929  160.0413 H   0  0  0  0  0  0  0  0  0  0  0  0  # atno 6907 bound_to 6896
  151.8541  133.3440  159.3691 H   0  0  0  0  0  0  0  0  0  0  0  0  # atno 6908 bound_to 6896
  150.7153  134.5198  159.5692 H   0  0  0  0  0  0  0  0  0  0  0  0  # atno 6909 bound_to 6896
  144.7244  140.2659  143.6258 H   0  0  0  0  0  0  0  0  0  0  0  0  # atno 7974 bound_to 7965
  154.9089  140.0410  157.1935 H   0  0  0  0  0  0  0  0  0  0  0  0  # atno 8008 bound_to 7997
  154.8368  140.2908  155.5664 H   0  0  0  0  0  0  0  0  0  0  0  0  # atno 8009 bound_to 7997
  156.2990  140.2490  156.3303 H   0  0  0  0  0  0  0  0  0  0  0  0  # atno 8010 bound_to 7997
  140.7094  143.5829  150.8973 H   0  0  0  0  0  0  0  0  0  0  0  0  # atno 10167 bound_to 10162
  156.9481  131.0022  151.2954 H   0  0  0  0  0  0  0  0  0  0  0  0  # atno 10718 bound_to 10713
  153.7619  135.6918  153.4924 H   0  0  0  0  0  0  0  0  0  0  0  0  # atno 10763 bound_to 10752
  153.1933  135.4463  155.0175 H   0  0  0  0  0  0  0  0  0  0  0  0  # atno 10764 bound_to 10752
  154.8150  135.3394  154.7133 H   0  0  0  0  0  0  0  0  0  0  0  0  # atno 10765 bound_to 10752
  141.1575  133.7660  156.9664 H   0  0  0  0  0  0  0  0  0  0  0  0  # atno 11005 bound_to 11000
  145.8090  139.1995  143.2004 LP  0  0  0  0  0  0  0  0  0  0  0  0  # atno 17320 bound_to 7965
  146.0612  140.7969  142.9734 LP  0  0  0  0  0  0  0  0  0  0  0  0  # atno 17321 bound_to 7965
  139.9555  143.6223  152.3017 LP  0  0  0  0  0  0  0  0  0  0  0  0  # atno 17342 bound_to 10162
  139.6757  144.7658  151.1700 LP  0  0  0  0  0  0  0  0  0  0  0  0  # atno 17343 bound_to 10162
  157.5740  130.8330  149.8430 LP  0  0  0  0  0  0  0  0  0  0  0  0  # atno 17370 bound_to 10713
  156.0375  130.3747  150.1523 LP  0  0  0  0  0  0  0  0  0  0  0  0  # atno 17371 bound_to 10713
  140.1158  134.9448  157.2132 LP  0  0  0  0  0  0  0  0  0  0  0  0  # atno 17394 bound_to 11000
  140.3135  134.2997  155.7261 LP  0  0  0  0  0  0  0  0  0  0  0  0  # atno 17395 bound_to 11000

$$$$
