AV-unprocessed.smi:229|AV-procd|sdf|1750|dock2
  -GOLD-   2262020273D 1   1.00000     0.00000
 Structure written by MMmdl.
 58 62  0  0  0  0  0  0  0  0  1 V2000
  152.3593  131.0949  156.0686 C   0  0  0  0  0  0  0  0  0  0  0  0
  151.4274  131.6819  157.1369 C   0  0  0  0  0  0  0  0  0  0  0  0
  150.6564  132.9271  156.6684 C   0  0  1  0  0  0  0  0  0  0  0  0
  151.5504  134.1758  156.5545 C   0  0  0  0  0  0  0  0  0  0  0  0
  150.8004  135.2778  155.9660 N   0  0  0  0  0  0  0  0  0  0  0  0
  151.3724  136.4988  156.1155 C   0  0  0  0  0  0  0  0  0  0  0  0
  151.8231  137.1787  155.0269 N   0  0  0  0  0  0  0  0  0  0  0  0
  152.3934  138.3788  155.1690 C   0  0  0  0  0  0  0  0  0  0  0  0
  152.6067  139.0743  156.2873 N   0  0  0  0  0  0  0  0  0  0  0  0
  152.1479  138.4021  157.3814 C   0  0  0  0  0  0  0  0  0  0  0  0
  151.5249  137.1225  157.3857 C   0  0  0  0  0  0  0  0  0  0  0  0
  151.1792  136.7695  158.6853 N   0  0  0  0  0  0  0  0  0  0  0  0
  151.5713  137.7840  159.4068 C   0  0  0  0  0  0  0  0  0  0  0  0
  152.1585  138.8105  158.7036 N   0  0  0  0  0  0  0  0  0  0  0  0
  152.6628  140.0575  159.2495 C   0  0  0  0  0  0  0  0  0  0  0  0
  152.2416  141.2916  158.4234 C   0  0  1  0  0  0  0  0  0  0  0  0
  150.8353  141.2440  158.2849 O   0  0  0  0  0  0  0  0  0  0  0  0
  152.6440  142.6444  159.0524 C   0  0  2  0  0  0  0  0  0  0  0  0
  152.2238  142.8263  160.5118 C   0  0  0  0  0  0  0  0  0  0  0  0
  152.2129  144.3361  160.6883 C   0  0  0  0  0  0  0  0  0  0  0  0
  152.1185  144.8724  159.2577 C   0  0  0  0  0  0  0  0  0  0  0  0
  151.9491  143.7221  158.4419 O   0  0  0  0  0  0  0  0  0  0  0  0
  150.2283  134.9420  154.6665 C   0  0  0  0  0  0  0  0  0  0  0  0
  149.3516  133.6768  154.7683 C   0  0  1  0  0  0  0  0  0  0  0  0
  147.9995  133.9011  155.4387 C   0  0  0  0  0  0  0  0  0  0  0  0
  147.1746  132.7520  154.8801 C   0  0  0  0  0  0  0  0  0  0  0  0
  147.5808  132.6702  153.5224 O   0  0  0  0  0  0  0  0  0  0  0  0
  148.9158  133.1546  153.3898 C   0  0  0  0  0  0  0  0  0  0  0  0
  150.1019  132.6241  155.3868 O   0  0  0  0  0  0  0  0  0  0  0  0
  152.9232  130.2528  156.4699 H   0  0  0  0  0  0  0  0  0  0  0  0
  153.0768  131.8383  155.7206 H   0  0  0  0  0  0  0  0  0  0  0  0
  151.8024  130.7338  155.2041 H   0  0  0  0  0  0  0  0  0  0  0  0
  150.7266  130.9176  157.4745 H   0  0  0  0  0  0  0  0  0  0  0  0
  152.0281  131.9473  158.0075 H   0  0  0  0  0  0  0  0  0  0  0  0
  149.8533  133.1170  157.3796 H   0  0  0  0  0  0  0  0  0  0  0  0
  151.9363  134.4451  157.5367 H   0  0  0  0  0  0  0  0  0  0  0  0
  152.4145  133.9628  155.9235 H   0  0  0  0  0  0  0  0  0  0  0  0
  152.7252  138.8498  154.2555 H   0  0  0  0  0  0  0  0  0  0  0  0
  151.4338  137.8161  160.4778 H   0  0  0  0  0  0  0  0  0  0  0  0
  152.3007  140.1483  160.2746 H   0  0  0  0  0  0  0  0  0  0  0  0
  153.7501  139.9944  159.3101 H   0  0  0  0  0  0  0  0  0  0  0  0
  152.6700  141.2217  157.4227 H   0  0  0  0  0  0  0  0  0  0  0  0
  150.5821  140.3557  158.0870 H   0  0  0  0  0  0  0  0  0  0  0  0
  153.7197  142.8053  158.9553 H   0  0  0  0  0  0  0  0  0  0  0  0
  151.2179  142.4322  160.6642 H   0  0  0  0  0  0  0  0  0  0  0  0
  152.8926  142.3243  161.2114 H   0  0  0  0  0  0  0  0  0  0  0  0
  151.3732  144.6580  161.3049 H   0  0  0  0  0  0  0  0  0  0  0  0
  153.1319  144.6824  161.1626 H   0  0  0  0  0  0  0  0  0  0  0  0
  151.2889  145.5670  159.1238 H   0  0  0  0  0  0  0  0  0  0  0  0
  153.0399  145.3828  158.9745 H   0  0  0  0  0  0  0  0  0  0  0  0
  149.6394  135.7762  154.2824 H   0  0  0  0  0  0  0  0  0  0  0  0
  151.0410  134.7698  153.9591 H   0  0  0  0  0  0  0  0  0  0  0  0
  148.0205  133.9205  156.5270 H   0  0  0  0  0  0  0  0  0  0  0  0
  147.5686  134.8464  155.1060 H   0  0  0  0  0  0  0  0  0  0  0  0
  147.4214  131.8185  155.3876 H   0  0  0  0  0  0  0  0  0  0  0  0
  146.1011  132.9190  154.9694 H   0  0  0  0  0  0  0  0  0  0  0  0
  148.9024  133.9573  152.6517 H   0  0  0  0  0  0  0  0  0  0  0  0
  149.5802  132.3759  153.0135 H   0  0  0  0  0  0  0  0  0  0  0  0
  1  2  1  0  0  0  0
  1 30  1  0  0  0  0
  1 31  1  0  0  0  0
  1 32  1  0  0  0  0
  2  3  1  0  0  0  0
  2 33  1  0  0  0  0
  2 34  1  0  0  0  0
  3 29  1  0  0  0  0
  3  4  1  0  0  0  0
  3 35  1  0  0  0  0
  4  5  1  0  0  0  0
  4 36  1  0  0  0  0
  4 37  1  0  0  0  0
  5  6  1  0  0  0  0
  5 23  1  0  0  0  0
  6 11  1  0  0  0  0
  6  7  2  0  0  0  0
  7  8  1  0  0  0  0
  8  9  2  0  0  0  0
  8 38  1  0  0  0  0
  9 10  1  0  0  0  0
 10 14  1  0  0  0  0
 10 11  2  0  0  0  0
 11 12  1  0  0  0  0
 12 13  2  0  0  0  0
 13 14  1  0  0  0  0
 13 39  1  0  0  0  0
 14 15  1  0  0  0  0
 15 16  1  0  0  0  0
 15 40  1  0  0  0  0
 15 41  1  0  0  0  0
 16 17  1  0  0  0  0
 16 18  1  0  0  0  0
 16 42  1  0  0  0  0
 17 43  1  0  0  0  0
 18 22  1  0  0  0  0
 18 19  1  0  0  0  0
 18 44  1  0  0  0  0
 19 20  1  0  0  0  0
 19 45  1  0  0  0  0
 19 46  1  0  0  0  0
 20 21  1  0  0  0  0
 20 47  1  0  0  0  0
 20 48  1  0  0  0  0
 21 22  1  0  0  0  0
 21 49  1  0  0  0  0
 21 50  1  0  0  0  0
 23 24  1  0  0  0  0
 23 51  1  0  0  0  0
 23 52  1  0  0  0  0
 24 28  1  0  0  0  0
 24 25  1  0  0  0  0
 24 29  1  0  0  0  0
 25 26  1  0  0  0  0
 25 53  1  0  0  0  0
 25 54  1  0  0  0  0
 26 27  1  0  0  0  0
 26 55  1  0  0  0  0
 26 56  1  0  0  0  0
 27 28  1  0  0  0  0
 28 57  1  0  0  0  0
 28 58  1  0  0  0  0
M  END
> <s_m_source_file>
AV-unprocessed.smi

> <i_m_source_file_index>
229

> <i_lp_mmshare_version>
43012

> <i_f3d_flags>
0

> <s_epik_input>
W0NIMl0xT1tDSDJdW0NIMl1bQ0BdMTJbQ0gyXU4oW0NIMl1bQ0BIXShPMilbQ0gyXVtDSDNdKWMobltjSF1uMyljKGMzNCluW2NIXW40W0NIMl1bQ0BIXShbT0hdKVtDQEBIXTVbQ0gyXVtDSDJdW0NIMl1PNQ==

> <s_epik_cmdline>
J2VwaWtfcHl0aG9uJywgJy1waCcsICc3LjAnLCAnLXRuJywgJzgnLCAnLW1hJywgJzIwMCcsICctbWV0YWxfYmluZGluZycsICctaW1hZScsICc8aW5maWxlLm1hZT4nLCAnLW9tYWUnLCAnPG91dGZpbGUubWFlPic=

> <r_lp_tautomer_probability>
1

> <r_epik_Ionization_Penalty>
0.00318402

> <r_epik_Ionization_Penalty_Charging>
0

> <r_epik_Ionization_Penalty_Neutral>
0.00318402

> <r_epik_State_Penalty>
0.00215642

> <r_epik_Charging_Adjusted_Penalty>
0.00215642

> <i_epik_Tot_Q>
0

> <i_epik_Tot_abs_Q>
0

> <r_epik_Metal_State_Penalty>
-0

> <b_epik_Metal_Only>
0

> <s_lp_Force_Field>
OPLS_2005

> <r_lp_Energy>
55.6403

> <b_lp_Chiralities_Consistent>
1

> <s_lp_Variant>
AV-unprocessed.smi:229-4

> <Gold.Version>
5.8.1

> <Gold.Id.Protein>
6NUR|6NUR_protein|mol2

> <Gold.PLP.Fitness>
53.0444

> <Gold.PLP.PLP>
-46.4840

> <Gold.PLP.part.hbond>
-3.0000

> <Gold.PLP.part.metal>
0.0000

> <Gold.PLP.part.buried>
-8.6774

> <Gold.PLP.part.nonpolar>
-37.2166

> <Gold.PLP.part.repulsive>
0.2886

> <Gold.PLP.ligand.clash>
0.0000

> <Gold.PLP.ligand.torsion>
0.7922

> <Gold.PLP.Chemscore.Hbond>
2.6050

> <Gold.PLP.Chemscore.CHOScore>
0.0000

> <Gold.PLP.Chemscore.Metal>
0.0000

> <Gold.Chemscore.Hbonds>
donor molecule, donor type, donor heavy atom, donor atom, acceptor molecule, acceptor atom, score
      P1  H  6896  6909       L1    12  0.89
      P1  H  7997  8008       L1     9  1.00
      P1  H 10752 10763       L1     7  0.67

> <Gold.PLP.Chemscore.Internal.Correction>
0.3298

> <Gold.Rescore>
     Score         DG    S(hbond)    S(metal)    S(lipo)     H(rot)  DE(clash)    DE(int)     intcor
     18.06     -18.88       2.15        0.00     106.86       2.46       0.16       0.66       ----

> <Gold.Chemscore.Fitness>
18.0560

> <Gold.Chemscore.DG>
-18.8791

> <Gold.Chemscore.ZeroCoef>
-5.4800

> <Gold.Chemscore.Hbond>
2.1532

> <Gold.Chemscore.Metal>
0.0000

> <Gold.Chemscore.Lipo>
106.8615

> <Gold.Chemscore.Internal_Hbond>
0.0000

> <Gold.Chemscore.DEClash>
0.1610

> <Gold.Chemscore.DEInternal>
0.6621

> <Gold.Chemscore.Rot>
2.4591

> <Gold.Chemscore.Internal.Correction>
   9.000000E+99

> <Gold.Chemscore.Hbonds>
donor molecule, donor type, donor heavy atom, donor atom, acceptor molecule, acceptor atom, score
      P1  H  6896  6909       L1    12  0.53
      P1  H  7997  8008       L1     9  0.84
      P1  H 10752 10763       L1     7  0.07

> <Gold.Chemscore.Hbond.Weighted>
-7.1917

> <Gold.Chemscore.Metal.Weighted>
-0.0000

> <Gold.Chemscore.Lipo.Weighted>
-12.5028

> <Gold.Chemscore.Internal_Hbond.Weighted>
0.0000

> <Gold.Chemscore.DEClash.Weighted>
0.1610

> <Gold.Chemscore.DEInternal.Weighted>
0.6621

> <Gold.Chemscore.Rot.Weighted>
6.2953

> <Gold.Chemscore.Internal.Correction.Weighted>
   9.000000E+99

> <Gold.Protein.RotatedTorsions>
[ 6907 6896 6895 6894 ] final   99.22 input  -60.11 | X-H torsion
[ 7974 7965 7964 7962 ] final   -1.26 input  175.53 | X-H torsion
[ 8008 7997 7996 7995 ] final  -41.08 input   59.86 | X-H torsion
[ 10167 10162 10161 10158 ] final   92.18 input  -65.29 | X-H torsion
[ 10718 10713 10712 10709 ] final -105.52 input   66.30 | X-H torsion
[ 10763 10752 10751 10750 ] final   42.13 input  -60.55 | X-H torsion
[ 11005 11000 10999 10996 ] final   89.86 input  -57.11 | X-H torsion

> <Gold.Protein.ActiveResidues>
 VAL166  LYS551  ARG553  GLY616  TRP617  ASP618  TYR619  PRO620  LYS621  CYS622 
 ASP623  PHE694  ASN695  SER759  ASP760  ASP761  ALA762  ILE779  LEU786  VAL792 
 PHE793  MET794  SER795  GLU796  ALA797  LYS798  CYS799  TRP800  GLU811  SER814 

> <Gold.Protein.RotatedAtoms>
  152.5396  134.0461  159.8088 H   0  0  0  0  0  0  0  0  0  0  0  0  # atno 6907 bound_to 6896
  151.0610  133.5537  159.2641 H   0  0  0  0  0  0  0  0  0  0  0  0  # atno 6908 bound_to 6896
  151.2435  135.0605  159.9088 H   0  0  0  0  0  0  0  0  0  0  0  0  # atno 6909 bound_to 6896
  146.2419  140.1394  142.8336 H   0  0  0  0  0  0  0  0  0  0  0  0  # atno 7974 bound_to 7965
  154.4007  140.1508  156.3133 H   0  0  0  0  0  0  0  0  0  0  0  0  # atno 8008 bound_to 7997
  155.8596  140.3454  155.5726 H   0  0  0  0  0  0  0  0  0  0  0  0  # atno 8009 bound_to 7997
  155.7895  140.0854  157.2007 H   0  0  0  0  0  0  0  0  0  0  0  0  # atno 8010 bound_to 7997
  139.8302  144.6690  150.9409 H   0  0  0  0  0  0  0  0  0  0  0  0  # atno 10167 bound_to 10162
  156.0350  130.5568  150.7551 H   0  0  0  0  0  0  0  0  0  0  0  0  # atno 10718 bound_to 10713
  152.9890  135.6141  154.2899 H   0  0  0  0  0  0  0  0  0  0  0  0  # atno 10763 bound_to 10752
  154.2625  135.2782  155.2774 H   0  0  0  0  0  0  0  0  0  0  0  0  # atno 10764 bound_to 10752
  154.5193  135.5819  153.6725 H   0  0  0  0  0  0  0  0  0  0  0  0  # atno 10765 bound_to 10752
  139.8867  134.8578  156.3203 H   0  0  0  0  0  0  0  0  0  0  0  0  # atno 11005 bound_to 11000
  145.0259  140.8832  143.5139 LP  0  0  0  0  0  0  0  0  0  0  0  0  # atno 17320 bound_to 7965
  145.1450  139.2549  143.5470 LP  0  0  0  0  0  0  0  0  0  0  0  0  # atno 17321 bound_to 7965
  140.7807  143.4008  151.1152 LP  0  0  0  0  0  0  0  0  0  0  0  0  # atno 17342 bound_to 10162
  139.7662  143.8562  152.3111 LP  0  0  0  0  0  0  0  0  0  0  0  0  # atno 17343 bound_to 10162
  157.5085  131.0924  151.0227 LP  0  0  0  0  0  0  0  0  0  0  0  0  # atno 17370 bound_to 10713
  157.0589  130.5817  149.5382 LP  0  0  0  0  0  0  0  0  0  0  0  0  # atno 17371 bound_to 10713
  140.9791  133.7278  156.0646 LP  0  0  0  0  0  0  0  0  0  0  0  0  # atno 17394 bound_to 11000
  140.7772  134.3766  157.5495 LP  0  0  0  0  0  0  0  0  0  0  0  0  # atno 17395 bound_to 11000

$$$$
