AV-unprocessed.smi:72|AV-procd|sdf|694|dock7
  -GOLD-   2262017 13D 1   1.00000     0.00000
 Structure written by MMmdl.
 29 30  0  0  0  0  0  0  0  0  1 V2000
  150.1096  143.7063  158.1635 N   0  0  0  0  0  0  0  0  0  0  0  0
  150.4406  142.6246  157.5544 C   0  0  0  0  0  0  0  0  0  0  0  0
  151.1612  141.5618  158.1201 N   0  0  0  0  0  0  0  0  0  0  0  0
  151.4351  140.5330  157.3784 C   0  0  0  0  0  0  0  0  0  0  0  0
  151.0292  140.4530  155.9836 N   0  0  0  0  0  0  0  0  0  0  0  0
  151.3497  139.2396  155.1415 C   0  0  1  0  0  0  0  0  0  0  0  0
  151.9681  138.2768  155.9445 O   0  0  0  0  0  0  0  0  0  0  0  0
  151.3986  136.9967  155.6906 C   0  0  1  0  0  0  0  0  0  0  0  0
  151.5687  136.0976  156.9247 C   0  0  0  0  0  0  0  0  0  0  0  0
  152.8576  135.5221  156.9320 O   0  0  0  0  0  0  0  0  0  0  0  0
  149.9414  137.3433  155.3816 C   0  0  2  0  0  0  0  0  0  0  0  0
  149.2540  136.3091  154.7029 O   0  0  0  0  0  0  0  0  0  0  0  0
  150.0636  138.6262  154.5654 C   0  0  2  0  0  0  0  0  0  0  0  0
  150.2008  138.3803  153.1778 O   0  0  0  0  0  0  0  0  0  0  0  0
  150.2722  141.5018  155.4076 C   0  0  0  0  0  0  0  0  0  0  0  0
  149.8625  141.4626  154.2477 O   0  0  0  0  0  0  0  0  0  0  0  0
  150.0197  142.5506  156.2202 N   0  0  0  0  0  0  0  0  0  0  0  0
  152.0617  139.5671  154.3818 H   0  0  0  0  0  0  0  0  0  0  0  0
  151.8690  136.5579  154.8082 H   0  0  0  0  0  0  0  0  0  0  0  0
  149.4149  137.5640  156.3114 H   0  0  0  0  0  0  0  0  0  0  0  0
  149.2069  139.2846  154.7170 H   0  0  0  0  0  0  0  0  0  0  0  0
  149.5939  144.3109  157.5401 H   0  0  0  0  0  0  0  0  0  0  0  0
  151.9804  139.6658  157.7528 H   0  0  0  0  0  0  0  0  0  0  0  0
  151.3942  136.6523  157.8471 H   0  0  0  0  0  0  0  0  0  0  0  0
  150.8470  135.2809  156.8965 H   0  0  0  0  0  0  0  0  0  0  0  0
  153.0375  135.1976  157.8011 H   0  0  0  0  0  0  0  0  0  0  0  0
  149.3701  136.4317  153.7732 H   0  0  0  0  0  0  0  0  0  0  0  0
  149.4963  137.8138  152.9021 H   0  0  0  0  0  0  0  0  0  0  0  0
  149.4892  143.3208  155.8404 H   0  0  0  0  0  0  0  0  0  0  0  0
  1  2  2  0  0  0  0
  1 22  1  0  0  0  0
  2 17  1  0  0  0  0
  2  3  1  0  0  0  0
  3  4  2  0  0  0  0
  4  5  1  0  0  0  0
  4 23  1  0  0  0  0
  5  6  1  0  0  0  0
  5 15  1  0  0  0  0
  6 18  1  0  0  0  0
  6 13  1  0  0  0  0
  6  7  1  0  0  0  0
  7  8  1  0  0  0  0
  8 19  1  0  0  0  0
  8  9  1  0  0  0  0
  8 11  1  0  0  0  0
  9 10  1  0  0  0  0
  9 24  1  0  0  0  0
  9 25  1  0  0  0  0
 10 26  1  0  0  0  0
 11 20  1  0  0  0  0
 11 12  1  0  0  0  0
 11 13  1  0  0  0  0
 12 27  1  0  0  0  0
 13 21  1  0  0  0  0
 13 14  1  0  0  0  0
 14 28  1  0  0  0  0
 15 16  2  0  0  0  0
 15 17  1  0  0  0  0
 17 29  1  0  0  0  0
M  END
> <s_m_source_file>
AV-unprocessed.smi

> <i_m_source_file_index>
72

> <i_lp_mmshare_version>
43012

> <i_f3d_flags>
0

> <s_epik_input>
W05IMl1jMW5bY0hdbihjKD1PKW4xKVtDQEBIXTJPW0NASF0oW0NIMl1bT0hdKVtDQEBIXShbT0hdKVtDQEhdMltPSF0=

> <s_epik_cmdline>
J2VwaWtfcHl0aG9uJywgJy1waCcsICc3LjAnLCAnLXRuJywgJzgnLCAnLW1hJywgJzIwMCcsICctbWV0YWxfYmluZGluZycsICctaW1hZScsICc8aW5maWxlLm1hZT4nLCAnLW9tYWUnLCAnPG91dGZpbGUubWFlPic=

> <r_lp_tautomer_probability>
7.17554e-07

> <r_epik_Ionization_Penalty>
0.0066451

> <r_epik_Ionization_Penalty_Charging>
0.00663793

> <r_epik_Ionization_Penalty_Neutral>
7.17052e-06

> <r_epik_State_Penalty>
0.419231

> <r_epik_Charging_Adjusted_Penalty>
0.425868

> <i_epik_Tot_Q>
0

> <i_epik_Tot_abs_Q>
0

> <r_epik_Metal_State_Penalty>
1.44144

> <b_epik_Metal_Only>
0

> <s_epik_Chemistry_Notes>
This compound contains an acetal/aminal-like group ( X-CH(R)-Y where X, Y are N, S, or O) that may be acid/base labile, releasing an aldehyde.

> <s_lp_Force_Field>
OPLS_2005

> <r_lp_Energy>
41.633

> <b_lp_Chiralities_Consistent>
1

> <s_lp_Variant>
AV-unprocessed.smi:72-32

> <Gold.Version>
5.8.1

> <Gold.Id.Protein>
6NUR|6NUR_protein|mol2

> <Gold.PLP.Fitness>
40.1861

> <Gold.PLP.PLP>
-24.8924

> <Gold.PLP.part.hbond>
-9.2383

> <Gold.PLP.part.metal>
0.0000

> <Gold.PLP.part.buried>
0.7656

> <Gold.PLP.part.nonpolar>
-15.7115

> <Gold.PLP.part.repulsive>
0.3054

> <Gold.PLP.ligand.clash>
0.0000

> <Gold.PLP.ligand.torsion>
0.2269

> <Gold.PLP.Chemscore.Hbond>
5.2432

> <Gold.PLP.Chemscore.CHOScore>
0.0000

> <Gold.PLP.Chemscore.Metal>
0.0000

> <Gold.Chemscore.Hbonds>
donor molecule, donor type, donor heavy atom, donor atom, acceptor molecule, acceptor atom, score
      L1  H     1    22       P1  8028  0.80
      L1  H    12    27       P1  7948  1.00
      L1  H    14    28       P1  7948  0.91
      L1  H    17    29       P1  8028  1.00
      P1  H  7989  7998       L1    16  0.23
      P1  H  8011  8017       L1    16  0.43
      P1  H 10752 10765       L1    10  1.00

> <Gold.PLP.Chemscore.Internal.Correction>
0.0180

> <Gold.Rescore>
     Score         DG    S(hbond)    S(metal)    S(lipo)     H(rot)  DE(clash)    DE(int)     intcor
      8.84     -10.88       4.07        0.00      18.87       4.06       0.44       1.61       ----

> <Gold.Chemscore.Fitness>
8.8367

> <Gold.Chemscore.DG>
-10.8814

> <Gold.Chemscore.ZeroCoef>
-5.4800

> <Gold.Chemscore.Hbond>
4.0681

> <Gold.Chemscore.Metal>
0.0000

> <Gold.Chemscore.Lipo>
18.8683

> <Gold.Chemscore.Internal_Hbond>
0.0000

> <Gold.Chemscore.DEClash>
0.4384

> <Gold.Chemscore.DEInternal>
1.6064

> <Gold.Chemscore.Rot>
4.0600

> <Gold.Chemscore.Internal.Correction>
   9.000000E+99

> <Gold.Chemscore.Hbonds>
donor molecule, donor type, donor heavy atom, donor atom, acceptor molecule, acceptor atom, score
      L1  H     1    22       P1  8028  0.11
      L1  H    12    27       P1  7948  0.87
      L1  H    14    28       P1  7948  0.73
      L1  H    17    29       P1  8028  0.93
      P1  H  7989  7998       L1    16  0.03
      P1  H  8011  8017       L1    16  0.43
      P1  H 10752 10765       L1    10  0.39

> <Gold.Chemscore.Hbond.Weighted>
-13.5874

> <Gold.Chemscore.Metal.Weighted>
-0.0000

> <Gold.Chemscore.Lipo.Weighted>
-2.2076

> <Gold.Chemscore.Internal_Hbond.Weighted>
0.0000

> <Gold.Chemscore.DEClash.Weighted>
0.4384

> <Gold.Chemscore.DEInternal.Weighted>
1.6064

> <Gold.Chemscore.Rot.Weighted>
10.3936

> <Gold.Chemscore.Internal.Correction.Weighted>
   9.000000E+99

> <Gold.Protein.RotatedTorsions>
[ 6907 6896 6895 6894 ] final   46.40 input  -60.11 | X-H torsion
[ 7974 7965 7964 7962 ] final  -29.10 input  175.53 | X-H torsion
[ 8008 7997 7996 7995 ] final   89.87 input   59.86 | X-H torsion
[ 10167 10162 10161 10158 ] final  -72.30 input  -65.29 | X-H torsion
[ 10718 10713 10712 10709 ] final -136.05 input   66.30 | X-H torsion
[ 10763 10752 10751 10750 ] final -141.07 input  -60.55 | X-H torsion
[ 11005 11000 10999 10996 ] final  -52.02 input  -57.11 | X-H torsion

> <Gold.Protein.ActiveResidues>
 VAL166  LYS551  ARG553  GLY616  TRP617  ASP618  TYR619  PRO620  LYS621  CYS622 
 ASP623  PHE694  ASN695  SER759  ASP760  ASP761  ALA762  ILE779  LEU786  VAL792 
 PHE793  MET794  SER795  GLU796  ALA797  LYS798  CYS799  TRP800  GLU811  SER814 

> <Gold.Protein.RotatedAtoms>
  152.2560  134.8084  160.0438 H   0  0  0  0  0  0  0  0  0  0  0  0  # atno 6907 bound_to 6896
  151.8747  133.3477  159.3754 H   0  0  0  0  0  0  0  0  0  0  0  0  # atno 6908 bound_to 6896
  150.7100  134.5005  159.5603 H   0  0  0  0  0  0  0  0  0  0  0  0  # atno 6909 bound_to 6896
  146.1241  140.5368  142.8722 H   0  0  0  0  0  0  0  0  0  0  0  0  # atno 7974 bound_to 7965
  156.0051  140.3356  155.6885 H   0  0  0  0  0  0  0  0  0  0  0  0  # atno 8008 bound_to 7997
  155.6235  140.0677  157.2688 H   0  0  0  0  0  0  0  0  0  0  0  0  # atno 8009 bound_to 7997
  154.4262  140.1772  156.1385 H   0  0  0  0  0  0  0  0  0  0  0  0  # atno 8010 bound_to 7997
  140.5203  143.2332  151.7441 H   0  0  0  0  0  0  0  0  0  0  0  0  # atno 10167 bound_to 10162
  156.2728  130.7275  151.1248 H   0  0  0  0  0  0  0  0  0  0  0  0  # atno 10718 bound_to 10713
  154.8558  135.3535  154.5809 H   0  0  0  0  0  0  0  0  0  0  0  0  # atno 10763 bound_to 10752
  153.6420  135.6998  153.5243 H   0  0  0  0  0  0  0  0  0  0  0  0  # atno 10764 bound_to 10752
  153.2964  135.4219  155.1172 H   0  0  0  0  0  0  0  0  0  0  0  0  # atno 10765 bound_to 10752
  141.0902  133.6634  156.3963 H   0  0  0  0  0  0  0  0  0  0  0  0  # atno 11005 bound_to 11000
  144.7625  140.5455  143.6725 LP  0  0  0  0  0  0  0  0  0  0  0  0  # atno 17320 bound_to 7965
  145.5403  139.1475  143.3450 LP  0  0  0  0  0  0  0  0  0  0  0  0  # atno 17321 bound_to 7965
  139.4921  144.4264  151.9921 LP  0  0  0  0  0  0  0  0  0  0  0  0  # atno 17342 bound_to 10162
  140.3360  144.3260  150.5977 LP  0  0  0  0  0  0  0  0  0  0  0  0  # atno 17343 bound_to 10162
  157.7289  131.0628  150.5797 LP  0  0  0  0  0  0  0  0  0  0  0  0  # atno 17370 bound_to 10713
  156.5895  130.4325  149.5942 LP  0  0  0  0  0  0  0  0  0  0  0  0  # atno 17371 bound_to 10713
  140.5269  134.6250  157.5337 LP  0  0  0  0  0  0  0  0  0  0  0  0  # atno 17394 bound_to 11000
  139.9727  134.7267  156.0010 LP  0  0  0  0  0  0  0  0  0  0  0  0  # atno 17395 bound_to 11000

$$$$
