AV-unprocessed.smi:2786|AV-procd|sdf|10753|dock7
  -GOLD-   2272015183D 1   1.00000     0.00000
 Structure written by MMmdl.
 27 28  0  0  0  0  0  0  0  0  2 V2000
  153.1032  142.1425  159.2052 C   0  0  0  0  0  0  0  0  0  0  0  0
  152.2452  143.2783  158.8623 N   0  0  0  0  0  0  0  0  0  0  0  0
  152.1895  144.4844  159.5129 C   0  0  0  0  0  0  0  0  0  0  0  0
  151.2495  145.2394  158.8617 C   0  0  0  0  0  0  0  0  0  0  0  0
  150.7723  144.4639  157.8405 N   0  3  0  0  0  0  0  0  0  0  0  0
  151.3825  143.2719  157.8322 C   0  0  0  0  0  0  0  0  0  0  0  0
  151.1133  142.1544  156.8678 C   0  0  1  0  0  0  0  0  0  0  0  0
  150.9163  140.8150  157.6114 C   0  0  0  0  0  0  0  0  0  0  0  0
  150.6701  139.7238  156.6672 N   0  0  0  0  0  0  0  0  0  0  0  0
  149.5112  140.0127  155.8217 C   0  0  0  0  0  0  0  0  0  0  0  0
  149.7076  141.3422  155.0711 C   0  0  0  0  0  0  0  0  0  0  0  0
  149.9559  142.4383  156.0104 N   0  0  0  0  0  0  0  0  0  0  0  0
  153.6240  142.3472  160.1411 H   0  0  0  0  0  0  0  0  0  0  0  0
  153.8338  141.9910  158.4102 H   0  0  0  0  0  0  0  0  0  0  0  0
  152.4920  141.2472  159.3229 H   0  0  0  0  0  0  0  0  0  0  0  0
  152.8054  144.7100  160.3714 H   0  0  0  0  0  0  0  0  0  0  0  0
  150.8930  146.2427  159.0443 H   0  0  0  0  0  0  0  0  0  0  0  0
  152.0022  142.0802  156.2404 H   0  0  0  0  0  0  0  0  0  0  0  0
  151.7988  140.5877  158.2096 H   0  0  0  0  0  0  0  0  0  0  0  0
  150.0815  140.8965  158.3091 H   0  0  0  0  0  0  0  0  0  0  0  0
  150.5079  138.8620  157.1790 H   0  0  0  0  0  0  0  0  0  0  0  0
  149.3612  139.2030  155.1073 H   0  0  0  0  0  0  0  0  0  0  0  0
  148.6071  140.0610  156.4303 H   0  0  0  0  0  0  0  0  0  0  0  0
  150.5425  141.2520  154.3747 H   0  0  0  0  0  0  0  0  0  0  0  0
  148.8250  141.5613  154.4702 H   0  0  0  0  0  0  0  0  0  0  0  0
  150.1296  143.2882  155.4833 H   0  0  0  0  0  0  0  0  0  0  0  0
  150.0608  144.7463  157.1779 H   0  0  0  0  0  0  0  0  0  0  0  0
  1  2  1  0  0  0  0
  1 13  1  0  0  0  0
  1 14  1  0  0  0  0
  1 15  1  0  0  0  0
  2  6  1  0  0  0  0
  2  3  1  0  0  0  0
  3  4  2  0  0  0  0
  3 16  1  0  0  0  0
  4  5  1  0  0  0  0
  4 17  1  0  0  0  0
  5  6  2  0  0  0  0
  5 27  1  0  0  0  0
  6  7  1  0  0  0  0
  7 12  1  0  0  0  0
  7  8  1  0  0  0  0
  7 18  1  0  0  0  0
  8  9  1  0  0  0  0
  8 19  1  0  0  0  0
  8 20  1  0  0  0  0
  9 10  1  0  0  0  0
  9 21  1  0  0  0  0
 10 11  1  0  0  0  0
 10 22  1  0  0  0  0
 10 23  1  0  0  0  0
 11 12  1  0  0  0  0
 11 24  1  0  0  0  0
 11 25  1  0  0  0  0
 12 26  1  0  0  0  0
M  CHG  1   5   1
M  END
> <s_m_source_file>
AV-unprocessed.smi

> <i_m_source_file_index>
2786

> <i_lp_mmshare_version>
43012

> <i_f3d_flags>
0

> <s_epik_input>
W0NIM11uMVtjSF1bY0hdbmMxW0NAQEhdMltDSDJdW05IXVtDSDJdW0NIMl1bTkhdMg==

> <s_epik_cmdline>
J2VwaWtfcHl0aG9uJywgJy1waCcsICc3LjAnLCAnLXRuJywgJzgnLCAnLW1hJywgJzIwMCcsICctbWV0YWxfYmluZGluZycsICctaW1hZScsICc8aW5maWxlLm1hZT4nLCAnLW9tYWUnLCAnPG91dGZpbGUubWFlPic=

> <r_epik_Ionization_Penalty>
1.38811

> <r_epik_Ionization_Penalty_Charging>
0

> <r_epik_Ionization_Penalty_Neutral>
1.38811

> <r_epik_State_Penalty>
1.49833

> <r_epik_Charging_Adjusted_Penalty>
1.49833

> <i_epik_Tot_Q>
1

> <i_epik_Tot_abs_Q>
1

> <r_epik_Metal_State_Penalty>
3.89997

> <b_epik_Metal_Only>
0

> <s_lp_Force_Field>
OPLS_2005

> <r_lp_Energy>
24.8343

> <b_lp_Chiralities_Consistent>
1

> <s_lp_Variant>
AV-unprocessed.smi:2786-6

> <Gold.Version>
5.8.1

> <Gold.Id.Protein>
6NUR|6NUR_protein|mol2

> <Gold.PLP.Fitness>
35.8647

> <Gold.PLP.PLP>
-29.0883

> <Gold.PLP.part.hbond>
-2.2253

> <Gold.PLP.part.metal>
0.0000

> <Gold.PLP.part.buried>
-4.0106

> <Gold.PLP.part.nonpolar>
-23.0044

> <Gold.PLP.part.repulsive>
0.0772

> <Gold.PLP.ligand.clash>
0.0000

> <Gold.PLP.ligand.torsion>
0.1966

> <Gold.PLP.Chemscore.Hbond>
2.3840

> <Gold.PLP.Chemscore.CHOScore>
0.0000

> <Gold.PLP.Chemscore.Metal>
0.0000

> <Gold.Chemscore.Hbonds>
donor molecule, donor type, donor heavy atom, donor atom, acceptor molecule, acceptor atom, score
      L1  H     5    27       P1  8028  1.90
      L1  H    12    26       P1  8028  0.38

> <Gold.PLP.Chemscore.Internal.Correction>
0.0174

> <Gold.Rescore>
     Score         DG    S(hbond)    S(metal)    S(lipo)     H(rot)  DE(clash)    DE(int)     intcor
     12.29     -13.83       1.18        0.00      59.65       1.00       0.04       1.49       ----

> <Gold.Chemscore.Fitness>
12.2944

> <Gold.Chemscore.DG>
-13.8262

> <Gold.Chemscore.ZeroCoef>
-5.4800

> <Gold.Chemscore.Hbond>
1.1759

> <Gold.Chemscore.Metal>
0.0000

> <Gold.Chemscore.Lipo>
59.6481

> <Gold.Chemscore.Internal_Hbond>
0.0000

> <Gold.Chemscore.DEClash>
0.0383

> <Gold.Chemscore.DEInternal>
1.4935

> <Gold.Chemscore.Rot>
1.0000

> <Gold.Chemscore.Internal.Correction>
   9.000000E+99

> <Gold.Chemscore.Hbonds>
donor molecule, donor type, donor heavy atom, donor atom, acceptor molecule, acceptor atom, score
      L1  H     5    27       P1  8028  0.21
      L1  H    12    26       P1  8028  0.38

> <Gold.Chemscore.Hbond.Weighted>
-3.9274

> <Gold.Chemscore.Metal.Weighted>
-0.0000

> <Gold.Chemscore.Lipo.Weighted>
-6.9788

> <Gold.Chemscore.Internal_Hbond.Weighted>
0.0000

> <Gold.Chemscore.DEClash.Weighted>
0.0383

> <Gold.Chemscore.DEInternal.Weighted>
1.4935

> <Gold.Chemscore.Rot.Weighted>
2.5600

> <Gold.Chemscore.Internal.Correction.Weighted>
   9.000000E+99

> <Gold.Protein.RotatedTorsions>
[ 6907 6896 6895 6894 ] final -156.57 input  -60.11 | X-H torsion
[ 7974 7965 7964 7962 ] final  -95.90 input  175.53 | X-H torsion
[ 8008 7997 7996 7995 ] final   49.84 input   59.86 | X-H torsion
[ 10167 10162 10161 10158 ] final  175.15 input  -65.29 | X-H torsion
[ 10718 10713 10712 10709 ] final -101.77 input   66.30 | X-H torsion
[ 10763 10752 10751 10750 ] final   24.95 input  -60.55 | X-H torsion
[ 11005 11000 10999 10996 ] final -105.05 input  -57.11 | X-H torsion

> <Gold.Protein.ActiveResidues>
 VAL166  LYS551  ARG553  GLY616  TRP617  ASP618  TYR619  PRO620  LYS621  CYS622 
 ASP623  PHE694  ASN695  SER759  ASP760  ASP761  ALA762  ILE779  LEU786  VAL792 
 PHE793  MET794  SER795  GLU796  ALA797  LYS798  CYS799  TRP800  GLU811  SER814 

> <Gold.Protein.RotatedAtoms>
  151.2897  133.4171  159.2632 H   0  0  0  0  0  0  0  0  0  0  0  0  # atno 6907 bound_to 6896
  151.0288  134.9524  159.8110 H   0  0  0  0  0  0  0  0  0  0  0  0  # atno 6908 bound_to 6896
  152.5341  134.2858  159.9077 H   0  0  0  0  0  0  0  0  0  0  0  0  # atno 6909 bound_to 6896
  145.3540  140.9481  143.2538 H   0  0  0  0  0  0  0  0  0  0  0  0  # atno 7974 bound_to 7965
  155.4088  140.3441  155.4262 H   0  0  0  0  0  0  0  0  0  0  0  0  # atno 8008 bound_to 7997
  156.1461  140.1556  156.8877 H   0  0  0  0  0  0  0  0  0  0  0  0  # atno 8009 bound_to 7997
  154.5011  140.0814  156.7781 H   0  0  0  0  0  0  0  0  0  0  0  0  # atno 8010 bound_to 7997
  139.5167  144.3064  152.0331 H   0  0  0  0  0  0  0  0  0  0  0  0  # atno 10167 bound_to 10162
  156.0206  130.5389  150.7012 H   0  0  0  0  0  0  0  0  0  0  0  0  # atno 10718 bound_to 10713
  153.0726  135.6594  154.0214 H   0  0  0  0  0  0  0  0  0  0  0  0  # atno 10763 bound_to 10752
  153.9855  135.2951  155.3418 H   0  0  0  0  0  0  0  0  0  0  0  0  # atno 10764 bound_to 10752
  154.7106  135.5207  153.8730 H   0  0  0  0  0  0  0  0  0  0  0  0  # atno 10765 bound_to 10752
  141.1072  133.8775  157.1687 H   0  0  0  0  0  0  0  0  0  0  0  0  # atno 11005 bound_to 11000
  144.8696  139.5057  143.6774 LP  0  0  0  0  0  0  0  0  0  0  0  0  # atno 17320 bound_to 7965
  146.2956  139.7268  142.9129 LP  0  0  0  0  0  0  0  0  0  0  0  0  # atno 17321 bound_to 7965
  140.2510  144.4169  150.6222 LP  0  0  0  0  0  0  0  0  0  0  0  0  # atno 17342 bound_to 10162
  140.6224  143.2177  151.6666 LP  0  0  0  0  0  0  0  0  0  0  0  0  # atno 17343 bound_to 10162
  157.4672  131.0889  151.0682 LP  0  0  0  0  0  0  0  0  0  0  0  0  # atno 17370 bound_to 10713
  157.1153  130.6039  149.5492 LP  0  0  0  0  0  0  0  0  0  0  0  0  # atno 17371 bound_to 10713
  139.9947  135.0051  157.0056 LP  0  0  0  0  0  0  0  0  0  0  0  0  # atno 17394 bound_to 11000
  140.4872  134.1230  155.7226 LP  0  0  0  0  0  0  0  0  0  0  0  0  # atno 17395 bound_to 11000

$$$$
