#       Name:                AV-unprocessed.smi:1554
#       Creating user name   scv26
#       Creation time:       Fri Mar 27 06:43:21 2020


#       File generated by GOLD software.
#

@<TRIPOS>MOLECULE
AV-unprocessed.smi:1554
    53    55     1
SMALL
NO_CHARGES


@<TRIPOS>ATOM
      1 ****        -2.2108   5.5581  -1.5501 C.3            1 S1                 0.0000
      2 ****        -2.1519   4.2150  -0.8440 C.ar           1 S1                 0.0000
      3 ****        -2.6883   4.0993   0.4583 C.ar           1 S1                 0.0000
      4 ****        -2.6496   2.8696   1.1511 C.ar           1 S1                 0.0000
      5 ****        -3.1055   2.5329   2.4142 N.2            1 S1                 0.0000
      6 ****        -2.7777   1.2461   2.4846 C.2            1 S1                 0.0000
      7 ****        -2.1566   0.7097   1.4162 N.pl3          1 S1                 0.0000
      8 ****        -1.6982  -0.6586   1.2593 C.3            1 S1                 0.0000
      9 ****        -0.1719  -0.7841   1.4250 C.3            1 S1                 0.0000
     10 ****         0.1862  -0.3945   2.7370 O.3            1 S1                 0.0000
     11 ****         0.3147  -2.2265   1.1826 C.3            1 S1                 0.0000
     12 ****         1.7973  -2.3470   1.2289 N.4            1 S1                 1.0000
     13 ****         2.2718  -3.7157   1.5479 C.3            1 S1                 0.0000
     14 ****         2.1869  -4.6342   0.3156 C.3            1 S1                 0.0000
     15 ****         2.9400  -4.0666  -0.7493 O.3            1 S1                 0.0000
     16 ****         2.4398  -2.7972  -1.1554 C.3            1 S1                 0.0000
     17 ****         3.2761  -2.3122  -2.3447 C.3            1 S1                 0.0000
     18 ****         2.5090  -1.8170   0.0365 C.3            1 S1                 0.0000
     19 ****        -2.0541   1.7502   0.4998 C.ar           1 S1                 0.0000
     20 ****        -1.5195   1.8515  -0.7968 C.ar           1 S1                 0.0000
     21 ****        -1.5669   3.0875  -1.4747 C.ar           1 S1                 0.0000
     22 ****        -0.9846   3.1877  -2.8736 C.3            1 S1                 0.0000
     23 ****        -2.6790   6.3176  -0.9234 H              1 S1                 0.0000
     24 ****        -2.7897   5.4812  -2.4707 H              1 S1                 0.0000
     25 ****        -1.2068   5.9023  -1.7990 H              1 S1                 0.0000
     26 ****        -3.1348   4.9578   0.9382 H              1 S1                 0.0000
     27 ****        -2.9962   0.6609   3.3661 H              1 S1                 0.0000
     28 ****        -2.2181  -1.2902   1.9814 H              1 S1                 0.0000
     29 ****        -1.9998  -1.0025   0.2690 H              1 S1                 0.0000
     30 ****         0.3072  -0.0998   0.7262 H              1 S1                 0.0000
     31 ****        -0.1034   0.4951   2.8758 H              1 S1                 0.0000
     32 ****        -0.1273  -2.8691   1.9459 H              1 S1                 0.0000
     33 ****        -0.0597  -2.5954   0.2279 H              1 S1                 0.0000
     34 ****         3.3098  -3.6511   1.8772 H              1 S1                 0.0000
     35 ****         1.7126  -4.1342   2.3855 H              1 S1                 0.0000
     36 ****         2.5977  -5.6160   0.5516 H              1 S1                 0.0000
     37 ****         1.1521  -4.7904   0.0071 H              1 S1                 0.0000
     38 ****         1.4087  -2.9113  -1.4921 H              1 S1                 0.0000
     39 ****         2.9204  -1.3472  -2.7064 H              1 S1                 0.0000
     40 ****         3.2211  -3.0176  -3.1742 H              1 S1                 0.0000
     41 ****         4.3260  -2.2009  -2.0722 H              1 S1                 0.0000
     42 ****         2.1275  -0.8383  -0.2506 H              1 S1                 0.0000
     43 ****         3.5523  -1.6617   0.3146 H              1 S1                 0.0000
     44 ****        -1.0759   0.9855  -1.2650 H              1 S1                 0.0000
     45 ****        -0.6335   2.2183  -3.2287 H              1 S1                 0.0000
     46 ****        -0.1393   3.8760  -2.8855 H              1 S1                 0.0000
     47 ****        -1.7350   3.5479  -3.5775 H              1 S1                 0.0000
     48 ****         2.0750  -1.7706   2.0110 H              1 S1                 0.0000
     49 ****        -3.5614   3.1065   3.0947 LP             1 S1                 0.0000
     50 ****         1.1790  -0.4467   2.8452 LP             1 S1                 0.0000
     51 ****        -0.2537  -0.9998   3.4004 LP             1 S1                 0.0000
     52 ****         2.9084  -4.6888  -1.5315 LP             1 S1                 0.0000
     53 ****         3.8875  -3.9567  -0.4489 LP             1 S1                 0.0000
@<TRIPOS>BOND
    1    1    2 1     
    2    1   23 1     
    3    1   24 1     
    4    1   25 1     
    5    2   21 ar    
    6    2    3 ar    
    7    3    4 ar    
    8    3   26 1     
    9    4   19 ar    
   10    4    5 1     
   11    5    6 2     
   12    6    7 1     
   13    6   27 1     
   14    7    8 1     
   15    7   19 1     
   16    8    9 1     
   17    8   28 1     
   18    8   29 1     
   19    9   10 1     
   20    9   11 1     
   21    9   30 1     
   22   10   31 1     
   23   11   12 1     
   24   11   32 1     
   25   11   33 1     
   26   12   18 1     
   27   12   13 1     
   28   12   48 1     
   29   13   14 1     
   30   13   34 1     
   31   13   35 1     
   32   14   15 1     
   33   14   36 1     
   34   14   37 1     
   35   15   16 1     
   36   16   17 1     
   37   16   18 1     
   38   16   38 1     
   39   17   39 1     
   40   17   40 1     
   41   17   41 1     
   42   18   42 1     
   43   18   43 1     
   44   19   20 ar    
   45   20   21 ar    
   46   20   44 1     
   47   21   22 1     
   48   22   45 1     
   49   22   46 1     
   50   22   47 1     
   51    5   49 1     
   52   10   50 1     
   53   10   51 1     
   54   15   52 1     
   55   15   53 1     
@<TRIPOS>SUBSTRUCTURE
      1 S1             1
@<TRIPOS>SET
LONE_PAIRS      STATIC     ATOMS    <user>   **** ""
5 49 50 51 52 53
DONOR_HYDROGENS      STATIC     ATOMS    <user>   **** ""
2 31 48
ATOM$BLUE        STATIC     ATOMS    COLORGROUP SYSTEM
5 49 50 51 52 53
ATOM$RED        STATIC     ATOMS    COLORGROUP SYSTEM
2 31 48
