AV-unprocessed.smi:2293|AV-procd|sdf|9214|dock6
  -GOLD-   2272012433D 1   1.00000     0.00000
 Structure written by MMmdl.
 34 35  0  0  0  0  0  0  0  0  1 V2000
  153.3340  135.4900  164.0816 C   0  0  0  0  0  0  0  0  0  0  0  0
  153.7139  136.7640  163.3474 C   0  0  0  0  0  0  0  0  0  0  0  0
  153.3415  136.8193  162.0012 N   0  0  0  0  0  0  0  0  0  0  0  0
  153.6206  137.8673  161.2971 C   0  0  0  0  0  0  0  0  0  0  0  0
  154.2983  138.9673  161.8482 N   0  0  0  0  0  0  0  0  0  0  0  0
  154.5455  140.1022  160.9429 C   0  0  0  0  0  0  0  0  0  0  0  0
  153.3191  140.4237  160.0598 C   0  0  2  0  0  0  0  0  0  0  0  0
  153.6260  140.0918  158.7200 O   0  0  0  0  0  0  0  0  0  0  0  0
  152.9206  141.8860  160.1905 C   0  0  0  0  0  0  0  0  0  0  0  0
  152.5520  142.4039  161.4507 C   0  0  0  0  0  0  0  0  0  0  0  0
  152.1868  143.7579  161.5832 C   0  0  0  0  0  0  0  0  0  0  0  0
  152.1914  144.6028  160.4568 C   0  0  0  0  0  0  0  0  0  0  0  0
  152.5637  144.0935  159.1977 C   0  0  0  0  0  0  0  0  0  0  0  0
  152.5716  144.9057  158.1143 F   0  0  0  0  0  0  0  0  0  0  0  0
  152.9290  142.7397  159.0649 C   0  0  0  0  0  0  0  0  0  0  0  0
  154.6954  138.9967  163.1534 C   0  0  0  0  0  0  0  0  0  0  0  0
  155.2818  139.9713  163.6290 O   0  0  0  0  0  0  0  0  0  0  0  0
  154.3706  137.7972  163.9422 C   0  0  0  0  0  0  0  0  0  0  0  0
  154.7993  137.7944  165.4043 C   0  0  0  0  0  0  0  0  0  0  0  0
  154.2224  134.9968  164.4768 H   0  0  0  0  0  0  0  0  0  0  0  0
  152.8280  134.7860  163.4197 H   0  0  0  0  0  0  0  0  0  0  0  0
  152.6606  135.7134  164.9095 H   0  0  0  0  0  0  0  0  0  0  0  0
  153.3464  137.9629  160.2450 H   0  0  0  0  0  0  0  0  0  0  0  0
  154.7835  140.9735  161.5565 H   0  0  0  0  0  0  0  0  0  0  0  0
  155.4352  139.9586  160.3260 H   0  0  0  0  0  0  0  0  0  0  0  0
  152.4671  139.8128  160.3611 H   0  0  0  0  0  0  0  0  0  0  0  0
  152.8596  139.7054  158.3243 H   0  0  0  0  0  0  0  0  0  0  0  0
  152.5492  141.7650  162.3218 H   0  0  0  0  0  0  0  0  0  0  0  0
  151.9044  144.1483  162.5498 H   0  0  0  0  0  0  0  0  0  0  0  0
  151.9117  145.6410  160.5589 H   0  0  0  0  0  0  0  0  0  0  0  0
  153.2176  142.3593  158.0959 H   0  0  0  0  0  0  0  0  0  0  0  0
  154.3423  138.6327  165.9313 H   0  0  0  0  0  0  0  0  0  0  0  0
  155.8825  137.8971  165.4787 H   0  0  0  0  0  0  0  0  0  0  0  0
  154.5192  136.8845  165.9325 H   0  0  0  0  0  0  0  0  0  0  0  0
  1  2  1  0  0  0  0
  1 20  1  0  0  0  0
  1 21  1  0  0  0  0
  1 22  1  0  0  0  0
  2 18  2  0  0  0  0
  2  3  1  0  0  0  0
  3  4  2  0  0  0  0
  4  5  1  0  0  0  0
  4 23  1  0  0  0  0
  5  6  1  0  0  0  0
  5 16  1  0  0  0  0
  6  7  1  0  0  0  0
  6 24  1  0  0  0  0
  6 25  1  0  0  0  0
  7  8  1  0  0  0  0
  7  9  1  0  0  0  0
  7 26  1  0  0  0  0
  8 27  1  0  0  0  0
  9 15  1  0  0  0  0
  9 10  2  0  0  0  0
 10 11  1  0  0  0  0
 10 28  1  0  0  0  0
 11 12  2  0  0  0  0
 11 29  1  0  0  0  0
 12 13  1  0  0  0  0
 12 30  1  0  0  0  0
 13 14  1  0  0  0  0
 13 15  2  0  0  0  0
 15 31  1  0  0  0  0
 16 17  2  0  0  0  0
 16 18  1  0  0  0  0
 18 19  1  0  0  0  0
 19 32  1  0  0  0  0
 19 33  1  0  0  0  0
 19 34  1  0  0  0  0
M  END
> <s_m_source_file>
AV-unprocessed.smi

> <i_m_source_file_index>
2293

> <i_lp_mmshare_version>
43012

> <i_f3d_flags>
0

> <s_epik_input>
W0NIM11jMW5bY0hdbihjKD1PKWMxW0NIM10pW0NIMl1bQ0BIXShbT0hdKWMyW2NIXVtjSF1bY0hdYyhGKVtjSF0y

> <s_epik_cmdline>
J2VwaWtfcHl0aG9uJywgJy1waCcsICc3LjAnLCAnLXRuJywgJzgnLCAnLW1hJywgJzIwMCcsICctbWV0YWxfYmluZGluZycsICctaW1hZScsICc8aW5maWxlLm1hZT4nLCAnLW9tYWUnLCAnPG91dGZpbGUubWFlPic=

> <r_lp_tautomer_probability>
1

> <r_epik_Ionization_Penalty>
5.08222e-05

> <r_epik_Ionization_Penalty_Charging>
7.56727e-08

> <r_epik_Ionization_Penalty_Neutral>
5.07465e-05

> <r_epik_State_Penalty>
-0

> <r_epik_Charging_Adjusted_Penalty>
7.56727e-08

> <i_epik_Tot_Q>
0

> <i_epik_Tot_abs_Q>
0

> <r_epik_Metal_State_Penalty>
-0

> <b_epik_Metal_Only>
0

> <s_lp_Force_Field>
OPLS_2005

> <r_lp_Energy>
18.7837

> <b_lp_Chiralities_Consistent>
1

> <s_lp_Variant>
AV-unprocessed.smi:2293-1

> <Gold.Version>
5.8.1

> <Gold.Id.Protein>
6NUR|6NUR_protein|mol2

> <Gold.PLP.Fitness>
52.6670

> <Gold.PLP.PLP>
-51.5674

> <Gold.PLP.part.hbond>
-1.6667

> <Gold.PLP.part.metal>
0.0000

> <Gold.PLP.part.buried>
-5.0108

> <Gold.PLP.part.nonpolar>
-44.2274

> <Gold.PLP.part.repulsive>
0.0000

> <Gold.PLP.ligand.clash>
0.0000

> <Gold.PLP.ligand.torsion>
0.9533

> <Gold.PLP.Chemscore.Hbond>
1.0000

> <Gold.PLP.Chemscore.CHOScore>
0.0000

> <Gold.PLP.Chemscore.Metal>
0.0000

> <Gold.Chemscore.Hbonds>
donor molecule, donor type, donor heavy atom, donor atom, acceptor molecule, acceptor atom, score
      P1  H  7997  8008       L1     8  0.94

> <Gold.PLP.Chemscore.Internal.Correction>
0.0062

> <Gold.Rescore>
     Score         DG    S(hbond)    S(metal)    S(lipo)     H(rot)  DE(clash)    DE(int)     intcor
     16.26     -17.08       0.94        0.00     116.41       2.02       0.06       0.76       ----

> <Gold.Chemscore.Fitness>
16.2565

> <Gold.Chemscore.DG>
-17.0759

> <Gold.Chemscore.ZeroCoef>
-5.4800

> <Gold.Chemscore.Hbond>
0.9408

> <Gold.Chemscore.Metal>
0.0000

> <Gold.Chemscore.Lipo>
116.4089

> <Gold.Chemscore.Internal_Hbond>
0.0000

> <Gold.Chemscore.DEClash>
0.0616

> <Gold.Chemscore.DEInternal>
0.7578

> <Gold.Chemscore.Rot>
2.0181

> <Gold.Chemscore.Internal.Correction>
   9.000000E+99

> <Gold.Chemscore.Hbonds>
donor molecule, donor type, donor heavy atom, donor atom, acceptor molecule, acceptor atom, score
      P1  H  7997  8008       L1     8  0.20

> <Gold.Chemscore.Hbond.Weighted>
-3.1424

> <Gold.Chemscore.Metal.Weighted>
-0.0000

> <Gold.Chemscore.Lipo.Weighted>
-13.6198

> <Gold.Chemscore.Internal_Hbond.Weighted>
0.0000

> <Gold.Chemscore.DEClash.Weighted>
0.0616

> <Gold.Chemscore.DEInternal.Weighted>
0.7578

> <Gold.Chemscore.Rot.Weighted>
5.1663

> <Gold.Chemscore.Internal.Correction.Weighted>
   9.000000E+99

> <Gold.Protein.RotatedTorsions>
[ 6907 6896 6895 6894 ] final -123.49 input  -60.11 | X-H torsion
[ 7974 7965 7964 7962 ] final   69.03 input  175.53 | X-H torsion
[ 8008 7997 7996 7995 ] final -100.83 input   59.86 | X-H torsion
[ 10167 10162 10161 10158 ] final   51.36 input  -65.29 | X-H torsion
[ 10718 10713 10712 10709 ] final -157.38 input   66.30 | X-H torsion
[ 10763 10752 10751 10750 ] final  152.06 input  -60.55 | X-H torsion
[ 11005 11000 10999 10996 ] final -140.19 input  -57.11 | X-H torsion

> <Gold.Protein.ActiveResidues>
 VAL166  LYS551  ARG553  GLY616  TRP617  ASP618  TYR619  PRO620  LYS621  CYS622 
 ASP623  PHE694  ASN695  SER759  ASP760  ASP761  ALA762  ILE779  LEU786  VAL792 
 PHE793  MET794  SER795  GLU796  ALA797  LYS798  CYS799  TRP800  GLU811  SER814 

> <Gold.Protein.RotatedAtoms>
  150.8676  133.7552  159.2971 H   0  0  0  0  0  0  0  0  0  0  0  0  # atno 6907 bound_to 6896
  151.5175  135.1065  159.9879 H   0  0  0  0  0  0  0  0  0  0  0  0  # atno 6908 bound_to 6896
  152.4672  133.7904  159.6955 H   0  0  0  0  0  0  0  0  0  0  0  0  # atno 6909 bound_to 6896
  145.7953  139.2954  143.1186 H   0  0  0  0  0  0  0  0  0  0  0  0  # atno 7974 bound_to 7965
  154.8341  140.0438  157.1497 H   0  0  0  0  0  0  0  0  0  0  0  0  # atno 8008 bound_to 7997
  154.9119  140.3015  155.5241 H   0  0  0  0  0  0  0  0  0  0  0  0  # atno 8009 bound_to 7997
  156.2989  140.2356  156.4159 H   0  0  0  0  0  0  0  0  0  0  0  0  # atno 8010 bound_to 7997
  140.2628  144.3354  150.6313 H   0  0  0  0  0  0  0  0  0  0  0  0  # atno 10167 bound_to 10162
  156.5395  130.8557  151.2744 H   0  0  0  0  0  0  0  0  0  0  0  0  # atno 10718 bound_to 10713
  154.1139  135.2837  155.3224 H   0  0  0  0  0  0  0  0  0  0  0  0  # atno 10763 bound_to 10752
  154.6471  135.5382  153.7860 H   0  0  0  0  0  0  0  0  0  0  0  0  # atno 10764 bound_to 10752
  153.0336  135.6500  154.1296 H   0  0  0  0  0  0  0  0  0  0  0  0  # atno 10765 bound_to 10752
  140.8447  134.2359  157.4792 H   0  0  0  0  0  0  0  0  0  0  0  0  # atno 11005 bound_to 11000
  145.9934  140.8583  143.0055 LP  0  0  0  0  0  0  0  0  0  0  0  0  # atno 17320 bound_to 7965
  144.6776  140.2248  143.7362 LP  0  0  0  0  0  0  0  0  0  0  0  0  # atno 17321 bound_to 7965
  140.5952  143.2167  151.7177 LP  0  0  0  0  0  0  0  0  0  0  0  0  # atno 17342 bound_to 10162
  139.5012  144.3878  152.0311 LP  0  0  0  0  0  0  0  0  0  0  0  0  # atno 17343 bound_to 10162
  157.7408  130.9857  150.2400 LP  0  0  0  0  0  0  0  0  0  0  0  0  # atno 17370 bound_to 10713
  156.2985  130.3755  149.7773 LP  0  0  0  0  0  0  0  0  0  0  0  0  # atno 17371 bound_to 10713
  139.8703  134.9653  156.4524 LP  0  0  0  0  0  0  0  0  0  0  0  0  # atno 17394 bound_to 11000
  140.8857  133.7885  155.9515 LP  0  0  0  0  0  0  0  0  0  0  0  0  # atno 17395 bound_to 11000

$$$$
