#       Name:                AV-unprocessed.smi:1643
#       Creating user name   scv26
#       Creation time:       Fri Mar 27 07:26:33 2020


#       File generated by GOLD software.
#

@<TRIPOS>MOLECULE
AV-unprocessed.smi:1643
    59    61     1
SMALL
NO_CHARGES


@<TRIPOS>ATOM
      1 ****        -2.0697  -3.9351   1.6333 C.3            1 S1                 0.0000
      2 ****        -2.5567  -2.9845   0.5370 C.2            1 S1                 0.0000
      3 ****        -2.2849  -3.2562  -0.6328 O.2            1 S1                 0.0000
      4 ****        -3.2594  -1.8803   0.8867 N.am           1 S1                 0.0000
      5 ****        -3.6955  -0.8874  -0.1012 C.3            1 S1                 0.0000
      6 ****        -2.6205   0.1970  -0.2765 C.3            1 S1                 0.0000
      7 ****        -2.2093   0.9108   1.0286 C.3            1 S1                 0.0000
      8 ****        -1.4902   0.0501   1.9790 N.3            1 S1                 0.0000
      9 ****        -0.4812   0.7853   2.7451 C.3            1 S1                 0.0000
     10 ****         0.7764   1.1742   1.9424 C.3            1 S1                 0.0000
     11 ****         1.5871   1.9963   2.7572 O.3            1 S1                 0.0000
     12 ****         1.5924  -0.0574   1.5020 C.3            1 S1                 0.0000
     13 ****         2.6852   0.2991   0.6175 N.pl3          1 S1                 0.0000
     14 ****         3.9914   0.4087   0.9267 C.2            1 S1                 0.0000
     15 ****         4.8211   0.7531  -0.0547 N.2            1 S1                 0.0000
     16 ****         3.9517   0.8764  -1.1257 C.ar           1 S1                 0.0000
     17 ****         4.1956   1.2218  -2.4731 C.ar           1 S1                 0.0000
     18 ****         3.1372   1.2868  -3.4078 C.ar           1 S1                 0.0000
     19 ****         3.4445   1.6620  -4.8468 C.3            1 S1                 0.0000
     20 ****         1.8087   1.0046  -2.9986 C.ar           1 S1                 0.0000
     21 ****         0.6543   1.0682  -3.9831 C.3            1 S1                 0.0000
     22 ****         1.5480   0.6589  -1.6567 C.ar           1 S1                 0.0000
     23 ****         2.6094   0.5973  -0.7373 C.ar           1 S1                 0.0000
     24 ****        -2.4018  -0.6480   2.8974 C.3            1 S1                 0.0000
     25 ****        -3.5429  -1.4811   2.2702 C.3            1 S1                 0.0000
     26 ****        -1.4446  -3.4104   2.3559 H              1 S1                 0.0000
     27 ****        -1.4732  -4.7405   1.2032 H              1 S1                 0.0000
     28 ****        -2.9124  -4.3882   2.1559 H              1 S1                 0.0000
     29 ****        -3.9079  -1.3567  -1.0631 H              1 S1                 0.0000
     30 ****        -4.6376  -0.4271   0.1988 H              1 S1                 0.0000
     31 ****        -1.7349  -0.2392  -0.7405 H              1 S1                 0.0000
     32 ****        -2.9898   0.9400  -0.9837 H              1 S1                 0.0000
     33 ****        -1.5848   1.7525   0.7348 H              1 S1                 0.0000
     34 ****        -3.0789   1.3616   1.5089 H              1 S1                 0.0000
     35 ****        -0.9374   1.6779   3.1765 H              1 S1                 0.0000
     36 ****        -0.1538   0.1807   3.5922 H              1 S1                 0.0000
     37 ****         0.5063   1.7647   1.0678 H              1 S1                 0.0000
     38 ****         2.3362   2.2723   2.2513 H              1 S1                 0.0000
     39 ****         1.9914  -0.5892   2.3672 H              1 S1                 0.0000
     40 ****         0.9551  -0.7648   0.9700 H              1 S1                 0.0000
     41 ****         4.3528   0.2289   1.9288 H              1 S1                 0.0000
     42 ****         5.2072   1.4374  -2.7843 H              1 S1                 0.0000
     43 ****         3.1156   0.8756  -5.5264 H              1 S1                 0.0000
     44 ****         4.5140   1.8097  -5.0000 H              1 S1                 0.0000
     45 ****         2.9362   2.5883  -5.1155 H              1 S1                 0.0000
     46 ****        -0.2940   0.8312  -3.4993 H              1 S1                 0.0000
     47 ****         0.8032   0.3544  -4.7935 H              1 S1                 0.0000
     48 ****         0.5713   2.0675  -4.4108 H              1 S1                 0.0000
     49 ****         0.5421   0.4414  -1.3296 H              1 S1                 0.0000
     50 ****        -1.8077  -1.3245   3.5128 H              1 S1                 0.0000
     51 ****        -2.8393   0.0669   3.5958 H              1 S1                 0.0000
     52 ****        -4.4573  -0.8878   2.3008 H              1 S1                 0.0000
     53 ****        -3.7690  -2.3423   2.8989 H              1 S1                 0.0000
     54 ****        -1.7591  -4.0797  -0.8457 LP             1 S1                 0.0000
     55 ****        -2.5900  -2.6534  -1.3700 LP             1 S1                 0.0000
     56 ****        -1.0212  -0.6335   1.4197 LP             1 S1                 0.0000
     57 ****         1.8919   1.4818   3.5586 LP             1 S1                 0.0000
     58 ****         1.0662   2.7968   3.0534 LP             1 S1                 0.0000
     59 ****         5.8116   0.8875  -0.0265 LP             1 S1                 0.0000
@<TRIPOS>BOND
    1    1    2 1     
    2    1   26 1     
    3    1   27 1     
    4    1   28 1     
    5    2    3 2     
    6    2    4 am    
    7    4   25 1     
    8    4    5 1     
    9    5    6 1     
   10    5   29 1     
   11    5   30 1     
   12    6    7 1     
   13    6   31 1     
   14    6   32 1     
   15    7    8 1     
   16    7   33 1     
   17    7   34 1     
   18    8    9 1     
   19    8   24 1     
   20    9   10 1     
   21    9   35 1     
   22    9   36 1     
   23   10   11 1     
   24   10   12 1     
   25   10   37 1     
   26   11   38 1     
   27   12   13 1     
   28   12   39 1     
   29   12   40 1     
   30   13   23 1     
   31   13   14 1     
   32   14   15 2     
   33   14   41 1     
   34   15   16 1     
   35   16   23 ar    
   36   16   17 ar    
   37   17   18 ar    
   38   17   42 1     
   39   18   19 1     
   40   18   20 ar    
   41   19   43 1     
   42   19   44 1     
   43   19   45 1     
   44   20   21 1     
   45   20   22 ar    
   46   21   46 1     
   47   21   47 1     
   48   21   48 1     
   49   22   23 ar    
   50   22   49 1     
   51   24   25 1     
   52   24   50 1     
   53   24   51 1     
   54   25   52 1     
   55   25   53 1     
   56    3   54 1     
   57    3   55 1     
   58    8   56 1     
   59   11   57 1     
   60   11   58 1     
   61   15   59 1     
@<TRIPOS>SUBSTRUCTURE
      1 S1             1
@<TRIPOS>SET
LONE_PAIRS      STATIC     ATOMS    <user>   **** ""
6 54 55 56 57 58 59
DONOR_HYDROGENS      STATIC     ATOMS    <user>   **** ""
1 38
ATOM$BLUE        STATIC     ATOMS    COLORGROUP SYSTEM
6 54 55 56 57 58 59
ATOM$RED        STATIC     ATOMS    COLORGROUP SYSTEM
1 38
