AV-unprocessed.smi:15|AV-procd|sdf|80|dock7
  -GOLD-   2262015213D 1   1.00000     0.00000
 Structure written by MMmdl.
 53 56  0  0  0  0  0  0  0  0  1 V2000
  152.9320  138.3622  155.8490 C   0  0  0  0  0  0  0  0  0  0  0  0
  152.3370  139.6847  155.3486 C   0  0  0  0  0  0  0  0  0  0  0  0
  151.4759  140.3300  156.3397 N   0  0  0  0  0  0  0  0  0  0  0  0
  151.6186  140.0052  157.7604 C   0  0  0  0  0  0  0  0  0  0  0  0
  152.4919  141.0157  158.5281 C   0  0  1  0  0  0  0  0  0  0  0  0
  151.8651  142.4034  158.6401 C   0  0  0  0  0  0  0  0  0  0  0  0
  152.5154  142.9894  159.8844 C   0  0  0  0  0  0  0  0  0  0  0  0
  153.1272  141.7767  160.5918 C   0  0  0  0  0  0  0  0  0  0  0  0
  152.6197  140.6497  159.8936 O   0  0  0  0  0  0  0  0  0  0  0  0
  150.2078  140.6235  155.9614 C   0  0  0  0  0  0  0  0  0  0  0  0
  149.9301  140.5985  154.6327 N   0  0  0  0  0  0  0  0  0  0  0  0
  148.7052  140.9033  154.1950 C   0  0  0  0  0  0  0  0  0  0  0  0
  147.6326  141.2641  154.9014 N   0  0  0  0  0  0  0  0  0  0  0  0
  147.9090  141.3030  156.2363 C   0  0  0  0  0  0  0  0  0  0  0  0
  149.1567  140.9963  156.8496 C   0  0  0  0  0  0  0  0  0  0  0  0
  149.0558  141.1639  158.2266 N   0  0  0  0  0  0  0  0  0  0  0  0
  147.8203  141.5378  158.4157 C   0  0  0  0  0  0  0  0  0  0  0  0
  147.0639  141.6588  157.2725 N   0  0  0  0  0  0  0  0  0  0  0  0
  145.6700  142.0643  157.1877 C   0  0  0  0  0  0  0  0  0  0  0  0
  144.7280  140.9650  156.6253 C   0  0  1  0  0  0  0  0  0  0  0  0
  145.1347  140.6206  155.3140 O   0  0  0  0  0  0  0  0  0  0  0  0
  144.6747  139.6996  157.4733 C   0  0  0  0  0  0  0  0  0  0  0  0
  143.6593  140.0667  158.5511 C   0  0  0  0  0  0  0  0  0  0  0  0
  142.7600  140.9846  157.9354 O   0  0  0  0  0  0  0  0  0  0  0  0
  143.2357  141.3492  156.6417 C   0  0  1  0  0  0  0  0  0  0  0  0
  142.8958  142.8144  156.3309 C   0  0  0  0  0  0  0  0  0  0  0  0
  153.6249  137.9524  155.1141 H   0  0  0  0  0  0  0  0  0  0  0  0
  152.1622  137.6106  156.0217 H   0  0  0  0  0  0  0  0  0  0  0  0
  153.4823  138.5049  156.7794 H   0  0  0  0  0  0  0  0  0  0  0  0
  153.1607  140.3534  155.0945 H   0  0  0  0  0  0  0  0  0  0  0  0
  151.7787  139.5129  154.4286 H   0  0  0  0  0  0  0  0  0  0  0  0
  150.6261  139.9778  158.2086 H   0  0  0  0  0  0  0  0  0  0  0  0
  152.0189  138.9980  157.8827 H   0  0  0  0  0  0  0  0  0  0  0  0
  153.4833  141.1012  158.0803 H   0  0  0  0  0  0  0  0  0  0  0  0
  152.0278  143.0107  157.7493 H   0  0  0  0  0  0  0  0  0  0  0  0
  150.7889  142.3185  158.7974 H   0  0  0  0  0  0  0  0  0  0  0  0
  153.2891  143.7133  159.6266 H   0  0  0  0  0  0  0  0  0  0  0  0
  151.7775  143.4936  160.5095 H   0  0  0  0  0  0  0  0  0  0  0  0
  154.2149  141.7899  160.5069 H   0  0  0  0  0  0  0  0  0  0  0  0
  152.8681  141.7311  161.6498 H   0  0  0  0  0  0  0  0  0  0  0  0
  148.5660  140.8552  153.1250 H   0  0  0  0  0  0  0  0  0  0  0  0
  147.4264  141.7445  159.4002 H   0  0  0  0  0  0  0  0  0  0  0  0
  145.3450  142.3696  158.1829 H   0  0  0  0  0  0  0  0  0  0  0  0
  145.6221  142.9596  156.5666 H   0  0  0  0  0  0  0  0  0  0  0  0
  144.4320  140.8317  154.7185 H   0  0  0  0  0  0  0  0  0  0  0  0
  144.2775  138.8692  156.8867 H   0  0  0  0  0  0  0  0  0  0  0  0
  145.6334  139.3765  157.8776 H   0  0  0  0  0  0  0  0  0  0  0  0
  143.1340  139.1941  158.9397 H   0  0  0  0  0  0  0  0  0  0  0  0
  144.1498  140.5655  159.3876 H   0  0  0  0  0  0  0  0  0  0  0  0
  142.7014  140.7127  155.9335 H   0  0  0  0  0  0  0  0  0  0  0  0
  143.2844  143.1077  155.3556 H   0  0  0  0  0  0  0  0  0  0  0  0
  143.3072  143.4929  157.0781 H   0  0  0  0  0  0  0  0  0  0  0  0
  141.8161  142.9641  156.3155 H   0  0  0  0  0  0  0  0  0  0  0  0
  1  2  1  0  0  0  0
  1 27  1  0  0  0  0
  1 28  1  0  0  0  0
  1 29  1  0  0  0  0
  2  3  1  0  0  0  0
  2 30  1  0  0  0  0
  2 31  1  0  0  0  0
  3  4  1  0  0  0  0
  3 10  1  0  0  0  0
  4  5  1  0  0  0  0
  4 32  1  0  0  0  0
  4 33  1  0  0  0  0
  5  9  1  0  0  0  0
  5  6  1  0  0  0  0
  5 34  1  0  0  0  0
  6  7  1  0  0  0  0
  6 35  1  0  0  0  0
  6 36  1  0  0  0  0
  7  8  1  0  0  0  0
  7 37  1  0  0  0  0
  7 38  1  0  0  0  0
  8  9  1  0  0  0  0
  8 39  1  0  0  0  0
  8 40  1  0  0  0  0
 10 15  1  0  0  0  0
 10 11  2  0  0  0  0
 11 12  1  0  0  0  0
 12 13  2  0  0  0  0
 12 41  1  0  0  0  0
 13 14  1  0  0  0  0
 14 18  1  0  0  0  0
 14 15  2  0  0  0  0
 15 16  1  0  0  0  0
 16 17  2  0  0  0  0
 17 18  1  0  0  0  0
 17 42  1  0  0  0  0
 18 19  1  0  0  0  0
 19 20  1  0  0  0  0
 19 43  1  0  0  0  0
 19 44  1  0  0  0  0
 20 25  1  0  0  0  0
 20 21  1  0  0  0  0
 20 22  1  0  0  0  0
 21 45  1  0  0  0  0
 22 23  1  0  0  0  0
 22 46  1  0  0  0  0
 22 47  1  0  0  0  0
 23 24  1  0  0  0  0
 23 48  1  0  0  0  0
 23 49  1  0  0  0  0
 24 25  1  0  0  0  0
 25 26  1  0  0  0  0
 25 50  1  0  0  0  0
 26 51  1  0  0  0  0
 26 52  1  0  0  0  0
 26 53  1  0  0  0  0
M  END
> <s_m_source_file>
AV-unprocessed.smi

> <i_m_source_file_index>
15

> <i_lp_mmshare_version>
43012

> <i_f3d_flags>
0

> <s_epik_input>
TzFbQ0gyXVtDSDJdW0NIMl1bQ0BIXTFbQ0gyXU4oW0NIMl1bQ0gzXSljKG5bY0hdbjIpYyhjMjMpbltjSF1uM1tDSDJdW0NAQF00KFtPSF0pW0NIMl1bQ0gyXU9bQ0BIXTRbQ0gzXQ==

> <s_epik_cmdline>
J2VwaWtfcHl0aG9uJywgJy1waCcsICc3LjAnLCAnLXRuJywgJzgnLCAnLW1hJywgJzIwMCcsICctbWV0YWxfYmluZGluZycsICctaW1hZScsICc8aW5maWxlLm1hZT4nLCAnLW9tYWUnLCAnPG91dGZpbGUubWFlPic=

> <r_lp_tautomer_probability>
1

> <r_epik_Ionization_Penalty>
0.00360814

> <r_epik_Ionization_Penalty_Charging>
0

> <r_epik_Ionization_Penalty_Neutral>
0.00360814

> <r_epik_State_Penalty>
0.00237482

> <r_epik_Charging_Adjusted_Penalty>
0.00237482

> <i_epik_Tot_Q>
0

> <i_epik_Tot_abs_Q>
0

> <r_epik_Metal_State_Penalty>
-0

> <b_epik_Metal_Only>
0

> <s_lp_Force_Field>
OPLS_2005

> <r_lp_Energy>
45.9982

> <b_lp_Chiralities_Consistent>
1

> <s_lp_Variant>
AV-unprocessed.smi:15-2

> <Gold.Version>
5.8.1

> <Gold.Id.Protein>
6NUR|6NUR_protein|mol2

> <Gold.PLP.Fitness>
43.7688

> <Gold.PLP.PLP>
-35.3957

> <Gold.PLP.part.hbond>
-2.0000

> <Gold.PLP.part.metal>
0.0000

> <Gold.PLP.part.buried>
-3.9787

> <Gold.PLP.part.nonpolar>
-30.3523

> <Gold.PLP.part.repulsive>
0.3318

> <Gold.PLP.ligand.clash>
0.0000

> <Gold.PLP.ligand.torsion>
0.4800

> <Gold.PLP.Chemscore.Hbond>
1.8080

> <Gold.PLP.Chemscore.CHOScore>
1.0000

> <Gold.PLP.Chemscore.Metal>
0.0000

> <Gold.Chemscore.Hbonds>
donor molecule, donor type, donor heavy atom, donor atom, acceptor molecule, acceptor atom, score
      L1  H    21    45       P1 10175  0.14
      P1  H  7989  7998       L1    11  0.78
      L1  C    12    41       P1  7957  1.00

> <Gold.PLP.Chemscore.Internal.Correction>
0.9092

> <Gold.Rescore>
     Score         DG    S(hbond)    S(metal)    S(lipo)     H(rot)  DE(clash)    DE(int)     intcor
     10.03     -12.65       1.45        0.00      73.24       2.44       0.36       2.26       ----

> <Gold.Chemscore.Fitness>
10.0332

> <Gold.Chemscore.DG>
-12.6468

> <Gold.Chemscore.ZeroCoef>
-5.4800

> <Gold.Chemscore.Hbond>
1.4528

> <Gold.Chemscore.Metal>
0.0000

> <Gold.Chemscore.Lipo>
73.2381

> <Gold.Chemscore.Internal_Hbond>
0.0000

> <Gold.Chemscore.DEClash>
0.3566

> <Gold.Chemscore.DEInternal>
2.2570

> <Gold.Chemscore.Rot>
2.4431

> <Gold.Chemscore.Internal.Correction>
   9.000000E+99

> <Gold.Chemscore.Hbonds>
donor molecule, donor type, donor heavy atom, donor atom, acceptor molecule, acceptor atom, score
      L1  H    21    45       P1 10175  0.15
      P1  H  7989  7998       L1    11  0.59

> <Gold.Chemscore.Hbond.Weighted>
-4.8524

> <Gold.Chemscore.Metal.Weighted>
-0.0000

> <Gold.Chemscore.Lipo.Weighted>
-8.5689

> <Gold.Chemscore.Internal_Hbond.Weighted>
0.0000

> <Gold.Chemscore.DEClash.Weighted>
0.3566

> <Gold.Chemscore.DEInternal.Weighted>
2.2570

> <Gold.Chemscore.Rot.Weighted>
6.2544

> <Gold.Chemscore.Internal.Correction.Weighted>
   9.000000E+99

> <Gold.Protein.RotatedTorsions>
[ 6907 6896 6895 6894 ] final  -94.60 input  -60.11 | X-H torsion
[ 7974 7965 7964 7962 ] final   58.88 input  175.53 | X-H torsion
[ 8008 7997 7996 7995 ] final   29.47 input   59.86 | X-H torsion
[ 10167 10162 10161 10158 ] final -129.37 input  -65.29 | X-H torsion
[ 10718 10713 10712 10709 ] final  143.35 input   66.30 | X-H torsion
[ 10763 10752 10751 10750 ] final  -58.24 input  -60.55 | X-H torsion
[ 11005 11000 10999 10996 ] final  -83.07 input  -57.11 | X-H torsion

> <Gold.Protein.ActiveResidues>
 VAL166  LYS551  ARG553  GLY616  TRP617  ASP618  TYR619  PRO620  LYS621  CYS622 
 ASP623  PHE694  ASN695  SER759  ASP760  ASP761  ALA762  ILE779  LEU786  VAL792 
 PHE793  MET794  SER795  GLU796  ALA797  LYS798  CYS799  TRP800  GLU811  SER814 

> <Gold.Protein.RotatedAtoms>
  150.6945  134.1787  159.4239 H   0  0  0  0  0  0  0  0  0  0  0  0  # atno 6907 bound_to 6896
  151.9762  135.0049  160.0564 H   0  0  0  0  0  0  0  0  0  0  0  0  # atno 6908 bound_to 6896
  152.1797  133.4664  159.4988 H   0  0  0  0  0  0  0  0  0  0  0  0  # atno 6909 bound_to 6896
  145.9133  139.3671  143.0522 H   0  0  0  0  0  0  0  0  0  0  0  0  # atno 7974 bound_to 7965
  155.0750  140.3204  155.4619 H   0  0  0  0  0  0  0  0  0  0  0  0  # atno 8008 bound_to 7997
  156.2781  140.2105  156.5823 H   0  0  0  0  0  0  0  0  0  0  0  0  # atno 8009 bound_to 7997
  154.7024  140.0506  157.0459 H   0  0  0  0  0  0  0  0  0  0  0  0  # atno 8010 bound_to 7997
  139.9405  143.6168  152.2505 H   0  0  0  0  0  0  0  0  0  0  0  0  # atno 10167 bound_to 10162
  157.3699  131.0977  151.0838 H   0  0  0  0  0  0  0  0  0  0  0  0  # atno 10718 bound_to 10713
  154.2351  135.6353  153.5188 H   0  0  0  0  0  0  0  0  0  0  0  0  # atno 10763 bound_to 10752
  152.9941  135.5528  154.5971 H   0  0  0  0  0  0  0  0  0  0  0  0  # atno 10764 bound_to 10752
  154.5463  135.2898  155.1024 H   0  0  0  0  0  0  0  0  0  0  0  0  # atno 10765 bound_to 10752
  141.1660  133.7276  156.8666 H   0  0  0  0  0  0  0  0  0  0  0  0  # atno 11005 bound_to 11000
  145.8644  140.9456  143.0683 LP  0  0  0  0  0  0  0  0  0  0  0  0  # atno 17320 bound_to 7965
  144.6745  140.0572  143.7477 LP  0  0  0  0  0  0  0  0  0  0  0  0  # atno 17321 bound_to 7965
  139.6708  144.7661  151.1786 LP  0  0  0  0  0  0  0  0  0  0  0  0  # atno 17342 bound_to 10162
  140.7612  143.5868  150.8838 LP  0  0  0  0  0  0  0  0  0  0  0  0  # atno 17343 bound_to 10162
  157.1946  130.6367  149.5716 LP  0  0  0  0  0  0  0  0  0  0  0  0  # atno 17370 bound_to 10713
  155.9753  130.4711  150.6453 LP  0  0  0  0  0  0  0  0  0  0  0  0  # atno 17371 bound_to 10713
  140.1811  134.9033  157.2949 LP  0  0  0  0  0  0  0  0  0  0  0  0  # atno 17394 bound_to 11000
  140.2394  134.3813  155.7487 LP  0  0  0  0  0  0  0  0  0  0  0  0  # atno 17395 bound_to 11000

$$$$
