AV-unprocessed.smi:1349|AV-procd|sdf|5519|dock9
  -GOLD-   22720 5103D 1   1.00000     0.00000
 Structure written by MMmdl.
 43 45  0  0  0  0  0  0  0  0  2 V2000
  148.3595  141.1492  152.8354 O   0  0  0  0  0  0  0  0  0  0  0  0
  147.7765  140.7589  154.0607 C   0  0  0  0  0  0  0  0  0  0  0  0
  148.4993  141.4307  155.2370 C   0  0  0  0  0  0  0  0  0  0  0  0
  149.9648  140.9892  155.3789 C   0  0  0  0  0  0  0  0  0  0  0  0
  150.6307  141.6650  156.5332 C   0  0  0  0  0  0  0  0  0  0  0  0
  150.7904  143.0098  156.6860 N   0  3  0  0  0  0  0  0  0  0  0  0
  151.4496  143.2742  157.8872 C   0  0  0  0  0  0  0  0  0  0  0  0
  151.8366  144.4772  158.4695 C   0  0  0  0  0  0  0  0  0  0  0  0
  152.4994  144.3947  159.7119 C   0  0  0  0  0  0  0  0  0  0  0  0
  152.7545  143.1515  160.3269 C   0  0  0  0  0  0  0  0  0  0  0  0
  152.3568  141.9383  159.7271 C   0  0  0  0  0  0  0  0  0  0  0  0
  151.7006  142.0295  158.4999 C   0  0  0  0  0  0  0  0  0  0  0  0
  151.1732  141.0667  157.6331 N   0  0  0  0  0  0  0  0  0  0  0  0
  151.2810  139.6445  157.9903 C   0  0  0  0  0  0  0  0  0  0  0  0
  152.4026  138.9364  157.2174 C   0  0  0  0  0  0  0  0  0  0  0  0
  153.6398  139.1752  157.8756 O   0  0  0  0  0  0  0  0  0  0  0  0
  153.8462  138.6041  159.1121 C   0  0  0  0  0  0  0  0  0  0  0  0
  155.0846  138.8625  159.7353 C   0  0  0  0  0  0  0  0  0  0  0  0
  155.3805  138.3229  161.0019 C   0  0  0  0  0  0  0  0  0  0  0  0
  154.4355  137.5141  161.6598 C   0  0  0  0  0  0  0  0  0  0  0  0
  153.1967  137.2459  161.0482 C   0  0  0  0  0  0  0  0  0  0  0  0
  152.9009  137.7860  159.7811 C   0  0  0  0  0  0  0  0  0  0  0  0
  148.6267  140.3727  152.3674 H   0  0  0  0  0  0  0  0  0  0  0  0
  146.7159  141.0121  154.0586 H   0  0  0  0  0  0  0  0  0  0  0  0
  147.8497  139.6744  154.1469 H   0  0  0  0  0  0  0  0  0  0  0  0
  148.4679  142.5117  155.0957 H   0  0  0  0  0  0  0  0  0  0  0  0
  147.9557  141.2294  156.1612 H   0  0  0  0  0  0  0  0  0  0  0  0
  150.0282  139.9094  155.5146 H   0  0  0  0  0  0  0  0  0  0  0  0
  150.5169  141.2194  154.4670 H   0  0  0  0  0  0  0  0  0  0  0  0
  151.6435  145.4302  157.9990 H   0  0  0  0  0  0  0  0  0  0  0  0
  152.8191  145.3027  160.2021 H   0  0  0  0  0  0  0  0  0  0  0  0
  153.2661  143.1272  161.2783 H   0  0  0  0  0  0  0  0  0  0  0  0
  152.5584  140.9910  160.2049 H   0  0  0  0  0  0  0  0  0  0  0  0
  151.4298  139.5589  159.0670 H   0  0  0  0  0  0  0  0  0  0  0  0
  150.3230  139.1717  157.7730 H   0  0  0  0  0  0  0  0  0  0  0  0
  152.1989  137.8653  157.1741 H   0  0  0  0  0  0  0  0  0  0  0  0
  152.4376  139.3150  156.1948 H   0  0  0  0  0  0  0  0  0  0  0  0
  155.8158  139.4820  159.2367 H   0  0  0  0  0  0  0  0  0  0  0  0
  156.3328  138.5295  161.4679 H   0  0  0  0  0  0  0  0  0  0  0  0
  154.6606  137.0998  162.6315 H   0  0  0  0  0  0  0  0  0  0  0  0
  152.4710  136.6243  161.5517 H   0  0  0  0  0  0  0  0  0  0  0  0
  151.9413  137.5568  159.3433 H   0  0  0  0  0  0  0  0  0  0  0  0
  150.4738  143.6953  156.0124 H   0  0  0  0  0  0  0  0  0  0  0  0
  1  2  1  0  0  0  0
  1 23  1  0  0  0  0
  2  3  1  0  0  0  0
  2 24  1  0  0  0  0
  2 25  1  0  0  0  0
  3  4  1  0  0  0  0
  3 26  1  0  0  0  0
  3 27  1  0  0  0  0
  4  5  1  0  0  0  0
  4 28  1  0  0  0  0
  4 29  1  0  0  0  0
  5 13  1  0  0  0  0
  5  6  2  0  0  0  0
  6  7  1  0  0  0  0
  6 43  1  0  0  0  0
  7 12  2  0  0  0  0
  7  8  1  0  0  0  0
  8  9  2  0  0  0  0
  8 30  1  0  0  0  0
  9 10  1  0  0  0  0
  9 31  1  0  0  0  0
 10 11  2  0  0  0  0
 10 32  1  0  0  0  0
 11 12  1  0  0  0  0
 11 33  1  0  0  0  0
 12 13  1  0  0  0  0
 13 14  1  0  0  0  0
 14 15  1  0  0  0  0
 14 34  1  0  0  0  0
 14 35  1  0  0  0  0
 15 16  1  0  0  0  0
 15 36  1  0  0  0  0
 15 37  1  0  0  0  0
 16 17  1  0  0  0  0
 17 22  1  0  0  0  0
 17 18  2  0  0  0  0
 18 19  1  0  0  0  0
 18 38  1  0  0  0  0
 19 20  2  0  0  0  0
 19 39  1  0  0  0  0
 20 21  1  0  0  0  0
 20 40  1  0  0  0  0
 21 22  2  0  0  0  0
 21 41  1  0  0  0  0
 22 42  1  0  0  0  0
M  CHG  1   6   1
M  END
> <s_m_source_file>
AV-unprocessed.smi

> <i_m_source_file_index>
1349

> <i_lp_mmshare_version>
43012

> <i_f3d_flags>
0

> <s_epik_input>
W09IXVtDSDJdW0NIMl1bQ0gyXWMobjEpbihjKGMxMilbY0hdW2NIXVtjSF1bY0hdMilbQ0gyXVtDSDJdT2MzW2NIXVtjSF1bY0hdW2NIXVtjSF0z

> <s_epik_cmdline>
J2VwaWtfcHl0aG9uJywgJy1waCcsICc3LjAnLCAnLXRuJywgJzgnLCAnLW1hJywgJzIwMCcsICctbWV0YWxfYmluZGluZycsICctaW1hZScsICc8aW5maWxlLm1hZT4nLCAnLW9tYWUnLCAnPG91dGZpbGUubWFlPic=

> <r_lp_tautomer_probability>
1

> <r_epik_Ionization_Penalty>
0.856072

> <r_epik_Ionization_Penalty_Charging>
0.856072

> <r_epik_Ionization_Penalty_Neutral>
1.64909e-07

> <r_epik_State_Penalty>
0.892118

> <r_epik_Charging_Adjusted_Penalty>
1.74819

> <i_epik_Tot_Q>
1

> <i_epik_Tot_abs_Q>
1

> <r_epik_Metal_State_Penalty>
4.83641

> <b_epik_Metal_Only>
0

> <s_lp_Force_Field>
OPLS_2005

> <r_lp_Energy>
19.1857

> <b_lp_Chiralities_Consistent>
1

> <s_lp_Variant>
AV-unprocessed.smi:1349-2

> <Gold.Version>
5.8.1

> <Gold.Id.Protein>
6NUR|6NUR_protein|mol2

> <Gold.PLP.Fitness>
56.3497

> <Gold.PLP.PLP>
-44.4084

> <Gold.PLP.part.hbond>
-3.4087

> <Gold.PLP.part.metal>
0.0000

> <Gold.PLP.part.buried>
-4.1452

> <Gold.PLP.part.nonpolar>
-37.8509

> <Gold.PLP.part.repulsive>
0.0530

> <Gold.PLP.ligand.clash>
0.0000

> <Gold.PLP.ligand.torsion>
0.3755

> <Gold.PLP.Chemscore.Hbond>
4.2160

> <Gold.PLP.Chemscore.CHOScore>
0.0000

> <Gold.PLP.Chemscore.Metal>
0.0000

> <Gold.Chemscore.Hbonds>
donor molecule, donor type, donor heavy atom, donor atom, acceptor molecule, acceptor atom, score
      L1  H     1    23       P1  7957  0.72
      L1  H     6    43       P1  8028  1.54
      P1  H  7997  8010       L1    16  1.00
      P1  H  8011  8017       L1     1  0.91

> <Gold.PLP.Chemscore.Internal.Correction>
0.0444

> <Gold.Rescore>
     Score         DG    S(hbond)    S(metal)    S(lipo)     H(rot)  DE(clash)    DE(int)     intcor
     22.45     -23.26       2.80        0.00     126.97       2.51       0.40       0.41       ----

> <Gold.Chemscore.Fitness>
22.4518

> <Gold.Chemscore.DG>
-23.2626

> <Gold.Chemscore.ZeroCoef>
-5.4800

> <Gold.Chemscore.Hbond>
2.8018

> <Gold.Chemscore.Metal>
0.0000

> <Gold.Chemscore.Lipo>
126.9736

> <Gold.Chemscore.Internal_Hbond>
0.0000

> <Gold.Chemscore.DEClash>
0.4035

> <Gold.Chemscore.DEInternal>
0.4073

> <Gold.Chemscore.Rot>
2.5123

> <Gold.Chemscore.Internal.Correction>
   9.000000E+99

> <Gold.Chemscore.Hbonds>
donor molecule, donor type, donor heavy atom, donor atom, acceptor molecule, acceptor atom, score
      L1  H     1    23       P1  7957  0.70
      L1  H     6    43       P1  8028  0.77
      P1  H  7997  8010       L1    16  0.82
      P1  H  8011  8017       L1     1  0.26

> <Gold.Chemscore.Hbond.Weighted>
-9.3580

> <Gold.Chemscore.Metal.Weighted>
-0.0000

> <Gold.Chemscore.Lipo.Weighted>
-14.8559

> <Gold.Chemscore.Internal_Hbond.Weighted>
0.0000

> <Gold.Chemscore.DEClash.Weighted>
0.4035

> <Gold.Chemscore.DEInternal.Weighted>
0.4073

> <Gold.Chemscore.Rot.Weighted>
6.4314

> <Gold.Chemscore.Internal.Correction.Weighted>
   9.000000E+99

> <Gold.Protein.RotatedTorsions>
[ 6907 6896 6895 6894 ] final -132.69 input  -60.11 | X-H torsion
[ 7974 7965 7964 7962 ] final  161.60 input  175.53 | X-H torsion
[ 8008 7997 7996 7995 ] final   31.42 input   59.86 | X-H torsion
[ 10167 10162 10161 10158 ] final  165.69 input  -65.29 | X-H torsion
[ 10718 10713 10712 10709 ] final  133.79 input   66.30 | X-H torsion
[ 10763 10752 10751 10750 ] final  104.41 input  -60.55 | X-H torsion
[ 11005 11000 10999 10996 ] final    4.40 input  -57.11 | X-H torsion

> <Gold.Protein.ActiveResidues>
 VAL166  LYS551  ARG553  GLY616  TRP617  ASP618  TYR619  PRO620  LYS621  CYS622 
 ASP623  PHE694  ASN695  SER759  ASP760  ASP761  ALA762  ILE779  LEU786  VAL792 
 PHE793  MET794  SER795  GLU796  ALA797  LYS798  CYS799  TRP800  GLU811  SER814 

> <Gold.Protein.RotatedAtoms>
  150.9653  133.6402  159.2747 H   0  0  0  0  0  0  0  0  0  0  0  0  # atno 6907 bound_to 6896
  151.3710  135.0921  159.9475 H   0  0  0  0  0  0  0  0  0  0  0  0  # atno 6908 bound_to 6896
  152.5163  133.9207  159.7587 H   0  0  0  0  0  0  0  0  0  0  0  0  # atno 6909 bound_to 6896
  144.7678  139.7921  143.6308 H   0  0  0  0  0  0  0  0  0  0  0  0  # atno 7974 bound_to 7965
  155.1061  140.3234  155.4534 H   0  0  0  0  0  0  0  0  0  0  0  0  # atno 8008 bound_to 7997
  156.2703  140.2052  156.6133 H   0  0  0  0  0  0  0  0  0  0  0  0  # atno 8009 bound_to 7997
  154.6792  140.0528  157.0235 H   0  0  0  0  0  0  0  0  0  0  0  0  # atno 8010 bound_to 7997
  139.4910  144.4106  151.9304 H   0  0  0  0  0  0  0  0  0  0  0  0  # atno 10167 bound_to 10162
  157.4737  131.1081  150.9770 H   0  0  0  0  0  0  0  0  0  0  0  0  # atno 10718 bound_to 10713
  153.3655  135.3944  155.1750 H   0  0  0  0  0  0  0  0  0  0  0  0  # atno 10763 bound_to 10752
  154.8686  135.3690  154.5044 H   0  0  0  0  0  0  0  0  0  0  0  0  # atno 10764 bound_to 10752
  153.5507  135.7083  153.5653 H   0  0  0  0  0  0  0  0  0  0  0  0  # atno 10765 bound_to 10752
  140.5823  134.0001  155.8053 H   0  0  0  0  0  0  0  0  0  0  0  0  # atno 11005 bound_to 11000
  146.1799  139.4987  142.9873 LP  0  0  0  0  0  0  0  0  0  0  0  0  # atno 17320 bound_to 7965
  145.6417  141.0283  143.1808 LP  0  0  0  0  0  0  0  0  0  0  0  0  # atno 17321 bound_to 7965
  140.3547  144.3046  150.5943 LP  0  0  0  0  0  0  0  0  0  0  0  0  # atno 17342 bound_to 10162
  140.5455  143.2215  151.8014 LP  0  0  0  0  0  0  0  0  0  0  0  0  # atno 17343 bound_to 10162
  157.0526  130.5793  149.5373 LP  0  0  0  0  0  0  0  0  0  0  0  0  # atno 17370 bound_to 10713
  156.0086  130.5175  150.7914 LP  0  0  0  0  0  0  0  0  0  0  0  0  # atno 17371 bound_to 10713
  141.0988  133.9801  157.3115 LP  0  0  0  0  0  0  0  0  0  0  0  0  # atno 17394 bound_to 11000
  139.9311  135.0200  156.8404 LP  0  0  0  0  0  0  0  0  0  0  0  0  # atno 17395 bound_to 11000

$$$$
