AV-unprocessed.smi:1786|AV-procd|sdf|7204|dock6
  -GOLD-   22720 8443D 1   1.00000     0.00000
 Structure written by MMmdl.
 44 45  0  0  0  0  0  0  0  0  2 V2000
  145.9611  133.6793  154.7045 C   0  0  0  0  0  0  0  0  0  0  0  0
  146.7264  134.6679  153.7976 C   0  0  2  0  0  0  0  0  0  0  0  0
  145.8411  135.2337  152.6670 C   0  0  0  0  0  0  0  0  0  0  0  0
  145.5655  134.1918  151.5726 C   0  0  0  0  0  0  0  0  0  0  0  0
  146.8872  133.6178  151.0479 C   0  0  0  0  0  0  0  0  0  0  0  0
  147.7473  133.0630  152.1952 C   0  0  0  0  0  0  0  0  0  0  0  0
  147.9887  134.1017  153.2341 N   0  3  2  0  0  0  0  0  0  0  0  0
  148.9716  133.6877  154.2676 C   0  0  0  0  0  0  0  0  0  0  0  0
  149.3004  134.8296  155.2473 C   0  0  0  0  0  0  0  0  0  0  0  0
  149.5792  136.0727  154.5398 N   0  0  0  0  0  0  0  0  0  0  0  0
  150.3802  137.0539  154.9904 C   0  0  0  0  0  0  0  0  0  0  0  0
  150.9614  136.9879  156.0731 O   0  0  0  0  0  0  0  0  0  0  0  0
  150.5671  138.3086  154.1193 C   0  0  0  0  0  0  0  0  0  0  0  0
  150.1356  139.5726  154.7429 N   0  0  0  0  0  0  0  0  0  0  0  0
  148.9979  140.1980  154.1949 C   0  0  0  0  0  0  0  0  0  0  0  0
  148.5167  141.3517  154.6840 C   0  0  0  0  0  0  0  0  0  0  0  0
  149.1966  141.9531  155.8065 C   0  0  0  0  0  0  0  0  0  0  0  0
  150.2881  141.3655  156.3360 C   0  0  0  0  0  0  0  0  0  0  0  0
  150.8222  140.1083  155.7994 C   0  0  0  0  0  0  0  0  0  0  0  0
  151.8290  139.5738  156.2644 O   0  0  0  0  0  0  0  0  0  0  0  0
  145.0629  134.1466  155.1088 H   0  0  0  0  0  0  0  0  0  0  0  0
  146.5625  133.3619  155.5562 H   0  0  0  0  0  0  0  0  0  0  0  0
  145.6458  132.7832  154.1709 H   0  0  0  0  0  0  0  0  0  0  0  0
  147.0105  135.5155  154.4228 H   0  0  0  0  0  0  0  0  0  0  0  0
  144.9008  135.6088  153.0728 H   0  0  0  0  0  0  0  0  0  0  0  0
  146.3403  136.0938  152.2186 H   0  0  0  0  0  0  0  0  0  0  0  0
  144.9417  133.3885  151.9657 H   0  0  0  0  0  0  0  0  0  0  0  0
  145.0039  134.6459  150.7557 H   0  0  0  0  0  0  0  0  0  0  0  0
  146.6885  132.8330  150.3174 H   0  0  0  0  0  0  0  0  0  0  0  0
  147.4402  134.3967  150.5213 H   0  0  0  0  0  0  0  0  0  0  0  0
  147.2695  132.1896  152.6400 H   0  0  0  0  0  0  0  0  0  0  0  0
  148.6943  132.7158  151.7834 H   0  0  0  0  0  0  0  0  0  0  0  0
  148.5635  132.8574  154.8458 H   0  0  0  0  0  0  0  0  0  0  0  0
  149.8751  133.3129  153.7841 H   0  0  0  0  0  0  0  0  0  0  0  0
  148.4906  134.9949  155.9587 H   0  0  0  0  0  0  0  0  0  0  0  0
  150.1810  134.5715  155.8359 H   0  0  0  0  0  0  0  0  0  0  0  0
  149.1379  136.1970  153.6397 H   0  0  0  0  0  0  0  0  0  0  0  0
  151.6210  138.3719  153.8450 H   0  0  0  0  0  0  0  0  0  0  0  0
  150.0437  138.1528  153.1744 H   0  0  0  0  0  0  0  0  0  0  0  0
  148.5507  139.6852  153.3555 H   0  0  0  0  0  0  0  0  0  0  0  0
  147.6448  141.8180  154.2490 H   0  0  0  0  0  0  0  0  0  0  0  0
  148.8276  142.8781  156.2247 H   0  0  0  0  0  0  0  0  0  0  0  0
  150.7831  141.8297  157.1764 H   0  0  0  0  0  0  0  0  0  0  0  0
  148.4228  134.8749  152.7505 H   0  0  0  0  0  0  0  0  0  0  0  0
  1  2  1  0  0  0  0
  1 21  1  0  0  0  0
  1 22  1  0  0  0  0
  1 23  1  0  0  0  0
  2  7  1  0  0  0  0
  2  3  1  0  0  0  0
  2 24  1  0  0  0  0
  3  4  1  0  0  0  0
  3 25  1  0  0  0  0
  3 26  1  0  0  0  0
  4  5  1  0  0  0  0
  4 27  1  0  0  0  0
  4 28  1  0  0  0  0
  5  6  1  0  0  0  0
  5 29  1  0  0  0  0
  5 30  1  0  0  0  0
  6  7  1  0  0  0  0
  6 31  1  0  0  0  0
  6 32  1  0  0  0  0
  7  8  1  0  0  0  0
  7 44  1  0  0  0  0
  8  9  1  0  0  0  0
  8 33  1  0  0  0  0
  8 34  1  0  0  0  0
  9 10  1  0  0  0  0
  9 35  1  0  0  0  0
  9 36  1  0  0  0  0
 10 11  1  0  0  0  0
 10 37  1  0  0  0  0
 11 12  2  0  0  0  0
 11 13  1  0  0  0  0
 13 14  1  0  0  0  0
 13 38  1  0  0  0  0
 13 39  1  0  0  0  0
 14 19  1  0  0  0  0
 14 15  1  0  0  0  0
 15 16  2  0  0  0  0
 15 40  1  0  0  0  0
 16 17  1  0  0  0  0
 16 41  1  0  0  0  0
 17 18  2  0  0  0  0
 17 42  1  0  0  0  0
 18 19  1  0  0  0  0
 18 43  1  0  0  0  0
 19 20  2  0  0  0  0
M  CHG  1   7   1
M  END
> <s_m_source_file>
AV-unprocessed.smi

> <i_m_source_file_index>
1786

> <i_lp_mmshare_version>
43012

> <i_f3d_flags>
0

> <s_epik_input>
W0NIM11bQ0BASF0xW0NIMl1bQ0gyXVtDSDJdW0NIMl1OMVtDSDJdW0NIMl1bTkhdQyg9TylbQ0gyXW4yW2NIXVtjSF1bY0hdW2NIXWMyPU8=

> <s_epik_cmdline>
J2VwaWtfcHl0aG9uJywgJy1waCcsICc3LjAnLCAnLXRuJywgJzgnLCAnLW1hJywgJzIwMCcsICctbWV0YWxfYmluZGluZycsICctaW1hZScsICc8aW5maWxlLm1hZT4nLCAnLW9tYWUnLCAnPG91dGZpbGUubWFlPic=

> <r_lp_tautomer_probability>
1

> <r_epik_Ionization_Penalty>
0.00237247

> <r_epik_Ionization_Penalty_Charging>
0.00237238

> <r_epik_Ionization_Penalty_Neutral>
8.2065e-08

> <r_epik_State_Penalty>
0.00163922

> <r_epik_Charging_Adjusted_Penalty>
0.0040116

> <i_epik_Tot_Q>
1

> <i_epik_Tot_abs_Q>
1

> <r_epik_Metal_State_Penalty>
-0

> <b_epik_Metal_Only>
0

> <s_lp_Force_Field>
OPLS_2005

> <r_lp_Energy>
28.5406

> <b_lp_Chiralities_Consistent>
1

> <s_lp_Variant>
AV-unprocessed.smi:1786-3

> <Gold.Version>
5.8.1

> <Gold.Id.Protein>
6NUR|6NUR_protein|mol2

> <Gold.PLP.Fitness>
55.6936

> <Gold.PLP.PLP>
-38.7139

> <Gold.PLP.part.hbond>
-4.3751

> <Gold.PLP.part.metal>
0.0000

> <Gold.PLP.part.buried>
-1.7117

> <Gold.PLP.part.nonpolar>
-32.2291

> <Gold.PLP.part.repulsive>
0.0933

> <Gold.PLP.ligand.clash>
0.0000

> <Gold.PLP.ligand.torsion>
0.3191

> <Gold.PLP.Chemscore.Hbond>
5.0000

> <Gold.PLP.Chemscore.CHOScore>
0.8481

> <Gold.PLP.Chemscore.Metal>
0.0000

> <Gold.Chemscore.Hbonds>
donor molecule, donor type, donor heavy atom, donor atom, acceptor molecule, acceptor atom, score
      L1  H     7    44       P1  7948  2.00
      L1  H    10    37       P1  7948  1.00
      L1  C    15    40       P1  7957  0.74

> <Gold.PLP.Chemscore.Internal.Correction>
0.0737

> <Gold.Rescore>
     Score         DG    S(hbond)    S(metal)    S(lipo)     H(rot)  DE(clash)    DE(int)     intcor
     19.14     -20.03       3.54        0.00      64.08       1.86       0.13       0.76       ----

> <Gold.Chemscore.Fitness>
19.1396

> <Gold.Chemscore.DG>
-20.0277

> <Gold.Chemscore.ZeroCoef>
-5.4800

> <Gold.Chemscore.Hbond>
3.5355

> <Gold.Chemscore.Metal>
0.0000

> <Gold.Chemscore.Lipo>
64.0782

> <Gold.Chemscore.Internal_Hbond>
0.0000

> <Gold.Chemscore.DEClash>
0.1300

> <Gold.Chemscore.DEInternal>
0.7582

> <Gold.Chemscore.Rot>
1.8586

> <Gold.Chemscore.Internal.Correction>
   9.000000E+99

> <Gold.Chemscore.Hbonds>
donor molecule, donor type, donor heavy atom, donor atom, acceptor molecule, acceptor atom, score
      L1  H     7    44       P1  7948  0.50
      L1  H    10    37       P1  7948  0.93

> <Gold.Chemscore.Hbond.Weighted>
-11.8087

> <Gold.Chemscore.Metal.Weighted>
-0.0000

> <Gold.Chemscore.Lipo.Weighted>
-7.4971

> <Gold.Chemscore.Internal_Hbond.Weighted>
0.0000

> <Gold.Chemscore.DEClash.Weighted>
0.1300

> <Gold.Chemscore.DEInternal.Weighted>
0.7582

> <Gold.Chemscore.Rot.Weighted>
4.7581

> <Gold.Chemscore.Internal.Correction.Weighted>
   9.000000E+99

> <Gold.Protein.RotatedTorsions>
[ 6907 6896 6895 6894 ] final -141.32 input  -60.11 | X-H torsion
[ 7974 7965 7964 7962 ] final   64.23 input  175.53 | X-H torsion
[ 8008 7997 7996 7995 ] final   86.83 input   59.86 | X-H torsion
[ 10167 10162 10161 10158 ] final  -52.42 input  -65.29 | X-H torsion
[ 10718 10713 10712 10709 ] final   -1.78 input   66.30 | X-H torsion
[ 10763 10752 10751 10750 ] final   91.54 input  -60.55 | X-H torsion
[ 11005 11000 10999 10996 ] final  -85.92 input  -57.11 | X-H torsion

> <Gold.Protein.ActiveResidues>
 VAL166  LYS551  ARG553  GLY616  TRP617  ASP618  TYR619  PRO620  LYS621  CYS622 
 ASP623  PHE694  ASN695  SER759  ASP760  ASP761  ALA762  ILE779  LEU786  VAL792 
 PHE793  MET794  SER795  GLU796  ALA797  LYS798  CYS799  TRP800  GLU811  SER814 

> <Gold.Protein.RotatedAtoms>
  151.0723  133.5456  159.2626 H   0  0  0  0  0  0  0  0  0  0  0  0  # atno 6907 bound_to 6896
  151.2391  135.0582  159.9028 H   0  0  0  0  0  0  0  0  0  0  0  0  # atno 6908 bound_to 6896
  152.5413  134.0500  159.8159 H   0  0  0  0  0  0  0  0  0  0  0  0  # atno 6909 bound_to 6896
  145.8526  139.3264  143.0866 H   0  0  0  0  0  0  0  0  0  0  0  0  # atno 7974 bound_to 7965
  155.9678  140.3388  155.6548 H   0  0  0  0  0  0  0  0  0  0  0  0  # atno 8008 bound_to 7997
  155.6715  140.0727  157.2536 H   0  0  0  0  0  0  0  0  0  0  0  0  # atno 8009 bound_to 7997
  154.4159  140.1690  156.1871 H   0  0  0  0  0  0  0  0  0  0  0  0  # atno 8010 bound_to 7997
  140.6538  143.2584  151.4645 H   0  0  0  0  0  0  0  0  0  0  0  0  # atno 10167 bound_to 10162
  156.8005  130.5391  149.5722 H   0  0  0  0  0  0  0  0  0  0  0  0  # atno 10718 bound_to 10713
  153.2094  135.4394  155.0361 H   0  0  0  0  0  0  0  0  0  0  0  0  # atno 10763 bound_to 10752
  154.8191  135.3329  154.7092 H   0  0  0  0  0  0  0  0  0  0  0  0  # atno 10764 bound_to 10752
  153.7531  135.6997  153.4997 H   0  0  0  0  0  0  0  0  0  0  0  0  # atno 10765 bound_to 10752
  141.1636  133.7426  156.9085 H   0  0  0  0  0  0  0  0  0  0  0  0  # atno 11005 bound_to 11000
  145.9340  140.9028  143.0342 LP  0  0  0  0  0  0  0  0  0  0  0  0  # atno 17320 bound_to 7965
  144.6728  140.1457  143.7434 LP  0  0  0  0  0  0  0  0  0  0  0  0  # atno 17321 bound_to 7965
  139.5757  144.1824  152.1900 LP  0  0  0  0  0  0  0  0  0  0  0  0  # atno 17342 bound_to 10162
  140.1134  144.5437  150.6910 LP  0  0  0  0  0  0  0  0  0  0  0  0  # atno 17343 bound_to 10162
  156.1104  130.6036  151.0038 LP  0  0  0  0  0  0  0  0  0  0  0  0  # atno 17370 bound_to 10713
  157.6556  131.0890  150.7955 LP  0  0  0  0  0  0  0  0  0  0  0  0  # atno 17371 bound_to 10713
  140.1533  134.9215  157.2621 LP  0  0  0  0  0  0  0  0  0  0  0  0  # atno 17394 bound_to 11000
  140.2697  134.3474  155.7378 LP  0  0  0  0  0  0  0  0  0  0  0  0  # atno 17395 bound_to 11000

$$$$
