#       Name:                AV-unprocessed.smi:1824
#       Creating user name   scv26
#       Creation time:       Fri Mar 27 09:07:05 2020


#       File generated by GOLD software.
#

@<TRIPOS>MOLECULE
AV-unprocessed.smi:1824
    50    52     1
SMALL
NO_CHARGES


@<TRIPOS>ATOM
      1 ****        -5.1402   2.2530  -0.3755 C.3            1 S1                 0.0000
      2 ****        -3.6379   2.2189  -0.0737 C.3            1 S1                 0.0000
      3 ****        -3.1249   0.7838   0.1422 C.3            1 S1                 0.0000
      4 ****        -1.6921   0.7978   0.5168 N.4            1 S1                 1.0000
      5 ****        -1.1164  -0.5671   0.6246 C.3            1 S1                 0.0000
      6 ****         0.4125  -0.5809   0.4286 C.3            1 S1                 0.0000
      7 ****         0.7060  -0.1711  -0.8940 O.3            1 S1                 0.0000
      8 ****         1.0058  -1.9812   0.6770 C.3            1 S1                 0.0000
      9 ****         2.4455  -2.0193   0.4891 N.pl3          1 S1                 0.0000
     10 ****         3.3879  -1.6348   1.3715 C.2            1 S1                 0.0000
     11 ****         4.6584  -1.7534   0.9969 N.2            1 S1                 0.0000
     12 ****         4.5269  -2.2781  -0.2774 C.ar           1 S1                 0.0000
     13 ****         5.5095  -2.6405  -1.2264 C.ar           1 S1                 0.0000
     14 ****         5.1335  -3.1641  -2.4811 C.ar           1 S1                 0.0000
     15 ****         6.0879  -3.5074  -3.3783 F              1 S1                 0.0000
     16 ****         3.7707  -3.3319  -2.8055 C.ar           1 S1                 0.0000
     17 ****         3.4176  -3.8353  -4.0120 F              1 S1                 0.0000
     18 ****         2.7738  -2.9771  -1.8765 C.ar           1 S1                 0.0000
     19 ****         3.1538  -2.4567  -0.6254 C.ar           1 S1                 0.0000
     20 ****        -1.4856   1.6286   1.7286 C.3            1 S1                 0.0000
     21 ****        -2.0474   3.0497   1.5281 C.3            1 S1                 0.0000
     22 ****        -1.1871   3.9249   0.5993 C.3            1 S1                 0.0000
     23 ****        -3.4097   2.9863   1.1056 O.3            1 S1                 0.0000
     24 ****        -5.3734   1.6886  -1.2788 H              1 S1                 0.0000
     25 ****        -5.4836   3.2768  -0.5265 H              1 S1                 0.0000
     26 ****        -5.7186   1.8263   0.4447 H              1 S1                 0.0000
     27 ****        -3.1146   2.6724  -0.9158 H              1 S1                 0.0000
     28 ****        -3.7013   0.2855   0.9236 H              1 S1                 0.0000
     29 ****        -3.2612   0.2075  -0.7739 H              1 S1                 0.0000
     30 ****        -1.3835  -0.9935   1.5928 H              1 S1                 0.0000
     31 ****        -1.5670  -1.2175  -0.1268 H              1 S1                 0.0000
     32 ****         0.8888   0.1208   1.1128 H              1 S1                 0.0000
     33 ****         0.3803  -0.8248  -1.4943 H              1 S1                 0.0000
     34 ****         0.7877  -2.3060   1.6952 H              1 S1                 0.0000
     35 ****         0.5471  -2.7153   0.0132 H              1 S1                 0.0000
     36 ****         3.1262  -1.2444   2.3443 H              1 S1                 0.0000
     37 ****         6.5558  -2.5161  -0.9896 H              1 S1                 0.0000
     38 ****         1.7310  -3.1044  -2.1246 H              1 S1                 0.0000
     39 ****        -1.9878   1.1550   2.5737 H              1 S1                 0.0000
     40 ****        -0.4287   1.6872   1.9866 H              1 S1                 0.0000
     41 ****        -2.0574   3.5415   2.5014 H              1 S1                 0.0000
     42 ****        -0.1881   4.0619   1.0142 H              1 S1                 0.0000
     43 ****        -1.6301   4.9137   0.4774 H              1 S1                 0.0000
     44 ****        -1.0673   3.4871  -0.3913 H              1 S1                 0.0000
     45 ****        -1.2048   1.2520  -0.2429 H              1 S1                 0.0000
     46 ****         1.6953  -0.0759  -1.0048 LP             1 S1                 0.0000
     47 ****         0.2639   0.7064  -1.0800 LP             1 S1                 0.0000
     48 ****         5.4900  -1.5239   1.5027 LP             1 S1                 0.0000
     49 ****        -3.9463   2.5833   1.8470 LP             1 S1                 0.0000
     50 ****        -3.7255   3.9196   0.9348 LP             1 S1                 0.0000
@<TRIPOS>BOND
    1    1    2 1     
    2    1   24 1     
    3    1   25 1     
    4    1   26 1     
    5    2   23 1     
    6    2    3 1     
    7    2   27 1     
    8    3    4 1     
    9    3   28 1     
   10    3   29 1     
   11    4    5 1     
   12    4   20 1     
   13    4   45 1     
   14    5    6 1     
   15    5   30 1     
   16    5   31 1     
   17    6    7 1     
   18    6    8 1     
   19    6   32 1     
   20    7   33 1     
   21    8    9 1     
   22    8   34 1     
   23    8   35 1     
   24    9   19 1     
   25    9   10 1     
   26   10   11 2     
   27   10   36 1     
   28   11   12 1     
   29   12   19 ar    
   30   12   13 ar    
   31   13   14 ar    
   32   13   37 1     
   33   14   15 1     
   34   14   16 ar    
   35   16   17 1     
   36   16   18 ar    
   37   18   19 ar    
   38   18   38 1     
   39   20   21 1     
   40   20   39 1     
   41   20   40 1     
   42   21   22 1     
   43   21   23 1     
   44   21   41 1     
   45   22   42 1     
   46   22   43 1     
   47   22   44 1     
   48    7   46 1     
   49    7   47 1     
   50   11   48 1     
   51   23   49 1     
   52   23   50 1     
@<TRIPOS>SUBSTRUCTURE
      1 S1             1
@<TRIPOS>SET
LONE_PAIRS      STATIC     ATOMS    <user>   **** ""
5 46 47 48 49 50
DONOR_HYDROGENS      STATIC     ATOMS    <user>   **** ""
2 45 33
ATOM$BLUE        STATIC     ATOMS    COLORGROUP SYSTEM
5 46 47 48 49 50
ATOM$RED        STATIC     ATOMS    COLORGROUP SYSTEM
2 45 33
