AV-unprocessed.smi:224|AV-procd|sdf|1707|dock4
  -GOLD-   2262020173D 1   1.00000     0.00000
 Structure written by MMmdl.
 56 59  0  0  0  0  0  0  0  0  2 V2000
  144.4705  131.6707  150.7450 C   0  0  0  0  0  0  0  0  0  0  0  0
  144.9745  132.6079  151.8526 C   0  0  2  0  0  0  0  0  0  0  0  0
  143.8625  133.2907  152.3929 O   0  0  0  0  0  0  0  0  0  0  0  0
  145.9881  133.6539  151.3427 C   0  0  0  0  0  0  0  0  0  0  0  0
  146.7559  134.3013  152.4453 N   0  3  2  0  0  0  0  0  0  0  0  0
  147.4229  133.2857  153.3098 C   0  0  0  0  0  0  0  0  0  0  0  0
  148.2761  133.9336  154.4091 C   0  0  0  0  0  0  0  0  0  0  0  0
  147.4674  134.8502  155.1996 N   0  0  0  0  0  0  0  0  0  0  0  0
  146.8130  134.3189  156.2670 C   0  0  0  0  0  0  0  0  0  0  0  0
  145.6564  133.6298  156.0757 N   0  0  0  0  0  0  0  0  0  0  0  0
  145.0068  133.0935  157.1126 C   0  0  0  0  0  0  0  0  0  0  0  0
  145.3289  133.1288  158.4061 N   0  0  0  0  0  0  0  0  0  0  0  0
  146.4800  133.8302  158.6104 C   0  0  0  0  0  0  0  0  0  0  0  0
  147.2784  134.4505  157.6074 C   0  0  0  0  0  0  0  0  0  0  0  0
  148.3685  135.0800  158.1975 N   0  0  0  0  0  0  0  0  0  0  0  0
  148.2275  134.8380  159.4723 C   0  0  0  0  0  0  0  0  0  0  0  0
  147.1163  134.0991  159.8098 N   0  0  0  0  0  0  0  0  0  0  0  0
  146.7146  133.6936  161.1483 C   0  0  0  0  0  0  0  0  0  0  0  0
  146.4199  134.8863  162.0873 C   0  0  1  0  0  0  0  0  0  0  0  0
  145.5067  134.4687  163.0877 O   0  0  0  0  0  0  0  0  0  0  0  0
  147.6559  135.4646  162.7699 C   0  0  0  0  0  0  0  0  0  0  0  0
  147.3019  136.9372  162.9193 C   0  0  0  0  0  0  0  0  0  0  0  0
  146.6406  137.2198  161.6979 O   0  0  0  0  0  0  0  0  0  0  0  0
  145.8197  136.1062  161.3597 C   0  0  0  0  0  0  0  0  0  0  0  0
  146.8164  135.8830  154.3995 C   0  0  0  0  0  0  0  0  0  0  0  0
  145.9695  135.2984  153.2418 C   0  0  1  0  0  0  0  0  0  0  0  0
  145.4505  136.4756  152.3907 C   0  0  0  0  0  0  0  0  0  0  0  0
  145.2864  131.0843  150.3217 H   0  0  0  0  0  0  0  0  0  0  0  0
  144.0045  132.2275  149.9313 H   0  0  0  0  0  0  0  0  0  0  0  0
  143.7325  130.9672  151.1323 H   0  0  0  0  0  0  0  0  0  0  0  0
  145.3995  132.0159  152.6620 H   0  0  0  0  0  0  0  0  0  0  0  0
  143.5024  132.7775  153.1004 H   0  0  0  0  0  0  0  0  0  0  0  0
  146.6461  133.1442  150.6434 H   0  0  0  0  0  0  0  0  0  0  0  0
  145.4822  134.4249  150.7589 H   0  0  0  0  0  0  0  0  0  0  0  0
  146.6654  132.6456  153.7654 H   0  0  0  0  0  0  0  0  0  0  0  0
  148.0648  132.6367  152.7165 H   0  0  0  0  0  0  0  0  0  0  0  0
  148.7334  133.1582  155.0219 H   0  0  0  0  0  0  0  0  0  0  0  0
  149.0975  134.4939  153.9615 H   0  0  0  0  0  0  0  0  0  0  0  0
  144.0987  132.5608  156.8716 H   0  0  0  0  0  0  0  0  0  0  0  0
  148.9304  135.2007  160.2085 H   0  0  0  0  0  0  0  0  0  0  0  0
  145.8321  133.0584  161.0624 H   0  0  0  0  0  0  0  0  0  0  0  0
  147.5019  133.0660  161.5683 H   0  0  0  0  0  0  0  0  0  0  0  0
  145.9824  134.3498  163.8957 H   0  0  0  0  0  0  0  0  0  0  0  0
  147.9064  134.9813  163.7150 H   0  0  0  0  0  0  0  0  0  0  0  0
  148.5230  135.3817  162.1139 H   0  0  0  0  0  0  0  0  0  0  0  0
  146.6188  137.0954  163.7553 H   0  0  0  0  0  0  0  0  0  0  0  0
  148.1772  137.5714  163.0606 H   0  0  0  0  0  0  0  0  0  0  0  0
  145.8162  135.9840  160.2760 H   0  0  0  0  0  0  0  0  0  0  0  0
  144.7915  136.3041  161.6674 H   0  0  0  0  0  0  0  0  0  0  0  0
  146.2096  136.5317  155.0330 H   0  0  0  0  0  0  0  0  0  0  0  0
  147.6009  136.5206  153.9898 H   0  0  0  0  0  0  0  0  0  0  0  0
  145.1098  134.7783  153.6666 H   0  0  0  0  0  0  0  0  0  0  0  0
  145.0353  137.2576  153.0274 H   0  0  0  0  0  0  0  0  0  0  0  0
  144.6492  136.1887  151.7116 H   0  0  0  0  0  0  0  0  0  0  0  0
  146.2517  136.9249  151.8030 H   0  0  0  0  0  0  0  0  0  0  0  0
  147.4939  134.8311  152.0040 H   0  0  0  0  0  0  0  0  0  0  0  0
  1  2  1  0  0  0  0
  1 28  1  0  0  0  0
  1 29  1  0  0  0  0
  1 30  1  0  0  0  0
  2  3  1  0  0  0  0
  2  4  1  0  0  0  0
  2 31  1  0  0  0  0
  3 32  1  0  0  0  0
  4  5  1  0  0  0  0
  4 33  1  0  0  0  0
  4 34  1  0  0  0  0
  5 26  1  0  0  0  0
  5  6  1  0  0  0  0
  5 56  1  0  0  0  0
  6  7  1  0  0  0  0
  6 35  1  0  0  0  0
  6 36  1  0  0  0  0
  7  8  1  0  0  0  0
  7 37  1  0  0  0  0
  7 38  1  0  0  0  0
  8  9  1  0  0  0  0
  8 25  1  0  0  0  0
  9 14  1  0  0  0  0
  9 10  2  0  0  0  0
 10 11  1  0  0  0  0
 11 12  2  0  0  0  0
 11 39  1  0  0  0  0
 12 13  1  0  0  0  0
 13 17  1  0  0  0  0
 13 14  2  0  0  0  0
 14 15  1  0  0  0  0
 15 16  2  0  0  0  0
 16 17  1  0  0  0  0
 16 40  1  0  0  0  0
 17 18  1  0  0  0  0
 18 19  1  0  0  0  0
 18 41  1  0  0  0  0
 18 42  1  0  0  0  0
 19 24  1  0  0  0  0
 19 20  1  0  0  0  0
 19 21  1  0  0  0  0
 20 43  1  0  0  0  0
 21 22  1  0  0  0  0
 21 44  1  0  0  0  0
 21 45  1  0  0  0  0
 22 23  1  0  0  0  0
 22 46  1  0  0  0  0
 22 47  1  0  0  0  0
 23 24  1  0  0  0  0
 24 48  1  0  0  0  0
 24 49  1  0  0  0  0
 25 26  1  0  0  0  0
 25 50  1  0  0  0  0
 25 51  1  0  0  0  0
 26 27  1  0  0  0  0
 26 52  1  0  0  0  0
 27 53  1  0  0  0  0
 27 54  1  0  0  0  0
 27 55  1  0  0  0  0
M  CHG  1   5   1
M  END
> <s_m_source_file>
AV-unprocessed.smi

> <i_m_source_file_index>
224

> <i_lp_mmshare_version>
43012

> <i_f3d_flags>
0

> <s_epik_input>
W0NIM11bQ0BIXShbT0hdKVtDSDJdTjFbQ0gyXVtDSDJdTihbQ0gyXVtDQEhdMVtDSDNdKWMobltjSF1uMiljKGMyMyluW2NIXW4zW0NIMl1bQ0BAXTQoW09IXSlbQ0gyXVtDSDJdT1tDSDJdNA==

> <s_epik_cmdline>
J2VwaWtfcHl0aG9uJywgJy1waCcsICc3LjAnLCAnLXRuJywgJzgnLCAnLW1hJywgJzIwMCcsICctbWV0YWxfYmluZGluZycsICctaW1hZScsICc8aW5maWxlLm1hZT4nLCAnLW9tYWUnLCAnPG91dGZpbGUubWFlPic=

> <r_lp_tautomer_probability>
1

> <r_epik_Ionization_Penalty>
0.00516958

> <r_epik_Ionization_Penalty_Charging>
0.00509693

> <r_epik_Ionization_Penalty_Neutral>
7.26542e-05

> <r_epik_State_Penalty>
-0

> <r_epik_Charging_Adjusted_Penalty>
0.00509693

> <i_epik_Tot_Q>
1

> <i_epik_Tot_abs_Q>
1

> <r_epik_Metal_State_Penalty>
-0

> <b_epik_Metal_Only>
0

> <s_lp_Force_Field>
OPLS_2005

> <r_lp_Energy>
50.3284

> <b_lp_Chiralities_Consistent>
1

> <s_lp_Variant>
AV-unprocessed.smi:224-1

> <Gold.Version>
5.8.1

> <Gold.Id.Protein>
6NUR|6NUR_protein|mol2

> <Gold.PLP.Fitness>
47.3612

> <Gold.PLP.PLP>
-34.9365

> <Gold.PLP.part.hbond>
-3.8558

> <Gold.PLP.part.metal>
0.0000

> <Gold.PLP.part.buried>
-5.7450

> <Gold.PLP.part.nonpolar>
-26.4297

> <Gold.PLP.part.repulsive>
0.1500

> <Gold.PLP.ligand.clash>
0.0000

> <Gold.PLP.ligand.torsion>
0.9010

> <Gold.PLP.Chemscore.Hbond>
3.7963

> <Gold.PLP.Chemscore.CHOScore>
0.7351

> <Gold.PLP.Chemscore.Metal>
0.0000

> <Gold.Chemscore.Hbonds>
donor molecule, donor type, donor heavy atom, donor atom, acceptor molecule, acceptor atom, score
      L1  H     3    32       P1 10957  0.78
      L1  H     5    56       P1  7948  2.00
      P1  H  6934  6947       L1    23  1.00
      L1  C    11    39       P1 10957  0.81

> <Gold.PLP.Chemscore.Internal.Correction>
0.6326

> <Gold.Rescore>
     Score         DG    S(hbond)    S(metal)    S(lipo)     H(rot)  DE(clash)    DE(int)     intcor
     13.02     -14.95       2.67        0.00      78.22       3.36       0.07       1.86       ----

> <Gold.Chemscore.Fitness>
13.0244

> <Gold.Chemscore.DG>
-14.9525

> <Gold.Chemscore.ZeroCoef>
-5.4800

> <Gold.Chemscore.Hbond>
2.6723

> <Gold.Chemscore.Metal>
0.0000

> <Gold.Chemscore.Lipo>
78.2186

> <Gold.Chemscore.Internal_Hbond>
0.0000

> <Gold.Chemscore.DEClash>
0.0663

> <Gold.Chemscore.DEInternal>
1.8618

> <Gold.Chemscore.Rot>
3.3611

> <Gold.Chemscore.Internal.Correction>
   9.000000E+99

> <Gold.Chemscore.Hbonds>
donor molecule, donor type, donor heavy atom, donor atom, acceptor molecule, acceptor atom, score
      L1  H     3    32       P1 10957  0.27
      L1  H     5    56       P1  7948  0.79
      P1  H  6934  6947       L1    23  0.73

> <Gold.Chemscore.Hbond.Weighted>
-8.9254

> <Gold.Chemscore.Metal.Weighted>
-0.0000

> <Gold.Chemscore.Lipo.Weighted>
-9.1516

> <Gold.Chemscore.Internal_Hbond.Weighted>
0.0000

> <Gold.Chemscore.DEClash.Weighted>
0.0663

> <Gold.Chemscore.DEInternal.Weighted>
1.8618

> <Gold.Chemscore.Rot.Weighted>
8.6045

> <Gold.Chemscore.Internal.Correction.Weighted>
   9.000000E+99

> <Gold.Protein.RotatedTorsions>
[ 6907 6896 6895 6894 ] final  107.18 input  -60.11 | X-H torsion
[ 7974 7965 7964 7962 ] final   31.81 input  175.53 | X-H torsion
[ 8008 7997 7996 7995 ] final  156.91 input   59.86 | X-H torsion
[ 10167 10162 10161 10158 ] final  127.65 input  -65.29 | X-H torsion
[ 10718 10713 10712 10709 ] final  124.08 input   66.30 | X-H torsion
[ 10763 10752 10751 10750 ] final -172.12 input  -60.55 | X-H torsion
[ 11005 11000 10999 10996 ] final -115.28 input  -57.11 | X-H torsion

> <Gold.Protein.ActiveResidues>
 VAL166  LYS551  ARG553  GLY616  TRP617  ASP618  TYR619  PRO620  LYS621  CYS622 
 ASP623  PHE694  ASN695  SER759  ASP760  ASP761  ALA762  ILE779  LEU786  VAL792 
 PHE793  MET794  SER795  GLU796  ALA797  LYS798  CYS799  TRP800  GLU811  SER814 

> <Gold.Protein.RotatedAtoms>
  152.5165  133.9273  159.7563 H   0  0  0  0  0  0  0  0  0  0  0  0  # atno 6907 bound_to 6896
  150.9631  133.6415  159.2758 H   0  0  0  0  0  0  0  0  0  0  0  0  # atno 6908 bound_to 6896
  151.3653  135.0917  159.9501 H   0  0  0  0  0  0  0  0  0  0  0  0  # atno 6909 bound_to 6896
  146.1526  139.6608  142.9088 H   0  0  0  0  0  0  0  0  0  0  0  0  # atno 7974 bound_to 7965
  156.2395  140.1899  156.7028 H   0  0  0  0  0  0  0  0  0  0  0  0  # atno 8008 bound_to 7997
  154.6169  140.0614  156.9593 H   0  0  0  0  0  0  0  0  0  0  0  0  # atno 8009 bound_to 7997
  155.1924  140.3285  155.4359 H   0  0  0  0  0  0  0  0  0  0  0  0  # atno 8010 bound_to 7997
  139.5567  144.6853  151.4162 H   0  0  0  0  0  0  0  0  0  0  0  0  # atno 10167 bound_to 10162
  157.5613  131.1089  150.8532 H   0  0  0  0  0  0  0  0  0  0  0  0  # atno 10718 bound_to 10713
  154.6228  135.2877  155.0306 H   0  0  0  0  0  0  0  0  0  0  0  0  # atno 10763 bound_to 10752
  154.1495  135.6506  153.4964 H   0  0  0  0  0  0  0  0  0  0  0  0  # atno 10764 bound_to 10752
  153.0244  135.5352  154.7025 H   0  0  0  0  0  0  0  0  0  0  0  0  # atno 10765 bound_to 10752
  141.0498  133.9706  157.2856 H   0  0  0  0  0  0  0  0  0  0  0  0  # atno 11005 bound_to 11000
  145.4785  141.0437  143.2659 LP  0  0  0  0  0  0  0  0  0  0  0  0  # atno 17320 bound_to 7965
  144.7923  139.6303  143.7108 LP  0  0  0  0  0  0  0  0  0  0  0  0  # atno 17321 bound_to 7965
  140.6841  143.8015  150.7161 LP  0  0  0  0  0  0  0  0  0  0  0  0  # atno 17342 bound_to 10162
  140.1477  143.4385  152.2152 LP  0  0  0  0  0  0  0  0  0  0  0  0  # atno 17343 bound_to 10162
  156.9029  130.5253  149.5282 LP  0  0  0  0  0  0  0  0  0  0  0  0  # atno 17370 bound_to 10713
  156.0666  130.5708  150.9300 LP  0  0  0  0  0  0  0  0  0  0  0  0  # atno 17371 bound_to 10713
  139.9341  135.0198  156.8497 LP  0  0  0  0  0  0  0  0  0  0  0  0  # atno 17394 bound_to 11000
  140.6078  134.0111  155.7564 LP  0  0  0  0  0  0  0  0  0  0  0  0  # atno 17395 bound_to 11000

$$$$
