AV-unprocessed.smi:1560|AV-procd|sdf|6281|dock6
  -GOLD-   22720 6483D 1   1.00000     0.00000
 Structure written by MMmdl.
 47 48  0  0  0  0  0  0  0  0  3 V2000
  140.8150  136.0074  153.5527 C   0  0  0  0  0  0  0  0  0  0  0  0
  141.6652  134.8155  153.0774 C   0  0  0  0  0  0  0  0  0  0  0  0
  143.1888  134.9010  153.4013 C   0  0  1  0  0  0  0  0  0  0  0  0
  143.7320  136.1869  152.7237 C   0  0  0  0  0  0  0  0  0  0  0  0
  143.3983  135.0204  154.9432 C   0  0  0  0  0  0  0  0  0  0  0  0
  144.6620  135.6545  155.3178 N   0  0  0  0  0  0  0  0  0  0  0  0
  145.0971  135.8490  156.5724 C   0  0  0  0  0  0  0  0  0  0  0  0
  144.4439  135.5399  157.5699 O   0  0  0  0  0  0  0  0  0  0  0  0
  146.4633  136.5315  156.7175 C   0  0  0  0  0  0  0  0  0  0  0  0
  146.9188  136.5908  158.1155 N   0  0  0  0  0  0  0  0  0  0  0  0
  148.0715  135.8635  158.4618 C   0  0  0  0  0  0  0  0  0  0  0  0
  148.5632  135.8667  159.7156 C   0  0  0  0  0  0  0  0  0  0  0  0
  147.8668  136.6506  160.7284 C   0  0  0  0  0  0  0  0  0  0  0  0
  148.2992  136.6616  161.8791 O   0  0  0  0  0  0  0  0  0  0  0  0
  146.7549  137.3424  160.3419 N   0  5  0  0  0  0  0  0  0  0  0  0
  146.2683  137.3327  159.0621 C   0  0  0  0  0  0  0  0  0  0  0  0
  145.2654  137.9679  158.7330 O   0  0  0  0  0  0  0  0  0  0  0  0
  143.8967  133.6828  152.8607 N   0  3  0  0  0  0  0  0  0  0  0  0
  143.8327  133.4853  151.3848 C   0  0  0  0  0  0  0  0  0  0  0  0
  144.4177  132.1156  150.9985 C   0  0  0  0  0  0  0  0  0  0  0  0
  145.7538  132.0094  151.4694 O   0  0  0  0  0  0  0  0  0  0  0  0
  145.8222  132.1086  152.8848 C   0  0  0  0  0  0  0  0  0  0  0  0
  145.2989  133.4843  153.3270 C   0  0  0  0  0  0  0  0  0  0  0  0
  139.7685  135.8558  153.2875 H   0  0  0  0  0  0  0  0  0  0  0  0
  141.1316  136.9437  153.0934 H   0  0  0  0  0  0  0  0  0  0  0  0
  140.8581  136.1306  154.6345 H   0  0  0  0  0  0  0  0  0  0  0  0
  141.2445  133.9179  153.5312 H   0  0  0  0  0  0  0  0  0  0  0  0
  141.5105  134.6744  152.0081 H   0  0  0  0  0  0  0  0  0  0  0  0
  143.0935  137.0483  152.9228 H   0  0  0  0  0  0  0  0  0  0  0  0
  143.7965  136.0790  151.6406 H   0  0  0  0  0  0  0  0  0  0  0  0
  144.7244  136.4537  153.0877 H   0  0  0  0  0  0  0  0  0  0  0  0
  142.5738  135.5576  155.4119 H   0  0  0  0  0  0  0  0  0  0  0  0
  143.4038  134.0323  155.4022 H   0  0  0  0  0  0  0  0  0  0  0  0
  145.2671  135.9445  154.5632 H   0  0  0  0  0  0  0  0  0  0  0  0
  147.2062  136.0202  156.1020 H   0  0  0  0  0  0  0  0  0  0  0  0
  146.3863  137.5354  156.2979 H   0  0  0  0  0  0  0  0  0  0  0  0
  148.5306  135.3151  157.6523 H   0  0  0  0  0  0  0  0  0  0  0  0
  149.4519  135.3057  159.9650 H   0  0  0  0  0  0  0  0  0  0  0  0
  142.8088  133.5183  151.0170 H   0  0  0  0  0  0  0  0  0  0  0  0
  144.3843  134.2752  150.8745 H   0  0  0  0  0  0  0  0  0  0  0  0
  143.8108  131.3047  151.4047 H   0  0  0  0  0  0  0  0  0  0  0  0
  144.4168  131.9999  149.9144 H   0  0  0  0  0  0  0  0  0  0  0  0
  145.2509  131.3041  153.3510 H   0  0  0  0  0  0  0  0  0  0  0  0
  146.8596  131.9841  153.1961 H   0  0  0  0  0  0  0  0  0  0  0  0
  145.9492  134.2573  152.9169 H   0  0  0  0  0  0  0  0  0  0  0  0
  145.3745  133.5427  154.4109 H   0  0  0  0  0  0  0  0  0  0  0  0
  143.3799  132.9057  153.2470 H   0  0  0  0  0  0  0  0  0  0  0  0
  1  2  1  0  0  0  0
  1 24  1  0  0  0  0
  1 25  1  0  0  0  0
  1 26  1  0  0  0  0
  2  3  1  0  0  0  0
  2 27  1  0  0  0  0
  2 28  1  0  0  0  0
  3  4  1  0  0  0  0
  3  5  1  0  0  0  0
  3 18  1  0  0  0  0
  4 29  1  0  0  0  0
  4 30  1  0  0  0  0
  4 31  1  0  0  0  0
  5  6  1  0  0  0  0
  5 32  1  0  0  0  0
  5 33  1  0  0  0  0
  6  7  1  0  0  0  0
  6 34  1  0  0  0  0
  7  8  2  0  0  0  0
  7  9  1  0  0  0  0
  9 10  1  0  0  0  0
  9 35  1  0  0  0  0
  9 36  1  0  0  0  0
 10 16  1  0  0  0  0
 10 11  1  0  0  0  0
 11 12  2  0  0  0  0
 11 37  1  0  0  0  0
 12 13  1  0  0  0  0
 12 38  1  0  0  0  0
 13 14  2  0  0  0  0
 13 15  1  0  0  0  0
 15 16  1  0  0  0  0
 16 17  2  0  0  0  0
 18 23  1  0  0  0  0
 18 19  1  0  0  0  0
 18 47  1  0  0  0  0
 19 20  1  0  0  0  0
 19 39  1  0  0  0  0
 19 40  1  0  0  0  0
 20 21  1  0  0  0  0
 20 41  1  0  0  0  0
 20 42  1  0  0  0  0
 21 22  1  0  0  0  0
 22 23  1  0  0  0  0
 22 43  1  0  0  0  0
 22 44  1  0  0  0  0
 23 45  1  0  0  0  0
 23 46  1  0  0  0  0
M  CHG  1  15  -1
M  CHG  1  18   1
M  END
> <s_m_source_file>
AV-unprocessed.smi

> <i_m_source_file_index>
1560

> <i_lp_mmshare_version>
43012

> <i_f3d_flags>
0

> <s_epik_input>
W0NIMl0xW0NIMl1PW0NIMl1bQ0gyXU4xW0NAQF0oW0NIM10pKFtDSDJdW0NIM10pW0NIMl1bTkhdQyg9TylbQ0gyXW4yW2NIXVtjSF1jKD1PKVtuSF1jMj1P

> <s_epik_cmdline>
J2VwaWtfcHl0aG9uJywgJy1waCcsICc3LjAnLCAnLXRuJywgJzgnLCAnLW1hJywgJzIwMCcsICctbWV0YWxfYmluZGluZycsICctaW1hZScsICc8aW5maWxlLm1hZT4nLCAnLW9tYWUnLCAnPG91dGZpbGUubWFlPic=

> <r_lp_tautomer_probability>
0.999537

> <r_epik_Ionization_Penalty>
3.51944

> <r_epik_Ionization_Penalty_Charging>
0.588852

> <r_epik_Ionization_Penalty_Neutral>
2.93059

> <r_epik_State_Penalty>
3.4987

> <r_epik_Charging_Adjusted_Penalty>
4.08755

> <i_epik_Tot_Q>
0

> <i_epik_Tot_abs_Q>
2

> <r_epik_Metal_State_Penalty>
1.01204

> <b_epik_Metal_Only>
1

> <s_lp_Force_Field>
OPLS_2005

> <r_lp_Energy>
37.4968

> <b_lp_Chiralities_Consistent>
1

> <s_lp_Variant>
AV-unprocessed.smi:1560-7

> <Gold.Version>
5.8.1

> <Gold.Id.Protein>
6NUR|6NUR_protein|mol2

> <Gold.PLP.Fitness>
40.4812

> <Gold.PLP.PLP>
-26.4072

> <Gold.PLP.part.hbond>
-3.0000

> <Gold.PLP.part.metal>
0.0000

> <Gold.PLP.part.buried>
-5.4645

> <Gold.PLP.part.nonpolar>
-19.2218

> <Gold.PLP.part.repulsive>
0.1144

> <Gold.PLP.ligand.clash>
0.0000

> <Gold.PLP.ligand.torsion>
0.5596

> <Gold.PLP.Chemscore.Hbond>
5.0000

> <Gold.PLP.Chemscore.CHOScore>
0.0000

> <Gold.PLP.Chemscore.Metal>
0.0000

> <Gold.Chemscore.Hbonds>
donor molecule, donor type, donor heavy atom, donor atom, acceptor molecule, acceptor atom, score
      L1  H    18    47       P1 10957  1.98
      P1  H  6931  6943       L1    14  1.00
      P1  H  6934  6947       L1    15  2.00

> <Gold.PLP.Chemscore.Internal.Correction>
0.1930

> <Gold.Rescore>
     Score         DG    S(hbond)    S(metal)    S(lipo)     H(rot)  DE(clash)    DE(int)     intcor
     11.78     -13.31       2.35        0.00      54.46       2.50       0.11       1.42       ----

> <Gold.Chemscore.Fitness>
11.7785

> <Gold.Chemscore.DG>
-13.3132

> <Gold.Chemscore.ZeroCoef>
-5.4800

> <Gold.Chemscore.Hbond>
2.3515

> <Gold.Chemscore.Metal>
0.0000

> <Gold.Chemscore.Lipo>
54.4621

> <Gold.Chemscore.Internal_Hbond>
0.0000

> <Gold.Chemscore.DEClash>
0.1144

> <Gold.Chemscore.DEInternal>
1.4202

> <Gold.Chemscore.Rot>
2.4973

> <Gold.Chemscore.Internal.Correction>
   9.000000E+99

> <Gold.Chemscore.Hbonds>
donor molecule, donor type, donor heavy atom, donor atom, acceptor molecule, acceptor atom, score
      L1  H    18    47       P1 10957  0.55
      P1  H  6931  6943       L1    14  0.30
      P1  H  6934  6947       L1    15  0.25

> <Gold.Chemscore.Hbond.Weighted>
-7.8542

> <Gold.Chemscore.Metal.Weighted>
-0.0000

> <Gold.Chemscore.Lipo.Weighted>
-6.3721

> <Gold.Chemscore.Internal_Hbond.Weighted>
0.0000

> <Gold.Chemscore.DEClash.Weighted>
0.1144

> <Gold.Chemscore.DEInternal.Weighted>
1.4202

> <Gold.Chemscore.Rot.Weighted>
6.3930

> <Gold.Chemscore.Internal.Correction.Weighted>
   9.000000E+99

> <Gold.Protein.RotatedTorsions>
[ 6907 6896 6895 6894 ] final  121.21 input  -60.11 | X-H torsion
[ 7974 7965 7964 7962 ] final  101.09 input  175.53 | X-H torsion
[ 8008 7997 7996 7995 ] final -115.06 input   59.86 | X-H torsion
[ 10167 10162 10161 10158 ] final   99.23 input  -65.29 | X-H torsion
[ 10718 10713 10712 10709 ] final   80.78 input   66.30 | X-H torsion
[ 10763 10752 10751 10750 ] final   13.71 input  -60.55 | X-H torsion
[ 11005 11000 10999 10996 ] final  114.43 input  -57.11 | X-H torsion

> <Gold.Protein.ActiveResidues>
 VAL166  LYS551  ARG553  GLY616  TRP617  ASP618  TYR619  PRO620  LYS621  CYS622 
 ASP623  PHE694  ASN695  SER759  ASP760  ASP761  ALA762  ILE779  LEU786  VAL792 
 PHE793  MET794  SER795  GLU796  ALA797  LYS798  CYS799  TRP800  GLU811  SER814 

> <Gold.Protein.RotatedAtoms>
  152.4339  133.7326  159.6595 H   0  0  0  0  0  0  0  0  0  0  0  0  # atno 6907 bound_to 6896
  150.8221  133.8224  159.3140 H   0  0  0  0  0  0  0  0  0  0  0  0  # atno 6908 bound_to 6896
  151.5903  135.1056  160.0089 H   0  0  0  0  0  0  0  0  0  0  0  0  # atno 6909 bound_to 6896
  145.3769  139.2387  143.3424 H   0  0  0  0  0  0  0  0  0  0  0  0  # atno 7974 bound_to 7965
  155.0461  140.0392  157.2527 H   0  0  0  0  0  0  0  0  0  0  0  0  # atno 8008 bound_to 7997
  154.7176  140.2705  155.6547 H   0  0  0  0  0  0  0  0  0  0  0  0  # atno 8009 bound_to 7997
  156.2807  140.2709  156.1837 H   0  0  0  0  0  0  0  0  0  0  0  0  # atno 8010 bound_to 7997
  139.7637  144.6946  151.0256 H   0  0  0  0  0  0  0  0  0  0  0  0  # atno 10167 bound_to 10162
  157.6815  130.9975  150.2130 H   0  0  0  0  0  0  0  0  0  0  0  0  # atno 10718 bound_to 10713
  153.1694  135.6810  153.8629 H   0  0  0  0  0  0  0  0  0  0  0  0  # atno 10763 bound_to 10752
  153.7998  135.3157  155.3390 H   0  0  0  0  0  0  0  0  0  0  0  0  # atno 10764 bound_to 10752
  154.7988  135.4791  154.0316 H   0  0  0  0  0  0  0  0  0  0  0  0  # atno 10765 bound_to 10752
  139.8980  134.9567  156.6890 H   0  0  0  0  0  0  0  0  0  0  0  0  # atno 11005 bound_to 11000
  146.2860  140.4430  142.8758 LP  0  0  0  0  0  0  0  0  0  0  0  0  # atno 17320 bound_to 7965
  144.8535  140.7036  143.6153 LP  0  0  0  0  0  0  0  0  0  0  0  0  # atno 17321 bound_to 7965
  140.7809  143.4668  151.0201 LP  0  0  0  0  0  0  0  0  0  0  0  0  # atno 17342 bound_to 10162
  139.8353  143.7636  152.3180 LP  0  0  0  0  0  0  0  0  0  0  0  0  # atno 17343 bound_to 10162
  156.2797  130.3732  149.7948 LP  0  0  0  0  0  0  0  0  0  0  0  0  # atno 17370 bound_to 10713
  156.5640  130.8396  151.3337 LP  0  0  0  0  0  0  0  0  0  0  0  0  # atno 17371 bound_to 10713
  140.7240  133.9116  155.8166 LP  0  0  0  0  0  0  0  0  0  0  0  0  # atno 17394 bound_to 11000
  141.0205  134.0895  157.4125 LP  0  0  0  0  0  0  0  0  0  0  0  0  # atno 17395 bound_to 11000

$$$$
