AV-unprocessed.smi:2228|AV-procd|sdf|9024|dock3
  -GOLD-   2272012223D 1   1.00000     0.00000
 Structure written by MMmdl.
 40 41  0  0  0  0  0  0  0  0  1 V2000
  148.3904  138.2694  156.7179 C   0  0  0  0  0  0  0  0  0  0  0  0
  148.5804  139.5391  156.1151 O   0  0  0  0  0  0  0  0  0  0  0  0
  148.8883  139.4752  154.7249 C   0  0  1  0  0  0  0  0  0  0  0  0
  147.7026  138.8517  153.9805 C   0  0  0  0  0  0  0  0  0  0  0  0
  146.7254  140.0099  153.8003 C   0  0  0  0  0  0  0  0  0  0  0  0
  147.6117  141.2315  153.5434 C   0  0  0  0  0  0  0  0  0  0  0  0
  148.9953  140.9020  154.1381 C   0  0  1  0  0  0  0  0  0  0  0  0
  149.3995  141.9009  155.1255 N   0  0  0  0  0  0  0  0  0  0  0  0
  150.3155  141.7013  156.0839 C   0  0  0  0  0  0  0  0  0  0  0  0
  150.9321  140.6441  156.2220 O   0  0  0  0  0  0  0  0  0  0  0  0
  150.4580  142.7934  156.8548 N   0  0  0  0  0  0  0  0  0  0  0  0
  151.3005  142.9660  157.9847 C   0  0  0  0  0  0  0  0  0  0  0  0
  151.2852  144.2607  158.5500 C   0  0  0  0  0  0  0  0  0  0  0  0
  152.0845  144.5361  159.6777 C   0  0  0  0  0  0  0  0  0  0  0  0
  152.0805  145.9164  160.3000 C   0  0  0  0  0  0  0  0  0  0  0  0
  152.8795  143.5037  160.2114 C   0  0  0  0  0  0  0  0  0  0  0  0
  152.8357  142.2412  159.5883 C   0  0  0  0  0  0  0  0  0  0  0  0
  153.6590  141.0842  160.1138 C   0  0  0  0  0  0  0  0  0  0  0  0
  152.0698  141.9792  158.5077 N   0  0  0  0  0  0  0  0  0  0  0  0
  148.1479  138.4006  157.7723 H   0  0  0  0  0  0  0  0  0  0  0  0
  149.2983  137.6681  156.6568 H   0  0  0  0  0  0  0  0  0  0  0  0
  147.5741  137.7169  156.2525 H   0  0  0  0  0  0  0  0  0  0  0  0
  149.8166  138.9250  154.5600 H   0  0  0  0  0  0  0  0  0  0  0  0
  148.0314  138.5007  153.0016 H   0  0  0  0  0  0  0  0  0  0  0  0
  147.2558  138.0038  154.4992 H   0  0  0  0  0  0  0  0  0  0  0  0
  146.0108  139.8343  152.9962 H   0  0  0  0  0  0  0  0  0  0  0  0
  146.1593  140.1551  154.7214 H   0  0  0  0  0  0  0  0  0  0  0  0
  147.7076  141.4000  152.4702 H   0  0  0  0  0  0  0  0  0  0  0  0
  147.1678  142.1322  153.9693 H   0  0  0  0  0  0  0  0  0  0  0  0
  149.7188  140.8970  153.3205 H   0  0  0  0  0  0  0  0  0  0  0  0
  148.9348  142.7959  155.0850 H   0  0  0  0  0  0  0  0  0  0  0  0
  149.8906  143.5914  156.6110 H   0  0  0  0  0  0  0  0  0  0  0  0
  150.6668  145.0381  158.1246 H   0  0  0  0  0  0  0  0  0  0  0  0
  152.7997  145.9858  161.1166 H   0  0  0  0  0  0  0  0  0  0  0  0
  151.0913  146.1482  160.6947 H   0  0  0  0  0  0  0  0  0  0  0  0
  152.3384  146.6688  159.5544 H   0  0  0  0  0  0  0  0  0  0  0  0
  153.5041  143.6739  161.0762 H   0  0  0  0  0  0  0  0  0  0  0  0
  154.3579  141.4140  160.8829 H   0  0  0  0  0  0  0  0  0  0  0  0
  154.2327  140.6259  159.3077 H   0  0  0  0  0  0  0  0  0  0  0  0
  153.0073  140.3249  160.5472 H   0  0  0  0  0  0  0  0  0  0  0  0
  1  2  1  0  0  0  0
  1 20  1  0  0  0  0
  1 21  1  0  0  0  0
  1 22  1  0  0  0  0
  2  3  1  0  0  0  0
  3  7  1  0  0  0  0
  3  4  1  0  0  0  0
  3 23  1  0  0  0  0
  4  5  1  0  0  0  0
  4 24  1  0  0  0  0
  4 25  1  0  0  0  0
  5  6  1  0  0  0  0
  5 26  1  0  0  0  0
  5 27  1  0  0  0  0
  6  7  1  0  0  0  0
  6 28  1  0  0  0  0
  6 29  1  0  0  0  0
  7  8  1  0  0  0  0
  7 30  1  0  0  0  0
  8  9  1  0  0  0  0
  8 31  1  0  0  0  0
  9 10  2  0  0  0  0
  9 11  1  0  0  0  0
 11 12  1  0  0  0  0
 11 32  1  0  0  0  0
 12 19  1  0  0  0  0
 12 13  2  0  0  0  0
 13 14  1  0  0  0  0
 13 33  1  0  0  0  0
 14 15  1  0  0  0  0
 14 16  2  0  0  0  0
 15 34  1  0  0  0  0
 15 35  1  0  0  0  0
 15 36  1  0  0  0  0
 16 17  1  0  0  0  0
 16 37  1  0  0  0  0
 17 18  1  0  0  0  0
 17 19  2  0  0  0  0
 18 38  1  0  0  0  0
 18 39  1  0  0  0  0
 18 40  1  0  0  0  0
M  END
> <s_m_source_file>
AV-unprocessed.smi

> <i_m_source_file_index>
2228

> <i_lp_mmshare_version>
43012

> <i_f3d_flags>
0

> <s_epik_input>
W0NIM11PW0NAQEhdMVtDSDJdW0NIMl1bQ0gyXVtDQEhdMVtOSF1DKD1PKVtOSF1jMltjSF1jKFtDSDNdKVtjSF1jKG4yKVtDSDNd

> <s_epik_cmdline>
J2VwaWtfcHl0aG9uJywgJy1waCcsICc3LjAnLCAnLXRuJywgJzgnLCAnLW1hJywgJzIwMCcsICctbWV0YWxfYmluZGluZycsICctaW1hZScsICc8aW5maWxlLm1hZT4nLCAnLW9tYWUnLCAnPG91dGZpbGUubWFlPic=

> <r_lp_tautomer_probability>
1

> <r_epik_Ionization_Penalty>
0.000275391

> <r_epik_Ionization_Penalty_Charging>
0

> <r_epik_Ionization_Penalty_Neutral>
0.000275391

> <r_epik_State_Penalty>
-0

> <r_epik_Charging_Adjusted_Penalty>
0

> <i_epik_Tot_Q>
0

> <i_epik_Tot_abs_Q>
0

> <r_epik_Metal_State_Penalty>
-0

> <b_epik_Metal_Only>
0

> <s_lp_Force_Field>
OPLS_2005

> <r_lp_Energy>
22.5757

> <b_lp_Chiralities_Consistent>
1

> <s_lp_Variant>
AV-unprocessed.smi:2228-2

> <Gold.Version>
5.8.1

> <Gold.Id.Protein>
6NUR|6NUR_protein|mol2

> <Gold.PLP.Fitness>
45.3644

> <Gold.PLP.PLP>
-39.9846

> <Gold.PLP.part.hbond>
-2.0000

> <Gold.PLP.part.metal>
0.0000

> <Gold.PLP.part.buried>
-5.2300

> <Gold.PLP.part.nonpolar>
-33.8438

> <Gold.PLP.part.repulsive>
0.2569

> <Gold.PLP.ligand.clash>
0.0000

> <Gold.PLP.ligand.torsion>
0.3041

> <Gold.PLP.Chemscore.Hbond>
1.9920

> <Gold.PLP.Chemscore.CHOScore>
0.0000

> <Gold.PLP.Chemscore.Metal>
0.0000

> <Gold.Chemscore.Hbonds>
donor molecule, donor type, donor heavy atom, donor atom, acceptor molecule, acceptor atom, score
      L1  H     8    31       P1  8028  0.98
      L1  H    11    32       P1  8028  1.00

> <Gold.PLP.Chemscore.Internal.Correction>
0.0120

> <Gold.Rescore>
     Score         DG    S(hbond)    S(metal)    S(lipo)     H(rot)  DE(clash)    DE(int)     intcor
     14.17     -20.38       1.96        0.00      97.91       1.21       0.54       5.67       ----

> <Gold.Chemscore.Fitness>
14.1692

> <Gold.Chemscore.DG>
-20.3787

> <Gold.Chemscore.ZeroCoef>
-5.4800

> <Gold.Chemscore.Hbond>
1.9600

> <Gold.Chemscore.Metal>
0.0000

> <Gold.Chemscore.Lipo>
97.9057

> <Gold.Chemscore.Internal_Hbond>
0.0000

> <Gold.Chemscore.DEClash>
0.5391

> <Gold.Chemscore.DEInternal>
5.6703

> <Gold.Chemscore.Rot>
1.2119

> <Gold.Chemscore.Internal.Correction>
   9.000000E+99

> <Gold.Chemscore.Hbonds>
donor molecule, donor type, donor heavy atom, donor atom, acceptor molecule, acceptor atom, score
      L1  H     8    31       P1  8028  0.90
      L1  H    11    32       P1  8028  1.00

> <Gold.Chemscore.Hbond.Weighted>
-6.5463

> <Gold.Chemscore.Metal.Weighted>
-0.0000

> <Gold.Chemscore.Lipo.Weighted>
-11.4550

> <Gold.Chemscore.Internal_Hbond.Weighted>
0.0000

> <Gold.Chemscore.DEClash.Weighted>
0.5391

> <Gold.Chemscore.DEInternal.Weighted>
5.6703

> <Gold.Chemscore.Rot.Weighted>
3.1026

> <Gold.Chemscore.Internal.Correction.Weighted>
   9.000000E+99

> <Gold.Protein.RotatedTorsions>
[ 6907 6896 6895 6894 ] final -122.09 input  -60.11 | X-H torsion
[ 7974 7965 7964 7962 ] final -108.52 input  175.53 | X-H torsion
[ 8008 7997 7996 7995 ] final  174.89 input   59.86 | X-H torsion
[ 10167 10162 10161 10158 ] final  -77.39 input  -65.29 | X-H torsion
[ 10718 10713 10712 10709 ] final  114.43 input   66.30 | X-H torsion
[ 10763 10752 10751 10750 ] final  166.75 input  -60.55 | X-H torsion
[ 11005 11000 10999 10996 ] final -109.45 input  -57.11 | X-H torsion

> <Gold.Protein.ActiveResidues>
 VAL166  LYS551  ARG553  GLY616  TRP617  ASP618  TYR619  PRO620  LYS621  CYS622 
 ASP623  PHE694  ASN695  SER759  ASP760  ASP761  ALA762  ILE779  LEU786  VAL792 
 PHE793  MET794  SER795  GLU796  ALA797  LYS798  CYS799  TRP800  GLU811  SER814 

> <Gold.Protein.RotatedAtoms>
  150.8544  133.7738  159.3013 H   0  0  0  0  0  0  0  0  0  0  0  0  # atno 6907 bound_to 6896
  151.5400  135.1067  159.9933 H   0  0  0  0  0  0  0  0  0  0  0  0  # atno 6908 bound_to 6896
  152.4578  133.7715  159.6857 H   0  0  0  0  0  0  0  0  0  0  0  0  # atno 6909 bound_to 6896
  145.1919  140.9018  143.3419 H   0  0  0  0  0  0  0  0  0  0  0  0  # atno 7974 bound_to 7965
  156.0927  140.1423  156.9570 H   0  0  0  0  0  0  0  0  0  0  0  0  # atno 8008 bound_to 7997
  154.4652  140.0929  156.7048 H   0  0  0  0  0  0  0  0  0  0  0  0  # atno 8009 bound_to 7997
  155.4892  140.3447  155.4354 H   0  0  0  0  0  0  0  0  0  0  0  0  # atno 8010 bound_to 7997
  140.4774  143.2411  151.8112 H   0  0  0  0  0  0  0  0  0  0  0  0  # atno 10167 bound_to 10162
  157.6281  131.0998  150.7185 H   0  0  0  0  0  0  0  0  0  0  0  0  # atno 10718 bound_to 10713
  154.3436  135.2754  155.2410 H   0  0  0  0  0  0  0  0  0  0  0  0  # atno 10763 bound_to 10752
  154.4669  135.5893  153.6298 H   0  0  0  0  0  0  0  0  0  0  0  0  # atno 10764 bound_to 10752
  152.9855  135.6079  154.3639 H   0  0  0  0  0  0  0  0  0  0  0  0  # atno 10765 bound_to 10752
  141.0847  133.9159  157.2212 H   0  0  0  0  0  0  0  0  0  0  0  0  # atno 11005 bound_to 11000
  145.0033  139.3578  143.6157 LP  0  0  0  0  0  0  0  0  0  0  0  0  # atno 17320 bound_to 7965
  146.3434  139.9265  142.8759 LP  0  0  0  0  0  0  0  0  0  0  0  0  # atno 17321 bound_to 7965
  139.4828  144.4816  151.9299 LP  0  0  0  0  0  0  0  0  0  0  0  0  # atno 17342 bound_to 10162
  140.3901  144.2626  150.5900 LP  0  0  0  0  0  0  0  0  0  0  0  0  # atno 17343 bound_to 10162
  156.7529  130.4774  149.5453 LP  0  0  0  0  0  0  0  0  0  0  0  0  # atno 17370 bound_to 10713
  156.1467  130.6282  151.0540 LP  0  0  0  0  0  0  0  0  0  0  0  0  # atno 17371 bound_to 10713
  139.9664  135.0141  156.9398 LP  0  0  0  0  0  0  0  0  0  0  0  0  # atno 17394 bound_to 11000
  140.5390  134.0739  155.7336 LP  0  0  0  0  0  0  0  0  0  0  0  0  # atno 17395 bound_to 11000

$$$$
