AV-unprocessed.smi:717|AV-procd|sdf|3490|dock6
  -GOLD-   22720 0483D 1   1.00000     0.00000
 Structure written by MMmdl.
 43 44  0  0  0  0  0  0  0  0  1 V2000
  154.3277  140.0652  159.1069 O   0  0  0  0  0  0  0  0  0  0  0  0
  153.9987  140.2181  160.2836 C   0  0  0  0  0  0  0  0  0  0  0  0
  153.7302  141.6214  160.8329 C   0  0  0  0  0  0  0  0  0  0  0  0
  152.6873  142.3392  159.9946 C   0  0  0  0  0  0  0  0  0  0  0  0
  152.0825  141.7034  158.8902 C   0  0  0  0  0  0  0  0  0  0  0  0
  151.1238  142.4119  158.1411 C   0  0  0  0  0  0  0  0  0  0  0  0
  150.8096  143.7296  158.5292 C   0  0  0  0  0  0  0  0  0  0  0  0
  151.3809  144.3483  159.5850 N   0  0  0  0  0  0  0  0  0  0  0  0
  152.2997  143.6620  160.2980 C   0  0  0  0  0  0  0  0  0  0  0  0
  153.8510  139.2006  161.1458 N   0  0  0  0  0  0  0  0  0  0  0  0
  154.0554  137.7922  160.8266 C   0  0  0  0  0  0  0  0  0  0  0  0
  153.6902  136.8811  162.0105 C   0  0  0  0  0  0  0  0  0  0  0  0
  154.8898  136.5959  162.9248 C   0  0  0  0  0  0  0  0  0  0  0  0
  154.5845  135.5177  163.9766 C   0  0  0  0  0  0  0  0  0  0  0  0
  154.2673  134.1423  163.3635 C   0  0  0  0  0  0  0  0  0  0  0  0
  153.8835  133.0867  164.4019 C   0  0  0  0  0  0  0  0  0  0  0  0
  154.0450  131.7550  163.6670 C   0  0  0  0  0  0  0  0  0  0  0  0
  155.1542  131.9816  162.6294 C   0  0  0  0  0  0  0  0  0  0  0  0
  155.4382  133.4906  162.6173 C   0  0  0  0  0  0  0  0  0  0  0  0
  153.3868  141.5401  161.8648 H   0  0  0  0  0  0  0  0  0  0  0  0
  154.6484  142.2112  160.8504 H   0  0  0  0  0  0  0  0  0  0  0  0
  152.3498  140.6924  158.6192 H   0  0  0  0  0  0  0  0  0  0  0  0
  150.6420  141.9570  157.2883 H   0  0  0  0  0  0  0  0  0  0  0  0
  150.0795  144.3018  157.9762 H   0  0  0  0  0  0  0  0  0  0  0  0
  152.7403  144.1851  161.1341 H   0  0  0  0  0  0  0  0  0  0  0  0
  153.5788  139.4177  162.0938 H   0  0  0  0  0  0  0  0  0  0  0  0
  153.4757  137.5224  159.9423 H   0  0  0  0  0  0  0  0  0  0  0  0
  155.1046  137.6563  160.5631 H   0  0  0  0  0  0  0  0  0  0  0  0
  152.8915  137.3424  162.5928 H   0  0  0  0  0  0  0  0  0  0  0  0
  153.2934  135.9366  161.6362 H   0  0  0  0  0  0  0  0  0  0  0  0
  155.7387  136.2779  162.3181 H   0  0  0  0  0  0  0  0  0  0  0  0
  155.1926  137.5186  163.4206 H   0  0  0  0  0  0  0  0  0  0  0  0
  155.4226  135.4310  164.6694 H   0  0  0  0  0  0  0  0  0  0  0  0
  153.7301  135.8403  164.5730 H   0  0  0  0  0  0  0  0  0  0  0  0
  153.4313  134.2464  162.6698 H   0  0  0  0  0  0  0  0  0  0  0  0
  154.5735  133.1241  165.2461 H   0  0  0  0  0  0  0  0  0  0  0  0
  152.8745  133.2281  164.7908 H   0  0  0  0  0  0  0  0  0  0  0  0
  154.2742  130.9356  164.3490 H   0  0  0  0  0  0  0  0  0  0  0  0
  153.1144  131.5051  163.1559 H   0  0  0  0  0  0  0  0  0  0  0  0
  156.0561  131.4245  162.8855 H   0  0  0  0  0  0  0  0  0  0  0  0
  154.8278  131.6380  161.6472 H   0  0  0  0  0  0  0  0  0  0  0  0
  155.5510  133.8797  161.6049 H   0  0  0  0  0  0  0  0  0  0  0  0
  156.3719  133.6844  163.1473 H   0  0  0  0  0  0  0  0  0  0  0  0
  1  2  2  0  0  0  0
  2  3  1  0  0  0  0
  2 10  1  0  0  0  0
  3  4  1  0  0  0  0
  3 20  1  0  0  0  0
  3 21  1  0  0  0  0
  4  9  1  0  0  0  0
  4  5  2  0  0  0  0
  5  6  1  0  0  0  0
  5 22  1  0  0  0  0
  6  7  2  0  0  0  0
  6 23  1  0  0  0  0
  7  8  1  0  0  0  0
  7 24  1  0  0  0  0
  8  9  2  0  0  0  0
  9 25  1  0  0  0  0
 10 11  1  0  0  0  0
 10 26  1  0  0  0  0
 11 12  1  0  0  0  0
 11 27  1  0  0  0  0
 11 28  1  0  0  0  0
 12 13  1  0  0  0  0
 12 29  1  0  0  0  0
 12 30  1  0  0  0  0
 13 14  1  0  0  0  0
 13 31  1  0  0  0  0
 13 32  1  0  0  0  0
 14 15  1  0  0  0  0
 14 33  1  0  0  0  0
 14 34  1  0  0  0  0
 15 19  1  0  0  0  0
 15 16  1  0  0  0  0
 15 35  1  0  0  0  0
 16 17  1  0  0  0  0
 16 36  1  0  0  0  0
 16 37  1  0  0  0  0
 17 18  1  0  0  0  0
 17 38  1  0  0  0  0
 17 39  1  0  0  0  0
 18 19  1  0  0  0  0
 18 40  1  0  0  0  0
 18 41  1  0  0  0  0
 19 42  1  0  0  0  0
 19 43  1  0  0  0  0
M  END
> <s_m_source_file>
AV-unprocessed.smi

> <i_m_source_file_index>
717

> <i_lp_mmshare_version>
43012

> <i_f3d_flags>
0

> <s_epik_input>
W2NIXTFuW2NIXVtjSF1bY0hdYzFbQ0gyXUMoPU8pW05IXVtDSDJdW0NIMl1bQ0gyXVtDSDJdW0NIXTJbQ0gyXVtDSDJdW0NIMl1bQ0gyXTI=

> <s_epik_cmdline>
J2VwaWtfcHl0aG9uJywgJy1waCcsICc3LjAnLCAnLXRuJywgJzgnLCAnLW1hJywgJzIwMCcsICctbWV0YWxfYmluZGluZycsICctaW1hZScsICc8aW5maWxlLm1hZT4nLCAnLW9tYWUnLCAnPG91dGZpbGUubWFlPic=

> <r_epik_Ionization_Penalty>
0.00412097

> <r_epik_Ionization_Penalty_Charging>
0

> <r_epik_Ionization_Penalty_Neutral>
0.00412097

> <r_epik_State_Penalty>
0.00295657

> <r_epik_Charging_Adjusted_Penalty>
0.00295657

> <i_epik_Tot_Q>
0

> <i_epik_Tot_abs_Q>
0

> <r_epik_Metal_State_Penalty>
-0

> <b_epik_Metal_Only>
0

> <s_lp_Force_Field>
OPLS_2005

> <r_lp_Energy>
20.3192

> <b_lp_Chiralities_Consistent>
1

> <s_lp_Variant>
AV-unprocessed.smi:717-1

> <Gold.Version>
5.8.1

> <Gold.Id.Protein>
6NUR|6NUR_protein|mol2

> <Gold.PLP.Fitness>
47.9423

> <Gold.PLP.PLP>
-42.0606

> <Gold.PLP.part.hbond>
-1.0000

> <Gold.PLP.part.metal>
0.0000

> <Gold.PLP.part.buried>
-3.4736

> <Gold.PLP.part.nonpolar>
-36.9466

> <Gold.PLP.part.repulsive>
0.0825

> <Gold.PLP.ligand.clash>
0.0000

> <Gold.PLP.ligand.torsion>
0.2693

> <Gold.PLP.Chemscore.Hbond>
1.0000

> <Gold.PLP.Chemscore.CHOScore>
1.1055

> <Gold.PLP.Chemscore.Metal>
0.0000

> <Gold.Chemscore.Hbonds>
donor molecule, donor type, donor heavy atom, donor atom, acceptor molecule, acceptor atom, score
      P1  H  7997  8010       L1     1  0.99
      L1  C     7    24       P1  8028  0.75
      L1  C     7    24       P1  8029  0.14

> <Gold.PLP.Chemscore.Internal.Correction>
0.1037

> <Gold.Rescore>
     Score         DG    S(hbond)    S(metal)    S(lipo)     H(rot)  DE(clash)    DE(int)     intcor
     18.92     -20.55       0.99        0.00     136.90       1.67       0.17       1.46       ----

> <Gold.Chemscore.Fitness>
18.9163

> <Gold.Chemscore.DG>
-20.5453

> <Gold.Chemscore.ZeroCoef>
-5.4800

> <Gold.Chemscore.Hbond>
0.9930

> <Gold.Chemscore.Metal>
0.0000

> <Gold.Chemscore.Lipo>
136.9028

> <Gold.Chemscore.Internal_Hbond>
0.0000

> <Gold.Chemscore.DEClash>
0.1661

> <Gold.Chemscore.DEInternal>
1.4630

> <Gold.Chemscore.Rot>
1.6676

> <Gold.Chemscore.Internal.Correction>
   9.000000E+99

> <Gold.Chemscore.Hbonds>
donor molecule, donor type, donor heavy atom, donor atom, acceptor molecule, acceptor atom, score
      P1  H  7997  8010       L1     1  0.93

> <Gold.Chemscore.Hbond.Weighted>
-3.3167

> <Gold.Chemscore.Metal.Weighted>
-0.0000

> <Gold.Chemscore.Lipo.Weighted>
-16.0176

> <Gold.Chemscore.Internal_Hbond.Weighted>
0.0000

> <Gold.Chemscore.DEClash.Weighted>
0.1661

> <Gold.Chemscore.DEInternal.Weighted>
1.4630

> <Gold.Chemscore.Rot.Weighted>
4.2690

> <Gold.Chemscore.Internal.Correction.Weighted>
   9.000000E+99

> <Gold.Protein.RotatedTorsions>
[ 6907 6896 6895 6894 ] final -179.27 input  -60.11 | X-H torsion
[ 7974 7965 7964 7962 ] final  -58.26 input  175.53 | X-H torsion
[ 8008 7997 7996 7995 ] final    1.43 input   59.86 | X-H torsion
[ 10167 10162 10161 10158 ] final  178.78 input  -65.29 | X-H torsion
[ 10718 10713 10712 10709 ] final  -67.19 input   66.30 | X-H torsion
[ 10763 10752 10751 10750 ] final  -50.70 input  -60.55 | X-H torsion
[ 11005 11000 10999 10996 ] final -113.18 input  -57.11 | X-H torsion

> <Gold.Protein.ActiveResidues>
 VAL166  LYS551  ARG553  GLY616  TRP617  ASP618  TYR619  PRO620  LYS621  CYS622 
 ASP623  PHE694  ASN695  SER759  ASP760  ASP761  ALA762  ILE779  LEU786  VAL792 
 PHE793  MET794  SER795  GLU796  ALA797  LYS798  CYS799  TRP800  GLU811  SER814 

> <Gold.Protein.RotatedAtoms>
  151.6508  133.3321  159.3151 H   0  0  0  0  0  0  0  0  0  0  0  0  # atno 6907 bound_to 6896
  150.7961  134.7026  159.6568 H   0  0  0  0  0  0  0  0  0  0  0  0  # atno 6908 bound_to 6896
  152.4048  134.6229  160.0107 H   0  0  0  0  0  0  0  0  0  0  0  0  # atno 6909 bound_to 6896
  145.8414  140.8415  143.0033 H   0  0  0  0  0  0  0  0  0  0  0  0  # atno 7974 bound_to 7965
  154.6797  140.2630  155.6921 H   0  0  0  0  0  0  0  0  0  0  0  0  # atno 8008 bound_to 7997
  156.2692  140.2813  156.1259 H   0  0  0  0  0  0  0  0  0  0  0  0  # atno 8009 bound_to 7997
  155.1050  140.0375  157.2698 H   0  0  0  0  0  0  0  0  0  0  0  0  # atno 8010 bound_to 7997
  139.5308  144.2639  152.0684 H   0  0  0  0  0  0  0  0  0  0  0  0  # atno 10167 bound_to 10162
  156.0571  130.4274  150.1819 H   0  0  0  0  0  0  0  0  0  0  0  0  # atno 10718 bound_to 10713
  154.1146  135.6544  153.4891 H   0  0  0  0  0  0  0  0  0  0  0  0  # atno 10763 bound_to 10752
  153.0245  135.5255  154.7158 H   0  0  0  0  0  0  0  0  0  0  0  0  # atno 10764 bound_to 10752
  154.6348  135.2980  155.0144 H   0  0  0  0  0  0  0  0  0  0  0  0  # atno 10765 bound_to 10752
  141.0630  133.9504  157.2631 H   0  0  0  0  0  0  0  0  0  0  0  0  # atno 11005 bound_to 11000
  144.6733  140.0817  143.7469 LP  0  0  0  0  0  0  0  0  0  0  0  0  # atno 17320 bound_to 7965
  145.9461  139.2702  143.1240 LP  0  0  0  0  0  0  0  0  0  0  0  0  # atno 17321 bound_to 7965
  140.2102  144.4570  150.6389 LP  0  0  0  0  0  0  0  0  0  0  0  0  # atno 17342 bound_to 10162
  140.6485  143.2219  151.6131 LP  0  0  0  0  0  0  0  0  0  0  0  0  # atno 17343 bound_to 10162
  156.9893  130.9888  151.3418 LP  0  0  0  0  0  0  0  0  0  0  0  0  # atno 17370 bound_to 10713
  157.5549  130.8207  149.8192 LP  0  0  0  0  0  0  0  0  0  0  0  0  # atno 17371 bound_to 10713
  139.9450  135.0185  156.8824 LP  0  0  0  0  0  0  0  0  0  0  0  0  # atno 17394 bound_to 11000
  140.5830  134.0334  155.7471 LP  0  0  0  0  0  0  0  0  0  0  0  0  # atno 17395 bound_to 11000

$$$$
