AV-unprocessed.smi:470|AV-procd|sdf|2655|dock1
  -GOLD-   2262023 63D 1   1.00000     0.00000
 Structure written by MMmdl.
 33 34  0  0  0  0  0  0  0  0  1 V2000
  148.9212  135.6221  154.5041 N   0  0  0  0  0  0  0  0  0  0  0  0
  149.9811  135.7852  155.3008 C   0  0  0  0  0  0  0  0  0  0  0  0
  150.0620  135.2520  156.4053 O   0  0  0  0  0  0  0  0  0  0  0  0
  151.1117  136.6776  154.7856 C   0  0  0  0  0  0  0  0  0  0  0  0
  150.6970  138.1192  154.8287 C   0  0  0  0  0  0  0  0  0  0  0  0
  149.7842  138.7421  154.0123 C   0  0  0  0  0  0  0  0  0  0  0  0
  149.5899  140.4274  154.4147 S   0  0  0  0  0  0  0  0  0  0  0  0
  150.7995  140.2281  155.6728 C   0  0  0  0  0  0  0  0  0  0  0  0
  151.1613  141.2911  156.5419 N   0  0  0  0  0  0  0  0  0  0  0  0
  152.0612  141.3349  157.5459 C   0  0  0  0  0  0  0  0  0  0  0  0
  152.7066  140.3257  157.8252 O   0  0  0  0  0  0  0  0  0  0  0  0
  152.2912  142.6195  158.3694 C   0  0  1  0  0  0  0  0  0  0  0  0
  151.3955  143.7881  157.8898 C   0  0  0  0  0  0  0  0  0  0  0  0
  151.4627  144.9777  158.8315 C   0  0  0  0  0  0  0  0  0  0  0  0
  151.9345  144.8981  160.0878 C   0  0  0  0  0  0  0  0  0  0  0  0
  152.4477  143.6097  160.7068 C   0  0  0  0  0  0  0  0  0  0  0  0
  152.0638  142.3717  159.8749 C   0  0  0  0  0  0  0  0  0  0  0  0
  151.2606  138.9779  155.7775 N   0  0  0  0  0  0  0  0  0  0  0  0
  148.1561  135.0345  154.8020 H   0  0  0  0  0  0  0  0  0  0  0  0
  148.8919  136.0795  153.6043 H   0  0  0  0  0  0  0  0  0  0  0  0
  152.0083  136.5117  155.3849 H   0  0  0  0  0  0  0  0  0  0  0  0
  151.3654  136.3826  153.7669 H   0  0  0  0  0  0  0  0  0  0  0  0
  149.2087  138.3088  153.2077 H   0  0  0  0  0  0  0  0  0  0  0  0
  150.6456  142.1468  156.3961 H   0  0  0  0  0  0  0  0  0  0  0  0
  153.3145  142.9596  158.2178 H   0  0  0  0  0  0  0  0  0  0  0  0
  151.7094  144.1114  156.8968 H   0  0  0  0  0  0  0  0  0  0  0  0
  150.3490  143.4909  157.8120 H   0  0  0  0  0  0  0  0  0  0  0  0
  151.0946  145.9204  158.4538 H   0  0  0  0  0  0  0  0  0  0  0  0
  151.9687  145.7834  160.7057 H   0  0  0  0  0  0  0  0  0  0  0  0
  153.5325  143.6837  160.7904 H   0  0  0  0  0  0  0  0  0  0  0  0
  152.0556  143.5139  161.7195 H   0  0  0  0  0  0  0  0  0  0  0  0
  151.0124  142.1353  160.0465 H   0  0  0  0  0  0  0  0  0  0  0  0
  152.6291  141.5072  160.2246 H   0  0  0  0  0  0  0  0  0  0  0  0
  1  2  1  0  0  0  0
  1 19  1  0  0  0  0
  1 20  1  0  0  0  0
  2  3  2  0  0  0  0
  2  4  1  0  0  0  0
  4  5  1  0  0  0  0
  4 21  1  0  0  0  0
  4 22  1  0  0  0  0
  5 18  1  0  0  0  0
  5  6  2  0  0  0  0
  6  7  1  0  0  0  0
  6 23  1  0  0  0  0
  7  8  1  0  0  0  0
  8  9  1  0  0  0  0
  8 18  2  0  0  0  0
  9 10  1  0  0  0  0
  9 24  1  0  0  0  0
 10 11  2  0  0  0  0
 10 12  1  0  0  0  0
 12 17  1  0  0  0  0
 12 13  1  0  0  0  0
 12 25  1  0  0  0  0
 13 14  1  0  0  0  0
 13 26  1  0  0  0  0
 13 27  1  0  0  0  0
 14 15  2  0  0  0  0
 14 28  1  0  0  0  0
 15 16  1  0  0  0  0
 15 29  1  0  0  0  0
 16 17  1  0  0  0  0
 16 30  1  0  0  0  0
 16 31  1  0  0  0  0
 17 32  1  0  0  0  0
 17 33  1  0  0  0  0
M  END
> <s_m_source_file>
AV-unprocessed.smi

> <i_m_source_file_index>
470

> <i_lp_mmshare_version>
43012

> <i_f3d_flags>
0

> <s_epik_input>
W05IMl1DKD1PKVtDSDJdYzFbY0hdc2MobjEpW05IXUMoPU8pW0NAQEhdMltDSDJdW0NIXT1bQ0hdW0NIMl1bQ0gyXTI=

> <s_epik_cmdline>
J2VwaWtfcHl0aG9uJywgJy1waCcsICc3LjAnLCAnLXRuJywgJzgnLCAnLW1hJywgJzIwMCcsICctbWV0YWxfYmluZGluZycsICctaW1hZScsICc8aW5maWxlLm1hZT4nLCAnLW9tYWUnLCAnPG91dGZpbGUubWFlPic=

> <r_lp_tautomer_probability>
1

> <r_epik_Ionization_Penalty>
0.00025496

> <r_epik_Ionization_Penalty_Charging>
0

> <r_epik_Ionization_Penalty_Neutral>
0.00025496

> <r_epik_State_Penalty>
-0

> <r_epik_Charging_Adjusted_Penalty>
0

> <i_epik_Tot_Q>
0

> <i_epik_Tot_abs_Q>
0

> <r_epik_Metal_State_Penalty>
0.149391

> <b_epik_Metal_Only>
0

> <s_lp_Force_Field>
OPLS_2005

> <r_lp_Energy>
12.0987

> <b_lp_Chiralities_Consistent>
1

> <s_lp_Variant>
AV-unprocessed.smi:470-2

> <Gold.Version>
5.8.1

> <Gold.Id.Protein>
6NUR|6NUR_protein|mol2

> <Gold.PLP.Fitness>
45.1991

> <Gold.PLP.PLP>
-36.0281

> <Gold.PLP.part.hbond>
-2.0000

> <Gold.PLP.part.metal>
0.0000

> <Gold.PLP.part.buried>
-1.8192

> <Gold.PLP.part.nonpolar>
-31.1420

> <Gold.PLP.part.repulsive>
0.1193

> <Gold.PLP.ligand.clash>
0.0000

> <Gold.PLP.ligand.torsion>
0.2898

> <Gold.PLP.Chemscore.Hbond>
1.9280

> <Gold.PLP.Chemscore.CHOScore>
1.3128

> <Gold.PLP.Chemscore.Metal>
0.0000

> <Gold.Chemscore.Hbonds>
donor molecule, donor type, donor heavy atom, donor atom, acceptor molecule, acceptor atom, score
      L1  H     1    20       P1  7948  1.00
      P1  H  7997  8009       L1    11  0.94
      L1  C     6    23       P1  7948  1.00
      L1  C     6    23       P1  7957  0.28

> <Gold.PLP.Chemscore.Internal.Correction>
0.0281

> <Gold.Rescore>
     Score         DG    S(hbond)    S(metal)    S(lipo)     H(rot)  DE(clash)    DE(int)     intcor
     16.29     -18.03       1.85        0.00      95.89       1.90       0.02       1.72       ----

> <Gold.Chemscore.Fitness>
16.2873

> <Gold.Chemscore.DG>
-18.0274

> <Gold.Chemscore.ZeroCoef>
-5.4800

> <Gold.Chemscore.Hbond>
1.8516

> <Gold.Chemscore.Metal>
0.0000

> <Gold.Chemscore.Lipo>
95.8871

> <Gold.Chemscore.Internal_Hbond>
0.0000

> <Gold.Chemscore.DEClash>
0.0195

> <Gold.Chemscore.DEInternal>
1.7206

> <Gold.Chemscore.Rot>
1.8968

> <Gold.Chemscore.Internal.Correction>
   9.000000E+99

> <Gold.Chemscore.Hbonds>
donor molecule, donor type, donor heavy atom, donor atom, acceptor molecule, acceptor atom, score
      L1  H     1    20       P1  7948  0.98
      P1  H  7997  8009       L1    11  0.80

> <Gold.Chemscore.Hbond.Weighted>
-6.1844

> <Gold.Chemscore.Metal.Weighted>
-0.0000

> <Gold.Chemscore.Lipo.Weighted>
-11.2188

> <Gold.Chemscore.Internal_Hbond.Weighted>
0.0000

> <Gold.Chemscore.DEClash.Weighted>
0.0195

> <Gold.Chemscore.DEInternal.Weighted>
1.7206

> <Gold.Chemscore.Rot.Weighted>
4.8558

> <Gold.Chemscore.Internal.Correction.Weighted>
   9.000000E+99

> <Gold.Protein.RotatedTorsions>
[ 6907 6896 6895 6894 ] final   94.63 input  -60.11 | X-H torsion
[ 7974 7965 7964 7962 ] final  -37.33 input  175.53 | X-H torsion
[ 8008 7997 7996 7995 ] final  168.57 input   59.86 | X-H torsion
[ 10167 10162 10161 10158 ] final   26.89 input  -65.29 | X-H torsion
[ 10718 10713 10712 10709 ] final  119.15 input   66.30 | X-H torsion
[ 10763 10752 10751 10750 ] final -158.53 input  -60.55 | X-H torsion
[ 11005 11000 10999 10996 ] final -153.08 input  -57.11 | X-H torsion

> <Gold.Protein.ActiveResidues>
 VAL166  LYS551  ARG553  GLY616  TRP617  ASP618  TYR619  PRO620  LYS621  CYS622 
 ASP623  PHE694  ASN695  SER759  ASP760  ASP761  ALA762  ILE779  LEU786  VAL792 
 PHE793  MET794  SER795  GLU796  ALA797  LYS798  CYS799  TRP800  GLU811  SER814 

> <Gold.Protein.RotatedAtoms>
  152.5448  134.1164  159.8380 H   0  0  0  0  0  0  0  0  0  0  0  0  # atno 6907 bound_to 6896
  151.1225  133.5087  159.2609 H   0  0  0  0  0  0  0  0  0  0  0  0  # atno 6908 bound_to 6896
  151.1763  135.0351  159.8828 H   0  0  0  0  0  0  0  0  0  0  0  0  # atno 6909 bound_to 6896
  146.0584  140.6384  142.9009 H   0  0  0  0  0  0  0  0  0  0  0  0  # atno 7974 bound_to 7965
  156.1535  140.1587  156.8731 H   0  0  0  0  0  0  0  0  0  0  0  0  # atno 8008 bound_to 7997
  154.5093  140.0805  156.7994 H   0  0  0  0  0  0  0  0  0  0  0  0  # atno 8009 bound_to 7997
  155.3850  140.3407  155.4251 H   0  0  0  0  0  0  0  0  0  0  0  0  # atno 8010 bound_to 7997
  140.4984  144.0354  150.6323 H   0  0  0  0  0  0  0  0  0  0  0  0  # atno 10167 bound_to 10162
  157.5981  131.1055  150.7856 H   0  0  0  0  0  0  0  0  0  0  0  0  # atno 10718 bound_to 10713
  154.7549  135.3102  154.8489 H   0  0  0  0  0  0  0  0  0  0  0  0  # atno 10763 bound_to 10752
  153.9266  135.6790  153.4750 H   0  0  0  0  0  0  0  0  0  0  0  0  # atno 10764 bound_to 10752
  153.1146  135.4850  154.9022 H   0  0  0  0  0  0  0  0  0  0  0  0  # atno 10765 bound_to 10752
  140.7120  134.3822  157.5196 H   0  0  0  0  0  0  0  0  0  0  0  0  # atno 11005 bound_to 11000
  144.7161  140.4213  143.7043 LP  0  0  0  0  0  0  0  0  0  0  0  0  # atno 17320 bound_to 7965
  145.6604  139.1580  143.2812 LP  0  0  0  0  0  0  0  0  0  0  0  0  # atno 17321 bound_to 7965
  140.3643  143.2890  152.0349 LP  0  0  0  0  0  0  0  0  0  0  0  0  # atno 17342 bound_to 10162
  139.4866  144.6279  151.7129 LP  0  0  0  0  0  0  0  0  0  0  0  0  # atno 17343 bound_to 10162
  156.8262  130.5000  149.5337 LP  0  0  0  0  0  0  0  0  0  0  0  0  # atno 17370 bound_to 10713
  156.1048  130.5996  150.9953 LP  0  0  0  0  0  0  0  0  0  0  0  0  # atno 17371 bound_to 10713
  139.8869  134.8896  156.2557 LP  0  0  0  0  0  0  0  0  0  0  0  0  # atno 17394 bound_to 11000
  141.0076  133.7114  156.1060 LP  0  0  0  0  0  0  0  0  0  0  0  0  # atno 17395 bound_to 11000

$$$$
