AV-unprocessed.smi:2510|AV-procd|sdf|9878|dock1
  -GOLD-   2272013513D 1   1.00000     0.00000
 Structure written by MMmdl.
 48 49  0  0  0  0  0  0  0  0  1 V2000
  148.7974  142.2000  157.8885 C   0  0  0  0  0  0  0  0  0  0  0  0
  149.4575  140.8222  158.0556 C   0  0  0  0  0  0  0  0  0  0  0  0
  150.8848  140.6963  157.4579 C   0  0  0  0  0  0  0  0  0  0  0  0
  151.7913  141.7564  158.1304 C   0  0  0  0  0  0  0  0  0  0  0  0
  152.0968  141.5101  159.6177 C   0  0  0  0  0  0  0  0  0  0  0  0
  151.5323  139.2784  157.3806 C   0  0  1  0  0  0  0  0  0  0  0  0
  150.5625  138.1863  157.3334 N   0  0  0  0  0  0  0  0  0  0  0  0
  150.5412  137.1274  158.1557 C   0  0  0  0  0  0  0  0  0  0  0  0
  151.4209  136.8914  158.9828 O   0  0  0  0  0  0  0  0  0  0  0  0
  149.3175  136.2156  158.0464 C   0  0  0  0  0  0  0  0  0  0  0  0
  148.6898  136.0193  159.3913 C   0  0  0  0  0  0  0  0  0  0  0  0
  148.4746  134.8882  160.1290 C   0  0  0  0  0  0  0  0  0  0  0  0
  147.7785  135.3476  161.2845 C   0  0  0  0  0  0  0  0  0  0  0  0
  147.2541  134.5366  162.4320 C   0  0  0  0  0  0  0  0  0  0  0  0
  147.5969  136.6597  161.2771 N   0  0  0  0  0  0  0  0  0  0  0  0
  148.1572  137.0585  160.1201 N   0  0  0  0  0  0  0  0  0  0  0  0
  152.0615  139.6222  155.9768 C   0  0  1  0  0  0  0  0  0  0  0  0
  152.1893  138.5534  154.8929 C   0  0  0  0  0  0  0  0  0  0  0  0
  150.9655  140.7017  155.9065 C   0  0  1  0  0  0  0  0  0  0  0  0
  149.7635  140.2198  155.3134 O   0  0  0  0  0  0  0  0  0  0  0  0
  148.9643  141.2454  154.7511 C   0  0  0  0  0  0  0  0  0  0  0  0
  148.1550  138.0281  159.8366 H   0  0  0  0  0  0  0  0  0  0  0  0
  147.7580  142.1647  158.2148 H   0  0  0  0  0  0  0  0  0  0  0  0
  148.8031  142.5204  156.8466 H   0  0  0  0  0  0  0  0  0  0  0  0
  149.2929  142.9663  158.4834 H   0  0  0  0  0  0  0  0  0  0  0  0
  149.4485  140.5387  159.1075 H   0  0  0  0  0  0  0  0  0  0  0  0
  148.7846  140.1089  157.5820 H   0  0  0  0  0  0  0  0  0  0  0  0
  152.7494  141.8042  157.6133 H   0  0  0  0  0  0  0  0  0  0  0  0
  151.3753  142.7560  158.0099 H   0  0  0  0  0  0  0  0  0  0  0  0
  152.8391  142.2232  159.9766 H   0  0  0  0  0  0  0  0  0  0  0  0
  152.4941  140.5097  159.7878 H   0  0  0  0  0  0  0  0  0  0  0  0
  151.2114  141.6319  160.2408 H   0  0  0  0  0  0  0  0  0  0  0  0
  152.3392  139.1134  158.0960 H   0  0  0  0  0  0  0  0  0  0  0  0
  149.7935  138.2961  156.6880 H   0  0  0  0  0  0  0  0  0  0  0  0
  148.5997  136.6625  157.3579 H   0  0  0  0  0  0  0  0  0  0  0  0
  149.6093  135.2551  157.6198 H   0  0  0  0  0  0  0  0  0  0  0  0
  148.7494  133.8770  159.8683 H   0  0  0  0  0  0  0  0  0  0  0  0
  147.4967  133.4806  162.3109 H   0  0  0  0  0  0  0  0  0  0  0  0
  146.1696  134.6199  162.5063 H   0  0  0  0  0  0  0  0  0  0  0  0
  147.6813  134.8697  163.3778 H   0  0  0  0  0  0  0  0  0  0  0  0
  153.0246  140.1214  156.0941 H   0  0  0  0  0  0  0  0  0  0  0  0
  151.2347  138.0751  154.6728 H   0  0  0  0  0  0  0  0  0  0  0  0
  152.8855  137.7710  155.1950 H   0  0  0  0  0  0  0  0  0  0  0  0
  152.5625  138.9813  153.9625 H   0  0  0  0  0  0  0  0  0  0  0  0
  151.2981  141.6591  155.5005 H   0  0  0  0  0  0  0  0  0  0  0  0
  148.0836  140.8049  154.2840 H   0  0  0  0  0  0  0  0  0  0  0  0
  149.5065  141.8060  153.9897 H   0  0  0  0  0  0  0  0  0  0  0  0
  148.6247  141.9401  155.5201 H   0  0  0  0  0  0  0  0  0  0  0  0
  1  2  1  0  0  0  0
  1 23  1  0  0  0  0
  1 24  1  0  0  0  0
  1 25  1  0  0  0  0
  2  3  1  0  0  0  0
  2 26  1  0  0  0  0
  2 27  1  0  0  0  0
  3 19  1  0  0  0  0
  3  4  1  0  0  0  0
  3  6  1  0  0  0  0
  4  5  1  0  0  0  0
  4 28  1  0  0  0  0
  4 29  1  0  0  0  0
  5 30  1  0  0  0  0
  5 31  1  0  0  0  0
  5 32  1  0  0  0  0
  6  7  1  0  0  0  0
  6 17  1  0  0  0  0
  6 33  1  0  0  0  0
  7  8  1  0  0  0  0
  7 34  1  0  0  0  0
  8  9  2  0  0  0  0
  8 10  1  0  0  0  0
 10 35  1  0  0  0  0
 10 36  1  0  0  0  0
 10 11  1  0  0  0  0
 11 16  1  0  0  0  0
 11 12  2  0  0  0  0
 12 13  1  0  0  0  0
 12 37  1  0  0  0  0
 13 14  1  0  0  0  0
 13 15  2  0  0  0  0
 14 38  1  0  0  0  0
 14 39  1  0  0  0  0
 14 40  1  0  0  0  0
 15 16  1  0  0  0  0
 16 22  1  0  0  0  0
 17 18  1  0  0  0  0
 17 19  1  0  0  0  0
 17 41  1  0  0  0  0
 18 42  1  0  0  0  0
 18 43  1  0  0  0  0
 18 44  1  0  0  0  0
 19 20  1  0  0  0  0
 19 45  1  0  0  0  0
 20 21  1  0  0  0  0
 21 46  1  0  0  0  0
 21 47  1  0  0  0  0
 21 48  1  0  0  0  0
M  END
> <s_m_source_file>
AV-unprocessed.smi

> <i_m_source_file_index>
2510

> <i_lp_mmshare_version>
43012

> <i_f3d_flags>
0

> <s_epik_input>
W0NIM11PW0NAQEhdMVtDQEhdKFtDSDNdKVtDQEBIXShDMShbQ0gyXVtDSDNdKVtDSDJdW0NIM10pW05IXUMoPU8pW0NIMl1jMltjSF1jKFtDSDNdKVtuSF1uMg==

> <s_epik_cmdline>
J2VwaWtfcHl0aG9uJywgJy1waCcsICc3LjAnLCAnLXRuJywgJzgnLCAnLW1hJywgJzIwMCcsICctbWV0YWxfYmluZGluZycsICctaW1hZScsICc8aW5maWxlLm1hZT4nLCAnLW9tYWUnLCAnPG91dGZpbGUubWFlPic=

> <r_lp_tautomer_probability>
0.5

> <r_epik_Ionization_Penalty>
0.000134763

> <r_epik_Ionization_Penalty_Charging>
0

> <r_epik_Ionization_Penalty_Neutral>
0.000134763

> <r_epik_State_Penalty>
0.41068

> <r_epik_Charging_Adjusted_Penalty>
0.41068

> <i_epik_Tot_Q>
0

> <i_epik_Tot_abs_Q>
0

> <r_epik_Metal_State_Penalty>
0.410661

> <b_epik_Metal_Only>
0

> <s_lp_Force_Field>
OPLS_2005

> <r_lp_Energy>
25.663

> <b_lp_Chiralities_Consistent>
1

> <s_lp_Variant>
AV-unprocessed.smi:2510-9

> <Gold.Version>
5.8.1

> <Gold.Id.Protein>
6NUR|6NUR_protein|mol2

> <Gold.PLP.Fitness>
37.2988

> <Gold.PLP.PLP>
-35.1836

> <Gold.PLP.part.hbond>
-2.3212

> <Gold.PLP.part.metal>
0.0000

> <Gold.PLP.part.buried>
-5.5815

> <Gold.PLP.part.nonpolar>
-29.0965

> <Gold.PLP.part.repulsive>
1.6934

> <Gold.PLP.ligand.clash>
0.0000

> <Gold.PLP.ligand.torsion>
0.7823

> <Gold.PLP.Chemscore.Hbond>
1.0000

> <Gold.PLP.Chemscore.CHOScore>
0.0000

> <Gold.PLP.Chemscore.Metal>
0.0000

> <Gold.Chemscore.Hbonds>
donor molecule, donor type, donor heavy atom, donor atom, acceptor molecule, acceptor atom, score
      P1  H  6896  6907       L1     9  0.96

> <Gold.PLP.Chemscore.Internal.Correction>
0.6797

> <Gold.Rescore>
     Score         DG    S(hbond)    S(metal)    S(lipo)     H(rot)  DE(clash)    DE(int)     intcor
     13.63     -14.55       0.96        0.00      89.67       1.81       0.15       0.77       ----

> <Gold.Chemscore.Fitness>
13.6325

> <Gold.Chemscore.DG>
-14.5468

> <Gold.Chemscore.ZeroCoef>
-5.4800

> <Gold.Chemscore.Hbond>
0.9610

> <Gold.Chemscore.Metal>
0.0000

> <Gold.Chemscore.Lipo>
89.6672

> <Gold.Chemscore.Internal_Hbond>
0.0000

> <Gold.Chemscore.DEClash>
0.1461

> <Gold.Chemscore.DEInternal>
0.7681

> <Gold.Chemscore.Rot>
1.8102

> <Gold.Chemscore.Internal.Correction>
   9.000000E+99

> <Gold.Chemscore.Hbonds>
donor molecule, donor type, donor heavy atom, donor atom, acceptor molecule, acceptor atom, score
      P1  H  6896  6907       L1     9  0.79

> <Gold.Chemscore.Hbond.Weighted>
-3.2098

> <Gold.Chemscore.Metal.Weighted>
-0.0000

> <Gold.Chemscore.Lipo.Weighted>
-10.4911

> <Gold.Chemscore.Internal_Hbond.Weighted>
0.0000

> <Gold.Chemscore.DEClash.Weighted>
0.1461

> <Gold.Chemscore.DEInternal.Weighted>
0.7681

> <Gold.Chemscore.Rot.Weighted>
4.6341

> <Gold.Chemscore.Internal.Correction.Weighted>
   9.000000E+99

> <Gold.Protein.RotatedTorsions>
[ 6907 6896 6895 6894 ] final  -21.41 input  -60.11 | X-H torsion
[ 7974 7965 7964 7962 ] final   98.26 input  175.53 | X-H torsion
[ 8008 7997 7996 7995 ] final   77.98 input   59.86 | X-H torsion
[ 10167 10162 10161 10158 ] final  -78.15 input  -65.29 | X-H torsion
[ 10718 10713 10712 10709 ] final  -57.78 input   66.30 | X-H torsion
[ 10763 10752 10751 10750 ] final    8.55 input  -60.55 | X-H torsion
[ 11005 11000 10999 10996 ] final   54.10 input  -57.11 | X-H torsion

> <Gold.Protein.ActiveResidues>
 VAL166  LYS551  ARG553  GLY616  TRP617  ASP618  TYR619  PRO620  LYS621  CYS622 
 ASP623  PHE694  ASN695  SER759  ASP760  ASP761  ALA762  ILE779  LEU786  VAL792 
 PHE793  MET794  SER795  GLU796  ALA797  LYS798  CYS799  TRP800  GLU811  SER814 

> <Gold.Protein.RotatedAtoms>
  151.2337  135.0564  159.8997 H   0  0  0  0  0  0  0  0  0  0  0  0  # atno 6907 bound_to 6896
  152.5402  134.0509  159.8120 H   0  0  0  0  0  0  0  0  0  0  0  0  # atno 6908 bound_to 6896
  151.0692  133.5431  159.2660 H   0  0  0  0  0  0  0  0  0  0  0  0  # atno 6909 bound_to 6896
  145.4146  139.2329  143.3229 H   0  0  0  0  0  0  0  0  0  0  0  0  # atno 7974 bound_to 7965
  155.8493  140.3459  155.5682 H   0  0  0  0  0  0  0  0  0  0  0  0  # atno 8008 bound_to 7997
  155.8056  140.0891  157.1952 H   0  0  0  0  0  0  0  0  0  0  0  0  # atno 8009 bound_to 7997
  154.4007  140.1457  156.3313 H   0  0  0  0  0  0  0  0  0  0  0  0  # atno 8010 bound_to 7997
  140.4708  143.2427  151.8208 H   0  0  0  0  0  0  0  0  0  0  0  0  # atno 10167 bound_to 10162
  156.1185  130.4168  150.0487 H   0  0  0  0  0  0  0  0  0  0  0  0  # atno 10718 bound_to 10713
  153.2238  135.6884  153.7968 H   0  0  0  0  0  0  0  0  0  0  0  0  # atno 10763 bound_to 10752
  153.7157  135.3275  155.3257 H   0  0  0  0  0  0  0  0  0  0  0  0  # atno 10764 bound_to 10752
  154.8282  135.4601  154.1097 H   0  0  0  0  0  0  0  0  0  0  0  0  # atno 10765 bound_to 10752
  140.0713  134.5465  155.9043 H   0  0  0  0  0  0  0  0  0  0  0  0  # atno 11005 bound_to 11000
  146.2688  140.4862  142.8823 LP  0  0  0  0  0  0  0  0  0  0  0  0  # atno 17320 bound_to 7965
  144.8286  140.6670  143.6306 LP  0  0  0  0  0  0  0  0  0  0  0  0  # atno 17321 bound_to 7965
  139.4818  144.4894  151.9204 LP  0  0  0  0  0  0  0  0  0  0  0  0  # atno 17342 bound_to 10162
  140.3979  144.2530  150.5895 LP  0  0  0  0  0  0  0  0  0  0  0  0  # atno 17343 bound_to 10162
  156.8432  130.9433  151.3630 LP  0  0  0  0  0  0  0  0  0  0  0  0  # atno 17370 bound_to 10713
  157.6368  130.8773  149.9374 LP  0  0  0  0  0  0  0  0  0  0  0  0  # atno 17371 bound_to 10713
  141.2013  133.6617  156.5943 LP  0  0  0  0  0  0  0  0  0  0  0  0  # atno 17394 bound_to 11000
  140.3622  134.7677  157.4542 LP  0  0  0  0  0  0  0  0  0  0  0  0  # atno 17395 bound_to 11000

$$$$
