#       Name:                AV-unprocessed.smi:1604
#       Creating user name   scv26
#       Creation time:       Fri Mar 27 07:10:07 2020


#       File generated by GOLD software.
#

@<TRIPOS>MOLECULE
AV-unprocessed.smi:1604
    52    54     1
SMALL
NO_CHARGES


@<TRIPOS>ATOM
      1 ****         0.6611   2.2236   0.3447 O.2            1 S1                 0.0000
      2 ****         0.2634   1.1064   0.6754 C.2            1 S1                 0.0000
      3 ****         1.0564   0.0636   0.9686 N.am           1 S1                 0.0000
      4 ****         2.4722   0.0048   0.8546 C.ar           1 S1                 0.0000
      5 ****         3.2776   1.0954   1.2697 C.ar           1 S1                 0.0000
      6 ****         4.6802   0.9908   1.2188 C.ar           1 S1                 0.0000
      7 ****         5.2563  -0.2092   0.7677 C.ar           1 S1                 0.0000
      8 ****         4.4623  -1.2323   0.3893 N.pl3          1 S1                 1.0000
      9 ****         3.1062  -1.1878   0.4005 C.ar           1 S1                 0.0000
     10 ****         2.4028  -2.3319  -0.0413 N.3            1 S1                 0.0000
     11 ****         3.1158  -3.5705  -0.3309 C.3            1 S1                 0.0000
     12 ****         2.1158  -4.4329  -1.0961 C.3            1 S1                 0.0000
     13 ****         1.3462  -3.3973  -1.9103 C.3            1 S1                 0.0000
     14 ****         1.3094  -2.1685  -0.9954 C.3            1 S1                 0.0000
     15 ****        -1.0323   0.7700   0.7596 N.am           1 S1                 0.0000
     16 ****        -2.1582   1.6375   0.4061 C.3            1 S1                 0.0000
     17 ****        -3.3949   1.1406   1.1894 C.3            1 S1                 0.0000
     18 ****        -4.4915   2.2064   1.3587 C.3            1 S1                 0.0000
     19 ****        -5.1592   2.6645   0.0531 C.3            1 S1                 0.0000
     20 ****        -4.1918   3.3431  -0.9318 C.3            1 S1                 0.0000
     21 ****        -3.3657   2.3764  -1.6431 N.am           1 S1                 0.0000
     22 ****        -2.4497   1.5532  -1.1108 C.2            1 S1                 0.0000
     23 ****        -1.8555   0.7409  -1.8206 O.2            1 S1                 0.0000
     24 ****         0.5919  -0.8173   1.1343 H              1 S1                 0.0000
     25 ****         2.8354   2.0057   1.6471 H              1 S1                 0.0000
     26 ****         5.3036   1.8152   1.5330 H              1 S1                 0.0000
     27 ****         6.3206  -0.3828   0.7009 H              1 S1                 0.0000
     28 ****         3.9834  -3.3710  -0.9610 H              1 S1                 0.0000
     29 ****         3.4567  -4.0593   0.5822 H              1 S1                 0.0000
     30 ****         2.5946  -5.1932  -1.7135 H              1 S1                 0.0000
     31 ****         1.4425  -4.9342  -0.3992 H              1 S1                 0.0000
     32 ****         1.9017  -3.1618  -2.8192 H              1 S1                 0.0000
     33 ****         0.3524  -3.7374  -2.2034 H              1 S1                 0.0000
     34 ****         0.3667  -2.1413  -0.4482 H              1 S1                 0.0000
     35 ****         1.3972  -1.2448  -1.5694 H              1 S1                 0.0000
     36 ****        -1.2621  -0.1729   1.0366 H              1 S1                 0.0000
     37 ****        -1.9210   2.6651   0.6878 H              1 S1                 0.0000
     38 ****        -3.8114   0.2401   0.7341 H              1 S1                 0.0000
     39 ****        -3.0844   0.8419   2.1920 H              1 S1                 0.0000
     40 ****        -5.2622   1.8078   2.0192 H              1 S1                 0.0000
     41 ****        -4.0774   3.0723   1.8768 H              1 S1                 0.0000
     42 ****        -5.6608   1.8246  -0.4295 H              1 S1                 0.0000
     43 ****        -5.9464   3.3753   0.3074 H              1 S1                 0.0000
     44 ****        -4.7668   3.8865  -1.6818 H              1 S1                 0.0000
     45 ****        -3.5684   4.0831  -0.4281 H              1 S1                 0.0000
     46 ****        -3.5244   2.3032  -2.6377 H              1 S1                 0.0000
     47 ****         4.9110  -2.0894   0.0659 H              1 S1                 0.0000
     48 ****         1.6422   2.4057   0.2785 LP             1 S1                 0.0000
     49 ****         0.0031   2.9488   0.1421 LP             1 S1                 0.0000
     50 ****         2.0025  -2.4527   0.8670 LP             1 S1                 0.0000
     51 ****        -1.1767   0.1271  -1.4175 LP             1 S1                 0.0000
     52 ****        -2.0518   0.6950  -2.8001 LP             1 S1                 0.0000
@<TRIPOS>BOND
    1    1    2 2     
    2    2    3 am    
    3    2   15 am    
    4    3    4 1     
    5    3   24 1     
    6    4    9 ar    
    7    4    5 ar    
    8    5    6 ar    
    9    5   25 1     
   10    6    7 ar    
   11    6   26 1     
   12    7    8 ar    
   13    7   27 1     
   14    8    9 ar    
   15    8   47 1     
   16    9   10 1     
   17   10   14 1     
   18   10   11 1     
   19   11   12 1     
   20   11   28 1     
   21   11   29 1     
   22   12   13 1     
   23   12   30 1     
   24   12   31 1     
   25   13   14 1     
   26   13   32 1     
   27   13   33 1     
   28   14   34 1     
   29   14   35 1     
   30   15   16 1     
   31   15   36 1     
   32   16   22 1     
   33   16   17 1     
   34   16   37 1     
   35   17   18 1     
   36   17   38 1     
   37   17   39 1     
   38   18   19 1     
   39   18   40 1     
   40   18   41 1     
   41   19   20 1     
   42   19   42 1     
   43   19   43 1     
   44   20   21 1     
   45   20   44 1     
   46   20   45 1     
   47   21   22 am    
   48   21   46 1     
   49   22   23 2     
   50    1   48 1     
   51    1   49 1     
   52   10   50 1     
   53   23   51 1     
   54   23   52 1     
@<TRIPOS>SUBSTRUCTURE
      1 S1             1
@<TRIPOS>SET
LONE_PAIRS      STATIC     ATOMS    <user>   **** ""
5 48 49 50 51 52
DONOR_HYDROGENS      STATIC     ATOMS    <user>   **** ""
4 24 47 36 46
ATOM$BLUE        STATIC     ATOMS    COLORGROUP SYSTEM
5 48 49 50 51 52
ATOM$RED        STATIC     ATOMS    COLORGROUP SYSTEM
4 24 47 36 46
