AV-unprocessed.smi:1177|AV-procd|sdf|4955|dock4
  -GOLD-   22720 3543D 1   1.00000     0.00000
 Structure written by MMmdl.
 31 32  0  0  0  0  0  0  0  0  2 V2000
  147.6486  138.7052  153.3456 O   0  0  0  0  0  0  0  0  0  0  0  0
  146.5376  139.1767  153.1004 C   0  0  0  0  0  0  0  0  0  0  0  0
  145.6393  138.5921  152.2952 N   0  0  0  0  0  0  0  0  0  0  0  0
  145.8459  137.3273  151.5998 C   0  0  0  0  0  0  0  0  0  0  0  0
  144.9082  136.2297  152.1308 C   0  0  0  0  0  0  0  0  0  0  0  0
  145.1870  134.8813  151.4970 C   0  0  0  0  0  0  0  0  0  0  0  0
  144.1515  134.0188  151.0760 C   0  0  0  0  0  0  0  0  0  0  0  0
  144.4835  132.7761  150.4968 C   0  0  0  0  0  0  0  0  0  0  0  0
  145.8411  132.4218  150.3536 C   0  0  0  0  0  0  0  0  0  0  0  0
  146.8344  133.3206  150.7933 C   0  0  0  0  0  0  0  0  0  0  0  0
  146.4763  134.5023  151.3417 N   0  3  0  0  0  0  0  0  0  0  0  0
  146.0812  140.3336  153.5980 N   0  0  0  0  0  0  0  0  0  0  0  0
  146.8005  141.1948  154.4800 C   0  0  0  0  0  0  0  0  0  0  0  0
  146.9620  142.6429  154.0709 C   0  0  0  0  0  0  0  0  0  0  0  0
  148.1436  141.7146  154.0148 C   0  0  0  0  0  0  0  0  0  0  0  0
  144.7518  139.0529  152.1546 H   0  0  0  0  0  0  0  0  0  0  0  0
  145.7055  137.4685  150.5267 H   0  0  0  0  0  0  0  0  0  0  0  0
  146.8849  137.0282  151.7402 H   0  0  0  0  0  0  0  0  0  0  0  0
  145.0097  136.1447  153.2137 H   0  0  0  0  0  0  0  0  0  0  0  0
  143.8667  136.4935  151.9408 H   0  0  0  0  0  0  0  0  0  0  0  0
  143.1159  134.3028  151.1947 H   0  0  0  0  0  0  0  0  0  0  0  0
  143.7059  132.1023  150.1678 H   0  0  0  0  0  0  0  0  0  0  0  0
  146.1162  131.4745  149.9131 H   0  0  0  0  0  0  0  0  0  0  0  0
  147.8957  133.1316  150.7237 H   0  0  0  0  0  0  0  0  0  0  0  0
  145.1530  140.6305  153.3341 H   0  0  0  0  0  0  0  0  0  0  0  0
  146.7039  141.0097  155.5490 H   0  0  0  0  0  0  0  0  0  0  0  0
  146.5258  142.9575  153.1245 H   0  0  0  0  0  0  0  0  0  0  0  0
  146.9483  143.3912  154.8606 H   0  0  0  0  0  0  0  0  0  0  0  0
  148.9192  141.8425  154.7673 H   0  0  0  0  0  0  0  0  0  0  0  0
  148.4958  141.4102  153.0309 H   0  0  0  0  0  0  0  0  0  0  0  0
  147.2116  135.1379  151.6535 H   0  0  0  0  0  0  0  0  0  0  0  0
  1  2  2  0  0  0  0
  2  3  1  0  0  0  0
  2 12  1  0  0  0  0
  3  4  1  0  0  0  0
  3 16  1  0  0  0  0
  4  5  1  0  0  0  0
  4 17  1  0  0  0  0
  4 18  1  0  0  0  0
  5  6  1  0  0  0  0
  5 19  1  0  0  0  0
  5 20  1  0  0  0  0
  6 11  1  0  0  0  0
  6  7  2  0  0  0  0
  7  8  1  0  0  0  0
  7 21  1  0  0  0  0
  8  9  2  0  0  0  0
  8 22  1  0  0  0  0
  9 10  1  0  0  0  0
  9 23  1  0  0  0  0
 10 11  2  0  0  0  0
 10 24  1  0  0  0  0
 11 31  1  0  0  0  0
 12 13  1  0  0  0  0
 12 25  1  0  0  0  0
 13 15  1  0  0  0  0
 13 14  1  0  0  0  0
 13 26  1  0  0  0  0
 14 15  1  0  0  0  0
 14 27  1  0  0  0  0
 14 28  1  0  0  0  0
 15 29  1  0  0  0  0
 15 30  1  0  0  0  0
M  CHG  1  11   1
M  END
> <s_m_source_file>
AV-unprocessed.smi

> <i_m_source_file_index>
1177

> <i_lp_mmshare_version>
43012

> <i_f3d_flags>
0

> <s_epik_input>
W0NIMl0xW0NIMl1bQ0hdMVtOSF1DKD1PKVtOSF1bQ0gyXVtDSDJdYzJbY0hdW2NIXVtjSF1bY0hdbjI=

> <s_epik_cmdline>
J2VwaWtfcHl0aG9uJywgJy1waCcsICc3LjAnLCAnLXRuJywgJzgnLCAnLW1hJywgJzIwMCcsICctbWV0YWxfYmluZGluZycsICctaW1hZScsICc8aW5maWxlLm1hZT4nLCAnLW9tYWUnLCAnPG91dGZpbGUubWFlPic=

> <r_epik_Ionization_Penalty>
1.56288

> <r_epik_Ionization_Penalty_Charging>
1.56282

> <r_epik_Ionization_Penalty_Neutral>
5.89877e-05

> <r_epik_State_Penalty>
1.65797

> <r_epik_Charging_Adjusted_Penalty>
3.22079

> <i_epik_Tot_Q>
1

> <i_epik_Tot_abs_Q>
1

> <r_epik_Metal_State_Penalty>
1.69932

> <b_epik_Metal_Only>
0

> <s_lp_Force_Field>
OPLS_2005

> <r_lp_Energy>
17.5296

> <b_lp_Chiralities_Consistent>
1

> <s_lp_Variant>
AV-unprocessed.smi:1177-2

> <Gold.Version>
5.8.1

> <Gold.Id.Protein>
6NUR|6NUR_protein|mol2

> <Gold.PLP.Fitness>
41.1589

> <Gold.PLP.PLP>
-29.6829

> <Gold.PLP.part.hbond>
-3.8961

> <Gold.PLP.part.metal>
0.0000

> <Gold.PLP.part.buried>
-1.6036

> <Gold.PLP.part.nonpolar>
-24.4293

> <Gold.PLP.part.repulsive>
0.3122

> <Gold.PLP.ligand.clash>
0.0000

> <Gold.PLP.ligand.torsion>
0.2815

> <Gold.PLP.Chemscore.Hbond>
4.0000

> <Gold.PLP.Chemscore.CHOScore>
0.0000

> <Gold.PLP.Chemscore.Metal>
0.0000

> <Gold.Chemscore.Hbonds>
donor molecule, donor type, donor heavy atom, donor atom, acceptor molecule, acceptor atom, score
      L1  H     3    16       P1 10175  1.00
      L1  H    11    31       P1  7948  2.00
      L1  H    12    25       P1 10175  1.00

> <Gold.PLP.Chemscore.Internal.Correction>
0.0389

> <Gold.Rescore>
     Score         DG    S(hbond)    S(metal)    S(lipo)     H(rot)  DE(clash)    DE(int)     intcor
     17.67     -18.26       2.85        0.00      65.16       1.70       0.28       0.30       ----

> <Gold.Chemscore.Fitness>
17.6738

> <Gold.Chemscore.DG>
-18.2576

> <Gold.Chemscore.ZeroCoef>
-5.4800

> <Gold.Chemscore.Hbond>
2.8476

> <Gold.Chemscore.Metal>
0.0000

> <Gold.Chemscore.Lipo>
65.1571

> <Gold.Chemscore.Internal_Hbond>
0.0000

> <Gold.Chemscore.DEClash>
0.2790

> <Gold.Chemscore.DEInternal>
0.3048

> <Gold.Chemscore.Rot>
1.7019

> <Gold.Chemscore.Internal.Correction>
   9.000000E+99

> <Gold.Chemscore.Hbonds>
donor molecule, donor type, donor heavy atom, donor atom, acceptor molecule, acceptor atom, score
      L1  H     3    16       P1 10175  0.94
      L1  H    11    31       P1  7948  0.87
      L1  H    12    25       P1 10175  0.90

> <Gold.Chemscore.Hbond.Weighted>
-9.5110

> <Gold.Chemscore.Metal.Weighted>
-0.0000

> <Gold.Chemscore.Lipo.Weighted>
-7.6234

> <Gold.Chemscore.Internal_Hbond.Weighted>
0.0000

> <Gold.Chemscore.DEClash.Weighted>
0.2790

> <Gold.Chemscore.DEInternal.Weighted>
0.3048

> <Gold.Chemscore.Rot.Weighted>
4.3568

> <Gold.Chemscore.Internal.Correction.Weighted>
   9.000000E+99

> <Gold.Protein.RotatedTorsions>
[ 6907 6896 6895 6894 ] final -168.77 input  -60.11 | X-H torsion
[ 7974 7965 7964 7962 ] final   83.48 input  175.53 | X-H torsion
[ 8008 7997 7996 7995 ] final  112.72 input   59.86 | X-H torsion
[ 10167 10162 10161 10158 ] final   68.35 input  -65.29 | X-H torsion
[ 10718 10713 10712 10709 ] final   71.97 input   66.30 | X-H torsion
[ 10763 10752 10751 10750 ] final   52.16 input  -60.55 | X-H torsion
[ 11005 11000 10999 10996 ] final  -21.76 input  -57.11 | X-H torsion

> <Gold.Protein.ActiveResidues>
 VAL166  LYS551  ARG553  GLY616  TRP617  ASP618  TYR619  PRO620  LYS621  CYS622 
 ASP623  PHE694  ASN695  SER759  ASP760  ASP761  ALA762  ILE779  LEU786  VAL792 
 PHE793  MET794  SER795  GLU796  ALA797  LYS798  CYS799  TRP800  GLU811  SER814 

> <Gold.Protein.RotatedAtoms>
  151.4809  133.3547  159.2837 H   0  0  0  0  0  0  0  0  0  0  0  0  # atno 6907 bound_to 6896
  150.8898  134.8302  159.7296 H   0  0  0  0  0  0  0  0  0  0  0  0  # atno 6908 bound_to 6896
  152.4816  134.4717  159.9689 H   0  0  0  0  0  0  0  0  0  0  0  0  # atno 6909 bound_to 6896
  145.6114  139.2369  143.2190 H   0  0  0  0  0  0  0  0  0  0  0  0  # atno 7974 bound_to 7965
  156.2211  140.2994  155.9954 H   0  0  0  0  0  0  0  0  0  0  0  0  # atno 8008 bound_to 7997
  155.2479  140.0425  157.3000 H   0  0  0  0  0  0  0  0  0  0  0  0  # atno 8009 bound_to 7997
  154.5842  140.2383  155.8019 H   0  0  0  0  0  0  0  0  0  0  0  0  # atno 8010 bound_to 7997
  140.0796  144.5082  150.7171 H   0  0  0  0  0  0  0  0  0  0  0  0  # atno 10167 bound_to 10162
  157.6478  130.9555  150.0864 H   0  0  0  0  0  0  0  0  0  0  0  0  # atno 10718 bound_to 10713
  152.9787  135.5822  154.4533 H   0  0  0  0  0  0  0  0  0  0  0  0  # atno 10763 bound_to 10752
  154.4119  135.2770  155.2033 H   0  0  0  0  0  0  0  0  0  0  0  0  # atno 10764 bound_to 10752
  154.3820  135.6144  153.5850 H   0  0  0  0  0  0  0  0  0  0  0  0  # atno 10765 bound_to 10752
  140.8592  133.7800  156.0055 H   0  0  0  0  0  0  0  0  0  0  0  0  # atno 11005 bound_to 11000
  146.1502  140.6936  142.9326 LP  0  0  0  0  0  0  0  0  0  0  0  0  # atno 17320 bound_to 7965
  144.7268  140.4551  143.6967 LP  0  0  0  0  0  0  0  0  0  0  0  0  # atno 17321 bound_to 7965
  140.7084  143.2486  151.4655 LP  0  0  0  0  0  0  0  0  0  0  0  0  # atno 17342 bound_to 10162
  139.5787  144.1758  152.1939 LP  0  0  0  0  0  0  0  0  0  0  0  0  # atno 17343 bound_to 10162
  156.1825  130.3651  149.9016 LP  0  0  0  0  0  0  0  0  0  0  0  0  # atno 17370 bound_to 10713
  156.6964  130.8916  151.3594 LP  0  0  0  0  0  0  0  0  0  0  0  0  # atno 17371 bound_to 10713
  140.8702  134.2736  157.5194 LP  0  0  0  0  0  0  0  0  0  0  0  0  # atno 17394 bound_to 11000
  139.8706  134.9563  156.4234 LP  0  0  0  0  0  0  0  0  0  0  0  0  # atno 17395 bound_to 11000

$$$$
