#       Name:                AV-unprocessed.smi:2805
#       Creating user name   scv26
#       Creation time:       Fri Mar 27 15:25:08 2020


#       File generated by GOLD software.
#

@<TRIPOS>MOLECULE
AV-unprocessed.smi:2805
    48    49     1
SMALL
NO_CHARGES


@<TRIPOS>ATOM
      1 ****        -5.3617   2.7178  -0.0309 C.3            1 S1                 0.0000
      2 ****        -4.6473   1.3830  -0.0497 C.ar           1 S1                 0.0000
      3 ****        -5.3434   0.1978  -0.3545 C.ar           1 S1                 0.0000
      4 ****        -4.6237  -1.0132  -0.3594 C.ar           1 S1                 0.0000
      5 ****        -5.3083  -2.3255  -0.6794 C.3            1 S1                 0.0000
      6 ****        -3.3031  -1.0865  -0.0876 N.ar           1 S1                 0.0000
      7 ****        -2.6225   0.0488   0.2067 C.ar           1 S1                 0.0000
      8 ****        -1.2352   0.0805   0.5074 N.am           1 S1                 0.0000
      9 ****        -0.3706  -0.9480   0.5523 C.2            1 S1                 0.0000
     10 ****        -0.6530  -2.1280   0.3419 O.2            1 S1                 0.0000
     11 ****         0.8652  -0.5257   0.8559 N.am           1 S1                 0.0000
     12 ****         2.0505  -1.3745   0.9658 C.3            1 S1                 0.0000
     13 ****         2.6293  -1.7185  -0.4227 C.3            1 S1                 0.0000
     14 ****         3.2503  -0.4919  -1.1137 C.3            1 S1                 0.0000
     15 ****         4.3288   0.1762  -0.2343 C.3            1 S1                 0.0000
     16 ****         4.9380   1.4180  -0.9108 C.3            1 S1                 0.0000
     17 ****         5.6564   1.0563  -2.0713 O.3            1 S1                 0.0000
     18 ****         3.7398   0.5361   1.1444 C.3            1 S1                 0.0000
     19 ****         3.1156  -0.6870   1.8404 C.3            1 S1                 0.0000
     20 ****        -3.2687   1.3050   0.2329 C.ar           1 S1                 0.0000
     21 ****         1.7569  -2.3016   1.4616 H              1 S1                 0.0000
     22 ****         5.1308  -0.5456  -0.0710 H              1 S1                 0.0000
     23 ****        -6.4348   2.5859   0.1108 H              1 S1                 0.0000
     24 ****        -5.2010   3.2429  -0.9725 H              1 S1                 0.0000
     25 ****        -4.9875   3.3428   0.7803 H              1 S1                 0.0000
     26 ****        -6.4000   0.2166  -0.5791 H              1 S1                 0.0000
     27 ****        -6.3892  -2.2007  -0.7498 H              1 S1                 0.0000
     28 ****        -5.1020  -3.0624   0.0975 H              1 S1                 0.0000
     29 ****        -4.9469  -2.7176  -1.6304 H              1 S1                 0.0000
     30 ****        -0.8555   0.9943   0.7051 H              1 S1                 0.0000
     31 ****         1.0020   0.4616   1.0152 H              1 S1                 0.0000
     32 ****         3.3957  -2.4860  -0.3084 H              1 S1                 0.0000
     33 ****         1.8610  -2.1566  -1.0608 H              1 S1                 0.0000
     34 ****         3.6806  -0.8007  -2.0667 H              1 S1                 0.0000
     35 ****         2.4680   0.2298  -1.3524 H              1 S1                 0.0000
     36 ****         4.1622   2.1371  -1.1756 H              1 S1                 0.0000
     37 ****         5.6256   1.9227  -0.2313 H              1 S1                 0.0000
     38 ****         6.0184   1.8391  -2.4576 H              1 S1                 0.0000
     39 ****         4.5189   0.9541   1.7826 H              1 S1                 0.0000
     40 ****         2.9872   1.3174   1.0311 H              1 S1                 0.0000
     41 ****         2.6845  -0.3925   2.7980 H              1 S1                 0.0000
     42 ****         3.9039  -1.4042   2.0722 H              1 S1                 0.0000
     43 ****        -2.7141   2.2023   0.4674 H              1 S1                 0.0000
     44 ****        -2.8321  -1.9685  -0.1032 LP             1 S1                 0.0000
     45 ****        -1.5927  -2.3846   0.1157 LP             1 S1                 0.0000
     46 ****         0.0573  -2.8297   0.3973 LP             1 S1                 0.0000
     47 ****         5.0419   0.6120  -2.7232 LP             1 S1                 0.0000
     48 ****         6.3952   0.4279  -1.8280 LP             1 S1                 0.0000
@<TRIPOS>BOND
    1    1    2 1     
    2    1   23 1     
    3    1   24 1     
    4    1   25 1     
    5    2   20 ar    
    6    2    3 ar    
    7    3    4 ar    
    8    3   26 1     
    9    4    5 1     
   10    4    6 ar    
   11    5   27 1     
   12    5   28 1     
   13    5   29 1     
   14    6    7 ar    
   15    7    8 1     
   16    7   20 ar    
   17    8    9 am    
   18    8   30 1     
   19    9   10 2     
   20    9   11 am    
   21   11   12 1     
   22   11   31 1     
   23   12   21 1     
   24   12   19 1     
   25   12   13 1     
   26   13   14 1     
   27   13   32 1     
   28   13   33 1     
   29   14   15 1     
   30   14   34 1     
   31   14   35 1     
   32   15   22 1     
   33   15   16 1     
   34   15   18 1     
   35   16   17 1     
   36   16   36 1     
   37   16   37 1     
   38   17   38 1     
   39   18   19 1     
   40   18   39 1     
   41   18   40 1     
   42   19   41 1     
   43   19   42 1     
   44   20   43 1     
   45    6   44 1     
   46   10   45 1     
   47   10   46 1     
   48   17   47 1     
   49   17   48 1     
@<TRIPOS>SUBSTRUCTURE
      1 S1             1
@<TRIPOS>SET
LONE_PAIRS      STATIC     ATOMS    <user>   **** ""
5 44 45 46 47 48
DONOR_HYDROGENS      STATIC     ATOMS    <user>   **** ""
3 30 31 38
ATOM$BLUE        STATIC     ATOMS    COLORGROUP SYSTEM
5 44 45 46 47 48
ATOM$RED        STATIC     ATOMS    COLORGROUP SYSTEM
3 30 31 38
