AV-unprocessed.smi:39|AV-procd|sdf|351|dock3
  -GOLD-   2262016193D 1   1.00000     0.00000
 Structure written by MMmdl.
 32 33  0  0  0  0  0  0  0  0  3 V2000
  152.7025  142.0103  159.4787 C   0  0  0  0  0  0  0  0  0  0  0  0
  151.8587  141.9046  158.2192 C   0  0  0  0  0  0  0  0  0  0  0  0
  151.9022  140.8204  157.4034 C   0  0  0  0  0  0  0  0  0  0  0  0
  151.1445  140.6949  156.2464 N   0  0  0  0  0  0  0  0  0  0  0  0
  151.2387  139.4663  155.3685 C   0  0  1  0  0  0  0  0  0  0  0  0
  152.6674  139.2904  154.8457 C   0  0  0  0  0  0  0  0  0  0  0  0
  153.2122  138.2172  155.7706 C   0  0  2  0  0  0  0  0  0  0  0  0
  154.3037  137.4483  155.1688 N   0  0  0  0  0  0  0  0  0  0  0  0
  155.2952  138.0932  154.8027 N   0  3  0  0  0  0  0  0  0  0  0  0
  156.1423  138.7892  154.4975 N   0  5  0  0  0  0  0  0  0  0  0  0
  151.9619  137.3684  156.0154 C   0  0  1  0  0  0  0  0  0  0  0  0
  152.0341  136.5234  157.2969 C   0  0  0  0  0  0  0  0  0  0  0  0
  153.0501  135.5507  157.1799 O   0  0  0  0  0  0  0  0  0  0  0  0
  150.9238  138.3383  156.1306 O   0  0  0  0  0  0  0  0  0  0  0  0
  150.2936  141.7519  155.8611 C   0  0  0  0  0  0  0  0  0  0  0  0
  149.6188  141.7282  154.8326 O   0  0  0  0  0  0  0  0  0  0  0  0
  150.2436  142.8624  156.7018 N   0  0  0  0  0  0  0  0  0  0  0  0
  150.9732  143.0227  157.8820 C   0  0  0  0  0  0  0  0  0  0  0  0
  150.8403  144.0511  158.5435 O   0  0  0  0  0  0  0  0  0  0  0  0
  150.4944  139.5778  154.5784 H   0  0  0  0  0  0  0  0  0  0  0  0
  153.5254  138.6738  156.7118 H   0  0  0  0  0  0  0  0  0  0  0  0
  151.7691  136.7430  155.1410 H   0  0  0  0  0  0  0  0  0  0  0  0
  149.6301  143.6177  156.4327 H   0  0  0  0  0  0  0  0  0  0  0  0
  153.3279  141.1287  159.6221 H   0  0  0  0  0  0  0  0  0  0  0  0
  152.0641  142.1137  160.3568 H   0  0  0  0  0  0  0  0  0  0  0  0
  153.3582  142.8800  159.4265 H   0  0  0  0  0  0  0  0  0  0  0  0
  152.5699  140.0163  157.6744 H   0  0  0  0  0  0  0  0  0  0  0  0
  152.6158  138.9321  153.8165 H   0  0  0  0  0  0  0  0  0  0  0  0
  153.2347  140.2218  154.8663 H   0  0  0  0  0  0  0  0  0  0  0  0
  152.2854  137.1550  158.1496 H   0  0  0  0  0  0  0  0  0  0  0  0
  151.0768  136.0500  157.5160 H   0  0  0  0  0  0  0  0  0  0  0  0
  152.9030  134.8820  157.8313 H   0  0  0  0  0  0  0  0  0  0  0  0
  1  2  1  0  0  0  0
  1 24  1  0  0  0  0
  1 25  1  0  0  0  0
  1 26  1  0  0  0  0
  2 18  1  0  0  0  0
  2  3  2  0  0  0  0
  3  4  1  0  0  0  0
  3 27  1  0  0  0  0
  4  5  1  0  0  0  0
  4 15  1  0  0  0  0
  5 20  1  0  0  0  0
  5 14  1  0  0  0  0
  5  6  1  0  0  0  0
  6  7  1  0  0  0  0
  6 28  1  0  0  0  0
  6 29  1  0  0  0  0
  7 21  1  0  0  0  0
  7  8  1  0  0  0  0
  7 11  1  0  0  0  0
  8  9  2  0  0  0  0
  9 10  2  0  0  0  0
 11 22  1  0  0  0  0
 11 12  1  0  0  0  0
 11 14  1  0  0  0  0
 12 13  1  0  0  0  0
 12 30  1  0  0  0  0
 12 31  1  0  0  0  0
 13 32  1  0  0  0  0
 15 16  2  0  0  0  0
 15 17  1  0  0  0  0
 17 23  1  0  0  0  0
 17 18  1  0  0  0  0
 18 19  2  0  0  0  0
M  CHG  1   9   1
M  CHG  1  10  -1
M  END
> <s_m_source_file>
AV-unprocessed.smi

> <i_m_source_file_index>
39

> <i_lp_mmshare_version>
43012

> <i_f3d_flags>
0

> <s_epik_input>
Tz1jMVtuSF1jKD1PKW4oW2NIXWMxW0NIM10pW0NASF0yW0NIMl1bQ0BIXShOPVtOK109W04tXSlbQ0BIXShPMilbQ0gyXVtPSF0=

> <s_epik_cmdline>
J2VwaWtfcHl0aG9uJywgJy1waCcsICc3LjAnLCAnLXRuJywgJzgnLCAnLW1hJywgJzIwMCcsICctbWV0YWxfYmluZGluZycsICctaW1hZScsICc8aW5maWxlLm1hZT4nLCAnLW9tYWUnLCAnPG91dGZpbGUubWFlPic=

> <r_lp_tautomer_probability>
0.999537

> <r_epik_Ionization_Penalty>
0.00127512

> <r_epik_Ionization_Penalty_Charging>
0.00127507

> <r_epik_Ionization_Penalty_Neutral>
5.43433e-08

> <r_epik_State_Penalty>
0.000844892

> <r_epik_Charging_Adjusted_Penalty>
0.00211996

> <i_epik_Tot_Q>
0

> <i_epik_Tot_abs_Q>
2

> <r_epik_Metal_State_Penalty>
0.680636

> <b_epik_Metal_Only>
0

> <s_epik_Chemistry_Notes>
This compound contains an acetal/aminal-like group ( X-CH(R)-Y where X, Y are N, S, or O) that may be acid/base labile, releasing an aldehyde.

> <s_lp_Force_Field>
OPLS_2005

> <r_lp_Energy>
24.0553

> <b_lp_Chiralities_Consistent>
1

> <s_lp_Variant>
AV-unprocessed.smi:39-1

> <Gold.Version>
5.8.1

> <Gold.Id.Protein>
6NUR|6NUR_protein|mol2

> <Gold.PLP.Fitness>
39.3402

> <Gold.PLP.PLP>
-31.1528

> <Gold.PLP.part.hbond>
-5.3304

> <Gold.PLP.part.metal>
0.0000

> <Gold.PLP.part.buried>
-4.0162

> <Gold.PLP.part.nonpolar>
-22.5268

> <Gold.PLP.part.repulsive>
0.3490

> <Gold.PLP.ligand.clash>
0.0000

> <Gold.PLP.ligand.torsion>
0.0503

> <Gold.PLP.Chemscore.Hbond>
2.7520

> <Gold.PLP.Chemscore.CHOScore>
0.0000

> <Gold.PLP.Chemscore.Metal>
0.0000

> <Gold.Chemscore.Hbonds>
donor molecule, donor type, donor heavy atom, donor atom, acceptor molecule, acceptor atom, score
      L1  H    17    23       P1  8028  1.00
      P1  H  7997  8008       L1    10  0.70
      P1  H 10752 10763       L1    13  1.00

> <Gold.PLP.Chemscore.Internal.Correction>
0.0321

> <Gold.Rescore>
     Score         DG    S(hbond)    S(metal)    S(lipo)     H(rot)  DE(clash)    DE(int)     intcor
      9.88     -11.67       2.15        0.00      51.77       2.75       1.74       0.05       ----

> <Gold.Chemscore.Fitness>
9.8780

> <Gold.Chemscore.DG>
-11.6669

> <Gold.Chemscore.ZeroCoef>
-5.4800

> <Gold.Chemscore.Hbond>
2.1485

> <Gold.Chemscore.Metal>
0.0000

> <Gold.Chemscore.Lipo>
51.7685

> <Gold.Chemscore.Internal_Hbond>
0.0000

> <Gold.Chemscore.DEClash>
1.7425

> <Gold.Chemscore.DEInternal>
0.0464

> <Gold.Chemscore.Rot>
2.7524

> <Gold.Chemscore.Internal.Correction>
   9.000000E+99

> <Gold.Chemscore.Hbonds>
donor molecule, donor type, donor heavy atom, donor atom, acceptor molecule, acceptor atom, score
      L1  H    17    23       P1  8028  0.93
      P1  H  7997  8008       L1    10  0.24
      P1  H 10752 10763       L1    13  0.65

> <Gold.Chemscore.Hbond.Weighted>
-7.1761

> <Gold.Chemscore.Metal.Weighted>
-0.0000

> <Gold.Chemscore.Lipo.Weighted>
-6.0569

> <Gold.Chemscore.Internal_Hbond.Weighted>
0.0000

> <Gold.Chemscore.DEClash.Weighted>
1.7425

> <Gold.Chemscore.DEInternal.Weighted>
0.0464

> <Gold.Chemscore.Rot.Weighted>
7.0461

> <Gold.Chemscore.Internal.Correction.Weighted>
   9.000000E+99

> <Gold.Protein.RotatedTorsions>
[ 6907 6896 6895 6894 ] final   44.12 input  -60.11 | X-H torsion
[ 7974 7965 7964 7962 ] final   74.49 input  175.53 | X-H torsion
[ 8008 7997 7996 7995 ] final   70.42 input   59.86 | X-H torsion
[ 10167 10162 10161 10158 ] final   -7.32 input  -65.29 | X-H torsion
[ 10718 10713 10712 10709 ] final  -34.76 input   66.30 | X-H torsion
[ 10763 10752 10751 10750 ] final  114.85 input  -60.55 | X-H torsion
[ 11005 11000 10999 10996 ] final -124.98 input  -57.11 | X-H torsion

> <Gold.Protein.ActiveResidues>
 VAL166  LYS551  ARG553  GLY616  TRP617  ASP618  TYR619  PRO620  LYS621  CYS622 
 ASP623  PHE694  ASN695  SER759  ASP760  ASP761  ALA762  ILE779  LEU786  VAL792 
 PHE793  MET794  SER795  GLU796  ALA797  LYS798  CYS799  TRP800  GLU811  SER814 

> <Gold.Protein.RotatedAtoms>
  152.2286  134.8344  160.0476 H   0  0  0  0  0  0  0  0  0  0  0  0  # atno 6907 bound_to 6896
  151.9101  133.3554  159.3869 H   0  0  0  0  0  0  0  0  0  0  0  0  # atno 6908 bound_to 6896
  150.7019  134.4666  159.5450 H   0  0  0  0  0  0  0  0  0  0  0  0  # atno 6909 bound_to 6896
  145.7276  139.2672  143.1559 H   0  0  0  0  0  0  0  0  0  0  0  0  # atno 7974 bound_to 7965
  155.7386  140.3490  155.5093 H   0  0  0  0  0  0  0  0  0  0  0  0  # atno 8008 bound_to 7997
  155.9116  140.1051  157.1296 H   0  0  0  0  0  0  0  0  0  0  0  0  # atno 8009 bound_to 7997
  154.4057  140.1267  156.4551 H   0  0  0  0  0  0  0  0  0  0  0  0  # atno 8010 bound_to 7997
  140.7025  143.6094  150.8719 H   0  0  0  0  0  0  0  0  0  0  0  0  # atno 10167 bound_to 10162
  156.3467  130.4302  149.7740 H   0  0  0  0  0  0  0  0  0  0  0  0  # atno 10718 bound_to 10713
  153.5133  135.3613  155.2597 H   0  0  0  0  0  0  0  0  0  0  0  0  # atno 10763 bound_to 10752
  154.8740  135.4028  154.3343 H   0  0  0  0  0  0  0  0  0  0  0  0  # atno 10764 bound_to 10752
  153.4000  135.7074  153.6499 H   0  0  0  0  0  0  0  0  0  0  0  0  # atno 10765 bound_to 10752
  140.9798  134.0689  157.3778 H   0  0  0  0  0  0  0  0  0  0  0  0  # atno 11005 bound_to 11000
  146.0567  140.8013  142.9755 LP  0  0  0  0  0  0  0  0  0  0  0  0  # atno 17320 bound_to 7965
  144.6901  140.3135  143.7244 LP  0  0  0  0  0  0  0  0  0  0  0  0  # atno 17321 bound_to 7965
  139.9817  143.5943  152.2940 LP  0  0  0  0  0  0  0  0  0  0  0  0  # atno 17342 bound_to 10162
  139.6567  144.7662  151.2042 LP  0  0  0  0  0  0  0  0  0  0  0  0  # atno 17343 bound_to 10162
  156.4956  130.8105  151.3112 LP  0  0  0  0  0  0  0  0  0  0  0  0  # atno 17370 bound_to 10713
  157.7455  130.9961  150.2768 LP  0  0  0  0  0  0  0  0  0  0  0  0  # atno 17371 bound_to 10713
  139.8945  135.0136  156.6956 LP  0  0  0  0  0  0  0  0  0  0  0  0  # atno 17394 bound_to 11000
  140.7204  133.9146  155.8143 LP  0  0  0  0  0  0  0  0  0  0  0  0  # atno 17395 bound_to 11000

$$$$
