AV-unprocessed.smi:1254|AV-procd|sdf|5272|dock4
  -GOLD-   22720 4383D 1   1.00000     0.00000
 Structure written by MMmdl.
 46 47  0  0  0  0  0  0  0  0  2 V2000
  147.8267  130.4049  153.2847 C   0  0  0  0  0  0  0  0  0  0  0  0
  148.4661  131.6756  153.7292 C   0  0  0  0  0  0  0  0  0  0  0  0
  148.6007  132.9026  153.1433 C   0  0  0  0  0  0  0  0  0  0  0  0
  149.3182  133.6453  154.1180 C   0  0  0  0  0  0  0  0  0  0  0  0
  149.6648  135.0014  153.8902 N   0  0  0  0  0  0  0  0  0  0  0  0
  150.5182  135.7574  154.6011 C   0  0  0  0  0  0  0  0  0  0  0  0
  151.1641  135.3740  155.5769 O   0  0  0  0  0  0  0  0  0  0  0  0
  150.5842  137.0069  154.1191 N   0  0  0  0  0  0  0  0  0  0  0  0
  151.4124  138.0721  154.6743 C   0  0  0  0  0  0  0  0  0  0  0  0
  150.5655  139.2465  155.1975 C   0  0  1  0  0  0  0  0  0  0  0  0
  151.3969  140.2196  156.0552 C   0  0  0  0  0  0  0  0  0  0  0  0
  150.5614  141.3640  156.4967 N   0  3  1  0  0  0  0  0  0  0  0  0
  151.2765  142.3239  157.3765 C   0  0  0  0  0  0  0  0  0  0  0  0
  152.1128  141.6366  158.4780 C   0  0  0  0  0  0  0  0  0  0  0  0
  151.3182  140.5357  159.2004 C   0  0  0  0  0  0  0  0  0  0  0  0
  152.6294  142.6731  159.4868 C   0  0  0  0  0  0  0  0  0  0  0  0
  149.9372  142.0274  155.3275 C   0  0  0  0  0  0  0  0  0  0  0  0
  149.1649  141.0058  154.4768 C   0  0  0  0  0  0  0  0  0  0  0  0
  150.0405  139.9579  154.0811 O   0  0  0  0  0  0  0  0  0  0  0  0
  149.5955  132.9365  155.2019 N   0  0  0  0  0  0  0  0  0  0  0  0
  149.0518  131.6699  154.9574 O   0  0  0  0  0  0  0  0  0  0  0  0
  147.0895  130.5928  152.5039 H   0  0  0  0  0  0  0  0  0  0  0  0
  147.3203  129.9121  154.1149 H   0  0  0  0  0  0  0  0  0  0  0  0
  148.5732  129.7173  152.8867 H   0  0  0  0  0  0  0  0  0  0  0  0
  148.2425  133.2144  152.1737 H   0  0  0  0  0  0  0  0  0  0  0  0
  149.2071  135.4444  153.1075 H   0  0  0  0  0  0  0  0  0  0  0  0
  150.0207  137.2401  153.3145 H   0  0  0  0  0  0  0  0  0  0  0  0
  152.0342  137.6672  155.4743 H   0  0  0  0  0  0  0  0  0  0  0  0
  152.0947  138.4180  153.8973 H   0  0  0  0  0  0  0  0  0  0  0  0
  149.7418  138.8586  155.7999 H   0  0  0  0  0  0  0  0  0  0  0  0
  151.7926  139.6849  156.9177 H   0  0  0  0  0  0  0  0  0  0  0  0
  152.2526  140.5876  155.4869 H   0  0  0  0  0  0  0  0  0  0  0  0
  151.9064  142.9703  156.7632 H   0  0  0  0  0  0  0  0  0  0  0  0
  150.5496  142.9787  157.8596 H   0  0  0  0  0  0  0  0  0  0  0  0
  152.9914  141.1762  158.0271 H   0  0  0  0  0  0  0  0  0  0  0  0
  150.4200  140.9378  159.6703 H   0  0  0  0  0  0  0  0  0  0  0  0
  151.9187  140.0670  159.9808 H   0  0  0  0  0  0  0  0  0  0  0  0
  151.0103  139.7477  158.5130 H   0  0  0  0  0  0  0  0  0  0  0  0
  151.8066  143.1767  159.9954 H   0  0  0  0  0  0  0  0  0  0  0  0
  153.2330  143.4359  158.9940 H   0  0  0  0  0  0  0  0  0  0  0  0
  153.2535  142.2046  160.2486 H   0  0  0  0  0  0  0  0  0  0  0  0
  149.2568  142.8107  155.6636 H   0  0  0  0  0  0  0  0  0  0  0  0
  150.7093  142.5086  154.7248 H   0  0  0  0  0  0  0  0  0  0  0  0
  148.3155  140.5997  155.0284 H   0  0  0  0  0  0  0  0  0  0  0  0
  148.7635  141.4867  153.5848 H   0  0  0  0  0  0  0  0  0  0  0  0
  149.8023  140.9825  157.0435 H   0  0  0  0  0  0  0  0  0  0  0  0
  1  2  1  0  0  0  0
  1 22  1  0  0  0  0
  1 23  1  0  0  0  0
  1 24  1  0  0  0  0
  2 21  1  0  0  0  0
  2  3  2  0  0  0  0
  3  4  1  0  0  0  0
  3 25  1  0  0  0  0
  4  5  1  0  0  0  0
  4 20  2  0  0  0  0
  5  6  1  0  0  0  0
  5 26  1  0  0  0  0
  6  7  2  0  0  0  0
  6  8  1  0  0  0  0
  8  9  1  0  0  0  0
  8 27  1  0  0  0  0
  9 10  1  0  0  0  0
  9 28  1  0  0  0  0
  9 29  1  0  0  0  0
 10 19  1  0  0  0  0
 10 11  1  0  0  0  0
 10 30  1  0  0  0  0
 11 12  1  0  0  0  0
 11 31  1  0  0  0  0
 11 32  1  0  0  0  0
 12 13  1  0  0  0  0
 12 17  1  0  0  0  0
 12 46  1  0  0  0  0
 13 14  1  0  0  0  0
 13 33  1  0  0  0  0
 13 34  1  0  0  0  0
 14 15  1  0  0  0  0
 14 16  1  0  0  0  0
 14 35  1  0  0  0  0
 15 36  1  0  0  0  0
 15 37  1  0  0  0  0
 15 38  1  0  0  0  0
 16 39  1  0  0  0  0
 16 40  1  0  0  0  0
 16 41  1  0  0  0  0
 17 18  1  0  0  0  0
 17 42  1  0  0  0  0
 17 43  1  0  0  0  0
 18 19  1  0  0  0  0
 18 44  1  0  0  0  0
 18 45  1  0  0  0  0
 20 21  1  0  0  0  0
M  CHG  1  12   1
M  END
> <s_m_source_file>
AV-unprocessed.smi

> <i_m_source_file_index>
1254

> <i_lp_mmshare_version>
43012

> <i_f3d_flags>
0

> <s_epik_input>
W0NIM11jMVtjSF1jKG5vMSlbTkhdQyg9TylbTkhdW0NIMl1bQ0BASF0yW0NIMl1OKFtDSDJdW0NIMl1PMilbQ0gyXVtDSF0oW0NIM10pW0NIM10=

> <s_epik_cmdline>
J2VwaWtfcHl0aG9uJywgJy1waCcsICc3LjAnLCAnLXRuJywgJzgnLCAnLW1hJywgJzIwMCcsICctbWV0YWxfYmluZGluZycsICctaW1hZScsICc8aW5maWxlLm1hZT4nLCAnLW9tYWUnLCAnPG91dGZpbGUubWFlPic=

> <r_epik_Ionization_Penalty>
0.0986825

> <r_epik_Ionization_Penalty_Charging>
0.0986478

> <r_epik_Ionization_Penalty_Neutral>
3.46838e-05

> <r_epik_State_Penalty>
0.0887259

> <r_epik_Charging_Adjusted_Penalty>
0.187374

> <i_epik_Tot_Q>
1

> <i_epik_Tot_abs_Q>
1

> <r_epik_Metal_State_Penalty>
0.103424

> <b_epik_Metal_Only>
0

> <s_lp_Force_Field>
OPLS_2005

> <r_lp_Energy>
13.7393

> <b_lp_Chiralities_Consistent>
1

> <s_lp_Variant>
AV-unprocessed.smi:1254-4

> <Gold.Version>
5.8.1

> <Gold.Id.Protein>
6NUR|6NUR_protein|mol2

> <Gold.PLP.Fitness>
47.8070

> <Gold.PLP.PLP>
-36.9665

> <Gold.PLP.part.hbond>
-5.7354

> <Gold.PLP.part.metal>
0.0000

> <Gold.PLP.part.buried>
-1.5424

> <Gold.PLP.part.nonpolar>
-30.7567

> <Gold.PLP.part.repulsive>
1.1941

> <Gold.PLP.ligand.clash>
0.0000

> <Gold.PLP.ligand.torsion>
0.2551

> <Gold.PLP.Chemscore.Hbond>
3.7744

> <Gold.PLP.Chemscore.CHOScore>
0.0000

> <Gold.PLP.Chemscore.Metal>
0.0000

> <Gold.Chemscore.Hbonds>
donor molecule, donor type, donor heavy atom, donor atom, acceptor molecule, acceptor atom, score
      L1  H     5    26       P1  7948  0.77
      L1  H     8    27       P1  7948  0.75
      P1  H  7989  7998       L1    19  0.96
      P1  H 10752 10765       L1     7  1.00

> <Gold.PLP.Chemscore.Internal.Correction>
0.0275

> <Gold.Rescore>
     Score         DG    S(hbond)    S(metal)    S(lipo)     H(rot)  DE(clash)    DE(int)     intcor
     15.45     -17.28       1.89        0.00      84.78       1.73       0.36       1.46       ----

> <Gold.Chemscore.Fitness>
15.4527

> <Gold.Chemscore.DG>
-17.2790

> <Gold.Chemscore.ZeroCoef>
-5.4800

> <Gold.Chemscore.Hbond>
1.8882

> <Gold.Chemscore.Metal>
0.0000

> <Gold.Chemscore.Lipo>
84.7756

> <Gold.Chemscore.Internal_Hbond>
0.0000

> <Gold.Chemscore.DEClash>
0.3642

> <Gold.Chemscore.DEInternal>
1.4621

> <Gold.Chemscore.Rot>
1.7291

> <Gold.Chemscore.Internal.Correction>
   9.000000E+99

> <Gold.Chemscore.Hbonds>
donor molecule, donor type, donor heavy atom, donor atom, acceptor molecule, acceptor atom, score
      L1  H     5    26       P1  7948  0.17
      L1  H     8    27       P1  7948  0.18
      P1  H  7989  7998       L1    19  0.12
      P1  H 10752 10765       L1     7  0.24

> <Gold.Chemscore.Hbond.Weighted>
-6.3067

> <Gold.Chemscore.Metal.Weighted>
-0.0000

> <Gold.Chemscore.Lipo.Weighted>
-9.9187

> <Gold.Chemscore.Internal_Hbond.Weighted>
0.0000

> <Gold.Chemscore.DEClash.Weighted>
0.3642

> <Gold.Chemscore.DEInternal.Weighted>
1.4621

> <Gold.Chemscore.Rot.Weighted>
4.4265

> <Gold.Chemscore.Internal.Correction.Weighted>
   9.000000E+99

> <Gold.Protein.RotatedTorsions>
[ 6907 6896 6895 6894 ] final   54.52 input  -60.11 | X-H torsion
[ 7974 7965 7964 7962 ] final -107.00 input  175.53 | X-H torsion
[ 8008 7997 7996 7995 ] final -154.45 input   59.86 | X-H torsion
[ 10167 10162 10161 10158 ] final  164.81 input  -65.29 | X-H torsion
[ 10718 10713 10712 10709 ] final  -65.48 input   66.30 | X-H torsion
[ 10763 10752 10751 10750 ] final -165.01 input  -60.55 | X-H torsion
[ 11005 11000 10999 10996 ] final -112.06 input  -57.11 | X-H torsion

> <Gold.Protein.ActiveResidues>
 VAL166  LYS551  ARG553  GLY616  TRP617  ASP618  TYR619  PRO620  LYS621  CYS622 
 ASP623  PHE694  ASN695  SER759  ASP760  ASP761  ALA762  ILE779  LEU786  VAL792 
 PHE793  MET794  SER795  GLU796  ALA797  LYS798  CYS799  TRP800  GLU811  SER814 

> <Gold.Protein.RotatedAtoms>
  152.3447  134.7087  160.0253 H   0  0  0  0  0  0  0  0  0  0  0  0  # atno 6907 bound_to 6896
  151.7461  133.3319  159.3387 H   0  0  0  0  0  0  0  0  0  0  0  0  # atno 6908 bound_to 6896
  150.7501  134.6167  159.6159 H   0  0  0  0  0  0  0  0  0  0  0  0  # atno 6909 bound_to 6896
  145.2108  140.9095  143.3315 H   0  0  0  0  0  0  0  0  0  0  0  0  # atno 7974 bound_to 7965
  155.6866  140.0750  157.2464 H   0  0  0  0  0  0  0  0  0  0  0  0  # atno 8008 bound_to 7997
  154.4096  140.1672  156.2093 H   0  0  0  0  0  0  0  0  0  0  0  0  # atno 8009 bound_to 7997
  155.9488  140.3379  155.6393 H   0  0  0  0  0  0  0  0  0  0  0  0  # atno 8010 bound_to 7997
  139.4895  144.4197  151.9202 H   0  0  0  0  0  0  0  0  0  0  0  0  # atno 10167 bound_to 10162
  156.0667  130.4248  150.1570 H   0  0  0  0  0  0  0  0  0  0  0  0  # atno 10718 bound_to 10713
  154.6973  135.2981  154.9392 H   0  0  0  0  0  0  0  0  0  0  0  0  # atno 10763 bound_to 10752
  154.0336  135.6667  153.4787 H   0  0  0  0  0  0  0  0  0  0  0  0  # atno 10764 bound_to 10752
  153.0655  135.5090  154.8098 H   0  0  0  0  0  0  0  0  0  0  0  0  # atno 10765 bound_to 10752
  141.0698  133.9399  157.2508 H   0  0  0  0  0  0  0  0  0  0  0  0  # atno 11005 bound_to 11000
  144.9858  139.3738  143.6239 LP  0  0  0  0  0  0  0  0  0  0  0  0  # atno 17320 bound_to 7965
  146.3398  139.9018  142.8793 LP  0  0  0  0  0  0  0  0  0  0  0  0  # atno 17321 bound_to 7965
  140.3640  144.2937  150.5929 LP  0  0  0  0  0  0  0  0  0  0  0  0  # atno 17342 bound_to 10162
  140.5377  143.2230  151.8135 LP  0  0  0  0  0  0  0  0  0  0  0  0  # atno 17343 bound_to 10162
  156.9629  130.9810  151.3475 LP  0  0  0  0  0  0  0  0  0  0  0  0  # atno 17370 bound_to 10713
  157.5713  130.8312  149.8395 LP  0  0  0  0  0  0  0  0  0  0  0  0  # atno 17371 bound_to 10713
  139.9512  135.0175  156.8998 LP  0  0  0  0  0  0  0  0  0  0  0  0  # atno 17394 bound_to 11000
  140.5698  134.0454  155.7426 LP  0  0  0  0  0  0  0  0  0  0  0  0  # atno 17395 bound_to 11000

$$$$
