#       Name:                AV-unprocessed.smi:443
#       Creating user name   scv26
#       Creation time:       Thu Mar 26 22:57:32 2020


#       File generated by GOLD software.
#

@<TRIPOS>MOLECULE
AV-unprocessed.smi:443
    56    57     1
SMALL
NO_CHARGES


@<TRIPOS>ATOM
      1 ****        -0.4596   2.3746  -1.7501 C.3            1 S1                 0.0000
      2 ****        -1.4601   1.2573  -1.6261 C.2            1 S1                 0.0000
      3 ****        -1.4827   0.6215  -0.5016 N.2            1 S1                 0.0000
      4 ****        -2.3465  -0.4341  -0.2868 N.am           1 S1                 0.0000
      5 ****        -2.1988  -1.0732   1.0277 C.3            1 S1                 0.0000
      6 ****        -1.3441  -2.3589   0.9633 C.3            1 S1                 0.0000
      7 ****        -1.2587  -2.9540   2.2414 O.3            1 S1                 0.0000
      8 ****         0.0745  -2.1651   0.3969 C.3            1 S1                 0.0000
      9 ****         0.7016  -1.0576   1.0331 O.3            1 S1                 0.0000
     10 ****         1.9735  -0.6938   0.6416 C.ar           1 S1                 0.0000
     11 ****         2.6392  -1.2904  -0.4606 C.ar           1 S1                 0.0000
     12 ****         3.9316  -0.8781  -0.8319 C.ar           1 S1                 0.0000
     13 ****         4.5805   0.1353  -0.1083 C.ar           1 S1                 0.0000
     14 ****         3.9355   0.7319   0.9890 C.ar           1 S1                 0.0000
     15 ****         2.6378   0.3266   1.3745 C.ar           1 S1                 0.0000
     16 ****         1.9983   1.0086   2.5863 C.3            1 S1                 0.0000
     17 ****         1.6874   0.0268   3.7300 C.3            1 S1                 0.0000
     18 ****         0.7804   1.8638   2.2039 C.3            1 S1                 0.0000
     19 ****        -3.2505  -0.8939  -1.1977 C.2            1 S1                 0.0000
     20 ****        -4.0012  -1.8426  -0.9653 O.2            1 S1                 0.0000
     21 ****        -3.2303  -0.1608  -2.4657 C.2            1 S1                 0.0000
     22 ****        -4.1622  -0.6109  -3.4488 C.1            1 S1                 0.0000
     23 ****        -4.9093  -0.9632  -4.2599 N.1            1 S1                 0.0000
     24 ****        -2.3795   0.8717  -2.6915 C.2            1 S1                 0.0000
     25 ****        -2.3131   1.6599  -3.9925 C.3            1 S1                 0.0000
     26 ****        -0.9626   3.3310  -1.8928 H              1 S1                 0.0000
     27 ****         0.2028   2.2093  -2.5999 H              1 S1                 0.0000
     28 ****         0.1664   2.4602  -0.8609 H              1 S1                 0.0000
     29 ****        -1.7576  -0.3712   1.7371 H              1 S1                 0.0000
     30 ****        -3.1839  -1.3032   1.4380 H              1 S1                 0.0000
     31 ****        -1.8551  -3.0882   0.3338 H              1 S1                 0.0000
     32 ****        -2.1334  -3.1495   2.5407 H              1 S1                 0.0000
     33 ****         0.6661  -3.0733   0.5233 H              1 S1                 0.0000
     34 ****        -0.0071  -1.9706  -0.6733 H              1 S1                 0.0000
     35 ****         2.1794  -2.0713  -1.0463 H              1 S1                 0.0000
     36 ****         4.4251  -1.3402  -1.6743 H              1 S1                 0.0000
     37 ****         5.5726   0.4541  -0.3925 H              1 S1                 0.0000
     38 ****         4.4498   1.5074   1.5374 H              1 S1                 0.0000
     39 ****         2.7370   1.7038   2.9873 H              1 S1                 0.0000
     40 ****         2.5803  -0.5272   4.0208 H              1 S1                 0.0000
     41 ****         0.9187  -0.6971   3.4629 H              1 S1                 0.0000
     42 ****         1.3325   0.5604   4.6120 H              1 S1                 0.0000
     43 ****         1.0464   2.6093   1.4545 H              1 S1                 0.0000
     44 ****         0.3910   2.3968   3.0717 H              1 S1                 0.0000
     45 ****        -0.0316   1.2617   1.8021 H              1 S1                 0.0000
     46 ****        -3.0664   1.3365  -4.7102 H              1 S1                 0.0000
     47 ****        -1.3370   1.5381  -4.4631 H              1 S1                 0.0000
     48 ****        -2.4755   2.7220  -3.8069 H              1 S1                 0.0000
     49 ****        -0.8604   0.9002   0.2298 LP             1 S1                 0.0000
     50 ****        -0.8176  -2.3222   2.8787 LP             1 S1                 0.0000
     51 ****        -0.7250  -3.7978   2.1854 LP             1 S1                 0.0000
     52 ****         0.7441  -1.2664   2.0101 LP             1 S1                 0.0000
     53 ****         0.1117  -0.2634   0.8874 LP             1 S1                 0.0000
     54 ****        -3.9614  -2.3066  -0.0804 LP             1 S1                 0.0000
     55 ****        -4.6505  -2.1487  -1.6616 LP             1 S1                 0.0000
     56 ****        -5.5547  -1.2675  -4.9606 LP             1 S1                 0.0000
@<TRIPOS>BOND
    1    1    2 1     
    2    1   26 1     
    3    1   27 1     
    4    1   28 1     
    5    2   24 1     
    6    2    3 2     
    7    3    4 1     
    8    4    5 1     
    9    4   19 am    
   10    5    6 1     
   11    5   29 1     
   12    5   30 1     
   13    6    7 1     
   14    6    8 1     
   15    6   31 1     
   16    7   32 1     
   17    8    9 1     
   18    8   33 1     
   19    8   34 1     
   20    9   10 1     
   21   10   15 ar    
   22   10   11 ar    
   23   11   12 ar    
   24   11   35 1     
   25   12   13 ar    
   26   12   36 1     
   27   13   14 ar    
   28   13   37 1     
   29   14   15 ar    
   30   14   38 1     
   31   15   16 1     
   32   16   17 1     
   33   16   18 1     
   34   16   39 1     
   35   17   40 1     
   36   17   41 1     
   37   17   42 1     
   38   18   43 1     
   39   18   44 1     
   40   18   45 1     
   41   19   20 2     
   42   19   21 1     
   43   21   22 1     
   44   21   24 2     
   45   22   23 3     
   46   24   25 1     
   47   25   46 1     
   48   25   47 1     
   49   25   48 1     
   50    3   49 1     
   51    7   50 1     
   52    7   51 1     
   53    9   52 1     
   54    9   53 1     
   55   20   54 1     
   56   20   55 1     
   57   23   56 1     
@<TRIPOS>SUBSTRUCTURE
      1 S1             1
@<TRIPOS>SET
LONE_PAIRS      STATIC     ATOMS    <user>   **** ""
8 49 50 51 52 53 54 55 56
DONOR_HYDROGENS      STATIC     ATOMS    <user>   **** ""
1 32
ATOM$BLUE        STATIC     ATOMS    COLORGROUP SYSTEM
8 49 50 51 52 53 54 55 56
ATOM$RED        STATIC     ATOMS    COLORGROUP SYSTEM
1 32
