AV-unprocessed.smi:1868|AV-procd|sdf|7584|dock1
  -GOLD-   22720 9293D 1   1.00000     0.00000
 Structure written by MMmdl.
 47 49  0  0  0  0  0  0  0  0  2 V2000
  152.6764  137.9344  157.3692 C   0  0  0  0  0  0  0  0  0  0  0  0
  152.4760  139.3147  157.9097 C   0  0  0  0  0  0  0  0  0  0  0  0
  153.4267  139.9552  158.5895 N   0  0  0  0  0  0  0  0  0  0  0  0
  152.8297  141.1667  158.8788 C   0  0  0  0  0  0  0  0  0  0  0  0
  153.3220  142.2886  159.5831 C   0  0  0  0  0  0  0  0  0  0  0  0
  152.5149  143.4316  159.7586 C   0  0  0  0  0  0  0  0  0  0  0  0
  151.2071  143.4696  159.2335 C   0  0  0  0  0  0  0  0  0  0  0  0
  150.6969  142.3629  158.5280 C   0  0  0  0  0  0  0  0  0  0  0  0
  151.5064  141.2238  158.3561 C   0  0  0  0  0  0  0  0  0  0  0  0
  151.3135  139.9912  157.7380 N   0  0  0  0  0  0  0  0  0  0  0  0
  150.1089  139.5440  157.0524 C   0  0  0  0  0  0  0  0  0  0  0  0
  149.9855  140.1064  155.6212 C   0  0  2  0  0  0  0  0  0  0  0  0
  151.1127  139.6679  154.8907 O   0  0  0  0  0  0  0  0  0  0  0  0
  149.9310  141.6492  155.5632 C   0  0  0  0  0  0  0  0  0  0  0  0
  148.5417  142.1730  155.5833 N   0  3  2  0  0  0  0  0  0  0  0  0
  147.7661  141.6641  156.7433 C   0  0  0  0  0  0  0  0  0  0  0  0
  146.3821  142.3301  156.8219 C   0  0  0  0  0  0  0  0  0  0  0  0
  145.5895  142.1277  155.5197 C   0  0  1  0  0  0  0  0  0  0  0  0
  144.2192  142.8174  155.5761 C   0  0  0  0  0  0  0  0  0  0  0  0
  146.4304  142.6270  154.3327 C   0  0  0  0  0  0  0  0  0  0  0  0
  147.8137  141.9556  154.3048 C   0  0  0  0  0  0  0  0  0  0  0  0
  153.6892  137.5872  157.5769 H   0  0  0  0  0  0  0  0  0  0  0  0
  152.5282  137.9241  156.2892 H   0  0  0  0  0  0  0  0  0  0  0  0
  151.9763  137.2393  157.8315 H   0  0  0  0  0  0  0  0  0  0  0  0
  154.3226  142.2695  159.9891 H   0  0  0  0  0  0  0  0  0  0  0  0
  152.9017  144.2836  160.2985 H   0  0  0  0  0  0  0  0  0  0  0  0
  150.5962  144.3496  159.3722 H   0  0  0  0  0  0  0  0  0  0  0  0
  149.6953  142.3911  158.1260 H   0  0  0  0  0  0  0  0  0  0  0  0
  150.1138  138.4535  157.0279 H   0  0  0  0  0  0  0  0  0  0  0  0
  149.2407  139.8256  157.6492 H   0  0  0  0  0  0  0  0  0  0  0  0
  149.1003  139.6781  155.1543 H   0  0  0  0  0  0  0  0  0  0  0  0
  150.9485  138.7902  154.5794 H   0  0  0  0  0  0  0  0  0  0  0  0
  150.4798  142.0969  156.3923 H   0  0  0  0  0  0  0  0  0  0  0  0
  150.4382  141.9747  154.6533 H   0  0  0  0  0  0  0  0  0  0  0  0
  147.6609  140.5806  156.6655 H   0  0  0  0  0  0  0  0  0  0  0  0
  148.3096  141.8652  157.6672 H   0  0  0  0  0  0  0  0  0  0  0  0
  145.8259  141.9202  157.6658 H   0  0  0  0  0  0  0  0  0  0  0  0
  146.5025  143.3959  157.0208 H   0  0  0  0  0  0  0  0  0  0  0  0
  145.4174  141.0581  155.3892 H   0  0  0  0  0  0  0  0  0  0  0  0
  144.3217  143.8951  155.7091 H   0  0  0  0  0  0  0  0  0  0  0  0
  143.6213  142.4355  156.4041 H   0  0  0  0  0  0  0  0  0  0  0  0
  143.6562  142.6478  154.6578 H   0  0  0  0  0  0  0  0  0  0  0  0
  145.9083  142.4278  153.3961 H   0  0  0  0  0  0  0  0  0  0  0  0
  146.5529  143.7096  154.3933 H   0  0  0  0  0  0  0  0  0  0  0  0
  148.3833  142.3583  153.4682 H   0  0  0  0  0  0  0  0  0  0  0  0
  147.7056  140.8848  154.1237 H   0  0  0  0  0  0  0  0  0  0  0  0
  148.6206  143.1717  155.7151 H   0  0  0  0  0  0  0  0  0  0  0  0
  1  2  1  0  0  0  0
  1 22  1  0  0  0  0
  1 23  1  0  0  0  0
  1 24  1  0  0  0  0
  2 10  1  0  0  0  0
  2  3  2  0  0  0  0
  3  4  1  0  0  0  0
  4  9  2  0  0  0  0
  4  5  1  0  0  0  0
  5  6  2  0  0  0  0
  5 25  1  0  0  0  0
  6  7  1  0  0  0  0
  6 26  1  0  0  0  0
  7  8  2  0  0  0  0
  7 27  1  0  0  0  0
  8  9  1  0  0  0  0
  8 28  1  0  0  0  0
  9 10  1  0  0  0  0
 10 11  1  0  0  0  0
 11 12  1  0  0  0  0
 11 29  1  0  0  0  0
 11 30  1  0  0  0  0
 12 13  1  0  0  0  0
 12 14  1  0  0  0  0
 12 31  1  0  0  0  0
 13 32  1  0  0  0  0
 14 15  1  0  0  0  0
 14 33  1  0  0  0  0
 14 34  1  0  0  0  0
 15 21  1  0  0  0  0
 15 16  1  0  0  0  0
 15 47  1  0  0  0  0
 16 17  1  0  0  0  0
 16 35  1  0  0  0  0
 16 36  1  0  0  0  0
 17 18  1  0  0  0  0
 17 37  1  0  0  0  0
 17 38  1  0  0  0  0
 18 19  1  0  0  0  0
 18 20  1  0  0  0  0
 18 39  1  0  0  0  0
 19 40  1  0  0  0  0
 19 41  1  0  0  0  0
 19 42  1  0  0  0  0
 20 21  1  0  0  0  0
 20 43  1  0  0  0  0
 20 44  1  0  0  0  0
 21 45  1  0  0  0  0
 21 46  1  0  0  0  0
M  CHG  1  15   1
M  END
> <s_m_source_file>
AV-unprocessed.smi

> <i_m_source_file_index>
1868

> <i_lp_mmshare_version>
43012

> <i_f3d_flags>
0

> <s_epik_input>
W2NIXTFbY0hdW2NIXVtjSF1jKGMxMiluKGMobjIpW0NIM10pW0NIMl1bQ0BIXShbT0hdKVtDSDJdTjNbQ0gyXVtDSDJdW0NIXShbQ0gzXSlbQ0gyXVtDSDJdMw==

> <s_epik_cmdline>
J2VwaWtfcHl0aG9uJywgJy1waCcsICc3LjAnLCAnLXRuJywgJzgnLCAnLW1hJywgJzIwMCcsICctbWV0YWxfYmluZGluZycsICctaW1hZScsICc8aW5maWxlLm1hZT4nLCAnLW9tYWUnLCAnPG91dGZpbGUubWFlPic=

> <r_epik_Ionization_Penalty>
0.101157

> <r_epik_Ionization_Penalty_Charging>
0.00181365

> <r_epik_Ionization_Penalty_Neutral>
0.0993436

> <r_epik_State_Penalty>
0.0871902

> <r_epik_Charging_Adjusted_Penalty>
0.0890039

> <i_epik_Tot_Q>
1

> <i_epik_Tot_abs_Q>
1

> <r_epik_Metal_State_Penalty>
9.24346e-05

> <b_epik_Metal_Only>
0

> <s_lp_Force_Field>
OPLS_2005

> <r_lp_Energy>
22.6133

> <b_lp_Chiralities_Consistent>
1

> <s_lp_Variant>
AV-unprocessed.smi:1868-1

> <Gold.Version>
5.8.1

> <Gold.Id.Protein>
6NUR|6NUR_protein|mol2

> <Gold.PLP.Fitness>
50.6268

> <Gold.PLP.PLP>
-40.0948

> <Gold.PLP.part.hbond>
-3.0000

> <Gold.PLP.part.metal>
0.0000

> <Gold.PLP.part.buried>
-5.0965

> <Gold.PLP.part.nonpolar>
-31.3248

> <Gold.PLP.part.repulsive>
0.1479

> <Gold.PLP.ligand.clash>
0.0000

> <Gold.PLP.ligand.torsion>
0.7501

> <Gold.PLP.Chemscore.Hbond>
3.9760

> <Gold.PLP.Chemscore.CHOScore>
0.0000

> <Gold.PLP.Chemscore.Metal>
0.0000

> <Gold.Chemscore.Hbonds>
donor molecule, donor type, donor heavy atom, donor atom, acceptor molecule, acceptor atom, score
      L1  H    15    47       P1  8028  2.00
      P1  H  7989  7998       L1    13  1.00
      P1  H  7997  8008       L1     3  0.99

> <Gold.PLP.Chemscore.Internal.Correction>
0.1042

> <Gold.Rescore>
     Score         DG    S(hbond)    S(metal)    S(lipo)     H(rot)  DE(clash)    DE(int)     intcor
     19.65     -20.44       2.38        0.00     102.05       1.92       0.01       0.79       ----

> <Gold.Chemscore.Fitness>
19.6453

> <Gold.Chemscore.DG>
-20.4449

> <Gold.Chemscore.ZeroCoef>
-5.4800

> <Gold.Chemscore.Hbond>
2.3770

> <Gold.Chemscore.Metal>
0.0000

> <Gold.Chemscore.Lipo>
102.0545

> <Gold.Chemscore.Internal_Hbond>
0.0000

> <Gold.Chemscore.DEClash>
0.0121

> <Gold.Chemscore.DEInternal>
0.7875

> <Gold.Chemscore.Rot>
1.9198

> <Gold.Chemscore.Internal.Correction>
   9.000000E+99

> <Gold.Chemscore.Hbonds>
donor molecule, donor type, donor heavy atom, donor atom, acceptor molecule, acceptor atom, score
      L1  H    15    47       P1  8028  0.96
      P1  H  7989  7998       L1    13  0.75
      P1  H  7997  8008       L1     3  0.22

> <Gold.Chemscore.Hbond.Weighted>
-7.9393

> <Gold.Chemscore.Metal.Weighted>
-0.0000

> <Gold.Chemscore.Lipo.Weighted>
-11.9404

> <Gold.Chemscore.Internal_Hbond.Weighted>
0.0000

> <Gold.Chemscore.DEClash.Weighted>
0.0121

> <Gold.Chemscore.DEInternal.Weighted>
0.7875

> <Gold.Chemscore.Rot.Weighted>
4.9147

> <Gold.Chemscore.Internal.Correction.Weighted>
   9.000000E+99

> <Gold.Protein.RotatedTorsions>
[ 6907 6896 6895 6894 ] final   39.72 input  -60.11 | X-H torsion
[ 7974 7965 7964 7962 ] final -120.21 input  175.53 | X-H torsion
[ 8008 7997 7996 7995 ] final -104.70 input   59.86 | X-H torsion
[ 10167 10162 10161 10158 ] final   98.20 input  -65.29 | X-H torsion
[ 10718 10713 10712 10709 ] final  -59.59 input   66.30 | X-H torsion
[ 10763 10752 10751 10750 ] final  -92.94 input  -60.55 | X-H torsion
[ 11005 11000 10999 10996 ] final  164.50 input  -57.11 | X-H torsion

> <Gold.Protein.ActiveResidues>
 VAL166  LYS551  ARG553  GLY616  TRP617  ASP618  TYR619  PRO620  LYS621  CYS622 
 ASP623  PHE694  ASN695  SER759  ASP760  ASP761  ALA762  ILE779  LEU786  VAL792 
 PHE793  MET794  SER795  GLU796  ALA797  LYS798  CYS799  TRP800  GLU811  SER814 

> <Gold.Protein.RotatedAtoms>
  152.1733  134.8816  160.0532 H   0  0  0  0  0  0  0  0  0  0  0  0  # atno 6907 bound_to 6896
  151.9768  133.3739  159.4100 H   0  0  0  0  0  0  0  0  0  0  0  0  # atno 6908 bound_to 6896
  150.6905  134.4004  159.5160 H   0  0  0  0  0  0  0  0  0  0  0  0  # atno 6909 bound_to 6896
  145.0539  140.8239  143.4193 H   0  0  0  0  0  0  0  0  0  0  0  0  # atno 7974 bound_to 7965
  154.8891  140.0416  157.1828 H   0  0  0  0  0  0  0  0  0  0  0  0  # atno 8008 bound_to 7997
  154.8559  140.2936  155.5548 H   0  0  0  0  0  0  0  0  0  0  0  0  # atno 8009 bound_to 7997
  156.2997  140.2456  156.3525 H   0  0  0  0  0  0  0  0  0  0  0  0  # atno 8010 bound_to 7997
  139.7730  144.6915  151.0129 H   0  0  0  0  0  0  0  0  0  0  0  0  # atno 10167 bound_to 10162
  156.1051  130.4181  150.0736 H   0  0  0  0  0  0  0  0  0  0  0  0  # atno 10718 bound_to 10713
  154.6911  135.5212  153.8393 H   0  0  0  0  0  0  0  0  0  0  0  0  # atno 10763 bound_to 10752
  153.0633  135.6576  154.0422 H   0  0  0  0  0  0  0  0  0  0  0  0  # atno 10764 bound_to 10752
  154.0296  135.2986  155.3350 H   0  0  0  0  0  0  0  0  0  0  0  0  # atno 10765 bound_to 10752
  140.2465  134.8010  157.3461 H   0  0  0  0  0  0  0  0  0  0  0  0  # atno 11005 bound_to 11000
  145.1492  139.2524  143.5449 LP  0  0  0  0  0  0  0  0  0  0  0  0  # atno 17320 bound_to 7965
  146.3520  140.1191  142.8601 LP  0  0  0  0  0  0  0  0  0  0  0  0  # atno 17321 bound_to 7965
  140.7815  143.4567  151.0336 LP  0  0  0  0  0  0  0  0  0  0  0  0  # atno 17342 bound_to 10162
  139.8250  143.7768  152.3178 LP  0  0  0  0  0  0  0  0  0  0  0  0  # atno 17343 bound_to 10162
  156.8713  130.9525  151.3609 LP  0  0  0  0  0  0  0  0  0  0  0  0  # atno 17370 bound_to 10713
  157.6227  130.8667  149.9136 LP  0  0  0  0  0  0  0  0  0  0  0  0  # atno 17371 bound_to 10713
  140.1600  134.4740  155.7901 LP  0  0  0  0  0  0  0  0  0  0  0  0  # atno 17394 bound_to 11000
  141.2205  133.6897  156.7528 LP  0  0  0  0  0  0  0  0  0  0  0  0  # atno 17395 bound_to 11000

$$$$
