AV-unprocessed.smi:2822|AV-procd|sdf|10876|dock9
  -GOLD-   2272015313D 1   1.00000     0.00000
 Structure written by MMmdl.
 40 42  0  0  0  0  0  0  0  0  2 V2000
  149.2526  137.7878  154.6391 Cl  0  0  0  0  0  0  0  0  0  0  0  0
  148.4059  139.2500  154.2724 C   0  0  0  0  0  0  0  0  0  0  0  0
  147.1365  139.1760  153.6625 C   0  0  0  0  0  0  0  0  0  0  0  0
  146.4609  140.3069  153.3682 N   0  3  0  0  0  0  0  0  0  0  0  0
  146.9481  141.5371  153.6344 C   0  0  0  0  0  0  0  0  0  0  0  0
  148.2116  141.6762  154.2437 C   0  0  0  0  0  0  0  0  0  0  0  0
  148.9616  140.5187  154.5715 C   0  0  0  0  0  0  0  0  0  0  0  0
  150.2239  140.5909  155.1801 N   0  0  0  0  0  0  0  0  0  0  0  0
  150.5994  141.7302  156.0035 C   0  0  0  0  0  0  0  0  0  0  0  0
  151.0235  141.2907  157.4111 C   0  0  2  0  0  0  0  0  0  0  0  0
  151.5027  142.4818  158.2611 C   0  0  0  0  0  0  0  0  0  0  0  0
  151.9713  142.0574  159.5740 N   0  0  0  0  0  0  0  0  0  0  0  0
  152.4253  143.1959  160.3706 C   0  0  0  0  0  0  0  0  0  0  0  0
  152.8923  142.7796  161.7744 C   0  0  0  0  0  0  0  0  0  0  0  0
  154.0007  141.7216  161.6763 C   0  0  0  0  0  0  0  0  0  0  0  0
  153.5393  140.5526  160.7921 C   0  0  0  0  0  0  0  0  0  0  0  0
  153.0351  141.0594  159.4250 C   0  0  1  0  0  0  0  0  0  0  0  0
  152.5641  139.8816  158.5472 C   0  0  0  0  0  0  0  0  0  0  0  0
  152.1016  140.3661  157.2905 O   0  0  0  0  0  0  0  0  0  0  0  0
  146.6444  138.2499  153.4029 H   0  0  0  0  0  0  0  0  0  0  0  0
  146.3173  142.3684  153.3552 H   0  0  0  0  0  0  0  0  0  0  0  0
  148.5836  142.6683  154.4515 H   0  0  0  0  0  0  0  0  0  0  0  0
  150.9518  139.9546  154.8852 H   0  0  0  0  0  0  0  0  0  0  0  0
  151.4062  142.2863  155.5242 H   0  0  0  0  0  0  0  0  0  0  0  0
  149.7413  142.3993  156.0781 H   0  0  0  0  0  0  0  0  0  0  0  0
  150.1813  140.8069  157.9099 H   0  0  0  0  0  0  0  0  0  0  0  0
  152.3032  143.0046  157.7350 H   0  0  0  0  0  0  0  0  0  0  0  0
  150.6872  143.1969  158.3768 H   0  0  0  0  0  0  0  0  0  0  0  0
  153.2393  143.7080  159.8550 H   0  0  0  0  0  0  0  0  0  0  0  0
  151.6162  143.9210  160.4660 H   0  0  0  0  0  0  0  0  0  0  0  0
  153.2509  143.6497  162.3248 H   0  0  0  0  0  0  0  0  0  0  0  0
  152.0483  142.3791  162.3376 H   0  0  0  0  0  0  0  0  0  0  0  0
  154.8980  142.1708  161.2490 H   0  0  0  0  0  0  0  0  0  0  0  0
  154.2721  141.3626  162.6694 H   0  0  0  0  0  0  0  0  0  0  0  0
  154.3611  139.8492  160.6543 H   0  0  0  0  0  0  0  0  0  0  0  0
  152.7433  140.0053  161.2990 H   0  0  0  0  0  0  0  0  0  0  0  0
  153.8786  141.5287  158.9151 H   0  0  0  0  0  0  0  0  0  0  0  0
  153.3835  139.1838  158.3733 H   0  0  0  0  0  0  0  0  0  0  0  0
  151.7670  139.3222  159.0398 H   0  0  0  0  0  0  0  0  0  0  0  0
  145.5440  140.2280  152.9270 H   0  0  0  0  0  0  0  0  0  0  0  0
  1  2  1  0  0  0  0
  2  7  1  0  0  0  0
  2  3  2  0  0  0  0
  3  4  1  0  0  0  0
  3 20  1  0  0  0  0
  4  5  2  0  0  0  0
  4 40  1  0  0  0  0
  5  6  1  0  0  0  0
  5 21  1  0  0  0  0
  6  7  2  0  0  0  0
  6 22  1  0  0  0  0
  7  8  1  0  0  0  0
  8  9  1  0  0  0  0
  8 23  1  0  0  0  0
  9 10  1  0  0  0  0
  9 24  1  0  0  0  0
  9 25  1  0  0  0  0
 10 19  1  0  0  0  0
 10 11  1  0  0  0  0
 10 26  1  0  0  0  0
 11 12  1  0  0  0  0
 11 27  1  0  0  0  0
 11 28  1  0  0  0  0
 12 17  1  0  0  0  0
 12 13  1  0  0  0  0
 13 14  1  0  0  0  0
 13 29  1  0  0  0  0
 13 30  1  0  0  0  0
 14 15  1  0  0  0  0
 14 31  1  0  0  0  0
 14 32  1  0  0  0  0
 15 16  1  0  0  0  0
 15 33  1  0  0  0  0
 15 34  1  0  0  0  0
 16 17  1  0  0  0  0
 16 35  1  0  0  0  0
 16 36  1  0  0  0  0
 17 18  1  0  0  0  0
 17 37  1  0  0  0  0
 18 19  1  0  0  0  0
 18 38  1  0  0  0  0
 18 39  1  0  0  0  0
M  CHG  1   4   1
M  END
> <s_m_source_file>
AV-unprocessed.smi

> <i_m_source_file_index>
2822

> <i_lp_mmshare_version>
43012

> <i_f3d_flags>
0

> <s_epik_input>
Q2xjMVtjSF1uW2NIXVtjSF1jMVtOSF1bQ0gyXVtDQEhdKFtDSDJdMilPW0NIMl1bQ0BASF0oTjIzKVtDSDJdW0NIMl1bQ0gyXVtDSDJdMw==

> <s_epik_cmdline>
J2VwaWtfcHl0aG9uJywgJy1waCcsICc3LjAnLCAnLXRuJywgJzgnLCAnLW1hJywgJzIwMCcsICctbWV0YWxfYmluZGluZycsICctaW1hZScsICc8aW5maWxlLm1hZT4nLCAnLW9tYWUnLCAnPG91dGZpbGUubWFlPic=

> <r_epik_Ionization_Penalty>
1.37653

> <r_epik_Ionization_Penalty_Charging>
0.152973

> <r_epik_Ionization_Penalty_Neutral>
1.22356

> <r_epik_State_Penalty>
1.42693

> <r_epik_Charging_Adjusted_Penalty>
1.5799

> <i_epik_Tot_Q>
1

> <i_epik_Tot_abs_Q>
1

> <r_epik_Metal_State_Penalty>
4.59822

> <b_epik_Metal_Only>
0

> <s_lp_Force_Field>
OPLS_2005

> <r_lp_Energy>
43.1836

> <b_lp_Chiralities_Consistent>
1

> <s_lp_Variant>
AV-unprocessed.smi:2822-17

> <Gold.Version>
5.8.1

> <Gold.Id.Protein>
6NUR|6NUR_protein|mol2

> <Gold.PLP.Fitness>
45.0889

> <Gold.PLP.PLP>
-39.1810

> <Gold.PLP.part.hbond>
-1.5029

> <Gold.PLP.part.metal>
0.0000

> <Gold.PLP.part.buried>
-2.6745

> <Gold.PLP.part.nonpolar>
-34.7698

> <Gold.PLP.part.repulsive>
1.2830

> <Gold.PLP.ligand.clash>
0.0000

> <Gold.PLP.ligand.torsion>
0.1601

> <Gold.PLP.Chemscore.Hbond>
2.0758

> <Gold.PLP.Chemscore.CHOScore>
0.0000

> <Gold.PLP.Chemscore.Metal>
0.0000

> <Gold.Chemscore.Hbonds>
donor molecule, donor type, donor heavy atom, donor atom, acceptor molecule, acceptor atom, score
      L1  H     4    40       P1 10175  2.00
      P1  H  7997  8010       L1    19  0.03

> <Gold.PLP.Chemscore.Internal.Correction>
0.0005

> <Gold.Rescore>
     Score         DG    S(hbond)    S(metal)    S(lipo)     H(rot)  DE(clash)    DE(int)     intcor
     18.48     -18.72       1.00        0.00     110.52       1.18       0.05       0.19       ----

> <Gold.Chemscore.Fitness>
18.4776

> <Gold.Chemscore.DG>
-18.7199

> <Gold.Chemscore.ZeroCoef>
-5.4800

> <Gold.Chemscore.Hbond>
0.9960

> <Gold.Chemscore.Metal>
0.0000

> <Gold.Chemscore.Lipo>
110.5207

> <Gold.Chemscore.Internal_Hbond>
0.0000

> <Gold.Chemscore.DEClash>
0.0498

> <Gold.Chemscore.DEInternal>
0.1925

> <Gold.Chemscore.Rot>
1.1788

> <Gold.Chemscore.Internal.Correction>
   9.000000E+99

> <Gold.Chemscore.Hbonds>
donor molecule, donor type, donor heavy atom, donor atom, acceptor molecule, acceptor atom, score
      L1  H     4    40       P1 10175  0.96

> <Gold.Chemscore.Hbond.Weighted>
-3.3266

> <Gold.Chemscore.Metal.Weighted>
-0.0000

> <Gold.Chemscore.Lipo.Weighted>
-12.9309

> <Gold.Chemscore.Internal_Hbond.Weighted>
0.0000

> <Gold.Chemscore.DEClash.Weighted>
0.0498

> <Gold.Chemscore.DEInternal.Weighted>
0.1925

> <Gold.Chemscore.Rot.Weighted>
3.0177

> <Gold.Chemscore.Internal.Correction.Weighted>
   9.000000E+99

> <Gold.Protein.RotatedTorsions>
[ 6907 6896 6895 6894 ] final  -89.80 input  -60.11 | X-H torsion
[ 7974 7965 7964 7962 ] final  171.70 input  175.53 | X-H torsion
[ 8008 7997 7996 7995 ] final   73.58 input   59.86 | X-H torsion
[ 10167 10162 10161 10158 ] final  -99.54 input  -65.29 | X-H torsion
[ 10718 10713 10712 10709 ] final -135.66 input   66.30 | X-H torsion
[ 10763 10752 10751 10750 ] final  -68.84 input  -60.55 | X-H torsion
[ 11005 11000 10999 10996 ] final   91.22 input  -57.11 | X-H torsion

> <Gold.Protein.ActiveResidues>
 VAL166  LYS551  ARG553  GLY616  TRP617  ASP618  TYR619  PRO620  LYS621  CYS622 
 ASP623  PHE694  ASN695  SER759  ASP760  ASP761  ALA762  ILE779  LEU786  VAL792 
 PHE793  MET794  SER795  GLU796  ALA797  LYS798  CYS799  TRP800  GLU811  SER814 

> <Gold.Protein.RotatedAtoms>
  150.6876  134.2531  159.4518 H   0  0  0  0  0  0  0  0  0  0  0  0  # atno 6907 bound_to 6896
  152.0466  134.9676  160.0583 H   0  0  0  0  0  0  0  0  0  0  0  0  # atno 6908 bound_to 6896
  152.1157  133.4290  159.4689 H   0  0  0  0  0  0  0  0  0  0  0  0  # atno 6909 bound_to 6896
  144.7287  139.9389  143.6428 H   0  0  0  0  0  0  0  0  0  0  0  0  # atno 7974 bound_to 7965
  155.7857  140.3480  155.5322 H   0  0  0  0  0  0  0  0  0  0  0  0  # atno 8008 bound_to 7997
  155.8684  140.0982  157.1587 H   0  0  0  0  0  0  0  0  0  0  0  0  # atno 8009 bound_to 7997
  154.4016  140.1345  156.4035 H   0  0  0  0  0  0  0  0  0  0  0  0  # atno 8010 bound_to 7997
  140.2614  143.3405  152.0622 H   0  0  0  0  0  0  0  0  0  0  0  0  # atno 10167 bound_to 10162
  156.2685  130.7252  151.1211 H   0  0  0  0  0  0  0  0  0  0  0  0  # atno 10718 bound_to 10713
  154.3949  135.6044  153.5864 H   0  0  0  0  0  0  0  0  0  0  0  0  # atno 10763 bound_to 10752
  152.9787  135.5892  154.4254 H   0  0  0  0  0  0  0  0  0  0  0  0  # atno 10764 bound_to 10752
  154.4043  135.2843  155.2055 H   0  0  0  0  0  0  0  0  0  0  0  0  # atno 10765 bound_to 10752
  139.8842  134.8661  156.3396 H   0  0  0  0  0  0  0  0  0  0  0  0  # atno 11005 bound_to 11000
  146.0800  139.3788  143.0470 LP  0  0  0  0  0  0  0  0  0  0  0  0  # atno 17320 bound_to 7965
  145.7854  140.9838  143.1077 LP  0  0  0  0  0  0  0  0  0  0  0  0  # atno 17321 bound_to 7965
  139.5016  144.6716  151.6228 LP  0  0  0  0  0  0  0  0  0  0  0  0  # atno 17342 bound_to 10162
  140.5963  143.9690  150.6356 LP  0  0  0  0  0  0  0  0  0  0  0  0  # atno 17343 bound_to 10162
  157.7276  131.0638  150.5859 LP  0  0  0  0  0  0  0  0  0  0  0  0  # atno 17370 bound_to 10713
  156.5953  130.4340  149.5919 LP  0  0  0  0  0  0  0  0  0  0  0  0  # atno 17371 bound_to 10713
  140.9667  133.7353  156.0477 LP  0  0  0  0  0  0  0  0  0  0  0  0  # atno 17394 bound_to 11000
  140.7922  134.3605  157.5462 LP  0  0  0  0  0  0  0  0  0  0  0  0  # atno 17395 bound_to 11000

$$$$
