AV-unprocessed.smi:1704|AV-procd|sdf|6881|dock8
  -GOLD-   22720 8 83D 1   1.00000     0.00000
 Structure written by MMmdl.
 41 43  0  0  0  0  0  0  0  0  1 V2000
  152.2897  137.3673  159.5663 C   0  0  0  0  0  0  0  0  0  0  0  0
  151.2688  138.1168  158.8098 N   0  0  0  0  0  0  0  0  0  0  0  0
  151.5421  139.4140  158.4629 C   0  0  0  0  0  0  0  0  0  0  0  0
  152.5745  140.0174  158.7571 O   0  0  0  0  0  0  0  0  0  0  0  0
  150.4761  140.0587  157.6882 C   0  0  0  0  0  0  0  0  0  0  0  0
  149.3110  139.4375  157.3825 C   0  0  0  0  0  0  0  0  0  0  0  0
  148.4660  140.2698  156.6581 N   0  0  0  0  0  0  0  0  0  0  0  0
  149.1932  141.3828  156.5592 C   0  0  0  0  0  0  0  0  0  0  0  0
  150.4126  141.3382  157.1353 N   0  0  0  0  0  0  0  0  0  0  0  0
  151.3930  142.4179  157.1570 C   0  0  0  0  0  0  0  0  0  0  0  0
  151.2210  143.4197  158.3294 C   0  0  0  0  0  0  0  0  0  0  0  0
  149.8840  143.8861  158.3164 O   0  0  0  0  0  0  0  0  0  0  0  0
  151.4839  142.7656  159.7096 C   0  0  0  0  0  0  0  0  0  0  0  0
  151.4696  143.7769  160.8706 C   0  0  0  0  0  0  0  0  0  0  0  0
  152.4417  144.9374  160.6189 C   0  0  0  0  0  0  0  0  0  0  0  0
  152.1312  145.6322  159.2865 C   0  0  0  0  0  0  0  0  0  0  0  0
  152.1560  144.6335  158.1156 C   0  0  0  0  0  0  0  0  0  0  0  0
  149.1169  138.1023  157.8155 N   0  0  0  0  0  0  0  0  0  0  0  0
  147.8402  137.4674  157.4749 C   0  0  0  0  0  0  0  0  0  0  0  0
  150.0998  137.4382  158.5088 C   0  0  0  0  0  0  0  0  0  0  0  0
  149.9418  136.2644  158.8555 O   0  0  0  0  0  0  0  0  0  0  0  0
  153.1949  137.9292  159.7993 H   0  0  0  0  0  0  0  0  0  0  0  0
  152.6083  136.4881  159.0042 H   0  0  0  0  0  0  0  0  0  0  0  0
  151.8841  137.0268  160.5203 H   0  0  0  0  0  0  0  0  0  0  0  0
  148.8309  142.2591  156.0421 H   0  0  0  0  0  0  0  0  0  0  0  0
  152.3827  141.9624  157.2139 H   0  0  0  0  0  0  0  0  0  0  0  0
  151.3703  142.9364  156.1991 H   0  0  0  0  0  0  0  0  0  0  0  0
  149.7136  144.2828  157.4758 H   0  0  0  0  0  0  0  0  0  0  0  0
  150.7490  141.9860  159.9126 H   0  0  0  0  0  0  0  0  0  0  0  0
  152.4551  142.2695  159.6906 H   0  0  0  0  0  0  0  0  0  0  0  0
  150.4610  144.1683  161.0076 H   0  0  0  0  0  0  0  0  0  0  0  0
  151.7297  143.2726  161.8016 H   0  0  0  0  0  0  0  0  0  0  0  0
  152.3823  145.6566  161.4364 H   0  0  0  0  0  0  0  0  0  0  0  0
  153.4661  144.5632  160.6089 H   0  0  0  0  0  0  0  0  0  0  0  0
  151.1547  146.1143  159.3429 H   0  0  0  0  0  0  0  0  0  0  0  0
  152.8548  146.4279  159.1074 H   0  0  0  0  0  0  0  0  0  0  0  0
  153.1797  144.2793  157.9860 H   0  0  0  0  0  0  0  0  0  0  0  0
  151.8973  145.1491  157.1897 H   0  0  0  0  0  0  0  0  0  0  0  0
  147.7115  136.4654  157.8850 H   0  0  0  0  0  0  0  0  0  0  0  0
  147.7399  137.3932  156.3915 H   0  0  0  0  0  0  0  0  0  0  0  0
  147.0128  138.0734  157.8459 H   0  0  0  0  0  0  0  0  0  0  0  0
  1  2  1  0  0  0  0
  1 22  1  0  0  0  0
  1 23  1  0  0  0  0
  1 24  1  0  0  0  0
  2 20  1  0  0  0  0
  2  3  1  0  0  0  0
  3  4  2  0  0  0  0
  3  5  1  0  0  0  0
  5  9  1  0  0  0  0
  5  6  2  0  0  0  0
  6  7  1  0  0  0  0
  6 18  1  0  0  0  0
  7  8  2  0  0  0  0
  8  9  1  0  0  0  0
  8 25  1  0  0  0  0
  9 10  1  0  0  0  0
 10 11  1  0  0  0  0
 10 26  1  0  0  0  0
 10 27  1  0  0  0  0
 11 17  1  0  0  0  0
 11 12  1  0  0  0  0
 11 13  1  0  0  0  0
 12 28  1  0  0  0  0
 13 14  1  0  0  0  0
 13 29  1  0  0  0  0
 13 30  1  0  0  0  0
 14 15  1  0  0  0  0
 14 31  1  0  0  0  0
 14 32  1  0  0  0  0
 15 16  1  0  0  0  0
 15 33  1  0  0  0  0
 15 34  1  0  0  0  0
 16 17  1  0  0  0  0
 16 35  1  0  0  0  0
 16 36  1  0  0  0  0
 17 37  1  0  0  0  0
 17 38  1  0  0  0  0
 18 19  1  0  0  0  0
 18 20  1  0  0  0  0
 19 39  1  0  0  0  0
 19 40  1  0  0  0  0
 19 41  1  0  0  0  0
 20 21  2  0  0  0  0
M  END
> <s_m_source_file>
AV-unprocessed.smi

> <i_m_source_file_index>
1704

> <i_lp_mmshare_version>
43012

> <i_f3d_flags>
0

> <s_epik_input>
Tz1jMW4oW0NIM10pYyg9TyluKFtDSDNdKWMoYzEyKW5bY0hdbjJbQ0gyXUMzKFtPSF0pW0NIMl1bQ0gyXVtDSDJdW0NIMl1bQ0gyXTM=

> <s_epik_cmdline>
J2VwaWtfcHl0aG9uJywgJy1waCcsICc3LjAnLCAnLXRuJywgJzgnLCAnLW1hJywgJzIwMCcsICctbWV0YWxfYmluZGluZycsICctaW1hZScsICc8aW5maWxlLm1hZT4nLCAnLW9tYWUnLCAnPG91dGZpbGUubWFlPic=

> <r_lp_tautomer_probability>
1

> <r_epik_Ionization_Penalty>
6.70257e-06

> <r_epik_Ionization_Penalty_Charging>
6.65152e-09

> <r_epik_Ionization_Penalty_Neutral>
6.69592e-06

> <r_epik_State_Penalty>
-0

> <r_epik_Charging_Adjusted_Penalty>
6.65152e-09

> <i_epik_Tot_Q>
0

> <i_epik_Tot_abs_Q>
0

> <r_epik_Metal_State_Penalty>
-0

> <b_epik_Metal_Only>
0

> <s_lp_Force_Field>
OPLS_2005

> <r_lp_Energy>
39.0788

> <b_lp_Chiralities_Consistent>
1

> <s_lp_Variant>
AV-unprocessed.smi:1704-1

> <Gold.Version>
5.8.1

> <Gold.Id.Protein>
6NUR|6NUR_protein|mol2

> <Gold.PLP.Fitness>
41.4446

> <Gold.PLP.PLP>
-33.2852

> <Gold.PLP.part.hbond>
-3.0000

> <Gold.PLP.part.metal>
0.0000

> <Gold.PLP.part.buried>
-4.3620

> <Gold.PLP.part.nonpolar>
-26.2346

> <Gold.PLP.part.repulsive>
0.0178

> <Gold.PLP.ligand.clash>
0.0000

> <Gold.PLP.ligand.torsion>
0.4081

> <Gold.PLP.Chemscore.Hbond>
2.0000

> <Gold.PLP.Chemscore.CHOScore>
0.9905

> <Gold.PLP.Chemscore.Metal>
0.0000

> <Gold.Chemscore.Hbonds>
donor molecule, donor type, donor heavy atom, donor atom, acceptor molecule, acceptor atom, score
      L1  H    12    28       P1  8028  0.95
      P1  H  6896  6909       L1    21  1.00
      L1  C     8    25       P1  8028  1.00

> <Gold.PLP.Chemscore.Internal.Correction>
0.0041

> <Gold.Rescore>
     Score         DG    S(hbond)    S(metal)    S(lipo)     H(rot)  DE(clash)    DE(int)     intcor
     18.71     -19.47       2.55        0.00      86.99       1.84       0.39       0.37       ----

> <Gold.Chemscore.Fitness>
18.7093

> <Gold.Chemscore.DG>
-19.4684

> <Gold.Chemscore.ZeroCoef>
-5.4800

> <Gold.Chemscore.Hbond>
2.5504

> <Gold.Chemscore.Metal>
0.0000

> <Gold.Chemscore.Lipo>
86.9869

> <Gold.Chemscore.Internal_Hbond>
0.0000

> <Gold.Chemscore.DEClash>
0.3908

> <Gold.Chemscore.DEInternal>
0.3684

> <Gold.Chemscore.Rot>
1.8389

> <Gold.Chemscore.Internal.Correction>
   9.000000E+99

> <Gold.Chemscore.Hbonds>
donor molecule, donor type, donor heavy atom, donor atom, acceptor molecule, acceptor atom, score
      L1  H    12    28       P1  8028  0.21
      P1  H  6896  6909       L1    21  1.00

> <Gold.Chemscore.Hbond.Weighted>
-8.5185

> <Gold.Chemscore.Metal.Weighted>
-0.0000

> <Gold.Chemscore.Lipo.Weighted>
-10.1775

> <Gold.Chemscore.Internal_Hbond.Weighted>
0.0000

> <Gold.Chemscore.DEClash.Weighted>
0.3908

> <Gold.Chemscore.DEInternal.Weighted>
0.3684

> <Gold.Chemscore.Rot.Weighted>
4.7076

> <Gold.Chemscore.Internal.Correction.Weighted>
   9.000000E+99

> <Gold.Protein.RotatedTorsions>
[ 6907 6896 6895 6894 ] final   64.32 input  -60.11 | X-H torsion
[ 7974 7965 7964 7962 ] final -124.76 input  175.53 | X-H torsion
[ 8008 7997 7996 7995 ] final   63.94 input   59.86 | X-H torsion
[ 10167 10162 10161 10158 ] final  -74.26 input  -65.29 | X-H torsion
[ 10718 10713 10712 10709 ] final -166.21 input   66.30 | X-H torsion
[ 10763 10752 10751 10750 ] final  177.47 input  -60.55 | X-H torsion
[ 11005 11000 10999 10996 ] final   23.18 input  -57.11 | X-H torsion

> <Gold.Protein.ActiveResidues>
 VAL166  LYS551  ARG553  GLY616  TRP617  ASP618  TYR619  PRO620  LYS621  CYS622 
 ASP623  PHE694  ASN695  SER759  ASP760  ASP761  ALA762  ILE779  LEU786  VAL792 
 PHE793  MET794  SER795  GLU796  ALA797  LYS798  CYS799  TRP800  GLU811  SER814 

> <Gold.Protein.RotatedAtoms>
  152.4322  134.5755  159.9932 H   0  0  0  0  0  0  0  0  0  0  0  0  # atno 6907 bound_to 6896
  151.5875  133.3365  159.3029 H   0  0  0  0  0  0  0  0  0  0  0  0  # atno 6908 bound_to 6896
  150.8217  134.7463  159.6842 H   0  0  0  0  0  0  0  0  0  0  0  0  # atno 6909 bound_to 6896
  145.0047  140.7852  143.4475 H   0  0  0  0  0  0  0  0  0  0  0  0  # atno 7974 bound_to 7965
  155.6382  140.3496  155.4706 H   0  0  0  0  0  0  0  0  0  0  0  0  # atno 8008 bound_to 7997
  155.9948  140.1201  157.0627 H   0  0  0  0  0  0  0  0  0  0  0  0  # atno 8009 bound_to 7997
  154.4230  140.1112  156.5601 H   0  0  0  0  0  0  0  0  0  0  0  0  # atno 8010 bound_to 7997
  140.5042  143.2356  151.7702 H   0  0  0  0  0  0  0  0  0  0  0  0  # atno 10167 bound_to 10162
  156.6646  130.9060  151.3034 H   0  0  0  0  0  0  0  0  0  0  0  0  # atno 10718 bound_to 10713
  154.4949  135.2780  155.1467 H   0  0  0  0  0  0  0  0  0  0  0  0  # atno 10763 bound_to 10752
  154.3124  135.6226  153.5475 H   0  0  0  0  0  0  0  0  0  0  0  0  # atno 10764 bound_to 10752
  152.9893  135.5723  154.5378 H   0  0  0  0  0  0  0  0  0  0  0  0  # atno 10765 bound_to 10752
  140.3724  134.2008  155.7666 H   0  0  0  0  0  0  0  0  0  0  0  0  # atno 11005 bound_to 11000
  145.2105  139.2207  143.5145 LP  0  0  0  0  0  0  0  0  0  0  0  0  # atno 17320 bound_to 7965
  146.3459  140.1942  142.8589 LP  0  0  0  0  0  0  0  0  0  0  0  0  # atno 17321 bound_to 7965
  139.4879  144.4481  151.9686 LP  0  0  0  0  0  0  0  0  0  0  0  0  # atno 17342 bound_to 10162
  140.3571  144.3019  150.5939 LP  0  0  0  0  0  0  0  0  0  0  0  0  # atno 17343 bound_to 10162
  157.7098  130.9427  150.1051 LP  0  0  0  0  0  0  0  0  0  0  0  0  # atno 17370 bound_to 10713
  156.1985  130.3659  149.8819 LP  0  0  0  0  0  0  0  0  0  0  0  0  # atno 17371 bound_to 10713
  141.1950  133.8115  157.0732 LP  0  0  0  0  0  0  0  0  0  0  0  0  # atno 17394 bound_to 11000
  140.0542  134.9789  157.1190 LP  0  0  0  0  0  0  0  0  0  0  0  0  # atno 17395 bound_to 11000

$$$$
