AV-unprocessed.smi:653|AV-procd|sdf|3210|dock2
  -GOLD-   22720 0143D 1   1.00000     0.00000
 Structure written by MMmdl.
 45 46  0  0  0  0  0  0  0  0  2 V2000
  143.6249  132.3687  151.3035 C   0  0  0  0  0  0  0  0  0  0  0  0
  144.9499  132.6956  151.9597 C   0  0  0  0  0  0  0  0  0  0  0  0
  146.1147  132.9622  151.2086 C   0  0  0  0  0  0  0  0  0  0  0  0
  147.3149  133.2674  151.8836 C   0  0  0  0  0  0  0  0  0  0  0  0
  147.3271  133.3001  153.2957 C   0  0  0  0  0  0  0  0  0  0  0  0
  148.6028  133.6323  154.0526 C   0  0  0  0  0  0  0  0  0  0  0  0
  148.4991  134.9797  154.7763 C   0  0  0  0  0  0  0  0  0  0  0  0
  147.5867  135.1975  155.5749 O   0  0  0  0  0  0  0  0  0  0  0  0
  149.4518  135.8786  154.4869 N   0  0  0  0  0  0  0  0  0  0  0  0
  149.5407  137.2193  155.0564 C   0  0  0  0  0  0  0  0  0  0  0  0
  150.3524  138.1871  154.1589 C   0  0  2  0  0  0  0  0  0  0  0  0
  151.8473  138.1304  154.4441 C   0  0  0  0  0  0  0  0  0  0  0  0
  152.0348  139.1448  155.5754 C   0  0  0  0  0  0  0  0  0  0  0  0
  150.8426  139.9242  155.6088 O   0  0  0  0  0  0  0  0  0  0  0  0
  150.0898  139.6789  154.4283 C   0  0  2  0  0  0  0  0  0  0  0  0
  148.6187  140.1264  154.5860 C   0  0  0  0  0  0  0  0  0  0  0  0
  147.7066  139.4599  153.5416 C   0  0  0  0  0  0  0  0  0  0  0  0
  148.4947  141.6556  154.4916 C   0  0  0  0  0  0  0  0  0  0  0  0
  146.1314  133.0230  153.9937 C   0  0  0  0  0  0  0  0  0  0  0  0
  145.0018  132.7372  153.3100 N   0  3  0  0  0  0  0  0  0  0  0  0
  143.7784  131.9444  150.3108 H   0  0  0  0  0  0  0  0  0  0  0  0
  143.0222  133.2715  151.2015 H   0  0  0  0  0  0  0  0  0  0  0  0
  143.0650  131.6455  151.8973 H   0  0  0  0  0  0  0  0  0  0  0  0
  146.0906  132.9364  150.1287 H   0  0  0  0  0  0  0  0  0  0  0  0
  148.2136  133.4778  151.3223 H   0  0  0  0  0  0  0  0  0  0  0  0
  148.8127  132.8511  154.7841 H   0  0  0  0  0  0  0  0  0  0  0  0
  149.4415  133.6464  153.3547 H   0  0  0  0  0  0  0  0  0  0  0  0
  150.1678  135.6177  153.8243 H   0  0  0  0  0  0  0  0  0  0  0  0
  148.5308  137.5941  155.2241 H   0  0  0  0  0  0  0  0  0  0  0  0
  150.0018  137.1386  156.0412 H   0  0  0  0  0  0  0  0  0  0  0  0
  150.1551  137.9543  153.1117 H   0  0  0  0  0  0  0  0  0  0  0  0
  152.2160  137.1375  154.7019 H   0  0  0  0  0  0  0  0  0  0  0  0
  152.3985  138.4627  153.5632 H   0  0  0  0  0  0  0  0  0  0  0  0
  152.1621  138.6488  156.5380 H   0  0  0  0  0  0  0  0  0  0  0  0
  152.9053  139.7778  155.4014 H   0  0  0  0  0  0  0  0  0  0  0  0
  150.5470  140.2611  153.6251 H   0  0  0  0  0  0  0  0  0  0  0  0
  148.2668  139.8406  155.5773 H   0  0  0  0  0  0  0  0  0  0  0  0
  148.0123  139.7205  152.5278 H   0  0  0  0  0  0  0  0  0  0  0  0
  146.6707  139.7757  153.6672 H   0  0  0  0  0  0  0  0  0  0  0  0
  147.7243  138.3732  153.6226 H   0  0  0  0  0  0  0  0  0  0  0  0
  148.8463  142.0248  153.5278 H   0  0  0  0  0  0  0  0  0  0  0  0
  149.0774  142.1494  155.2697 H   0  0  0  0  0  0  0  0  0  0  0  0
  147.4588  141.9741  154.6117 H   0  0  0  0  0  0  0  0  0  0  0  0
  146.0426  133.0282  155.0705 H   0  0  0  0  0  0  0  0  0  0  0  0
  144.1492  132.5462  153.8368 H   0  0  0  0  0  0  0  0  0  0  0  0
  1  2  1  0  0  0  0
  1 21  1  0  0  0  0
  1 22  1  0  0  0  0
  1 23  1  0  0  0  0
  2 20  1  0  0  0  0
  2  3  2  0  0  0  0
  3  4  1  0  0  0  0
  3 24  1  0  0  0  0
  4  5  2  0  0  0  0
  4 25  1  0  0  0  0
  5  6  1  0  0  0  0
  5 19  1  0  0  0  0
  6  7  1  0  0  0  0
  6 26  1  0  0  0  0
  6 27  1  0  0  0  0
  7  8  2  0  0  0  0
  7  9  1  0  0  0  0
  9 10  1  0  0  0  0
  9 28  1  0  0  0  0
 10 11  1  0  0  0  0
 10 29  1  0  0  0  0
 10 30  1  0  0  0  0
 11 15  1  0  0  0  0
 11 12  1  0  0  0  0
 11 31  1  0  0  0  0
 12 13  1  0  0  0  0
 12 32  1  0  0  0  0
 12 33  1  0  0  0  0
 13 14  1  0  0  0  0
 13 34  1  0  0  0  0
 13 35  1  0  0  0  0
 14 15  1  0  0  0  0
 15 16  1  0  0  0  0
 15 36  1  0  0  0  0
 16 17  1  0  0  0  0
 16 18  1  0  0  0  0
 16 37  1  0  0  0  0
 17 38  1  0  0  0  0
 17 39  1  0  0  0  0
 17 40  1  0  0  0  0
 18 41  1  0  0  0  0
 18 42  1  0  0  0  0
 18 43  1  0  0  0  0
 19 20  2  0  0  0  0
 19 44  1  0  0  0  0
 20 45  1  0  0  0  0
M  CHG  1  20   1
M  END
> <s_m_source_file>
AV-unprocessed.smi

> <i_m_source_file_index>
653

> <i_lp_mmshare_version>
43012

> <i_f3d_flags>
0

> <s_epik_input>
W0NIM11jMVtjSF1bY0hdYyhbY0hdbjEpW0NIMl1DKD1PKVtOSF1bQ0gyXVtDQEBIXTJbQ0gyXVtDSDJdT1tDQEhdMltDSF0oW0NIM10pW0NIM10=

> <s_epik_cmdline>
J2VwaWtfcHl0aG9uJywgJy1waCcsICc3LjAnLCAnLXRuJywgJzgnLCAnLW1hJywgJzIwMCcsICctbWV0YWxfYmluZGluZycsICctaW1hZScsICc8aW5maWxlLm1hZT4nLCAnLW9tYWUnLCAnPG91dGZpbGUubWFlPic=

> <r_epik_Ionization_Penalty>
2.12486

> <r_epik_Ionization_Penalty_Charging>
2.12486

> <r_epik_Ionization_Penalty_Neutral>
9.0873e-08

> <r_epik_State_Penalty>
2.26279

> <r_epik_Charging_Adjusted_Penalty>
4.38765

> <i_epik_Tot_Q>
1

> <i_epik_Tot_abs_Q>
1

> <r_epik_Metal_State_Penalty>
2.27914

> <b_epik_Metal_Only>
0

> <s_lp_Force_Field>
OPLS_2005

> <r_lp_Energy>
28.354

> <b_lp_Chiralities_Consistent>
1

> <s_lp_Variant>
AV-unprocessed.smi:653-7

> <Gold.Version>
5.8.1

> <Gold.Id.Protein>
6NUR|6NUR_protein|mol2

> <Gold.PLP.Fitness>
40.4228

> <Gold.PLP.PLP>
-35.8146

> <Gold.PLP.part.hbond>
-2.0000

> <Gold.PLP.part.metal>
0.0000

> <Gold.PLP.part.buried>
0.5701

> <Gold.PLP.part.nonpolar>
-32.9964

> <Gold.PLP.part.repulsive>
0.0979

> <Gold.PLP.ligand.clash>
0.0000

> <Gold.PLP.ligand.torsion>
0.7583

> <Gold.PLP.Chemscore.Hbond>
2.0000

> <Gold.PLP.Chemscore.CHOScore>
0.0000

> <Gold.PLP.Chemscore.Metal>
0.0000

> <Gold.Chemscore.Hbonds>
donor molecule, donor type, donor heavy atom, donor atom, acceptor molecule, acceptor atom, score
      L1  H    20    45       P1 10957  2.00

> <Gold.PLP.Chemscore.Internal.Correction>
0.1248

> <Gold.Rescore>
     Score         DG    S(hbond)    S(metal)    S(lipo)     H(rot)  DE(clash)    DE(int)     intcor
     13.35     -15.02       0.90        0.00      90.29       1.57       0.03       1.64       ----

> <Gold.Chemscore.Fitness>
13.3488

> <Gold.Chemscore.DG>
-15.0169

> <Gold.Chemscore.ZeroCoef>
-5.4800

> <Gold.Chemscore.Hbond>
0.8961

> <Gold.Chemscore.Metal>
0.0000

> <Gold.Chemscore.Lipo>
90.2862

> <Gold.Chemscore.Internal_Hbond>
0.0000

> <Gold.Chemscore.DEClash>
0.0287

> <Gold.Chemscore.DEInternal>
1.6393

> <Gold.Chemscore.Rot>
1.5701

> <Gold.Chemscore.Internal.Correction>
   9.000000E+99

> <Gold.Chemscore.Hbonds>
donor molecule, donor type, donor heavy atom, donor atom, acceptor molecule, acceptor atom, score
      L1  H    20    45       P1 10957  0.55

> <Gold.Chemscore.Hbond.Weighted>
-2.9930

> <Gold.Chemscore.Metal.Weighted>
-0.0000

> <Gold.Chemscore.Lipo.Weighted>
-10.5635

> <Gold.Chemscore.Internal_Hbond.Weighted>
0.0000

> <Gold.Chemscore.DEClash.Weighted>
0.0287

> <Gold.Chemscore.DEInternal.Weighted>
1.6393

> <Gold.Chemscore.Rot.Weighted>
4.0196

> <Gold.Chemscore.Internal.Correction.Weighted>
   9.000000E+99

> <Gold.Protein.RotatedTorsions>
[ 6907 6896 6895 6894 ] final  -12.23 input  -60.11 | X-H torsion
[ 7974 7965 7964 7962 ] final  157.57 input  175.53 | X-H torsion
[ 8008 7997 7996 7995 ] final  -53.41 input   59.86 | X-H torsion
[ 10167 10162 10161 10158 ] final  104.33 input  -65.29 | X-H torsion
[ 10718 10713 10712 10709 ] final  -63.61 input   66.30 | X-H torsion
[ 10763 10752 10751 10750 ] final -161.12 input  -60.55 | X-H torsion
[ 11005 11000 10999 10996 ] final  162.13 input  -57.11 | X-H torsion

> <Gold.Protein.ActiveResidues>
 VAL166  LYS551  ARG553  GLY616  TRP617  ASP618  TYR619  PRO620  LYS621  CYS622 
 ASP623  PHE694  ASN695  SER759  ASP760  ASP761  ALA762  ILE779  LEU786  VAL792 
 PHE793  MET794  SER795  GLU796  ALA797  LYS798  CYS799  TRP800  GLU811  SER814 

> <Gold.Protein.RotatedAtoms>
  151.3737  135.0927  159.9473 H   0  0  0  0  0  0  0  0  0  0  0  0  # atno 6907 bound_to 6896
  152.5128  133.9139  159.7512 H   0  0  0  0  0  0  0  0  0  0  0  0  # atno 6908 bound_to 6896
  150.9558  133.6444  159.2792 H   0  0  0  0  0  0  0  0  0  0  0  0  # atno 6909 bound_to 6896
  144.7895  139.7359  143.6227 H   0  0  0  0  0  0  0  0  0  0  0  0  # atno 7974 bound_to 7965
  154.4132  140.1201  156.5148 H   0  0  0  0  0  0  0  0  0  0  0  0  # atno 8008 bound_to 7997
  155.6762  140.3496  155.4818 H   0  0  0  0  0  0  0  0  0  0  0  0  # atno 8009 bound_to 7997
  155.9591  140.1119  157.0901 H   0  0  0  0  0  0  0  0  0  0  0  0  # atno 8010 bound_to 7997
  139.7186  144.7063  151.0909 H   0  0  0  0  0  0  0  0  0  0  0  0  # atno 10167 bound_to 10162
  156.0780  130.4223  150.1302 H   0  0  0  0  0  0  0  0  0  0  0  0  # atno 10718 bound_to 10713
  154.7331  135.3051  154.8857 H   0  0  0  0  0  0  0  0  0  0  0  0  # atno 10763 bound_to 10752
  153.9694  135.6743  153.4751 H   0  0  0  0  0  0  0  0  0  0  0  0  # atno 10764 bound_to 10752
  153.0937  135.4946  154.8660 H   0  0  0  0  0  0  0  0  0  0  0  0  # atno 10765 bound_to 10752
  140.2227  134.8184  157.3236 H   0  0  0  0  0  0  0  0  0  0  0  0  # atno 11005 bound_to 11000
  146.2142  139.5519  142.9661 LP  0  0  0  0  0  0  0  0  0  0  0  0  # atno 17320 bound_to 7965
  145.5831  141.0380  143.2111 LP  0  0  0  0  0  0  0  0  0  0  0  0  # atno 17321 bound_to 7965
  140.7749  143.5196  150.9553 LP  0  0  0  0  0  0  0  0  0  0  0  0  # atno 17342 bound_to 10162
  139.8882  143.6986  152.3148 LP  0  0  0  0  0  0  0  0  0  0  0  0  # atno 17343 bound_to 10162
  156.9339  130.9723  151.3528 LP  0  0  0  0  0  0  0  0  0  0  0  0  # atno 17370 bound_to 10713
  157.5884  130.8426  149.8623 LP  0  0  0  0  0  0  0  0  0  0  0  0  # atno 17371 bound_to 10713
  140.1833  134.4462  155.7759 LP  0  0  0  0  0  0  0  0  0  0  0  0  # atno 17394 bound_to 11000
  141.2222  133.6993  156.7905 LP  0  0  0  0  0  0  0  0  0  0  0  0  # atno 17395 bound_to 11000

$$$$
