AV-unprocessed.smi:193|AV-procd|sdf|1511|dock2
  -GOLD-   2262019343D 1   1.00000     0.00000
 Structure written by MMmdl.
 62 66  0  0  0  0  0  0  0  0  2 V2000
  144.6103  131.9603  150.0982 C   0  0  0  0  0  0  0  0  0  0  0  0
  145.7859  131.6857  151.0501 C   0  0  1  0  0  0  0  0  0  0  0  0
  145.6334  132.5514  152.3174 C   0  0  0  0  0  0  0  0  0  0  0  0
  146.8871  132.7937  153.0346 N   0  0  0  0  0  0  0  0  0  0  0  0
  146.9613  133.8820  153.8451 C   0  0  0  0  0  0  0  0  0  0  0  0
  145.8882  134.7128  153.9288 N   0  0  0  0  0  0  0  0  0  0  0  0
  145.9234  135.7878  154.7214 C   0  0  0  0  0  0  0  0  0  0  0  0
  146.9164  136.2148  155.5028 N   0  0  0  0  0  0  0  0  0  0  0  0
  148.0009  135.3929  155.4181 C   0  0  0  0  0  0  0  0  0  0  0  0
  148.1091  134.2175  154.6212 C   0  0  0  0  0  0  0  0  0  0  0  0
  149.3707  133.6552  154.7833 N   0  0  0  0  0  0  0  0  0  0  0  0
  149.9666  134.4436  155.6359 C   0  0  0  0  0  0  0  0  0  0  0  0
  149.2136  135.5087  156.0745 N   0  0  0  0  0  0  0  0  0  0  0  0
  149.6254  136.5362  157.0186 C   0  0  0  0  0  0  0  0  0  0  0  0
  150.6490  137.5450  156.4412 C   0  0  0  0  0  0  0  0  0  0  0  0
  151.9469  137.0570  156.7348 O   0  0  0  0  0  0  0  0  0  0  0  0
  150.5013  137.6418  154.9095 C   0  0  0  0  0  0  0  0  0  0  0  0
  151.3796  138.7544  154.3097 C   0  0  0  0  0  0  0  0  0  0  0  0
  151.0873  139.9969  154.9370 O   0  0  0  0  0  0  0  0  0  0  0  0
  151.3821  139.9936  156.3283 C   0  0  0  0  0  0  0  0  0  0  0  0
  150.5068  138.9558  157.0535 C   0  0  0  0  0  0  0  0  0  0  0  0
  147.9482  131.7914  153.1275 C   0  0  0  0  0  0  0  0  0  0  0  0
  147.4252  130.3567  153.2816 C   0  0  0  0  0  0  0  0  0  0  0  0
  147.1323  129.7413  151.9652 N   0  3  1  0  0  0  0  0  0  0  0  0
  147.2263  128.2646  152.0196 C   0  0  1  0  0  0  0  0  0  0  0  0
  147.9439  127.6602  150.8345 C   0  0  0  0  0  0  0  0  0  0  0  0
  148.6398  127.7469  152.1757 C   0  0  2  0  0  0  0  0  0  0  0  0
  148.9192  126.4900  152.9701 C   0  0  0  0  0  0  0  0  0  0  0  0
  145.8402  130.1787  151.3823 C   0  0  0  0  0  0  0  0  0  0  0  0
  143.6566  131.6997  150.5585 H   0  0  0  0  0  0  0  0  0  0  0  0
  144.7036  131.3853  149.1762 H   0  0  0  0  0  0  0  0  0  0  0  0
  144.5672  133.0134  149.8184 H   0  0  0  0  0  0  0  0  0  0  0  0
  146.6941  131.9746  150.5187 H   0  0  0  0  0  0  0  0  0  0  0  0
  145.2332  133.5226  152.0212 H   0  0  0  0  0  0  0  0  0  0  0  0
  144.9002  132.1131  152.9957 H   0  0  0  0  0  0  0  0  0  0  0  0
  145.0278  136.3914  154.7316 H   0  0  0  0  0  0  0  0  0  0  0  0
  150.9778  134.2682  155.9739 H   0  0  0  0  0  0  0  0  0  0  0  0
  148.7322  137.0582  157.3646 H   0  0  0  0  0  0  0  0  0  0  0  0
  150.0433  136.0407  157.8957 H   0  0  0  0  0  0  0  0  0  0  0  0
  152.5237  137.7955  156.8572 H   0  0  0  0  0  0  0  0  0  0  0  0
  150.7364  136.6853  154.4407 H   0  0  0  0  0  0  0  0  0  0  0  0
  149.4608  137.8550  154.6611 H   0  0  0  0  0  0  0  0  0  0  0  0
  152.4400  138.5205  154.4150 H   0  0  0  0  0  0  0  0  0  0  0  0
  151.1823  138.8475  153.2417 H   0  0  0  0  0  0  0  0  0  0  0  0
  152.4427  139.7928  156.4862 H   0  0  0  0  0  0  0  0  0  0  0  0
  151.1880  140.9884  156.7293 H   0  0  0  0  0  0  0  0  0  0  0  0
  149.4657  139.2738  156.9843 H   0  0  0  0  0  0  0  0  0  0  0  0
  150.7547  138.9471  158.1155 H   0  0  0  0  0  0  0  0  0  0  0  0
  148.6134  131.8755  152.2675 H   0  0  0  0  0  0  0  0  0  0  0  0
  148.5598  131.9992  154.0060 H   0  0  0  0  0  0  0  0  0  0  0  0
  148.2182  129.7774  153.7567 H   0  0  0  0  0  0  0  0  0  0  0  0
  146.5672  130.3000  153.9536 H   0  0  0  0  0  0  0  0  0  0  0  0
  146.3881  127.7439  152.4799 H   0  0  0  0  0  0  0  0  0  0  0  0
  147.6161  126.6780  150.4995 H   0  0  0  0  0  0  0  0  0  0  0  0
  148.2927  128.3252  150.0465 H   0  0  0  0  0  0  0  0  0  0  0  0
  149.4287  128.4934  152.2536 H   0  0  0  0  0  0  0  0  0  0  0  0
  148.1042  125.7735  152.8614 H   0  0  0  0  0  0  0  0  0  0  0  0
  149.0301  126.7324  154.0270 H   0  0  0  0  0  0  0  0  0  0  0  0
  149.8410  126.0241  152.6211 H   0  0  0  0  0  0  0  0  0  0  0  0
  145.0187  129.8988  152.0440 H   0  0  0  0  0  0  0  0  0  0  0  0
  145.6896  129.6162  150.4599 H   0  0  0  0  0  0  0  0  0  0  0  0
  147.8602  130.0438  151.3339 H   0  0  0  0  0  0  0  0  0  0  0  0
  1  2  1  0  0  0  0
  1 30  1  0  0  0  0
  1 31  1  0  0  0  0
  1 32  1  0  0  0  0
  2 29  1  0  0  0  0
  2  3  1  0  0  0  0
  2 33  1  0  0  0  0
  3  4  1  0  0  0  0
  3 34  1  0  0  0  0
  3 35  1  0  0  0  0
  4  5  1  0  0  0  0
  4 22  1  0  0  0  0
  5 10  1  0  0  0  0
  5  6  2  0  0  0  0
  6  7  1  0  0  0  0
  7  8  2  0  0  0  0
  7 36  1  0  0  0  0
  8  9  1  0  0  0  0
  9 13  1  0  0  0  0
  9 10  2  0  0  0  0
 10 11  1  0  0  0  0
 11 12  2  0  0  0  0
 12 13  1  0  0  0  0
 12 37  1  0  0  0  0
 13 14  1  0  0  0  0
 14 15  1  0  0  0  0
 14 38  1  0  0  0  0
 14 39  1  0  0  0  0
 15 21  1  0  0  0  0
 15 16  1  0  0  0  0
 15 17  1  0  0  0  0
 16 40  1  0  0  0  0
 17 18  1  0  0  0  0
 17 41  1  0  0  0  0
 17 42  1  0  0  0  0
 18 19  1  0  0  0  0
 18 43  1  0  0  0  0
 18 44  1  0  0  0  0
 19 20  1  0  0  0  0
 20 21  1  0  0  0  0
 20 45  1  0  0  0  0
 20 46  1  0  0  0  0
 21 47  1  0  0  0  0
 21 48  1  0  0  0  0
 22 23  1  0  0  0  0
 22 49  1  0  0  0  0
 22 50  1  0  0  0  0
 23 24  1  0  0  0  0
 23 51  1  0  0  0  0
 23 52  1  0  0  0  0
 24 25  1  0  0  0  0
 24 29  1  0  0  0  0
 24 62  1  0  0  0  0
 25 27  1  0  0  0  0
 25 26  1  0  0  0  0
 25 53  1  0  0  0  0
 26 27  1  0  0  0  0
 26 54  1  0  0  0  0
 26 55  1  0  0  0  0
 27 28  1  0  0  0  0
 27 56  1  0  0  0  0
 28 57  1  0  0  0  0
 28 58  1  0  0  0  0
 28 59  1  0  0  0  0
 29 60  1  0  0  0  0
 29 61  1  0  0  0  0
M  CHG  1  24   1
M  END
> <s_m_source_file>
AV-unprocessed.smi

> <i_m_source_file_index>
193

> <i_lp_mmshare_version>
43012

> <i_f3d_flags>
0

> <s_epik_input>
W0NIM11bQ0BASF0xW0NIMl1bQ0BIXTFOKFtDSDJdMilbQ0gyXVtDSDJdTihbQ0gyXVtDQEhdMltDSDNdKWMobltjSF1uMyljKGMzNCluW2NIXW40W0NIMl1DNShbT0hdKVtDSDJdW0NIMl1PW0NIMl1bQ0gyXTU=

> <s_epik_cmdline>
J2VwaWtfcHl0aG9uJywgJy1waCcsICc3LjAnLCAnLXRuJywgJzgnLCAnLW1hJywgJzIwMCcsICctbWV0YWxfYmluZGluZycsICctaW1hZScsICc8aW5maWxlLm1hZT4nLCAnLW9tYWUnLCAnPG91dGZpbGUubWFlPic=

> <r_lp_tautomer_probability>
1

> <r_epik_Ionization_Penalty>
0.0540825

> <r_epik_Ionization_Penalty_Charging>
0.0538476

> <r_epik_Ionization_Penalty_Neutral>
0.000234891

> <r_epik_State_Penalty>
0.0200719

> <r_epik_Charging_Adjusted_Penalty>
0.0739194

> <i_epik_Tot_Q>
1

> <i_epik_Tot_abs_Q>
1

> <r_epik_Metal_State_Penalty>
0.0199414

> <b_epik_Metal_Only>
0

> <s_lp_Force_Field>
OPLS_2005

> <r_lp_Energy>
53.3477

> <b_lp_Chiralities_Consistent>
1

> <s_lp_Variant>
AV-unprocessed.smi:193-16

> <Gold.Version>
5.8.1

> <Gold.Id.Protein>
6NUR|6NUR_protein|mol2

> <Gold.PLP.Fitness>
52.8313

> <Gold.PLP.PLP>
-45.4506

> <Gold.PLP.part.hbond>
-3.0000

> <Gold.PLP.part.metal>
0.0000

> <Gold.PLP.part.buried>
-6.9573

> <Gold.PLP.part.nonpolar>
-36.1300

> <Gold.PLP.part.repulsive>
0.2961

> <Gold.PLP.ligand.clash>
0.0000

> <Gold.PLP.ligand.torsion>
1.4587

> <Gold.PLP.Chemscore.Hbond>
3.0000

> <Gold.PLP.Chemscore.CHOScore>
0.0000

> <Gold.PLP.Chemscore.Metal>
0.0000

> <Gold.Chemscore.Hbonds>
donor molecule, donor type, donor heavy atom, donor atom, acceptor molecule, acceptor atom, score
      L1  H    24    62       P1 10747  1.00
      P1  H  7989  7998       L1    19  0.55

> <Gold.PLP.Chemscore.Internal.Correction>
1.2981

> <Gold.Rescore>
     Score         DG    S(hbond)    S(metal)    S(lipo)     H(rot)  DE(clash)    DE(int)     intcor
     17.16     -20.20       1.84        0.00     115.39       1.93       0.18       2.85       ----

> <Gold.Chemscore.Fitness>
17.1649

> <Gold.Chemscore.DG>
-20.1964

> <Gold.Chemscore.ZeroCoef>
-5.4800

> <Gold.Chemscore.Hbond>
1.8427

> <Gold.Chemscore.Metal>
0.0000

> <Gold.Chemscore.Lipo>
115.3854

> <Gold.Chemscore.Internal_Hbond>
0.0000

> <Gold.Chemscore.DEClash>
0.1772

> <Gold.Chemscore.DEInternal>
2.8544

> <Gold.Chemscore.Rot>
1.9290

> <Gold.Chemscore.Internal.Correction>
   9.000000E+99

> <Gold.Chemscore.Hbonds>
donor molecule, donor type, donor heavy atom, donor atom, acceptor molecule, acceptor atom, score
      L1  H    24    62       P1 10747  1.00
      P1  H  7989  7998       L1    19  0.03

> <Gold.Chemscore.Hbond.Weighted>
-6.1546

> <Gold.Chemscore.Metal.Weighted>
-0.0000

> <Gold.Chemscore.Lipo.Weighted>
-13.5001

> <Gold.Chemscore.Internal_Hbond.Weighted>
0.0000

> <Gold.Chemscore.DEClash.Weighted>
0.1772

> <Gold.Chemscore.DEInternal.Weighted>
2.8544

> <Gold.Chemscore.Rot.Weighted>
4.9383

> <Gold.Chemscore.Internal.Correction.Weighted>
   9.000000E+99

> <Gold.Protein.RotatedTorsions>
[ 6907 6896 6895 6894 ] final  -14.17 input  -60.11 | X-H torsion
[ 7974 7965 7964 7962 ] final  -42.71 input  175.53 | X-H torsion
[ 8008 7997 7996 7995 ] final  134.10 input   59.86 | X-H torsion
[ 10167 10162 10161 10158 ] final -158.22 input  -65.29 | X-H torsion
[ 10718 10713 10712 10709 ] final  109.27 input   66.30 | X-H torsion
[ 10763 10752 10751 10750 ] final -149.71 input  -60.55 | X-H torsion
[ 11005 11000 10999 10996 ] final  -27.07 input  -57.11 | X-H torsion

> <Gold.Protein.ActiveResidues>
 VAL166  LYS551  ARG553  GLY616  TRP617  ASP618  TYR619  PRO620  LYS621  CYS622 
 ASP623  PHE694  ASN695  SER759  ASP760  ASP761  ALA762  ILE779  LEU786  VAL792 
 PHE793  MET794  SER795  GLU796  ALA797  LYS798  CYS799  TRP800  GLU811  SER814 

> <Gold.Protein.RotatedAtoms>
  151.3436  135.0869  159.9379 H   0  0  0  0  0  0  0  0  0  0  0  0  # atno 6907 bound_to 6896
  152.5205  133.9422  159.7642 H   0  0  0  0  0  0  0  0  0  0  0  0  # atno 6908 bound_to 6896
  150.9784  133.6217  159.2756 H   0  0  0  0  0  0  0  0  0  0  0  0  # atno 6909 bound_to 6896
  146.0089  140.6987  142.9234 H   0  0  0  0  0  0  0  0  0  0  0  0  # atno 7974 bound_to 7965
  156.2997  140.2504  156.3362 H   0  0  0  0  0  0  0  0  0  0  0  0  # atno 8008 bound_to 7997
  154.9098  140.0403  157.1959 H   0  0  0  0  0  0  0  0  0  0  0  0  # atno 8009 bound_to 7997
  154.8417  140.2892  155.5659 H   0  0  0  0  0  0  0  0  0  0  0  0  # atno 8010 bound_to 7997
  139.6709  143.9747  152.2283 H   0  0  0  0  0  0  0  0  0  0  0  0  # atno 10167 bound_to 10162
  157.6549  131.0910  150.6429 H   0  0  0  0  0  0  0  0  0  0  0  0  # atno 10718 bound_to 10713
  154.8162  135.3302  154.7170 H   0  0  0  0  0  0  0  0  0  0  0  0  # atno 10763 bound_to 10752
  153.7810  135.6918  153.4893 H   0  0  0  0  0  0  0  0  0  0  0  0  # atno 10764 bound_to 10752
  153.1980  135.4526  155.0179 H   0  0  0  0  0  0  0  0  0  0  0  0  # atno 10765 bound_to 10752
  140.9087  133.7475  156.0640 H   0  0  0  0  0  0  0  0  0  0  0  0  # atno 11005 bound_to 11000
  144.6946  140.3364  143.7207 LP  0  0  0  0  0  0  0  0  0  0  0  0  # atno 17320 bound_to 7965
  145.7373  139.1753  143.2396 LP  0  0  0  0  0  0  0  0  0  0  0  0  # atno 17321 bound_to 7965
  139.9511  144.6620  150.8171 LP  0  0  0  0  0  0  0  0  0  0  0  0  # atno 17342 bound_to 10162
  140.7617  143.3182  151.2684 LP  0  0  0  0  0  0  0  0  0  0  0  0  # atno 17343 bound_to 10162
  156.6736  130.4547  149.5649 LP  0  0  0  0  0  0  0  0  0  0  0  0  # atno 17370 bound_to 10713
  156.1979  130.6601  151.1135 LP  0  0  0  0  0  0  0  0  0  0  0  0  # atno 17371 bound_to 10713
  140.8138  134.3368  157.5403 LP  0  0  0  0  0  0  0  0  0  0  0  0  # atno 17394 bound_to 11000
  139.8753  134.9270  156.3413 LP  0  0  0  0  0  0  0  0  0  0  0  0  # atno 17395 bound_to 11000

$$$$
