AV-unprocessed.smi:133|AV-procd|sdf|1166|dock7
  -GOLD-   2262018303D 1   1.00000     0.00000
 Structure written by MMmdl.
 47 50  0  0  0  0  0  0  0  0  1 V2000
  153.3854  138.8279  156.8977 O   0  0  0  0  0  0  0  0  0  0  0  0
  152.4768  139.3302  156.2377 C   0  0  0  0  0  0  0  0  0  0  0  0
  152.0890  138.6616  154.9060 C   0  0  0  0  0  0  0  0  0  0  0  0
  150.6865  138.1923  154.8166 N   0  0  0  0  0  0  0  0  0  0  0  0
  149.6674  139.1417  154.5529 C   0  0  0  0  0  0  0  0  0  0  0  0
  149.9311  140.3355  154.4037 O   0  0  0  0  0  0  0  0  0  0  0  0
  148.3107  138.6095  154.4882 C   0  0  0  0  0  0  0  0  0  0  0  0
  147.2805  139.4395  154.2529 F   0  0  0  0  0  0  0  0  0  0  0  0
  148.0719  137.2944  154.6681 C   0  0  0  0  0  0  0  0  0  0  0  0
  149.0768  136.3789  154.9195 N   0  0  0  0  0  0  0  0  0  0  0  0
  148.7614  134.9156  155.1267 C   0  0  1  0  0  0  0  0  0  0  0  0
  147.2438  134.7004  155.1774 C   0  0  0  0  0  0  0  0  0  0  0  0
  146.9433  134.2152  153.7749 C   0  0  0  0  0  0  0  0  0  0  0  0
  148.2111  133.4391  153.4409 C   0  0  0  0  0  0  0  0  0  0  0  0
  149.2620  134.1883  154.0416 O   0  0  0  0  0  0  0  0  0  0  0  0
  150.4150  136.8176  155.0175 C   0  0  0  0  0  0  0  0  0  0  0  0
  151.3210  136.0258  155.2859 O   0  0  0  0  0  0  0  0  0  0  0  0
  151.8101  140.4455  156.5969 N   0  0  0  0  0  0  0  0  0  0  0  0
  151.9821  141.2512  157.7537 C   0  0  0  0  0  0  0  0  0  0  0  0
  152.6290  140.7940  158.9358 C   0  0  0  0  0  0  0  0  0  0  0  0
  152.7592  141.6391  160.0598 C   0  0  0  0  0  0  0  0  0  0  0  0
  152.2251  142.9362  159.9850 C   0  0  0  0  0  0  0  0  0  0  0  0
  151.5763  143.3818  158.8413 C   0  0  0  0  0  0  0  0  0  0  0  0
  151.4362  142.5553  157.7133 C   0  0  0  0  0  0  0  0  0  0  0  0
  151.0856  144.7951  158.9978 C   0  0  0  0  0  0  0  0  0  0  0  0
  151.3615  145.1227  160.4854 C   0  0  0  0  0  0  0  0  0  0  0  0
  152.2550  143.9937  161.0542 C   0  0  0  0  0  0  0  0  0  0  0  0
  152.3116  139.3638  154.1010 H   0  0  0  0  0  0  0  0  0  0  0  0
  152.7841  137.8394  154.7282 H   0  0  0  0  0  0  0  0  0  0  0  0
  147.0480  136.9547  154.6170 H   0  0  0  0  0  0  0  0  0  0  0  0
  149.2795  134.6076  156.0361 H   0  0  0  0  0  0  0  0  0  0  0  0
  147.0283  133.9185  155.9066 H   0  0  0  0  0  0  0  0  0  0  0  0
  146.7037  135.6050  155.4600 H   0  0  0  0  0  0  0  0  0  0  0  0
  146.0418  133.6046  153.7170 H   0  0  0  0  0  0  0  0  0  0  0  0
  146.8281  135.0621  153.0973 H   0  0  0  0  0  0  0  0  0  0  0  0
  148.1810  132.4468  153.8932 H   0  0  0  0  0  0  0  0  0  0  0  0
  148.3641  133.3212  152.3678 H   0  0  0  0  0  0  0  0  0  0  0  0
  151.1512  140.7988  155.9188 H   0  0  0  0  0  0  0  0  0  0  0  0
  153.0230  139.7919  159.0065 H   0  0  0  0  0  0  0  0  0  0  0  0
  153.2538  141.2941  160.9558 H   0  0  0  0  0  0  0  0  0  0  0  0
  150.9285  142.9174  156.8309 H   0  0  0  0  0  0  0  0  0  0  0  0
  151.6528  145.4506  158.3364 H   0  0  0  0  0  0  0  0  0  0  0  0
  150.0274  144.8778  158.7484 H   0  0  0  0  0  0  0  0  0  0  0  0
  151.7966  146.1128  160.6241 H   0  0  0  0  0  0  0  0  0  0  0  0
  150.4121  145.1149  161.0223 H   0  0  0  0  0  0  0  0  0  0  0  0
  151.8790  143.6099  162.0031 H   0  0  0  0  0  0  0  0  0  0  0  0
  153.2809  144.3346  161.1970 H   0  0  0  0  0  0  0  0  0  0  0  0
  1  2  2  0  0  0  0
  2  3  1  0  0  0  0
  2 18  1  0  0  0  0
  3  4  1  0  0  0  0
  3 28  1  0  0  0  0
  3 29  1  0  0  0  0
  4 16  1  0  0  0  0
  4  5  1  0  0  0  0
  5  6  2  0  0  0  0
  5  7  1  0  0  0  0
  7  8  1  0  0  0  0
  7  9  2  0  0  0  0
  9 10  1  0  0  0  0
  9 30  1  0  0  0  0
 10 11  1  0  0  0  0
 10 16  1  0  0  0  0
 11 15  1  0  0  0  0
 11 12  1  0  0  0  0
 11 31  1  0  0  0  0
 12 13  1  0  0  0  0
 12 32  1  0  0  0  0
 12 33  1  0  0  0  0
 13 14  1  0  0  0  0
 13 34  1  0  0  0  0
 13 35  1  0  0  0  0
 14 15  1  0  0  0  0
 14 36  1  0  0  0  0
 14 37  1  0  0  0  0
 16 17  2  0  0  0  0
 18 19  1  0  0  0  0
 18 38  1  0  0  0  0
 19 24  1  0  0  0  0
 19 20  2  0  0  0  0
 20 21  1  0  0  0  0
 20 39  1  0  0  0  0
 21 22  2  0  0  0  0
 21 40  1  0  0  0  0
 22 27  1  0  0  0  0
 22 23  1  0  0  0  0
 23 24  2  0  0  0  0
 23 25  1  0  0  0  0
 24 41  1  0  0  0  0
 25 26  1  0  0  0  0
 25 42  1  0  0  0  0
 25 43  1  0  0  0  0
 26 27  1  0  0  0  0
 26 44  1  0  0  0  0
 26 45  1  0  0  0  0
 27 46  1  0  0  0  0
 27 47  1  0  0  0  0
M  END
> <s_m_source_file>
AV-unprocessed.smi

> <i_m_source_file_index>
133

> <i_lp_mmshare_version>
43012

> <i_f3d_flags>
0

> <s_epik_input>
W0NIMl0xW0NIMl1bQ0gyXWMoYzEyKVtjSF1jKFtjSF1bY0hdMilbTkhdQyg9TylbQ0gyXW4zYyg9TyljKEYpW2NIXW4oYzM9TylbQ0BASF00W0NIMl1bQ0gyXVtDSDJdTzQ=

> <s_epik_cmdline>
J2VwaWtfcHl0aG9uJywgJy1waCcsICc3LjAnLCAnLXRuJywgJzgnLCAnLW1hJywgJzIwMCcsICctbWV0YWxfYmluZGluZycsICctaW1hZScsICc8aW5maWxlLm1hZT4nLCAnLW9tYWUnLCAnPG91dGZpbGUubWFlPic=

> <r_lp_tautomer_probability>
1

> <r_epik_Ionization_Penalty>
4.05675e-06

> <r_epik_Ionization_Penalty_Charging>
3.88729e-08

> <r_epik_Ionization_Penalty_Neutral>
4.01788e-06

> <r_epik_State_Penalty>
-0

> <r_epik_Charging_Adjusted_Penalty>
3.88729e-08

> <i_epik_Tot_Q>
0

> <i_epik_Tot_abs_Q>
0

> <r_epik_Metal_State_Penalty>
-0

> <b_epik_Metal_Only>
0

> <s_epik_Chemistry_Notes>
This compound contains an acetal/aminal-like group ( X-CH(R)-Y where X, Y are N, S, or O) that may be acid/base labile, releasing an aldehyde.

> <s_lp_Force_Field>
OPLS_2005

> <r_lp_Energy>
47.0615

> <b_lp_Chiralities_Consistent>
1

> <s_lp_Variant>
AV-unprocessed.smi:133-2

> <Gold.Version>
5.8.1

> <Gold.Id.Protein>
6NUR|6NUR_protein|mol2

> <Gold.PLP.Fitness>
55.5827

> <Gold.PLP.PLP>
-47.8923

> <Gold.PLP.part.hbond>
-2.9353

> <Gold.PLP.part.metal>
0.0000

> <Gold.PLP.part.buried>
-5.0287

> <Gold.PLP.part.nonpolar>
-40.0030

> <Gold.PLP.part.repulsive>
0.5347

> <Gold.PLP.ligand.clash>
0.0000

> <Gold.PLP.ligand.torsion>
0.4847

> <Gold.PLP.Chemscore.Hbond>
2.8800

> <Gold.PLP.Chemscore.CHOScore>
0.0000

> <Gold.PLP.Chemscore.Metal>
0.0000

> <Gold.Chemscore.Hbonds>
donor molecule, donor type, donor heavy atom, donor atom, acceptor molecule, acceptor atom, score
      P1  H  7989  7998       L1     6  0.90
      P1  H  7997  8008       L1     1  0.85
      P1  H 10752 10764       L1    17  1.00

> <Gold.PLP.Chemscore.Internal.Correction>
0.0198

> <Gold.Rescore>
     Score         DG    S(hbond)    S(metal)    S(lipo)     H(rot)  DE(clash)    DE(int)     intcor
     20.22     -23.07       2.48        0.00     114.28       1.59       0.27       2.58       ----

> <Gold.Chemscore.Fitness>
20.2181

> <Gold.Chemscore.DG>
-23.0678

> <Gold.Chemscore.ZeroCoef>
-5.4800

> <Gold.Chemscore.Hbond>
2.4787

> <Gold.Chemscore.Metal>
0.0000

> <Gold.Chemscore.Lipo>
114.2843

> <Gold.Chemscore.Internal_Hbond>
0.0000

> <Gold.Chemscore.DEClash>
0.2686

> <Gold.Chemscore.DEInternal>
2.5811

> <Gold.Chemscore.Rot>
1.5869

> <Gold.Chemscore.Internal.Correction>
   9.000000E+99

> <Gold.Chemscore.Hbonds>
donor molecule, donor type, donor heavy atom, donor atom, acceptor molecule, acceptor atom, score
      P1  H  7989  7998       L1     6  0.83
      P1  H  7997  8008       L1     1  0.14
      P1  H 10752 10764       L1    17  0.99

> <Gold.Chemscore.Hbond.Weighted>
-8.2789

> <Gold.Chemscore.Metal.Weighted>
-0.0000

> <Gold.Chemscore.Lipo.Weighted>
-13.3713

> <Gold.Chemscore.Internal_Hbond.Weighted>
0.0000

> <Gold.Chemscore.DEClash.Weighted>
0.2686

> <Gold.Chemscore.DEInternal.Weighted>
2.5811

> <Gold.Chemscore.Rot.Weighted>
4.0624

> <Gold.Chemscore.Internal.Correction.Weighted>
   9.000000E+99

> <Gold.Protein.RotatedTorsions>
[ 6907 6896 6895 6894 ] final  -50.33 input  -60.11 | X-H torsion
[ 7974 7965 7964 7962 ] final  -58.78 input  175.53 | X-H torsion
[ 8008 7997 7996 7995 ] final  -66.76 input   59.86 | X-H torsion
[ 10167 10162 10161 10158 ] final  143.81 input  -65.29 | X-H torsion
[ 10718 10713 10712 10709 ] final  103.67 input   66.30 | X-H torsion
[ 10763 10752 10751 10750 ] final  -66.93 input  -60.55 | X-H torsion
[ 11005 11000 10999 10996 ] final  150.22 input  -57.11 | X-H torsion

> <Gold.Protein.ActiveResidues>
 VAL166  LYS551  ARG553  GLY616  TRP617  ASP618  TYR619  PRO620  LYS621  CYS622 
 ASP623  PHE694  ASN695  SER759  ASP760  ASP761  ALA762  ILE779  LEU786  VAL792 
 PHE793  MET794  SER795  GLU796  ALA797  LYS798  CYS799  TRP800  GLU811  SER814 

> <Gold.Protein.RotatedAtoms>
  150.8718  134.8093  159.7159 H   0  0  0  0  0  0  0  0  0  0  0  0  # atno 6907 bound_to 6896
  152.4719  134.4935  159.9712 H   0  0  0  0  0  0  0  0  0  0  0  0  # atno 6908 bound_to 6896
  151.5023  133.3463  159.2906 H   0  0  0  0  0  0  0  0  0  0  0  0  # atno 6909 bound_to 6896
  145.8352  140.8453  143.0063 H   0  0  0  0  0  0  0  0  0  0  0  0  # atno 7974 bound_to 7965
  154.4755  140.0906  156.7252 H   0  0  0  0  0  0  0  0  0  0  0  0  # atno 8008 bound_to 7997
  155.4607  140.3461  155.4294 H   0  0  0  0  0  0  0  0  0  0  0  0  # atno 8009 bound_to 7997
  156.1110  140.1448  156.9327 H   0  0  0  0  0  0  0  0  0  0  0  0  # atno 8010 bound_to 7997
  139.4961  144.6015  151.6470 H   0  0  0  0  0  0  0  0  0  0  0  0  # atno 10167 bound_to 10162
  157.6765  131.0784  150.5590 H   0  0  0  0  0  0  0  0  0  0  0  0  # atno 10718 bound_to 10713
  154.3670  135.6103  153.5720 H   0  0  0  0  0  0  0  0  0  0  0  0  # atno 10763 bound_to 10752
  152.9791  135.5829  154.4566 H   0  0  0  0  0  0  0  0  0  0  0  0  # atno 10764 bound_to 10752
  154.4313  135.2848  155.1888 H   0  0  0  0  0  0  0  0  0  0  0  0  # atno 10765 bound_to 10752
  140.1112  134.8923  157.1939 H   0  0  0  0  0  0  0  0  0  0  0  0  # atno 11005 bound_to 11000
  144.6737  140.0731  143.7472 LP  0  0  0  0  0  0  0  0  0  0  0  0  # atno 17320 bound_to 7965
  145.9526  139.2744  143.1203 LP  0  0  0  0  0  0  0  0  0  0  0  0  # atno 17321 bound_to 7965
  140.5666  144.0179  150.6195 LP  0  0  0  0  0  0  0  0  0  0  0  0  # atno 17342 bound_to 10162
  140.3283  143.3093  152.0713 LP  0  0  0  0  0  0  0  0  0  0  0  0  # atno 17343 bound_to 10162
  156.5893  130.4325  149.5943 LP  0  0  0  0  0  0  0  0  0  0  0  0  # atno 17370 bound_to 10713
  156.2597  130.6955  151.1719 LP  0  0  0  0  0  0  0  0  0  0  0  0  # atno 17371 bound_to 10713
  140.3088  134.3047  155.7271 LP  0  0  0  0  0  0  0  0  0  0  0  0  # atno 17394 bound_to 11000
  141.2130  133.7638  156.9747 LP  0  0  0  0  0  0  0  0  0  0  0  0  # atno 17395 bound_to 11000

$$$$
