AV-unprocessed.smi:1904|AV-procd|sdf|7724|dock5
  -GOLD-   22720 9463D 1   1.00000     0.00000
 Structure written by MMmdl.
 50 51  0  0  0  0  0  0  0  0  2 V2000
  153.3316  138.0658  156.3655 C   0  0  0  0  0  0  0  0  0  0  0  0
  152.2714  139.0547  155.9726 C   0  0  0  0  0  0  0  0  0  0  0  0
  152.2118  140.2183  156.5979 N   0  0  0  0  0  0  0  0  0  0  0  0
  151.1692  140.8598  156.0334 N   0  0  0  0  0  0  0  0  0  0  0  0
  150.8207  142.1901  156.4927 C   0  0  0  0  0  0  0  0  0  0  0  0
  150.5626  140.0958  155.0554 C   0  0  0  0  0  0  0  0  0  0  0  0
  149.3725  140.5801  154.2912 C   0  0  0  0  0  0  0  0  0  0  0  0
  151.2542  138.9159  154.9821 C   0  0  0  0  0  0  0  0  0  0  0  0
  151.0046  137.7331  154.0808 C   0  0  0  0  0  0  0  0  0  0  0  0
  150.2638  136.6498  154.8637 C   0  0  0  0  0  0  0  0  0  0  0  0
  150.0721  136.7839  156.0723 O   0  0  0  0  0  0  0  0  0  0  0  0
  149.8745  135.5690  154.1699 N   0  0  0  0  0  0  0  0  0  0  0  0
  149.2218  134.4002  154.7456 C   0  0  0  0  0  0  0  0  0  0  0  0
  147.6888  134.5157  154.6409 C   0  0  0  0  0  0  0  0  0  0  0  0
  147.2039  134.4837  153.2379 N   0  3  2  0  0  0  0  0  0  0  0  0
  145.8979  135.1763  153.0863 C   0  0  0  0  0  0  0  0  0  0  0  0
  145.4745  135.2584  151.6087 C   0  0  0  0  0  0  0  0  0  0  0  0
  145.4311  133.8741  150.9370 C   0  0  2  0  0  0  0  0  0  0  0  0
  144.2191  133.0345  151.3779 C   0  0  0  0  0  0  0  0  0  0  0  0
  146.7706  133.1522  151.1684 C   0  0  0  0  0  0  0  0  0  0  0  0
  147.1660  133.1155  152.6559 C   0  0  0  0  0  0  0  0  0  0  0  0
  153.7017  137.5202  155.4977 H   0  0  0  0  0  0  0  0  0  0  0  0
  152.9382  137.3360  157.0731 H   0  0  0  0  0  0  0  0  0  0  0  0
  154.1860  138.5563  156.8332 H   0  0  0  0  0  0  0  0  0  0  0  0
  150.7011  142.8558  155.6377 H   0  0  0  0  0  0  0  0  0  0  0  0
  151.6011  142.5903  157.1415 H   0  0  0  0  0  0  0  0  0  0  0  0
  149.8837  142.1506  157.0486 H   0  0  0  0  0  0  0  0  0  0  0  0
  148.9126  139.7734  153.7210 H   0  0  0  0  0  0  0  0  0  0  0  0
  149.6562  141.3672  153.5926 H   0  0  0  0  0  0  0  0  0  0  0  0
  148.6142  140.9811  154.9640 H   0  0  0  0  0  0  0  0  0  0  0  0
  150.4065  138.0069  153.2115 H   0  0  0  0  0  0  0  0  0  0  0  0
  151.9382  137.3317  153.6843 H   0  0  0  0  0  0  0  0  0  0  0  0
  150.0698  135.5452  153.1792 H   0  0  0  0  0  0  0  0  0  0  0  0
  149.5738  133.4912  154.2548 H   0  0  0  0  0  0  0  0  0  0  0  0
  149.5394  134.3358  155.7856 H   0  0  0  0  0  0  0  0  0  0  0  0
  147.2009  133.7289  155.2187 H   0  0  0  0  0  0  0  0  0  0  0  0
  147.3864  135.4610  155.0944 H   0  0  0  0  0  0  0  0  0  0  0  0
  145.1385  134.6596  153.6749 H   0  0  0  0  0  0  0  0  0  0  0  0
  145.9700  136.1877  153.4882 H   0  0  0  0  0  0  0  0  0  0  0  0
  144.5051  135.7509  151.5237 H   0  0  0  0  0  0  0  0  0  0  0  0
  146.1828  135.8928  151.0739 H   0  0  0  0  0  0  0  0  0  0  0  0
  145.3222  134.0316  149.8630 H   0  0  0  0  0  0  0  0  0  0  0  0
  144.2339  132.8168  152.4452 H   0  0  0  0  0  0  0  0  0  0  0  0
  144.1921  132.0818  150.8480 H   0  0  0  0  0  0  0  0  0  0  0  0
  143.2850  133.5536  151.1607 H   0  0  0  0  0  0  0  0  0  0  0  0
  146.7272  132.1391  150.7673 H   0  0  0  0  0  0  0  0  0  0  0  0
  147.5535  133.6649  150.6076 H   0  0  0  0  0  0  0  0  0  0  0  0
  148.1427  132.6407  152.7393 H   0  0  0  0  0  0  0  0  0  0  0  0
  146.4697  132.4951  153.2215 H   0  0  0  0  0  0  0  0  0  0  0  0
  147.8680  135.0170  152.6949 H   0  0  0  0  0  0  0  0  0  0  0  0
  1  2  1  0  0  0  0
  1 22  1  0  0  0  0
  1 23  1  0  0  0  0
  1 24  1  0  0  0  0
  2  8  1  0  0  0  0
  2  3  2  0  0  0  0
  3  4  1  0  0  0  0
  4  5  1  0  0  0  0
  4  6  1  0  0  0  0
  5 25  1  0  0  0  0
  5 26  1  0  0  0  0
  5 27  1  0  0  0  0
  6  7  1  0  0  0  0
  6  8  2  0  0  0  0
  7 28  1  0  0  0  0
  7 29  1  0  0  0  0
  7 30  1  0  0  0  0
  8  9  1  0  0  0  0
  9 10  1  0  0  0  0
  9 31  1  0  0  0  0
  9 32  1  0  0  0  0
 10 11  2  0  0  0  0
 10 12  1  0  0  0  0
 12 13  1  0  0  0  0
 12 33  1  0  0  0  0
 13 14  1  0  0  0  0
 13 34  1  0  0  0  0
 13 35  1  0  0  0  0
 14 15  1  0  0  0  0
 14 36  1  0  0  0  0
 14 37  1  0  0  0  0
 15 21  1  0  0  0  0
 15 16  1  0  0  0  0
 15 50  1  0  0  0  0
 16 17  1  0  0  0  0
 16 38  1  0  0  0  0
 16 39  1  0  0  0  0
 17 18  1  0  0  0  0
 17 40  1  0  0  0  0
 17 41  1  0  0  0  0
 18 19  1  0  0  0  0
 18 20  1  0  0  0  0
 18 42  1  0  0  0  0
 19 43  1  0  0  0  0
 19 44  1  0  0  0  0
 19 45  1  0  0  0  0
 20 21  1  0  0  0  0
 20 46  1  0  0  0  0
 20 47  1  0  0  0  0
 21 48  1  0  0  0  0
 21 49  1  0  0  0  0
M  CHG  1  15   1
M  END
> <s_m_source_file>
AV-unprocessed.smi

> <i_m_source_file_index>
1904

> <i_lp_mmshare_version>
43012

> <i_f3d_flags>
0

> <s_epik_input>
W0NIM11jMW5uKFtDSDNdKWMoW0NIM10pYzFbQ0gyXUMoPU8pW05IXVtDSDJdW0NIMl1OMltDSDJdW0NIMl1bQ0hdKFtDSDNdKVtDSDJdW0NIMl0y

> <s_epik_cmdline>
J2VwaWtfcHl0aG9uJywgJy1waCcsICc3LjAnLCAnLXRuJywgJzgnLCAnLW1hJywgJzIwMCcsICctbWV0YWxfYmluZGluZycsICctaW1hZScsICc8aW5maWxlLm1hZT4nLCAnLW9tYWUnLCAnPG91dGZpbGUubWFlPic=

> <r_lp_tautomer_probability>
1

> <r_epik_Ionization_Penalty>
0.00374255

> <r_epik_Ionization_Penalty_Charging>
0.00158211

> <r_epik_Ionization_Penalty_Neutral>
0.00216044

> <r_epik_State_Penalty>
-0

> <r_epik_Charging_Adjusted_Penalty>
0.00158211

> <i_epik_Tot_Q>
1

> <i_epik_Tot_abs_Q>
1

> <r_epik_Metal_State_Penalty>
-0

> <b_epik_Metal_Only>
0

> <s_lp_Force_Field>
OPLS_2005

> <r_lp_Energy>
12.0105

> <b_lp_Chiralities_Consistent>
1

> <s_lp_Variant>
AV-unprocessed.smi:1904-2

> <Gold.Version>
5.8.1

> <Gold.Id.Protein>
6NUR|6NUR_protein|mol2

> <Gold.PLP.Fitness>
43.9899

> <Gold.PLP.PLP>
-37.7420

> <Gold.PLP.part.hbond>
-4.0000

> <Gold.PLP.part.metal>
0.0000

> <Gold.PLP.part.buried>
-0.4489

> <Gold.PLP.part.nonpolar>
-34.0214

> <Gold.PLP.part.repulsive>
0.0940

> <Gold.PLP.ligand.clash>
0.0000

> <Gold.PLP.ligand.torsion>
0.7139

> <Gold.PLP.Chemscore.Hbond>
2.5500

> <Gold.PLP.Chemscore.CHOScore>
0.0000

> <Gold.PLP.Chemscore.Metal>
0.0000

> <Gold.Chemscore.Hbonds>
donor molecule, donor type, donor heavy atom, donor atom, acceptor molecule, acceptor atom, score
      L1  H    15    50       P1  7948  2.00
      P1  H  7997  8010       L1     3  0.13

> <Gold.PLP.Chemscore.Internal.Correction>
0.0257

> <Gold.Rescore>
     Score         DG    S(hbond)    S(metal)    S(lipo)     H(rot)  DE(clash)    DE(int)     intcor
     14.26     -15.67       1.12        0.00      90.62       1.61       0.76       0.65       ----

> <Gold.Chemscore.Fitness>
14.2581

> <Gold.Chemscore.DG>
-15.6747

> <Gold.Chemscore.ZeroCoef>
-5.4800

> <Gold.Chemscore.Hbond>
1.1153

> <Gold.Chemscore.Metal>
0.0000

> <Gold.Chemscore.Lipo>
90.6163

> <Gold.Chemscore.Internal_Hbond>
0.0000

> <Gold.Chemscore.DEClash>
0.7616

> <Gold.Chemscore.DEInternal>
0.6549

> <Gold.Chemscore.Rot>
1.6142

> <Gold.Chemscore.Internal.Correction>
   9.000000E+99

> <Gold.Chemscore.Hbonds>
donor molecule, donor type, donor heavy atom, donor atom, acceptor molecule, acceptor atom, score
      L1  H    15    50       P1  7948  0.97

> <Gold.Chemscore.Hbond.Weighted>
-3.7250

> <Gold.Chemscore.Metal.Weighted>
-0.0000

> <Gold.Chemscore.Lipo.Weighted>
-10.6021

> <Gold.Chemscore.Internal_Hbond.Weighted>
0.0000

> <Gold.Chemscore.DEClash.Weighted>
0.7616

> <Gold.Chemscore.DEInternal.Weighted>
0.6549

> <Gold.Chemscore.Rot.Weighted>
4.1324

> <Gold.Chemscore.Internal.Correction.Weighted>
   9.000000E+99

> <Gold.Protein.RotatedTorsions>
[ 6907 6896 6895 6894 ] final -114.91 input  -60.11 | X-H torsion
[ 7974 7965 7964 7962 ] final   54.78 input  175.53 | X-H torsion
[ 8008 7997 7996 7995 ] final   50.86 input   59.86 | X-H torsion
[ 10167 10162 10161 10158 ] final   33.68 input  -65.29 | X-H torsion
[ 10718 10713 10712 10709 ] final  -42.99 input   66.30 | X-H torsion
[ 10763 10752 10751 10750 ] final   87.00 input  -60.55 | X-H torsion
[ 11005 11000 10999 10996 ] final  -10.16 input  -57.11 | X-H torsion

> <Gold.Protein.ActiveResidues>
 VAL166  LYS551  ARG553  GLY616  TRP617  ASP618  TYR619  PRO620  LYS621  CYS622 
 ASP623  PHE694  ASN695  SER759  ASP760  ASP761  ALA762  ILE779  LEU786  VAL792 
 PHE793  MET794  SER795  GLU796  ALA797  LYS798  CYS799  TRP800  GLU811  SER814 

> <Gold.Protein.RotatedAtoms>
  150.7937  133.8734  159.3264 H   0  0  0  0  0  0  0  0  0  0  0  0  # atno 6907 bound_to 6896
  151.6565  135.0993  160.0180 H   0  0  0  0  0  0  0  0  0  0  0  0  # atno 6908 bound_to 6896
  152.4016  133.6787  159.6356 H   0  0  0  0  0  0  0  0  0  0  0  0  # atno 6909 bound_to 6896
  145.9573  139.4027  143.0269 H   0  0  0  0  0  0  0  0  0  0  0  0  # atno 7974 bound_to 7965
  155.4257  140.3448  155.4275 H   0  0  0  0  0  0  0  0  0  0  0  0  # atno 8008 bound_to 7997
  156.1366  140.1530  156.9015 H   0  0  0  0  0  0  0  0  0  0  0  0  # atno 8009 bound_to 7997
  154.4937  140.0834  156.7630 H   0  0  0  0  0  0  0  0  0  0  0  0  # atno 8010 bound_to 7997
  140.4384  144.1223  150.6170 H   0  0  0  0  0  0  0  0  0  0  0  0  # atno 10167 bound_to 10162
  156.2538  130.4190  149.8620 H   0  0  0  0  0  0  0  0  0  0  0  0  # atno 10718 bound_to 10713
  153.1625  135.4560  154.9791 H   0  0  0  0  0  0  0  0  0  0  0  0  # atno 10763 bound_to 10752
  154.7908  135.3220  154.7784 H   0  0  0  0  0  0  0  0  0  0  0  0  # atno 10764 bound_to 10752
  153.8272  135.6941  153.4874 H   0  0  0  0  0  0  0  0  0  0  0  0  # atno 10765 bound_to 10752
  140.7418  133.8664  155.8974 H   0  0  0  0  0  0  0  0  0  0  0  0  # atno 11005 bound_to 11000
  145.8088  140.9736  143.0959 LP  0  0  0  0  0  0  0  0  0  0  0  0  # atno 17320 bound_to 7965
  144.6808  139.9895  143.7484 LP  0  0  0  0  0  0  0  0  0  0  0  0  # atno 17321 bound_to 7965
  140.4346  143.2553  151.9551 LP  0  0  0  0  0  0  0  0  0  0  0  0  # atno 17342 bound_to 10162
  139.4788  144.5712  151.8086 LP  0  0  0  0  0  0  0  0  0  0  0  0  # atno 17343 bound_to 10162
  156.6159  130.8606  151.3465 LP  0  0  0  0  0  0  0  0  0  0  0  0  # atno 17370 bound_to 10713
  157.7224  130.9577  150.1495 LP  0  0  0  0  0  0  0  0  0  0  0  0  # atno 17371 bound_to 10713
  140.9830  134.1380  157.4477 LP  0  0  0  0  0  0  0  0  0  0  0  0  # atno 17394 bound_to 11000
  139.8804  135.0016  156.6080 LP  0  0  0  0  0  0  0  0  0  0  0  0  # atno 17395 bound_to 11000

$$$$
