AV-unprocessed.smi:3303|AV-procd|sdf|12686|dock7
  -GOLD-   2272019 23D 1   1.00000     0.00000
 Structure written by MMmdl.
 44 45  0  0  0  0  0  0  0  0  2 V2000
  151.6477  139.2442  156.9509 C   0  0  0  0  0  0  0  0  0  0  0  0
  151.4012  140.1990  155.7639 C   0  0  1  0  0  0  0  0  0  0  0  0
  150.4736  139.5527  154.7145 C   0  0  0  0  0  0  0  0  0  0  0  0
  149.0700  139.4758  155.1967 N   0  3  2  0  0  0  0  0  0  0  0  0
  148.2025  138.6661  154.3117 C   0  0  0  0  0  0  0  0  0  0  0  0
  148.4943  140.7993  155.5729 C   0  0  2  0  0  0  0  0  0  0  0  0
  148.2087  141.7166  154.3639 C   0  0  0  0  0  0  0  0  0  0  0  0
  149.3847  141.4841  156.6296 C   0  0  0  0  0  0  0  0  0  0  0  0
  150.8505  141.5922  156.1688 C   0  0  1  0  0  0  0  0  0  0  0  0
  151.6268  142.2303  157.2270 N   0  0  0  0  0  0  0  0  0  0  0  0
  151.2977  143.6405  157.3769 C   0  0  0  0  0  0  0  0  0  0  0  0
  152.4021  144.3442  158.1766 C   0  0  0  0  0  0  0  0  0  0  0  0
  152.5884  143.7292  159.5505 C   0  0  0  0  0  0  0  0  0  0  0  0
  152.2361  144.4462  160.7140 C   0  0  0  0  0  0  0  0  0  0  0  0
  152.4192  143.8263  161.9651 C   0  0  0  0  0  0  0  0  0  0  0  0
  152.9438  142.5202  162.0048 C   0  0  0  0  0  0  0  0  0  0  0  0
  153.2628  141.8891  160.7858 C   0  0  0  0  0  0  0  0  0  0  0  0
  153.0906  142.4740  159.5807 N   0  0  0  0  0  0  0  0  0  0  0  0
  150.7320  139.0287  157.5007 H   0  0  0  0  0  0  0  0  0  0  0  0
  152.3679  139.6588  157.6566 H   0  0  0  0  0  0  0  0  0  0  0  0
  152.0529  138.2928  156.6062 H   0  0  0  0  0  0  0  0  0  0  0  0
  152.3649  140.3424  155.2746 H   0  0  0  0  0  0  0  0  0  0  0  0
  150.5122  140.1154  153.7814 H   0  0  0  0  0  0  0  0  0  0  0  0
  150.8326  138.5501  154.4771 H   0  0  0  0  0  0  0  0  0  0  0  0
  148.1668  139.0762  153.3021 H   0  0  0  0  0  0  0  0  0  0  0  0
  147.1856  138.6185  154.7025 H   0  0  0  0  0  0  0  0  0  0  0  0
  148.5793  137.6451  154.2449 H   0  0  0  0  0  0  0  0  0  0  0  0
  147.5342  140.6011  156.0513 H   0  0  0  0  0  0  0  0  0  0  0  0
  147.7956  142.6695  154.6950 H   0  0  0  0  0  0  0  0  0  0  0  0
  147.4774  141.2768  153.6860 H   0  0  0  0  0  0  0  0  0  0  0  0
  149.1060  141.9381  153.7871 H   0  0  0  0  0  0  0  0  0  0  0  0
  148.9889  142.4743  156.8594 H   0  0  0  0  0  0  0  0  0  0  0  0
  149.3308  140.9205  157.5621 H   0  0  0  0  0  0  0  0  0  0  0  0
  150.8764  142.2472  155.2968 H   0  0  0  0  0  0  0  0  0  0  0  0
  151.4446  141.7610  158.1032 H   0  0  0  0  0  0  0  0  0  0  0  0
  151.1991  144.1135  156.4001 H   0  0  0  0  0  0  0  0  0  0  0  0
  150.3414  143.7431  157.8917 H   0  0  0  0  0  0  0  0  0  0  0  0
  153.3491  144.2957  157.6363 H   0  0  0  0  0  0  0  0  0  0  0  0
  152.1663  145.4035  158.2889 H   0  0  0  0  0  0  0  0  0  0  0  0
  151.8331  145.4463  160.6515 H   0  0  0  0  0  0  0  0  0  0  0  0
  152.1611  144.3436  162.8774 H   0  0  0  0  0  0  0  0  0  0  0  0
  153.0971  142.0140  162.9462 H   0  0  0  0  0  0  0  0  0  0  0  0
  153.6664  140.8875  160.7784 H   0  0  0  0  0  0  0  0  0  0  0  0
  149.1178  138.9582  156.0630 H   0  0  0  0  0  0  0  0  0  0  0  0
  1  2  1  0  0  0  0
  1 19  1  0  0  0  0
  1 20  1  0  0  0  0
  1 21  1  0  0  0  0
  2  9  1  0  0  0  0
  2  3  1  0  0  0  0
  2 22  1  0  0  0  0
  3  4  1  0  0  0  0
  3 23  1  0  0  0  0
  3 24  1  0  0  0  0
  4  5  1  0  0  0  0
  4  6  1  0  0  0  0
  4 44  1  0  0  0  0
  5 25  1  0  0  0  0
  5 26  1  0  0  0  0
  5 27  1  0  0  0  0
  6  7  1  0  0  0  0
  6  8  1  0  0  0  0
  6 28  1  0  0  0  0
  7 29  1  0  0  0  0
  7 30  1  0  0  0  0
  7 31  1  0  0  0  0
  8  9  1  0  0  0  0
  8 32  1  0  0  0  0
  8 33  1  0  0  0  0
  9 10  1  0  0  0  0
  9 34  1  0  0  0  0
 10 11  1  0  0  0  0
 10 35  1  0  0  0  0
 11 12  1  0  0  0  0
 11 36  1  0  0  0  0
 11 37  1  0  0  0  0
 12 13  1  0  0  0  0
 12 38  1  0  0  0  0
 12 39  1  0  0  0  0
 13 18  1  0  0  0  0
 13 14  2  0  0  0  0
 14 15  1  0  0  0  0
 14 40  1  0  0  0  0
 15 16  2  0  0  0  0
 15 41  1  0  0  0  0
 16 17  1  0  0  0  0
 16 42  1  0  0  0  0
 17 18  2  0  0  0  0
 17 43  1  0  0  0  0
M  CHG  1   4   1
M  END
> <s_m_source_file>
AV-unprocessed.smi

> <i_m_source_file_index>
3303

> <i_lp_mmshare_version>
43012

> <i_f3d_flags>
0

> <s_epik_input>
W0NIM11bQ0BASF0xW0NIMl1OKFtDSDNdKVtDQEBIXShbQ0gzXSlbQ0gyXVtDQEhdMVtOSF1bQ0gyXVtDSDJdYzJbY0hdW2NIXVtjSF1bY0hdbjI=

> <s_epik_cmdline>
J2VwaWtfcHl0aG9uJywgJy1waCcsICc3LjAnLCAnLXRuJywgJzgnLCAnLW1hJywgJzIwMCcsICctbWV0YWxfYmluZGluZycsICctaW1hZScsICc8aW5maWxlLm1hZT4nLCAnLW9tYWUnLCAnPG91dGZpbGUubWFlPic=

> <r_epik_Ionization_Penalty>
2.31085

> <r_epik_Ionization_Penalty_Charging>
0.000313057

> <r_epik_Ionization_Penalty_Neutral>
2.31054

> <r_epik_State_Penalty>
2.4087

> <r_epik_Charging_Adjusted_Penalty>
2.40902

> <i_epik_Tot_Q>
1

> <i_epik_Tot_abs_Q>
1

> <r_epik_Metal_State_Penalty>
2.30979

> <b_epik_Metal_Only>
0

> <s_lp_Force_Field>
OPLS_2005

> <r_lp_Energy>
26.3275

> <b_lp_Chiralities_Consistent>
1

> <s_lp_Variant>
AV-unprocessed.smi:3303-30

> <Gold.Version>
5.8.1

> <Gold.Id.Protein>
6NUR|6NUR_protein|mol2

> <Gold.PLP.Fitness>
42.8003

> <Gold.PLP.PLP>
-43.1988

> <Gold.PLP.part.hbond>
0.0000

> <Gold.PLP.part.metal>
0.0000

> <Gold.PLP.part.buried>
-1.3969

> <Gold.PLP.part.nonpolar>
-42.0836

> <Gold.PLP.part.repulsive>
0.0349

> <Gold.PLP.ligand.clash>
0.0000

> <Gold.PLP.ligand.torsion>
0.2023

> <Gold.PLP.Chemscore.Hbond>
0.0000

> <Gold.PLP.Chemscore.CHOScore>
0.0000

> <Gold.PLP.Chemscore.Metal>
0.0000

> <Gold.PLP.Chemscore.Internal.Correction>
0.0062

> <Gold.Rescore>
     Score         DG    S(hbond)    S(metal)    S(lipo)     H(rot)  DE(clash)    DE(int)     intcor
     15.49     -17.19       0.00        0.00     129.15       1.33       0.07       1.63       ----

> <Gold.Chemscore.Fitness>
15.4899

> <Gold.Chemscore.DG>
-17.1933

> <Gold.Chemscore.ZeroCoef>
-5.4800

> <Gold.Chemscore.Hbond>
0.0000

> <Gold.Chemscore.Metal>
0.0000

> <Gold.Chemscore.Lipo>
129.1533

> <Gold.Chemscore.Internal_Hbond>
0.0000

> <Gold.Chemscore.DEClash>
0.0722

> <Gold.Chemscore.DEInternal>
1.6312

> <Gold.Chemscore.Rot>
1.3272

> <Gold.Chemscore.Internal.Correction>
   9.000000E+99

> <Gold.Chemscore.Hbond.Weighted>
-0.0000

> <Gold.Chemscore.Metal.Weighted>
-0.0000

> <Gold.Chemscore.Lipo.Weighted>
-15.1109

> <Gold.Chemscore.Internal_Hbond.Weighted>
0.0000

> <Gold.Chemscore.DEClash.Weighted>
0.0722

> <Gold.Chemscore.DEInternal.Weighted>
1.6312

> <Gold.Chemscore.Rot.Weighted>
3.3976

> <Gold.Chemscore.Internal.Correction.Weighted>
   9.000000E+99

> <Gold.Protein.RotatedTorsions>
[ 6907 6896 6895 6894 ] final  -26.93 input  -60.11 | X-H torsion
[ 7974 7965 7964 7962 ] final  163.81 input  175.53 | X-H torsion
[ 8008 7997 7996 7995 ] final  -67.78 input   59.86 | X-H torsion
[ 10167 10162 10161 10158 ] final   15.91 input  -65.29 | X-H torsion
[ 10718 10713 10712 10709 ] final  -52.23 input   66.30 | X-H torsion
[ 10763 10752 10751 10750 ] final  -43.89 input  -60.55 | X-H torsion
[ 11005 11000 10999 10996 ] final -111.12 input  -57.11 | X-H torsion

> <Gold.Protein.ActiveResidues>
 VAL166  LYS551  ARG553  GLY616  TRP617  ASP618  TYR619  PRO620  LYS621  CYS622 
 ASP623  PHE694  ASN695  SER759  ASP760  ASP761  ALA762  ILE779  LEU786  VAL792 
 PHE793  MET794  SER795  GLU796  ALA797  LYS798  CYS799  TRP800  GLU811  SER814 

> <Gold.Protein.RotatedAtoms>
  151.1540  135.0241  159.8680 H   0  0  0  0  0  0  0  0  0  0  0  0  # atno 6907 bound_to 6896
  152.5452  134.1355  159.8467 H   0  0  0  0  0  0  0  0  0  0  0  0  # atno 6908 bound_to 6896
  151.1444  133.4904  159.2629 H   0  0  0  0  0  0  0  0  0  0  0  0  # atno 6909 bound_to 6896
  144.7573  139.8235  143.6345 H   0  0  0  0  0  0  0  0  0  0  0  0  # atno 7974 bound_to 7965
  154.4823  140.0886  156.7406 H   0  0  0  0  0  0  0  0  0  0  0  0  # atno 8008 bound_to 7997
  155.4439  140.3455  155.4275 H   0  0  0  0  0  0  0  0  0  0  0  0  # atno 8009 bound_to 7997
  156.1210  140.1474  156.9193 H   0  0  0  0  0  0  0  0  0  0  0  0  # atno 8010 bound_to 7997
  140.5834  143.8936  150.6809 H   0  0  0  0  0  0  0  0  0  0  0  0  # atno 10167 bound_to 10162
  156.1640  130.4149  149.9749 H   0  0  0  0  0  0  0  0  0  0  0  0  # atno 10718 bound_to 10713
  154.0030  135.6691  153.4760 H   0  0  0  0  0  0  0  0  0  0  0  0  # atno 10763 bound_to 10752
  153.0654  135.5004  154.8184 H   0  0  0  0  0  0  0  0  0  0  0  0  # atno 10764 bound_to 10752
  154.7041  135.3084  154.9260 H   0  0  0  0  0  0  0  0  0  0  0  0  # atno 10765 bound_to 10752
  141.0753  133.9312  157.2403 H   0  0  0  0  0  0  0  0  0  0  0  0  # atno 11005 bound_to 11000
  146.1598  139.4708  142.9996 LP  0  0  0  0  0  0  0  0  0  0  0  0  # atno 17320 bound_to 7965
  145.6736  141.0210  143.1644 LP  0  0  0  0  0  0  0  0  0  0  0  0  # atno 17321 bound_to 7965
  140.2441  143.3641  152.1461 LP  0  0  0  0  0  0  0  0  0  0  0  0  # atno 17342 bound_to 10162
  139.5183  144.7004  151.5510 LP  0  0  0  0  0  0  0  0  0  0  0  0  # atno 17343 bound_to 10162
  156.7570  130.9137  151.3640 LP  0  0  0  0  0  0  0  0  0  0  0  0  # atno 17370 bound_to 10713
  157.6754  130.9089  150.0137 LP  0  0  0  0  0  0  0  0  0  0  0  0  # atno 17371 bound_to 10713
  139.9565  135.0164  156.9143 LP  0  0  0  0  0  0  0  0  0  0  0  0  # atno 17394 bound_to 11000
  140.5587  134.0556  155.7392 LP  0  0  0  0  0  0  0  0  0  0  0  0  # atno 17395 bound_to 11000

$$$$
