AV-unprocessed.smi:2546|AV-procd|sdf|10000|dock3
  -GOLD-   2272014 43D 1   1.00000     0.00000
 Structure written by MMmdl.
 16 16  0  0  0  0  0  0  0  0  3 V2000
  148.2960  138.3715  152.8781 N   0  3  0  0  0  0  0  0  0  0  0  0
  148.3210  138.5893  154.3333 C   0  0  0  0  0  0  0  0  0  0  0  0
  149.1813  139.8034  154.7024 C   0  0  0  0  0  0  0  0  0  0  0  0
  150.6468  139.4406  154.7817 C   0  0  0  0  0  0  0  0  0  0  0  0
  151.6321  140.3118  155.0690 N   0  0  0  0  0  0  0  0  0  0  0  0
  152.7462  139.6057  155.0881 N   0  5  0  0  0  0  0  0  0  0  0  0
  152.4297  138.3305  154.8243 C   0  0  0  0  0  0  0  0  0  0  0  0
  151.1253  138.1959  154.6370 N   0  0  0  0  0  0  0  0  0  0  0  0
  147.3423  138.2285  152.5779 H   0  0  0  0  0  0  0  0  0  0  0  0
  148.8469  137.5561  152.6512 H   0  0  0  0  0  0  0  0  0  0  0  0
  147.2985  138.7291  154.6860 H   0  0  0  0  0  0  0  0  0  0  0  0
  148.7083  137.6912  154.8153 H   0  0  0  0  0  0  0  0  0  0  0  0
  149.0564  140.5976  153.9650 H   0  0  0  0  0  0  0  0  0  0  0  0
  148.8687  140.2131  155.6637 H   0  0  0  0  0  0  0  0  0  0  0  0
  153.1900  137.5599  154.7908 H   0  0  0  0  0  0  0  0  0  0  0  0
  148.6801  139.1801  152.4104 H   0  0  0  0  0  0  0  0  0  0  0  0
  1  2  1  0  0  0  0
  1  9  1  0  0  0  0
  1 10  1  0  0  0  0
  1 16  1  0  0  0  0
  2  3  1  0  0  0  0
  2 11  1  0  0  0  0
  2 12  1  0  0  0  0
  3 13  1  0  0  0  0
  3 14  1  0  0  0  0
  3  4  1  0  0  0  0
  4  8  1  0  0  0  0
  4  5  2  0  0  0  0
  5  6  1  0  0  0  0
  6  7  1  0  0  0  0
  7  8  2  0  0  0  0
  7 15  1  0  0  0  0
M  CHG  1   1   1
M  CHG  1   6  -1
M  END
> <s_m_source_file>
AV-unprocessed.smi

> <i_m_source_file_index>
2546

> <i_lp_mmshare_version>
43012

> <i_f3d_flags>
0

> <s_epik_input>
W05IMl1bQ0gyXVtDSDJdYzFubltjSF1bbkhdMQ==

> <s_epik_cmdline>
J2VwaWtfcHl0aG9uJywgJy1waCcsICc3LjAnLCAnLXRuJywgJzgnLCAnLW1hJywgJzIwMCcsICctbWV0YWxfYmluZGluZycsICctaW1hZScsICc8aW5maWxlLm1hZT4nLCAnLW9tYWUnLCAnPG91dGZpbGUubWFlPic=

> <r_lp_tautomer_probability>
0.948284

> <r_epik_Ionization_Penalty>
6.40664

> <r_epik_Ionization_Penalty_Charging>
6.40664

> <r_epik_Ionization_Penalty_Neutral>
1.41162e-13

> <r_epik_State_Penalty>
2.81126

> <r_epik_Charging_Adjusted_Penalty>
9.2179

> <i_epik_Tot_Q>
0

> <i_epik_Tot_abs_Q>
2

> <r_epik_Metal_State_Penalty>
0.674554

> <b_epik_Metal_Only>
1

> <s_lp_Force_Field>
OPLS_2005

> <r_lp_Energy>
-3.27829

> <b_lp_Chiralities_Consistent>
1

> <s_lp_Variant>
AV-unprocessed.smi:2546-4

> <Gold.Version>
5.8.1

> <Gold.Id.Protein>
6NUR|6NUR_protein|mol2

> <Gold.PLP.Fitness>
32.3400

> <Gold.PLP.PLP>
-15.7893

> <Gold.PLP.part.hbond>
-4.7250

> <Gold.PLP.part.metal>
0.0000

> <Gold.PLP.part.buried>
-2.5045

> <Gold.PLP.part.nonpolar>
-9.1472

> <Gold.PLP.part.repulsive>
0.2860

> <Gold.PLP.ligand.clash>
0.0000

> <Gold.PLP.ligand.torsion>
0.1323

> <Gold.PLP.Chemscore.Hbond>
5.6032

> <Gold.PLP.Chemscore.CHOScore>
0.0000

> <Gold.PLP.Chemscore.Metal>
0.0000

> <Gold.Chemscore.Hbonds>
donor molecule, donor type, donor heavy atom, donor atom, acceptor molecule, acceptor atom, score
      L1  H     1    10       P1  7948  1.87
      L1  H     1    16       P1  7957  1.00
      P1  H  7989  7998       L1     5  0.55
      P1  H  7997  8008       L1     6  2.00

> <Gold.PLP.Chemscore.Internal.Correction>
0.0057

> <Gold.Rescore>
     Score         DG    S(hbond)    S(metal)    S(lipo)     H(rot)  DE(clash)    DE(int)     intcor
     12.01     -12.15       2.91        0.00      10.08       1.66       0.02       0.12       ----

> <Gold.Chemscore.Fitness>
12.0071

> <Gold.Chemscore.DG>
-12.1466

> <Gold.Chemscore.ZeroCoef>
-5.4800

> <Gold.Chemscore.Hbond>
2.9150

> <Gold.Chemscore.Metal>
0.0000

> <Gold.Chemscore.Lipo>
10.0766

> <Gold.Chemscore.Internal_Hbond>
0.0000

> <Gold.Chemscore.DEClash>
0.0178

> <Gold.Chemscore.DEInternal>
0.1217

> <Gold.Chemscore.Rot>
1.6595

> <Gold.Chemscore.Internal.Correction>
   9.000000E+99

> <Gold.Chemscore.Hbonds>
donor molecule, donor type, donor heavy atom, donor atom, acceptor molecule, acceptor atom, score
      L1  H     1    10       P1  7948  0.84
      L1  H     1    16       P1  7957  0.98
      P1  H  7989  7998       L1     5  0.01
      P1  H  7997  8008       L1     6  0.96

> <Gold.Chemscore.Hbond.Weighted>
-9.7360

> <Gold.Chemscore.Metal.Weighted>
-0.0000

> <Gold.Chemscore.Lipo.Weighted>
-1.1790

> <Gold.Chemscore.Internal_Hbond.Weighted>
0.0000

> <Gold.Chemscore.DEClash.Weighted>
0.0178

> <Gold.Chemscore.DEInternal.Weighted>
0.1217

> <Gold.Chemscore.Rot.Weighted>
4.2484

> <Gold.Chemscore.Internal.Correction.Weighted>
   9.000000E+99

> <Gold.Protein.RotatedTorsions>
[ 6907 6896 6895 6894 ] final  176.74 input  -60.11 | X-H torsion
[ 7974 7965 7964 7962 ] final  169.58 input  175.53 | X-H torsion
[ 8008 7997 7996 7995 ] final  -28.74 input   59.86 | X-H torsion
[ 10167 10162 10161 10158 ] final   18.89 input  -65.29 | X-H torsion
[ 10718 10713 10712 10709 ] final -121.05 input   66.30 | X-H torsion
[ 10763 10752 10751 10750 ] final  -81.48 input  -60.55 | X-H torsion
[ 11005 11000 10999 10996 ] final   63.39 input  -57.11 | X-H torsion

> <Gold.Protein.ActiveResidues>
 VAL166  LYS551  ARG553  GLY616  TRP617  ASP618  TYR619  PRO620  LYS621  CYS622 
 ASP623  PHE694  ASN695  SER759  ASP760  ASP761  ALA762  ILE779  LEU786  VAL792 
 PHE793  MET794  SER795  GLU796  ALA797  LYS798  CYS799  TRP800  GLU811  SER814 

> <Gold.Protein.RotatedAtoms>
  151.7153  133.3313  159.3300 H   0  0  0  0  0  0  0  0  0  0  0  0  # atno 6907 bound_to 6896
  150.7676  134.6496  159.6290 H   0  0  0  0  0  0  0  0  0  0  0  0  # atno 6908 bound_to 6896
  152.3686  134.6770  160.0235 H   0  0  0  0  0  0  0  0  0  0  0  0  # atno 6909 bound_to 6896
  144.7350  139.9075  143.6413 H   0  0  0  0  0  0  0  0  0  0  0  0  # atno 7974 bound_to 7965
  154.4319  140.1837  156.1138 H   0  0  0  0  0  0  0  0  0  0  0  0  # atno 8008 bound_to 7997
  156.0197  140.3342  155.7000 H   0  0  0  0  0  0  0  0  0  0  0  0  # atno 8009 bound_to 7997
  155.5994  140.0639  157.2728 H   0  0  0  0  0  0  0  0  0  0  0  0  # atno 8010 bound_to 7997
  140.5620  143.9320  150.6649 H   0  0  0  0  0  0  0  0  0  0  0  0  # atno 10167 bound_to 10162
  156.1307  130.6393  150.9616 H   0  0  0  0  0  0  0  0  0  0  0  0  # atno 10718 bound_to 10713
  154.5640  135.5625  153.7034 H   0  0  0  0  0  0  0  0  0  0  0  0  # atno 10763 bound_to 10752
  153.0027  135.6281  154.2205 H   0  0  0  0  0  0  0  0  0  0  0  0  # atno 10764 bound_to 10752
  154.2144  135.2872  155.2927 H   0  0  0  0  0  0  0  0  0  0  0  0  # atno 10765 bound_to 10752
  140.0028  134.6416  155.9903 H   0  0  0  0  0  0  0  0  0  0  0  0  # atno 11005 bound_to 11000
  146.1025  139.4022  143.0338 LP  0  0  0  0  0  0  0  0  0  0  0  0  # atno 17320 bound_to 7965
  145.7558  140.9955  143.1226 LP  0  0  0  0  0  0  0  0  0  0  0  0  # atno 17321 bound_to 7965
  140.2773  143.3414  152.1183 LP  0  0  0  0  0  0  0  0  0  0  0  0  # atno 17342 bound_to 10162
  139.5074  144.6832  151.5955 LP  0  0  0  0  0  0  0  0  0  0  0  0  # atno 17343 bound_to 10162
  157.6485  131.0900  150.8102 LP  0  0  0  0  0  0  0  0  0  0  0  0  # atno 17370 bound_to 10713
  156.8187  130.4977  149.5346 LP  0  0  0  0  0  0  0  0  0  0  0  0  # atno 17371 bound_to 10713
  141.1655  133.6537  156.4463 LP  0  0  0  0  0  0  0  0  0  0  0  0  # atno 17394 bound_to 11000
  140.4696  134.6765  157.5123 LP  0  0  0  0  0  0  0  0  0  0  0  0  # atno 17395 bound_to 11000

$$$$
