AV-unprocessed.smi:1852|AV-procd|sdf|7526|dock4
  -GOLD-   22720 9233D 1   1.00000     0.00000
 Structure written by MMmdl.
 46 48  0  0  0  0  0  0  0  0  2 V2000
  147.7472  136.0915  162.2377 C   0  0  0  0  0  0  0  0  0  0  0  0
  148.0805  135.8235  160.7844 C   0  0  0  0  0  0  0  0  0  0  0  0
  147.7161  134.6029  160.1838 C   0  0  0  0  0  0  0  0  0  0  0  0
  148.0279  134.3632  158.8333 C   0  0  0  0  0  0  0  0  0  0  0  0
  148.7047  135.3410  158.0751 C   0  0  0  0  0  0  0  0  0  0  0  0
  149.0281  135.0707  156.6173 C   0  0  0  0  0  0  0  0  0  0  0  0
  149.0765  136.5702  158.6666 C   0  0  0  0  0  0  0  0  0  0  0  0
  149.7400  137.4799  157.8711 O   0  0  0  0  0  0  0  0  0  0  0  0
  149.8113  138.8336  158.2975 C   0  0  0  0  0  0  0  0  0  0  0  0
  151.0801  139.4768  157.7209 C   0  0  0  0  0  0  0  0  0  0  0  0
  150.9105  140.9207  157.4920 N   0  0  0  0  0  0  0  0  0  0  0  0
  150.1099  141.5860  156.6096 C   0  0  0  0  0  0  0  0  0  0  0  0
  149.1600  140.9866  155.6195 C   0  0  0  0  0  0  0  0  0  0  0  0
  148.4976  141.9850  154.7887 N   0  0  0  0  0  0  0  0  0  0  0  0
  147.6244  141.7119  153.8086 C   0  0  0  0  0  0  0  0  0  0  0  0
  147.2599  140.5792  153.4976 O   0  0  0  0  0  0  0  0  0  0  0  0
  150.3340  142.9187  156.7883 N   0  3  0  0  0  0  0  0  0  0  0  0
  151.2909  143.1087  157.7854 C   0  0  0  0  0  0  0  0  0  0  0  0
  151.8431  144.2746  158.3073 C   0  0  0  0  0  0  0  0  0  0  0  0
  152.8118  144.1177  159.3202 C   0  0  0  0  0  0  0  0  0  0  0  0
  153.1971  142.8405  159.7756 C   0  0  0  0  0  0  0  0  0  0  0  0
  152.6278  141.6663  159.2410 C   0  0  0  0  0  0  0  0  0  0  0  0
  151.6686  141.8292  158.2411 C   0  0  0  0  0  0  0  0  0  0  0  0
  148.7576  136.8017  160.0287 C   0  0  0  0  0  0  0  0  0  0  0  0
  147.3496  135.2011  162.7257 H   0  0  0  0  0  0  0  0  0  0  0  0
  147.0021  136.8839  162.3132 H   0  0  0  0  0  0  0  0  0  0  0  0
  148.6392  136.4056  162.7804 H   0  0  0  0  0  0  0  0  0  0  0  0
  147.1973  133.8465  160.7544 H   0  0  0  0  0  0  0  0  0  0  0  0
  147.7431  133.4241  158.3820 H   0  0  0  0  0  0  0  0  0  0  0  0
  150.1075  135.0648  156.4647 H   0  0  0  0  0  0  0  0  0  0  0  0
  148.5956  135.8448  155.9828 H   0  0  0  0  0  0  0  0  0  0  0  0
  148.6333  134.1079  156.2920 H   0  0  0  0  0  0  0  0  0  0  0  0
  148.9365  139.3840  157.9475 H   0  0  0  0  0  0  0  0  0  0  0  0
  149.8337  138.8895  159.3865 H   0  0  0  0  0  0  0  0  0  0  0  0
  151.9169  139.3387  158.4050 H   0  0  0  0  0  0  0  0  0  0  0  0
  151.3724  138.9954  156.7880 H   0  0  0  0  0  0  0  0  0  0  0  0
  149.7159  140.3113  154.9688 H   0  0  0  0  0  0  0  0  0  0  0  0
  148.4154  140.3754  156.1306 H   0  0  0  0  0  0  0  0  0  0  0  0
  148.7316  142.9522  154.9600 H   0  0  0  0  0  0  0  0  0  0  0  0
  147.2790  142.6370  153.3217 H   0  0  0  0  0  0  0  0  0  0  0  0
  151.5521  145.2541  157.9578 H   0  0  0  0  0  0  0  0  0  0  0  0
  153.2696  144.9945  159.7550 H   0  0  0  0  0  0  0  0  0  0  0  0
  153.9456  142.7583  160.5503 H   0  0  0  0  0  0  0  0  0  0  0  0
  152.9367  140.6938  159.5943 H   0  0  0  0  0  0  0  0  0  0  0  0
  149.0275  137.7251  160.5184 H   0  0  0  0  0  0  0  0  0  0  0  0
  149.8654  143.6445  156.2617 H   0  0  0  0  0  0  0  0  0  0  0  0
  1  2  1  0  0  0  0
  1 25  1  0  0  0  0
  1 26  1  0  0  0  0
  1 27  1  0  0  0  0
  2 24  1  0  0  0  0
  2  3  2  0  0  0  0
  3  4  1  0  0  0  0
  3 28  1  0  0  0  0
  4  5  2  0  0  0  0
  4 29  1  0  0  0  0
  5  6  1  0  0  0  0
  5  7  1  0  0  0  0
  6 30  1  0  0  0  0
  6 31  1  0  0  0  0
  6 32  1  0  0  0  0
  7  8  1  0  0  0  0
  7 24  2  0  0  0  0
  8  9  1  0  0  0  0
  9 10  1  0  0  0  0
  9 33  1  0  0  0  0
  9 34  1  0  0  0  0
 10 11  1  0  0  0  0
 10 35  1  0  0  0  0
 10 36  1  0  0  0  0
 11 23  1  0  0  0  0
 11 12  1  0  0  0  0
 12 13  1  0  0  0  0
 12 17  2  0  0  0  0
 13 14  1  0  0  0  0
 13 37  1  0  0  0  0
 13 38  1  0  0  0  0
 14 15  1  0  0  0  0
 14 39  1  0  0  0  0
 15 16  2  0  0  0  0
 15 40  1  0  0  0  0
 17 18  1  0  0  0  0
 17 46  1  0  0  0  0
 18 23  2  0  0  0  0
 18 19  1  0  0  0  0
 19 20  2  0  0  0  0
 19 41  1  0  0  0  0
 20 21  1  0  0  0  0
 20 42  1  0  0  0  0
 21 22  2  0  0  0  0
 21 43  1  0  0  0  0
 22 23  1  0  0  0  0
 22 44  1  0  0  0  0
 24 45  1  0  0  0  0
M  CHG  1  17   1
M  END
> <s_m_source_file>
AV-unprocessed.smi

> <i_m_source_file_index>
1852

> <i_lp_mmshare_version>
43012

> <i_f3d_flags>
0

> <s_epik_input>
W0NIM11jMVtjSF1bY0hdYyhbQ0gzXSljKFtjSF0xKU9bQ0gyXVtDSDJdbihjKG4yKVtDSDJdW05IXVtDSF09TyljKGMyMylbY0hdW2NIXVtjSF1bY0hdMw==

> <s_epik_cmdline>
J2VwaWtfcHl0aG9uJywgJy1waCcsICc3LjAnLCAnLXRuJywgJzgnLCAnLW1hJywgJzIwMCcsICctbWV0YWxfYmluZGluZycsICctaW1hZScsICc8aW5maWxlLm1hZT4nLCAnLW9tYWUnLCAnPG91dGZpbGUubWFlPic=

> <r_lp_tautomer_probability>
1

> <r_epik_Ionization_Penalty>
1.39865

> <r_epik_Ionization_Penalty_Charging>
1.39865

> <r_epik_Ionization_Penalty_Neutral>
7.38905e-08

> <r_epik_State_Penalty>
1.48061

> <r_epik_Charging_Adjusted_Penalty>
2.87925

> <i_epik_Tot_Q>
1

> <i_epik_Tot_abs_Q>
1

> <r_epik_Metal_State_Penalty>
1.53473

> <b_epik_Metal_Only>
0

> <s_lp_Force_Field>
OPLS_2005

> <r_lp_Energy>
13.537

> <b_lp_Chiralities_Consistent>
1

> <s_lp_Variant>
AV-unprocessed.smi:1852-2

> <Gold.Version>
5.8.1

> <Gold.Id.Protein>
6NUR|6NUR_protein|mol2

> <Gold.PLP.Fitness>
54.1679

> <Gold.PLP.PLP>
-46.2897

> <Gold.PLP.part.hbond>
-2.0000

> <Gold.PLP.part.metal>
0.0000

> <Gold.PLP.part.buried>
-6.9030

> <Gold.PLP.part.nonpolar>
-37.9755

> <Gold.PLP.part.repulsive>
0.3820

> <Gold.PLP.ligand.clash>
0.0000

> <Gold.PLP.ligand.torsion>
0.6181

> <Gold.PLP.Chemscore.Hbond>
3.0000

> <Gold.PLP.Chemscore.CHOScore>
0.0000

> <Gold.PLP.Chemscore.Metal>
0.0000

> <Gold.Chemscore.Hbonds>
donor molecule, donor type, donor heavy atom, donor atom, acceptor molecule, acceptor atom, score
      L1  H    14    39       P1  8028  1.00
      L1  H    17    46       P1  8028  2.00

> <Gold.PLP.Chemscore.Internal.Correction>
0.1145

> <Gold.Rescore>
     Score         DG    S(hbond)    S(metal)    S(lipo)     H(rot)  DE(clash)    DE(int)     intcor
     19.06     -19.63       1.99        0.00     117.45       2.44       0.03       0.53       ----

> <Gold.Chemscore.Fitness>
19.0644

> <Gold.Chemscore.DG>
-19.6251

> <Gold.Chemscore.ZeroCoef>
-5.4800

> <Gold.Chemscore.Hbond>
1.9917

> <Gold.Chemscore.Metal>
0.0000

> <Gold.Chemscore.Lipo>
117.4541

> <Gold.Chemscore.Internal_Hbond>
0.0000

> <Gold.Chemscore.DEClash>
0.0270

> <Gold.Chemscore.DEInternal>
0.5337

> <Gold.Chemscore.Rot>
2.4411

> <Gold.Chemscore.Internal.Correction>
   9.000000E+99

> <Gold.Chemscore.Hbonds>
donor molecule, donor type, donor heavy atom, donor atom, acceptor molecule, acceptor atom, score
      L1  H    14    39       P1  8028  1.00
      L1  H    17    46       P1  8028  0.97

> <Gold.Chemscore.Hbond.Weighted>
-6.6523

> <Gold.Chemscore.Metal.Weighted>
-0.0000

> <Gold.Chemscore.Lipo.Weighted>
-13.7421

> <Gold.Chemscore.Internal_Hbond.Weighted>
0.0000

> <Gold.Chemscore.DEClash.Weighted>
0.0270

> <Gold.Chemscore.DEInternal.Weighted>
0.5337

> <Gold.Chemscore.Rot.Weighted>
6.2493

> <Gold.Chemscore.Internal.Correction.Weighted>
   9.000000E+99

> <Gold.Protein.RotatedTorsions>
[ 6907 6896 6895 6894 ] final  -52.21 input  -60.11 | X-H torsion
[ 7974 7965 7964 7962 ] final   64.39 input  175.53 | X-H torsion
[ 8008 7997 7996 7995 ] final  -84.33 input   59.86 | X-H torsion
[ 10167 10162 10161 10158 ] final   38.06 input  -65.29 | X-H torsion
[ 10718 10713 10712 10709 ] final -112.79 input   66.30 | X-H torsion
[ 10763 10752 10751 10750 ] final -170.85 input  -60.55 | X-H torsion
[ 11005 11000 10999 10996 ] final -126.09 input  -57.11 | X-H torsion

> <Gold.Protein.ActiveResidues>
 VAL166  LYS551  ARG553  GLY616  TRP617  ASP618  TYR619  PRO620  LYS621  CYS622 
 ASP623  PHE694  ASN695  SER759  ASP760  ASP761  ALA762  ILE779  LEU786  VAL792 
 PHE793  MET794  SER795  GLU796  ALA797  LYS798  CYS799  TRP800  GLU811  SER814 

> <Gold.Protein.RotatedAtoms>
  150.8539  134.7872  159.7029 H   0  0  0  0  0  0  0  0  0  0  0  0  # atno 6907 bound_to 6896
  152.4596  134.5211  159.9792 H   0  0  0  0  0  0  0  0  0  0  0  0  # atno 6908 bound_to 6896
  151.5327  133.3408  159.2957 H   0  0  0  0  0  0  0  0  0  0  0  0  # atno 6909 bound_to 6896
  145.8508  139.3253  143.0876 H   0  0  0  0  0  0  0  0  0  0  0  0  # atno 7974 bound_to 7965
  154.6286  140.0606  156.9704 H   0  0  0  0  0  0  0  0  0  0  0  0  # atno 8008 bound_to 7997
  155.1701  140.3290  155.4376 H   0  0  0  0  0  0  0  0  0  0  0  0  # atno 8009 bound_to 7997
  156.2471  140.1915  156.6804 H   0  0  0  0  0  0  0  0  0  0  0  0  # atno 8010 bound_to 7997
  140.3972  144.1772  150.6132 H   0  0  0  0  0  0  0  0  0  0  0  0  # atno 10167 bound_to 10162
  156.0727  130.5938  150.8555 H   0  0  0  0  0  0  0  0  0  0  0  0  # atno 10718 bound_to 10713
  154.6370  135.2893  155.0149 H   0  0  0  0  0  0  0  0  0  0  0  0  # atno 10763 bound_to 10752
  154.1289  135.6536  153.4922 H   0  0  0  0  0  0  0  0  0  0  0  0  # atno 10764 bound_to 10752
  153.0307  135.5305  154.7221 H   0  0  0  0  0  0  0  0  0  0  0  0  # atno 10765 bound_to 10752
  140.9709  134.0806  157.3870 H   0  0  0  0  0  0  0  0  0  0  0  0  # atno 11005 bound_to 11000
  145.9360  140.9014  143.0332 LP  0  0  0  0  0  0  0  0  0  0  0  0  # atno 17320 bound_to 7965
  144.6729  140.1483  143.7432 LP  0  0  0  0  0  0  0  0  0  0  0  0  # atno 17321 bound_to 7965
  140.4778  143.2390  151.8999 LP  0  0  0  0  0  0  0  0  0  0  0  0  # atno 17342 bound_to 10162
  139.4786  144.5302  151.8677 LP  0  0  0  0  0  0  0  0  0  0  0  0  # atno 17343 bound_to 10162
  157.5806  131.0946  150.9277 LP  0  0  0  0  0  0  0  0  0  0  0  0  # atno 17370 bound_to 10713
  156.9473  130.5407  149.5281 LP  0  0  0  0  0  0  0  0  0  0  0  0  # atno 17371 bound_to 10713
  139.8912  135.0117  156.6778 LP  0  0  0  0  0  0  0  0  0  0  0  0  # atno 17394 bound_to 11000
  140.7330  133.9043  155.8224 LP  0  0  0  0  0  0  0  0  0  0  0  0  # atno 17395 bound_to 11000

$$$$
