AV-unprocessed.smi:43|AV-procd|sdf|394|dock5
  -GOLD-   2262016253D 1   1.00000     0.00000
 Structure written by MMmdl.
 25 26  0  0  0  0  0  0  0  0  2 V2000
  152.3486  137.4979  158.3053 C   0  0  0  0  0  0  0  0  0  0  0  0
  150.9216  137.5759  158.5608 N   0  0  0  0  0  0  0  0  0  0  0  0
  150.2596  136.4640  158.9692 N   0  0  0  0  0  0  0  0  0  0  0  0
  149.0124  136.7982  159.1236 N   0  0  0  0  0  0  0  0  0  0  0  0
  148.8110  138.1296  158.8250 N   0  0  0  0  0  0  0  0  0  0  0  0
  150.0172  138.5713  158.4858 C   0  0  0  0  0  0  0  0  0  0  0  0
  150.3130  139.8844  158.0916 N   0  0  0  0  0  0  0  0  0  0  0  0
  149.4492  141.0679  158.1009 C   0  0  0  0  0  0  0  0  0  0  0  0
  150.2004  142.2210  157.4347 C   0  0  1  0  0  0  0  0  0  0  0  0
  149.8297  143.4811  157.9542 O   0  0  0  0  0  0  0  0  0  0  0  0
  151.6468  141.8711  157.7216 C   0  0  0  0  0  0  0  0  0  0  0  0
  151.6321  140.3412  157.6355 C   0  0  2  0  0  0  0  0  0  0  0  0
  151.9574  139.8321  156.2196 C   0  0  0  0  0  0  0  0  0  0  0  0
  152.9336  139.0588  156.1116 O   0  0  0  0  0  0  0  0  0  0  0  0
  151.2368  140.2221  155.2734 O   0  5  0  0  0  0  0  0  0  0  0  0
  150.0230  142.2114  156.3585 H   0  0  0  0  0  0  0  0  0  0  0  0
  152.3912  139.9456  158.3120 H   0  0  0  0  0  0  0  0  0  0  0  0
  152.8867  138.1181  159.0218 H   0  0  0  0  0  0  0  0  0  0  0  0
  152.5656  137.8303  157.2909 H   0  0  0  0  0  0  0  0  0  0  0  0
  152.6986  136.4701  158.4104 H   0  0  0  0  0  0  0  0  0  0  0  0
  148.5122  140.8854  157.5769 H   0  0  0  0  0  0  0  0  0  0  0  0
  149.2187  141.3095  159.1392 H   0  0  0  0  0  0  0  0  0  0  0  0
  149.3935  143.9682  157.2724 H   0  0  0  0  0  0  0  0  0  0  0  0
  152.3434  142.3464  157.0295 H   0  0  0  0  0  0  0  0  0  0  0  0
  151.9210  142.1757  158.7327 H   0  0  0  0  0  0  0  0  0  0  0  0
  1  2  1  0  0  0  0
  1 18  1  0  0  0  0
  1 19  1  0  0  0  0
  1 20  1  0  0  0  0
  2  6  1  0  0  0  0
  2  3  1  0  0  0  0
  3  4  2  0  0  0  0
  4  5  1  0  0  0  0
  5  6  2  0  0  0  0
  6  7  1  0  0  0  0
  7 12  1  0  0  0  0
  7  8  1  0  0  0  0
  8  9  1  0  0  0  0
  8 21  1  0  0  0  0
  8 22  1  0  0  0  0
  9 16  1  0  0  0  0
  9 10  1  0  0  0  0
  9 11  1  0  0  0  0
 10 23  1  0  0  0  0
 11 12  1  0  0  0  0
 11 24  1  0  0  0  0
 11 25  1  0  0  0  0
 12 17  1  0  0  0  0
 12 13  1  0  0  0  0
 13 14  2  0  0  0  0
 13 15  1  0  0  0  0
M  CHG  1  15  -1
M  END
> <s_m_source_file>
AV-unprocessed.smi

> <i_m_source_file_index>
43

> <i_lp_mmshare_version>
43012

> <i_f3d_flags>
0

> <s_epik_input>
W0NIM11uMW5ubmMxTjJbQ0gyXVtDQEhdKFtPSF0pW0NIMl1bQ0BIXTJDKD1PKVtPSF0=

> <s_epik_cmdline>
J2VwaWtfcHl0aG9uJywgJy1waCcsICc3LjAnLCAnLXRuJywgJzgnLCAnLW1hJywgJzIwMCcsICctbWV0YWxfYmluZGluZycsICctaW1hZScsICc8aW5maWxlLm1hZT4nLCAnLW9tYWUnLCAnPG91dGZpbGUubWFlPic=

> <r_lp_tautomer_probability>
1

> <r_epik_Ionization_Penalty>
0.000193127

> <r_epik_Ionization_Penalty_Charging>
0.000192933

> <r_epik_Ionization_Penalty_Neutral>
1.93728e-07

> <r_epik_State_Penalty>
-0

> <r_epik_Charging_Adjusted_Penalty>
0.000192933

> <i_epik_Tot_Q>
-1

> <i_epik_Tot_abs_Q>
1

> <r_epik_Metal_State_Penalty>
-0

> <b_epik_Metal_Only>
0

> <s_lp_Force_Field>
OPLS_2005

> <r_lp_Energy>
20.0951

> <b_lp_Chiralities_Consistent>
1

> <s_lp_Variant>
AV-unprocessed.smi:43-4

> <Gold.Version>
5.8.1

> <Gold.Id.Protein>
6NUR|6NUR_protein|mol2

> <Gold.PLP.Fitness>
35.9399

> <Gold.PLP.PLP>
-21.0074

> <Gold.PLP.part.hbond>
-5.4281

> <Gold.PLP.part.metal>
0.0000

> <Gold.PLP.part.buried>
-5.0699

> <Gold.PLP.part.nonpolar>
-10.7444

> <Gold.PLP.part.repulsive>
0.0285

> <Gold.PLP.ligand.clash>
0.0000

> <Gold.PLP.ligand.torsion>
0.0358

> <Gold.PLP.Chemscore.Hbond>
5.0000

> <Gold.PLP.Chemscore.CHOScore>
0.0000

> <Gold.PLP.Chemscore.Metal>
0.0000

> <Gold.Chemscore.Hbonds>
donor molecule, donor type, donor heavy atom, donor atom, acceptor molecule, acceptor atom, score
      L1  H    10    23       P1  8028  1.00
      P1  H  6896  6908       L1     3  1.00
      P1  H  7989  7998       L1    15  1.00
      P1  H  7997  8009       L1    14  2.00

> <Gold.PLP.Chemscore.Internal.Correction>
0.0041

> <Gold.Rescore>
     Score         DG    S(hbond)    S(metal)    S(lipo)     H(rot)  DE(clash)    DE(int)     intcor
     14.81     -15.89       3.49        0.00      26.13       1.69       0.01       1.06       ----

> <Gold.Chemscore.Fitness>
14.8121

> <Gold.Chemscore.DG>
-15.8865

> <Gold.Chemscore.ZeroCoef>
-5.4800

> <Gold.Chemscore.Hbond>
3.4946

> <Gold.Chemscore.Metal>
0.0000

> <Gold.Chemscore.Lipo>
26.1339

> <Gold.Chemscore.Internal_Hbond>
0.0000

> <Gold.Chemscore.DEClash>
0.0110

> <Gold.Chemscore.DEInternal>
1.0633

> <Gold.Chemscore.Rot>
1.6887

> <Gold.Chemscore.Internal.Correction>
   9.000000E+99

> <Gold.Chemscore.Hbonds>
donor molecule, donor type, donor heavy atom, donor atom, acceptor molecule, acceptor atom, score
      L1  H    10    23       P1  8028  0.35
      P1  H  6896  6908       L1     3  0.93
      P1  H  7989  7998       L1    15  0.96
      P1  H  7997  8009       L1    14  0.44

> <Gold.Chemscore.Hbond.Weighted>
-11.6720

> <Gold.Chemscore.Metal.Weighted>
-0.0000

> <Gold.Chemscore.Lipo.Weighted>
-3.0577

> <Gold.Chemscore.Internal_Hbond.Weighted>
0.0000

> <Gold.Chemscore.DEClash.Weighted>
0.0110

> <Gold.Chemscore.DEInternal.Weighted>
1.0633

> <Gold.Chemscore.Rot.Weighted>
4.3232

> <Gold.Chemscore.Internal.Correction.Weighted>
   9.000000E+99

> <Gold.Protein.RotatedTorsions>
[ 6907 6896 6895 6894 ] final -173.35 input  -60.11 | X-H torsion
[ 7974 7965 7964 7962 ] final   14.60 input  175.53 | X-H torsion
[ 8008 7997 7996 7995 ] final -173.41 input   59.86 | X-H torsion
[ 10167 10162 10161 10158 ] final   42.74 input  -65.29 | X-H torsion
[ 10718 10713 10712 10709 ] final   98.43 input   66.30 | X-H torsion
[ 10763 10752 10751 10750 ] final -109.83 input  -60.55 | X-H torsion
[ 11005 11000 10999 10996 ] final   15.45 input  -57.11 | X-H torsion

> <Gold.Protein.ActiveResidues>
 VAL166  LYS551  ARG553  GLY616  TRP617  ASP618  TYR619  PRO620  LYS621  CYS622 
 ASP623  PHE694  ASN695  SER759  ASP760  ASP761  ALA762  ILE779  LEU786  VAL792 
 PHE793  MET794  SER795  GLU796  ALA797  LYS798  CYS799  TRP800  GLU811  SER814 

> <Gold.Protein.RotatedAtoms>
  151.5547  133.3412  159.2959 H   0  0  0  0  0  0  0  0  0  0  0  0  # atno 6907 bound_to 6896
  150.8458  134.7769  159.6980 H   0  0  0  0  0  0  0  0  0  0  0  0  # atno 6908 bound_to 6896
  152.4516  134.5390  159.9885 H   0  0  0  0  0  0  0  0  0  0  0  0  # atno 6909 bound_to 6896
  146.2301  139.9017  142.8538 H   0  0  0  0  0  0  0  0  0  0  0  0  # atno 7974 bound_to 7965
  155.9571  140.1137  157.0927 H   0  0  0  0  0  0  0  0  0  0  0  0  # atno 8008 bound_to 7997
  154.4123  140.1189  156.5196 H   0  0  0  0  0  0  0  0  0  0  0  0  # atno 8009 bound_to 7997
  155.6768  140.3473  155.4842 H   0  0  0  0  0  0  0  0  0  0  0  0  # atno 8010 bound_to 7997
  140.3514  144.2345  150.6145 H   0  0  0  0  0  0  0  0  0  0  0  0  # atno 10167 bound_to 10162
  157.6895  131.0640  150.4795 H   0  0  0  0  0  0  0  0  0  0  0  0  # atno 10718 bound_to 10713
  154.8215  135.4586  154.0792 H   0  0  0  0  0  0  0  0  0  0  0  0  # atno 10763 bound_to 10752
  153.2142  135.6886  153.8084 H   0  0  0  0  0  0  0  0  0  0  0  0  # atno 10764 bound_to 10752
  153.7524  135.3296  155.3300 H   0  0  0  0  0  0  0  0  0  0  0  0  # atno 10765 bound_to 10752
  140.4582  134.1154  155.7712 H   0  0  0  0  0  0  0  0  0  0  0  0  # atno 11005 bound_to 11000
  145.2316  140.9975  143.3987 LP  0  0  0  0  0  0  0  0  0  0  0  0  # atno 17320 bound_to 7965
  144.9525  139.4067  143.6395 LP  0  0  0  0  0  0  0  0  0  0  0  0  # atno 17321 bound_to 7965
  140.5215  143.2264  151.8381 LP  0  0  0  0  0  0  0  0  0  0  0  0  # atno 17342 bound_to 10162
  139.4826  144.4831  151.9282 LP  0  0  0  0  0  0  0  0  0  0  0  0  # atno 17343 bound_to 10162
  156.5128  130.4143  149.6292 LP  0  0  0  0  0  0  0  0  0  0  0  0  # atno 17370 bound_to 10713
  156.3225  130.7288  151.2203 LP  0  0  0  0  0  0  0  0  0  0  0  0  # atno 17371 bound_to 10713
  141.1633  133.8751  157.1786 LP  0  0  0  0  0  0  0  0  0  0  0  0  # atno 17394 bound_to 11000
  139.9962  135.0045  157.0088 LP  0  0  0  0  0  0  0  0  0  0  0  0  # atno 17395 bound_to 11000

$$$$
