AV-unprocessed.smi:1139|AV-procd|sdf|4869|dock2
  -GOLD-   22720 3443D 1   1.00000     0.00000
 Structure written by MMmdl.
 43 44  0  0  0  0  0  0  0  0  2 V2000
  154.5034  140.9114  161.4031 C   0  0  0  0  0  0  0  0  0  0  0  0
  153.6845  142.1676  161.4874 C   0  0  0  0  0  0  0  0  0  0  0  0
  153.5275  142.7663  162.6560 N   0  0  0  0  0  0  0  0  0  0  0  0
  152.7330  143.8897  162.4077 O   0  0  0  0  0  0  0  0  0  0  0  0
  152.4392  143.9234  161.0829 C   0  0  0  0  0  0  0  0  0  0  0  0
  151.5933  145.0583  160.6132 C   0  0  0  0  0  0  0  0  0  0  0  0
  153.0115  142.8601  160.4398 C   0  0  0  0  0  0  0  0  0  0  0  0
  152.9501  142.5028  158.9776 C   0  0  0  0  0  0  0  0  0  0  0  0
  151.5002  142.2322  158.5747 C   0  0  0  0  0  0  0  0  0  0  0  0
  150.6093  142.2639  159.4234 O   0  0  0  0  0  0  0  0  0  0  0  0
  151.2772  141.9668  157.2779 N   0  0  0  0  0  0  0  0  0  0  0  0
  149.9823  141.6329  156.6897 C   0  0  0  0  0  0  0  0  0  0  0  0
  150.1018  140.9356  155.3094 C   0  0  2  0  0  0  0  0  0  0  0  0
  148.7261  140.8146  154.6154 C   0  0  0  0  0  0  0  0  0  0  0  0
  150.7486  139.5960  155.4425 N   0  3  0  0  0  0  0  0  0  0  0  0
  150.5396  138.6758  154.3030 C   0  0  0  0  0  0  0  0  0  0  0  0
  151.6253  137.6037  154.4171 C   0  0  0  0  0  0  0  0  0  0  0  0
  152.7218  138.2234  155.2862 C   0  0  0  0  0  0  0  0  0  0  0  0
  152.2124  139.6184  155.6571 C   0  0  0  0  0  0  0  0  0  0  0  0
  154.0347  140.1808  160.7441 H   0  0  0  0  0  0  0  0  0  0  0  0
  154.6226  140.4418  162.3803 H   0  0  0  0  0  0  0  0  0  0  0  0
  155.4987  141.1221  161.0120 H   0  0  0  0  0  0  0  0  0  0  0  0
  150.9260  144.7397  159.8123 H   0  0  0  0  0  0  0  0  0  0  0  0
  152.2141  145.8693  160.2328 H   0  0  0  0  0  0  0  0  0  0  0  0
  150.9801  145.4525  161.4239 H   0  0  0  0  0  0  0  0  0  0  0  0
  153.3388  143.3102  158.3561 H   0  0  0  0  0  0  0  0  0  0  0  0
  153.5655  141.6298  158.7553 H   0  0  0  0  0  0  0  0  0  0  0  0
  152.0729  141.9660  156.6561 H   0  0  0  0  0  0  0  0  0  0  0  0
  149.4935  140.9768  157.4091 H   0  0  0  0  0  0  0  0  0  0  0  0
  149.3491  142.5187  156.6117 H   0  0  0  0  0  0  0  0  0  0  0  0
  150.7416  141.5511  154.6746 H   0  0  0  0  0  0  0  0  0  0  0  0
  148.2559  141.7877  154.4780 H   0  0  0  0  0  0  0  0  0  0  0  0
  148.0426  140.1964  155.1986 H   0  0  0  0  0  0  0  0  0  0  0  0
  148.8032  140.3797  153.6195 H   0  0  0  0  0  0  0  0  0  0  0  0
  149.5416  138.2367  154.3082 H   0  0  0  0  0  0  0  0  0  0  0  0
  150.6647  139.2220  153.3664 H   0  0  0  0  0  0  0  0  0  0  0  0
  151.2266  136.7131  154.9046 H   0  0  0  0  0  0  0  0  0  0  0  0
  151.9964  137.3027  153.4367 H   0  0  0  0  0  0  0  0  0  0  0  0
  152.8678  137.6204  156.1834 H   0  0  0  0  0  0  0  0  0  0  0  0
  153.6788  138.2740  154.7656 H   0  0  0  0  0  0  0  0  0  0  0  0
  152.6657  140.3586  154.9955 H   0  0  0  0  0  0  0  0  0  0  0  0
  152.4712  139.8790  156.6838 H   0  0  0  0  0  0  0  0  0  0  0  0
  150.3478  139.1437  156.2522 H   0  0  0  0  0  0  0  0  0  0  0  0
  1  2  1  0  0  0  0
  1 20  1  0  0  0  0
  1 21  1  0  0  0  0
  1 22  1  0  0  0  0
  2  7  1  0  0  0  0
  2  3  2  0  0  0  0
  3  4  1  0  0  0  0
  4  5  1  0  0  0  0
  5  6  1  0  0  0  0
  5  7  2  0  0  0  0
  6 23  1  0  0  0  0
  6 24  1  0  0  0  0
  6 25  1  0  0  0  0
  7  8  1  0  0  0  0
  8  9  1  0  0  0  0
  8 26  1  0  0  0  0
  8 27  1  0  0  0  0
  9 10  2  0  0  0  0
  9 11  1  0  0  0  0
 11 12  1  0  0  0  0
 11 28  1  0  0  0  0
 12 13  1  0  0  0  0
 12 29  1  0  0  0  0
 12 30  1  0  0  0  0
 13 14  1  0  0  0  0
 13 15  1  0  0  0  0
 13 31  1  0  0  0  0
 14 32  1  0  0  0  0
 14 33  1  0  0  0  0
 14 34  1  0  0  0  0
 15 19  1  0  0  0  0
 15 16  1  0  0  0  0
 15 43  1  0  0  0  0
 16 17  1  0  0  0  0
 16 35  1  0  0  0  0
 16 36  1  0  0  0  0
 17 18  1  0  0  0  0
 17 37  1  0  0  0  0
 17 38  1  0  0  0  0
 18 19  1  0  0  0  0
 18 39  1  0  0  0  0
 18 40  1  0  0  0  0
 19 41  1  0  0  0  0
 19 42  1  0  0  0  0
M  CHG  1  15   1
M  END
> <s_m_source_file>
AV-unprocessed.smi

> <i_m_source_file_index>
1139

> <i_lp_mmshare_version>
43012

> <i_f3d_flags>
0

> <s_epik_input>
W0NIM11jMW5vYyhbQ0gzXSljMVtDSDJdQyg9TylbTkhdW0NIMl1bQ0BIXShbQ0gzXSlOMltDSDJdW0NIMl1bQ0gyXVtDSDJdMg==

> <s_epik_cmdline>
J2VwaWtfcHl0aG9uJywgJy1waCcsICc3LjAnLCAnLXRuJywgJzgnLCAnLW1hJywgJzIwMCcsICctbWV0YWxfYmluZGluZycsICctaW1hZScsICc8aW5maWxlLm1hZT4nLCAnLW9tYWUnLCAnPG91dGZpbGUubWFlPic=

> <r_epik_Ionization_Penalty>
0.0050436

> <r_epik_Ionization_Penalty_Charging>
0.0050435

> <r_epik_Ionization_Penalty_Neutral>
9.69799e-08

> <r_epik_State_Penalty>
0.00366867

> <r_epik_Charging_Adjusted_Penalty>
0.00871217

> <i_epik_Tot_Q>
1

> <i_epik_Tot_abs_Q>
1

> <r_epik_Metal_State_Penalty>
-0

> <b_epik_Metal_Only>
0

> <s_lp_Force_Field>
OPLS_2005

> <r_lp_Energy>
25.3713

> <b_lp_Chiralities_Consistent>
1

> <s_lp_Variant>
AV-unprocessed.smi:1139-1

> <Gold.Version>
5.8.1

> <Gold.Id.Protein>
6NUR|6NUR_protein|mol2

> <Gold.PLP.Fitness>
42.4872

> <Gold.PLP.PLP>
-43.4505

> <Gold.PLP.part.hbond>
-1.0000

> <Gold.PLP.part.metal>
0.0000

> <Gold.PLP.part.buried>
-3.0374

> <Gold.PLP.part.nonpolar>
-38.8708

> <Gold.PLP.part.repulsive>
0.3636

> <Gold.PLP.ligand.clash>
0.0000

> <Gold.PLP.ligand.torsion>
0.5286

> <Gold.PLP.Chemscore.Hbond>
0.0000

> <Gold.PLP.Chemscore.CHOScore>
0.0000

> <Gold.PLP.Chemscore.Metal>
0.0000

> <Gold.PLP.Chemscore.Internal.Correction>
0.0939

> <Gold.Rescore>
     Score         DG    S(hbond)    S(metal)    S(lipo)     H(rot)  DE(clash)    DE(int)     intcor
     13.49     -14.67       0.00        0.00     116.15       1.72       0.44       0.73       ----

> <Gold.Chemscore.Fitness>
13.4950

> <Gold.Chemscore.DG>
-14.6672

> <Gold.Chemscore.ZeroCoef>
-5.4800

> <Gold.Chemscore.Hbond>
0.0000

> <Gold.Chemscore.Metal>
0.0000

> <Gold.Chemscore.Lipo>
116.1452

> <Gold.Chemscore.Internal_Hbond>
0.0000

> <Gold.Chemscore.DEClash>
0.4383

> <Gold.Chemscore.DEInternal>
0.7339

> <Gold.Chemscore.Rot>
1.7195

> <Gold.Chemscore.Internal.Correction>
   9.000000E+99

> <Gold.Chemscore.Hbond.Weighted>
-0.0000

> <Gold.Chemscore.Metal.Weighted>
-0.0000

> <Gold.Chemscore.Lipo.Weighted>
-13.5890

> <Gold.Chemscore.Internal_Hbond.Weighted>
0.0000

> <Gold.Chemscore.DEClash.Weighted>
0.4383

> <Gold.Chemscore.DEInternal.Weighted>
0.7339

> <Gold.Chemscore.Rot.Weighted>
4.4018

> <Gold.Chemscore.Internal.Correction.Weighted>
   9.000000E+99

> <Gold.Protein.RotatedTorsions>
[ 6907 6896 6895 6894 ] final   47.98 input  -60.11 | X-H torsion
[ 7974 7965 7964 7962 ] final  -57.03 input  175.53 | X-H torsion
[ 8008 7997 7996 7995 ] final   64.73 input   59.86 | X-H torsion
[ 10167 10162 10161 10158 ] final   24.76 input  -65.29 | X-H torsion
[ 10718 10713 10712 10709 ] final   61.76 input   66.30 | X-H torsion
[ 10763 10752 10751 10750 ] final -178.46 input  -60.55 | X-H torsion
[ 11005 11000 10999 10996 ] final  -21.38 input  -57.11 | X-H torsion

> <Gold.Protein.ActiveResidues>
 VAL166  LYS551  ARG553  GLY616  TRP617  ASP618  TYR619  PRO620  LYS621  CYS622 
 ASP623  PHE694  ASN695  SER759  ASP760  ASP761  ALA762  ILE779  LEU786  VAL792 
 PHE793  MET794  SER795  GLU796  ALA797  LYS798  CYS799  TRP800  GLU811  SER814 

> <Gold.Protein.RotatedAtoms>
  152.2743  134.7899  160.0408 H   0  0  0  0  0  0  0  0  0  0  0  0  # atno 6907 bound_to 6896
  151.8501  133.3433  159.3678 H   0  0  0  0  0  0  0  0  0  0  0  0  # atno 6908 bound_to 6896
  150.7164  134.5236  159.5710 H   0  0  0  0  0  0  0  0  0  0  0  0  # atno 6909 bound_to 6896
  145.8558  140.8320  142.9962 H   0  0  0  0  0  0  0  0  0  0  0  0  # atno 7974 bound_to 7965
  155.6506  140.3497  155.4747 H   0  0  0  0  0  0  0  0  0  0  0  0  # atno 8008 bound_to 7997
  155.9850  140.1182  157.0714 H   0  0  0  0  0  0  0  0  0  0  0  0  # atno 8009 bound_to 7997
  154.4202  140.1130  156.5474 H   0  0  0  0  0  0  0  0  0  0  0  0  # atno 8010 bound_to 7997
  140.5162  144.0079  150.6395 H   0  0  0  0  0  0  0  0  0  0  0  0  # atno 10167 bound_to 10162
  157.5851  130.9012  149.9501 H   0  0  0  0  0  0  0  0  0  0  0  0  # atno 10718 bound_to 10713
  154.5474  135.2810  155.1040 H   0  0  0  0  0  0  0  0  0  0  0  0  # atno 10763 bound_to 10752
  154.2499  135.6341  153.5240 H   0  0  0  0  0  0  0  0  0  0  0  0  # atno 10764 bound_to 10752
  152.9994  135.5580  154.6030 H   0  0  0  0  0  0  0  0  0  0  0  0  # atno 10765 bound_to 10752
  140.8555  133.7825  156.0015 H   0  0  0  0  0  0  0  0  0  0  0  0  # atno 11005 bound_to 11000
  144.6728  140.1022  143.7460 LP  0  0  0  0  0  0  0  0  0  0  0  0  # atno 17320 bound_to 7965
  145.9305  139.2603  143.1328 LP  0  0  0  0  0  0  0  0  0  0  0  0  # atno 17321 bound_to 7965
  140.3415  143.3017  152.0583 LP  0  0  0  0  0  0  0  0  0  0  0  0  # atno 17342 bound_to 10162
  139.4910  144.6439  151.6819 LP  0  0  0  0  0  0  0  0  0  0  0  0  # atno 17343 bound_to 10162
  156.0900  130.3664  150.0414 LP  0  0  0  0  0  0  0  0  0  0  0  0  # atno 17370 bound_to 10713
  156.8546  130.9471  151.3623 LP  0  0  0  0  0  0  0  0  0  0  0  0  # atno 17371 bound_to 10713
  140.8742  134.2690  157.5176 LP  0  0  0  0  0  0  0  0  0  0  0  0  # atno 17394 bound_to 11000
  139.8705  134.9582  156.4294 LP  0  0  0  0  0  0  0  0  0  0  0  0  # atno 17395 bound_to 11000

$$$$
