AV-unprocessed.smi:1437|AV-procd|sdf|5863|dock3
  -GOLD-   22720 5533D 1   1.00000     0.00000
 Structure written by MMmdl.
 36 37  0  0  0  0  0  0  0  0  2 V2000
  152.4409  131.6380  156.4468 C   0  0  0  0  0  0  0  0  0  0  0  0
  151.3349  132.4956  155.9348 C   0  0  0  0  0  0  0  0  0  0  0  0
  150.7362  132.6105  154.7116 C   0  0  0  0  0  0  0  0  0  0  0  0
  149.7571  133.6161  154.9282 C   0  0  0  0  0  0  0  0  0  0  0  0
  148.9009  134.0373  153.8787 N   0  0  0  0  0  0  0  0  0  0  0  0
  147.7853  133.4290  153.4408 C   0  0  0  0  0  0  0  0  0  0  0  0
  147.3209  132.3838  153.8971 O   0  0  0  0  0  0  0  0  0  0  0  0
  147.2269  134.1026  152.4239 N   0  0  0  0  0  0  0  0  0  0  0  0
  146.0128  133.6976  151.7212 C   0  0  2  0  0  0  0  0  0  0  0  0
  146.3186  132.6009  150.6838 C   0  0  0  0  0  0  0  0  0  0  0  0
  145.0620  132.2341  149.8768 C   0  0  0  0  0  0  0  0  0  0  0  0
  144.4772  133.4322  149.2245 N   0  3  1  0  0  0  0  0  0  0  0  0
  143.3334  133.0940  148.3505 C   0  0  0  0  0  0  0  0  0  0  0  0
  144.1421  134.4935  150.2065 C   0  0  0  0  0  0  0  0  0  0  0  0
  145.3813  134.9099  151.0173 C   0  0  0  0  0  0  0  0  0  0  0  0
  149.7589  134.0750  156.1704 N   0  0  0  0  0  0  0  0  0  0  0  0
  150.7704  133.3595  156.8218 O   0  0  0  0  0  0  0  0  0  0  0  0
  152.6481  130.8181  155.7591 H   0  0  0  0  0  0  0  0  0  0  0  0
  152.1828  131.2093  157.4154 H   0  0  0  0  0  0  0  0  0  0  0  0
  153.3553  132.2191  156.5663 H   0  0  0  0  0  0  0  0  0  0  0  0
  150.9640  132.0609  153.8105 H   0  0  0  0  0  0  0  0  0  0  0  0
  149.1709  134.8887  153.4091 H   0  0  0  0  0  0  0  0  0  0  0  0
  147.6743  134.9529  152.1133 H   0  0  0  0  0  0  0  0  0  0  0  0
  145.2932  133.3122  152.4467 H   0  0  0  0  0  0  0  0  0  0  0  0
  147.1004  132.9414  150.0030 H   0  0  0  0  0  0  0  0  0  0  0  0
  146.7070  131.7097  151.1786 H   0  0  0  0  0  0  0  0  0  0  0  0
  145.3209  131.4942  149.1183 H   0  0  0  0  0  0  0  0  0  0  0  0
  144.3187  131.7729  150.5292 H   0  0  0  0  0  0  0  0  0  0  0  0
  142.5090  132.6750  148.9291 H   0  0  0  0  0  0  0  0  0  0  0  0
  143.6276  132.3641  147.5959 H   0  0  0  0  0  0  0  0  0  0  0  0
  142.9706  133.9812  147.8303 H   0  0  0  0  0  0  0  0  0  0  0  0
  143.7411  135.3626  149.6833 H   0  0  0  0  0  0  0  0  0  0  0  0
  143.3580  134.1370  150.8765 H   0  0  0  0  0  0  0  0  0  0  0  0
  145.1022  135.6664  151.7518 H   0  0  0  0  0  0  0  0  0  0  0  0
  146.1095  135.3770  150.3524 H   0  0  0  0  0  0  0  0  0  0  0  0
  145.1947  133.8114  148.6230 H   0  0  0  0  0  0  0  0  0  0  0  0
  1  2  1  0  0  0  0
  1 18  1  0  0  0  0
  1 19  1  0  0  0  0
  1 20  1  0  0  0  0
  2 17  1  0  0  0  0
  2  3  2  0  0  0  0
  3  4  1  0  0  0  0
  3 21  1  0  0  0  0
  4  5  1  0  0  0  0
  4 16  2  0  0  0  0
  5  6  1  0  0  0  0
  5 22  1  0  0  0  0
  6  7  2  0  0  0  0
  6  8  1  0  0  0  0
  8  9  1  0  0  0  0
  8 23  1  0  0  0  0
  9 15  1  0  0  0  0
  9 10  1  0  0  0  0
  9 24  1  0  0  0  0
 10 11  1  0  0  0  0
 10 25  1  0  0  0  0
 10 26  1  0  0  0  0
 11 12  1  0  0  0  0
 11 27  1  0  0  0  0
 11 28  1  0  0  0  0
 12 13  1  0  0  0  0
 12 14  1  0  0  0  0
 12 36  1  0  0  0  0
 13 29  1  0  0  0  0
 13 30  1  0  0  0  0
 13 31  1  0  0  0  0
 14 15  1  0  0  0  0
 14 32  1  0  0  0  0
 14 33  1  0  0  0  0
 15 34  1  0  0  0  0
 15 35  1  0  0  0  0
 16 17  1  0  0  0  0
M  CHG  1  12   1
M  END
> <s_m_source_file>
AV-unprocessed.smi

> <i_m_source_file_index>
1437

> <i_lp_mmshare_version>
43012

> <i_f3d_flags>
0

> <s_epik_input>
W0NIM11jMVtjSF1jKG5vMSlbTkhdQyg9TylbTkhdW0NIXTJbQ0gyXVtDSDJdTihbQ0gzXSlbQ0gyXVtDSDJdMg==

> <s_epik_cmdline>
J2VwaWtfcHl0aG9uJywgJy1waCcsICc3LjAnLCAnLXRuJywgJzgnLCAnLW1hJywgJzIwMCcsICctbWV0YWxfYmluZGluZycsICctaW1hZScsICc8aW5maWxlLm1hZT4nLCAnLW9tYWUnLCAnPG91dGZpbGUubWFlPic=

> <r_epik_Ionization_Penalty>
0.00408962

> <r_epik_Ionization_Penalty_Charging>
0.00405645

> <r_epik_Ionization_Penalty_Neutral>
3.31706e-05

> <r_epik_State_Penalty>
0.00290716

> <r_epik_Charging_Adjusted_Penalty>
0.00696361

> <i_epik_Tot_Q>
1

> <i_epik_Tot_abs_Q>
1

> <r_epik_Metal_State_Penalty>
0.0142111

> <b_epik_Metal_Only>
0

> <s_lp_Force_Field>
OPLS_2005

> <r_lp_Energy>
12.1983

> <b_lp_Chiralities_Consistent>
1

> <s_lp_Variant>
AV-unprocessed.smi:1437-1

> <Gold.Version>
5.8.1

> <Gold.Id.Protein>
6NUR|6NUR_protein|mol2

> <Gold.PLP.Fitness>
37.9306

> <Gold.PLP.PLP>
-28.7522

> <Gold.PLP.part.hbond>
-4.0000

> <Gold.PLP.part.metal>
0.0000

> <Gold.PLP.part.buried>
-2.1158

> <Gold.PLP.part.nonpolar>
-24.0235

> <Gold.PLP.part.repulsive>
0.2311

> <Gold.PLP.ligand.clash>
0.0000

> <Gold.PLP.ligand.torsion>
1.0234

> <Gold.PLP.Chemscore.Hbond>
3.7414

> <Gold.PLP.Chemscore.CHOScore>
0.0000

> <Gold.PLP.Chemscore.Metal>
0.0000

> <Gold.Chemscore.Hbonds>
donor molecule, donor type, donor heavy atom, donor atom, acceptor molecule, acceptor atom, score
      L1  H     5    22       P1  7948  0.80
      L1  H     8    23       P1  7948  1.00
      L1  H    12    36       P1  7921  1.00

> <Gold.PLP.Chemscore.Internal.Correction>
0.0010

> <Gold.Rescore>
     Score         DG    S(hbond)    S(metal)    S(lipo)     H(rot)  DE(clash)    DE(int)     intcor
     19.70     -21.21       3.15        0.00      66.30       1.00       0.38       1.12       ----

> <Gold.Chemscore.Fitness>
19.7031

> <Gold.Chemscore.DG>
-21.2091

> <Gold.Chemscore.ZeroCoef>
-5.4800

> <Gold.Chemscore.Hbond>
3.1533

> <Gold.Chemscore.Metal>
0.0000

> <Gold.Chemscore.Lipo>
66.2992

> <Gold.Chemscore.Internal_Hbond>
0.0000

> <Gold.Chemscore.DEClash>
0.3828

> <Gold.Chemscore.DEInternal>
1.1232

> <Gold.Chemscore.Rot>
1.0000

> <Gold.Chemscore.Internal.Correction>
   9.000000E+99

> <Gold.Chemscore.Hbonds>
donor molecule, donor type, donor heavy atom, donor atom, acceptor molecule, acceptor atom, score
      L1  H     5    22       P1  7948  0.11
      L1  H     8    23       P1  7948  0.85
      L1  H    12    36       P1  7921  0.85
      P1  H  6896  6907       L1    17  0.04

> <Gold.Chemscore.Hbond.Weighted>
-10.5321

> <Gold.Chemscore.Metal.Weighted>
-0.0000

> <Gold.Chemscore.Lipo.Weighted>
-7.7570

> <Gold.Chemscore.Internal_Hbond.Weighted>
0.0000

> <Gold.Chemscore.DEClash.Weighted>
0.3828

> <Gold.Chemscore.DEInternal.Weighted>
1.1232

> <Gold.Chemscore.Rot.Weighted>
2.5600

> <Gold.Chemscore.Internal.Correction.Weighted>
   9.000000E+99

> <Gold.Protein.RotatedTorsions>
[ 6907 6896 6895 6894 ] final -122.49 input  -60.11 | X-H torsion
[ 7974 7965 7964 7962 ] final -167.20 input  175.53 | X-H torsion
[ 8008 7997 7996 7995 ] final  101.04 input   59.86 | X-H torsion
[ 10167 10162 10161 10158 ] final  -59.45 input  -65.29 | X-H torsion
[ 10718 10713 10712 10709 ] final  -56.83 input   66.30 | X-H torsion
[ 10763 10752 10751 10750 ] final   52.95 input  -60.55 | X-H torsion
[ 11005 11000 10999 10996 ] final   12.94 input  -57.11 | X-H torsion

> <Gold.Protein.ActiveResidues>
 VAL166  LYS551  ARG553  GLY616  TRP617  ASP618  TYR619  PRO620  LYS621  CYS622 
 ASP623  PHE694  ASN695  SER759  ASP760  ASP761  ALA762  ILE779  LEU786  VAL792 
 PHE793  MET794  SER795  GLU796  ALA797  LYS798  CYS799  TRP800  GLU811  SER814 

> <Gold.Protein.RotatedAtoms>
  150.8581  133.7685  159.3001 H   0  0  0  0  0  0  0  0  0  0  0  0  # atno 6907 bound_to 6896
  151.5336  135.1067  159.9918 H   0  0  0  0  0  0  0  0  0  0  0  0  # atno 6908 bound_to 6896
  152.4605  133.7768  159.6885 H   0  0  0  0  0  0  0  0  0  0  0  0  # atno 6909 bound_to 6896
  144.7228  140.2554  143.6272 H   0  0  0  0  0  0  0  0  0  0  0  0  # atno 7974 bound_to 7965
  156.1261  140.3204  155.8279 H   0  0  0  0  0  0  0  0  0  0  0  0  # atno 8008 bound_to 7997
  155.4417  140.0526  157.3027 H   0  0  0  0  0  0  0  0  0  0  0  0  # atno 8009 bound_to 7997
  154.4863  140.2074  155.9661 H   0  0  0  0  0  0  0  0  0  0  0  0  # atno 8010 bound_to 7997
  140.6134  143.2394  151.5655 H   0  0  0  0  0  0  0  0  0  0  0  0  # atno 10167 bound_to 10162
  156.1257  130.4163  150.0359 H   0  0  0  0  0  0  0  0  0  0  0  0  # atno 10718 bound_to 10713
  152.9792  135.5795  154.4661 H   0  0  0  0  0  0  0  0  0  0  0  0  # atno 10763 bound_to 10752
  154.4230  135.2772  155.1964 H   0  0  0  0  0  0  0  0  0  0  0  0  # atno 10764 bound_to 10752
  154.3705  135.6169  153.5791 H   0  0  0  0  0  0  0  0  0  0  0  0  # atno 10765 bound_to 10752
  140.4863  134.0885  155.7761 H   0  0  0  0  0  0  0  0  0  0  0  0  # atno 11005 bound_to 11000
  145.8188  139.2034  143.1950 LP  0  0  0  0  0  0  0  0  0  0  0  0  # atno 17320 bound_to 7965
  146.0532  140.8047  142.9771 LP  0  0  0  0  0  0  0  0  0  0  0  0  # atno 17321 bound_to 7965
  139.5379  144.2729  152.1290 LP  0  0  0  0  0  0  0  0  0  0  0  0  # atno 17342 bound_to 10162
  140.1933  144.4730  150.6468 LP  0  0  0  0  0  0  0  0  0  0  0  0  # atno 17343 bound_to 10162
  156.8285  130.9384  151.3638 LP  0  0  0  0  0  0  0  0  0  0  0  0  # atno 17370 bound_to 10713
  157.6439  130.8828  149.9501 LP  0  0  0  0  0  0  0  0  0  0  0  0  # atno 17371 bound_to 10713
  141.1506  133.8975  157.2106 LP  0  0  0  0  0  0  0  0  0  0  0  0  # atno 17394 bound_to 11000
  139.9796  135.0102  156.9716 LP  0  0  0  0  0  0  0  0  0  0  0  0  # atno 17395 bound_to 11000

$$$$
