#       Name:                AV-unprocessed.smi:321
#       Creating user name   scv26
#       Creation time:       Thu Mar 26 22:24:00 2020


#       File generated by GOLD software.
#

@<TRIPOS>MOLECULE
AV-unprocessed.smi:321
    56    57     1
SMALL
NO_CHARGES


@<TRIPOS>ATOM
      1 ****        -2.6269  -3.6405   1.0160 C.3            1 S1                 0.0000
      2 ****        -3.2385  -2.3361   1.5404 C.3            1 S1                 0.0000
      3 ****        -4.8016  -1.8996   0.6550 S.o2           1 S1                 0.0000
      4 ****        -5.2985  -3.0918  -0.0498 O.2            1 S1                 0.0000
      5 ****        -5.6793  -1.1887   1.5972 O.2            1 S1                 0.0000
      6 ****        -4.2977  -0.7503  -0.5525 N.pl3          1 S1                 0.0000
      7 ****        -4.0951   0.6712  -0.2011 C.3            1 S1                 0.0000
      8 ****        -2.6035   1.0358  -0.0970 C.3            1 S1                 0.0000
      9 ****        -1.8301   0.6191  -1.3601 C.3            1 S1                 0.0000
     10 ****        -0.4032   0.8878  -1.2114 N.am           1 S1                 0.0000
     11 ****         0.1872   2.0835  -1.3898 C.2            1 S1                 0.0000
     12 ****        -0.4402   3.0976  -1.6995 O.2            1 S1                 0.0000
     13 ****         1.6624   2.1029  -1.1856 C.2            1 S1                 0.0000
     14 ****         2.3434   3.3749  -1.3581 C.2            1 S1                 0.0000
     15 ****         3.6814   3.4159  -1.1765 C.2            1 S1                 0.0000
     16 ****         4.4516   2.2251  -0.8140 C.2            1 S1                 0.0000
     17 ****         5.6695   2.2415  -0.6391 O.2            1 S1                 0.0000
     18 ****         3.6944   1.0935  -0.6853 N.am           1 S1                 0.0000
     19 ****         4.2992  -0.1913  -0.3145 C.3            1 S1                 0.0000
     20 ****         4.2457  -0.4321   1.2031 C.3            1 S1                 0.0000
     21 ****         5.1213   0.4650   1.8661 O.3            1 S1                 0.0000
     22 ****         5.1162   0.2914   3.2718 C.3            1 S1                 0.0000
     23 ****         2.3220   1.0361  -0.8672 N.2            1 S1                 0.0000
     24 ****        -2.0516  -0.8774  -1.6211 C.3            1 S1                 0.0000
     25 ****        -3.5494  -1.2085  -1.7389 C.3            1 S1                 0.0000
     26 ****        -1.6922  -3.8637   1.5300 H              1 S1                 0.0000
     27 ****        -2.4138  -3.5794  -0.0508 H              1 S1                 0.0000
     28 ****        -3.3006  -4.4828   1.1742 H              1 S1                 0.0000
     29 ****        -3.4842  -2.4559   2.5956 H              1 S1                 0.0000
     30 ****        -2.5384  -1.5078   1.4687 H              1 S1                 0.0000
     31 ****        -4.5618   1.2823  -0.9745 H              1 S1                 0.0000
     32 ****        -4.6086   0.9129   0.7288 H              1 S1                 0.0000
     33 ****        -2.5093   2.1108   0.0605 H              1 S1                 0.0000
     34 ****        -2.1650   0.5669   0.7829 H              1 S1                 0.0000
     35 ****        -2.2122   1.1781  -2.2167 H              1 S1                 0.0000
     36 ****         0.1841   0.1062  -0.9579 H              1 S1                 0.0000
     37 ****         1.8007   4.2701  -1.6248 H              1 S1                 0.0000
     38 ****         4.2001   4.3550  -1.3015 H              1 S1                 0.0000
     39 ****         3.7590  -0.9938  -0.8198 H              1 S1                 0.0000
     40 ****         5.3269  -0.2716  -0.6725 H              1 S1                 0.0000
     41 ****         3.2255  -0.3138   1.5722 H              1 S1                 0.0000
     42 ****         4.5502  -1.4576   1.4174 H              1 S1                 0.0000
     43 ****         5.7978   1.0070   3.7316 H              1 S1                 0.0000
     44 ****         5.4457  -0.7116   3.5461 H              1 S1                 0.0000
     45 ****         4.1216   0.4595   3.6867 H              1 S1                 0.0000
     46 ****        -1.5414  -1.1749  -2.5379 H              1 S1                 0.0000
     47 ****        -1.6045  -1.4635  -0.8184 H              1 S1                 0.0000
     48 ****        -3.6913  -2.2789  -1.8864 H              1 S1                 0.0000
     49 ****        -3.9650  -0.7181  -2.6198 H              1 S1                 0.0000
     50 ****        -1.4308   3.0527  -1.8288 LP             1 S1                 0.0000
     51 ****         0.0411   3.9656  -1.8216 LP             1 S1                 0.0000
     52 ****         6.1782   3.0960  -0.7439 LP             1 S1                 0.0000
     53 ****         6.1505   1.4003  -0.3923 LP             1 S1                 0.0000
     54 ****         4.8384   1.4013   1.6579 LP             1 S1                 0.0000
     55 ****         6.0503   0.3145   1.5280 LP             1 S1                 0.0000
     56 ****         1.8397   0.1676  -0.7521 LP             1 S1                 0.0000
@<TRIPOS>BOND
    1    1    2 1     
    2    1   26 1     
    3    1   27 1     
    4    1   28 1     
    5    2    3 1     
    6    2   29 1     
    7    2   30 1     
    8    3    4 2     
    9    3    5 2     
   10    3    6 1     
   11    6   25 1     
   12    6    7 1     
   13    7    8 1     
   14    7   31 1     
   15    7   32 1     
   16    8    9 1     
   17    8   33 1     
   18    8   34 1     
   19    9   10 1     
   20    9   24 1     
   21    9   35 1     
   22   10   11 am    
   23   10   36 1     
   24   11   12 2     
   25   11   13 1     
   26   13   23 2     
   27   13   14 1     
   28   14   15 2     
   29   14   37 1     
   30   15   16 1     
   31   15   38 1     
   32   16   17 2     
   33   16   18 am    
   34   18   19 1     
   35   18   23 1     
   36   19   20 1     
   37   19   39 1     
   38   19   40 1     
   39   20   21 1     
   40   20   41 1     
   41   20   42 1     
   42   21   22 1     
   43   22   43 1     
   44   22   44 1     
   45   22   45 1     
   46   24   25 1     
   47   24   46 1     
   48   24   47 1     
   49   25   48 1     
   50   25   49 1     
   51   12   50 1     
   52   12   51 1     
   53   17   52 1     
   54   17   53 1     
   55   21   54 1     
   56   21   55 1     
   57   23   56 1     
@<TRIPOS>SUBSTRUCTURE
      1 S1             1
@<TRIPOS>SET
LONE_PAIRS      STATIC     ATOMS    <user>   **** ""
9 4 5 50 51 52 53 54 55 56
DONOR_HYDROGENS      STATIC     ATOMS    <user>   **** ""
1 36
ATOM$BLUE        STATIC     ATOMS    COLORGROUP SYSTEM
9 4 5 50 51 52 53 54 55 56
ATOM$RED        STATIC     ATOMS    COLORGROUP SYSTEM
1 36
