AV-unprocessed.smi:2710|AV-procd|sdf|10469|dock5
  -GOLD-   2272014513D 1   1.00000     0.00000
 Structure written by MMmdl.
 53 54  0  0  0  0  0  0  0  0  2 V2000
  150.9845  142.1461  157.0239 C   0  0  0  0  0  0  0  0  0  0  0  0
  149.5336  141.6554  157.1605 C   0  0  0  0  0  0  0  0  0  0  0  0
  148.7510  141.7431  155.8927 N   0  3  1  0  0  0  0  0  0  0  0  0
  149.3946  140.9736  154.7890 C   0  0  0  0  0  0  0  0  0  0  0  0
  148.6686  141.1644  153.4482 C   0  0  0  0  0  0  0  0  0  0  0  0
  147.1871  140.7849  153.5448 C   0  0  1  0  0  0  0  0  0  0  0  0
  147.0260  139.3389  153.7071 N   0  0  0  0  0  0  0  0  0  0  0  0
  146.5920  138.4857  152.7676 C   0  0  0  0  0  0  0  0  0  0  0  0
  146.2593  138.8297  151.6342 O   0  0  0  0  0  0  0  0  0  0  0  0
  146.5934  137.2218  153.2237 N   0  0  0  0  0  0  0  0  0  0  0  0
  146.1931  136.0429  152.5396 C   0  0  0  0  0  0  0  0  0  0  0  0
  146.3571  134.7938  153.1713 C   0  0  0  0  0  0  0  0  0  0  0  0
  145.9827  133.6393  152.5817 N   0  0  0  0  0  0  0  0  0  0  0  0
  145.4342  133.7160  151.3621 C   0  0  0  0  0  0  0  0  0  0  0  0
  145.0036  132.3842  150.7213 C   0  0  0  0  0  0  0  0  0  0  0  0
  145.7584  132.0998  149.3993 C   0  0  0  0  0  0  0  0  0  0  0  0
  143.4978  132.4271  150.3916 C   0  0  0  0  0  0  0  0  0  0  0  0
  145.3143  131.2181  151.6823 C   0  0  0  0  0  0  0  0  0  0  0  0
  145.2163  134.8490  150.6815 N   0  0  0  0  0  0  0  0  0  0  0  0
  145.5910  136.0103  151.2588 C   0  0  0  0  0  0  0  0  0  0  0  0
  146.5437  141.5465  154.7114 C   0  0  0  0  0  0  0  0  0  0  0  0
  147.3045  141.3768  156.0473 C   0  0  2  0  0  0  0  0  0  0  0  0
  146.5792  142.2040  157.1291 C   0  0  0  0  0  0  0  0  0  0  0  0
  151.4532  142.2207  158.0055 H   0  0  0  0  0  0  0  0  0  0  0  0
  151.0277  143.1342  156.5648 H   0  0  0  0  0  0  0  0  0  0  0  0
  151.6001  141.4672  156.4346 H   0  0  0  0  0  0  0  0  0  0  0  0
  149.5119  140.6335  157.5420 H   0  0  0  0  0  0  0  0  0  0  0  0
  149.0826  142.2820  157.9266 H   0  0  0  0  0  0  0  0  0  0  0  0
  150.4254  141.2930  154.6475 H   0  0  0  0  0  0  0  0  0  0  0  0
  149.4296  139.9158  155.0543 H   0  0  0  0  0  0  0  0  0  0  0  0
  148.7537  142.2079  153.1416 H   0  0  0  0  0  0  0  0  0  0  0  0
  149.1581  140.5787  152.6689 H   0  0  0  0  0  0  0  0  0  0  0  0
  146.6967  141.1081  152.6250 H   0  0  0  0  0  0  0  0  0  0  0  0
  147.2767  138.9538  154.6058 H   0  0  0  0  0  0  0  0  0  0  0  0
  146.9723  137.0788  154.1486 H   0  0  0  0  0  0  0  0  0  0  0  0
  146.7952  134.7172  154.1557 H   0  0  0  0  0  0  0  0  0  0  0  0
  145.4465  131.1514  148.9607 H   0  0  0  0  0  0  0  0  0  0  0  0
  146.8364  132.0417  149.5550 H   0  0  0  0  0  0  0  0  0  0  0  0
  145.5703  132.8732  148.6532 H   0  0  0  0  0  0  0  0  0  0  0  0
  143.2659  133.2476  149.7116 H   0  0  0  0  0  0  0  0  0  0  0  0
  142.8928  132.5630  151.2885 H   0  0  0  0  0  0  0  0  0  0  0  0
  143.1674  131.5026  149.9173 H   0  0  0  0  0  0  0  0  0  0  0  0
  145.0397  130.2576  151.2450 H   0  0  0  0  0  0  0  0  0  0  0  0
  144.7674  131.3114  152.6212 H   0  0  0  0  0  0  0  0  0  0  0  0
  146.3772  131.1782  151.9239 H   0  0  0  0  0  0  0  0  0  0  0  0
  145.3800  136.9022  150.6895 H   0  0  0  0  0  0  0  0  0  0  0  0
  146.5037  142.6068  154.4568 H   0  0  0  0  0  0  0  0  0  0  0  0
  145.5063  141.2279  154.8245 H   0  0  0  0  0  0  0  0  0  0  0  0
  147.2550  140.3271  156.3411 H   0  0  0  0  0  0  0  0  0  0  0  0
  145.5035  142.0277  157.0980 H   0  0  0  0  0  0  0  0  0  0  0  0
  146.7392  143.2734  156.9874 H   0  0  0  0  0  0  0  0  0  0  0  0
  146.8957  141.9400  158.1375 H   0  0  0  0  0  0  0  0  0  0  0  0
  148.7674  142.7146  155.6162 H   0  0  0  0  0  0  0  0  0  0  0  0
  1  2  1  0  0  0  0
  1 24  1  0  0  0  0
  1 25  1  0  0  0  0
  1 26  1  0  0  0  0
  2  3  1  0  0  0  0
  2 27  1  0  0  0  0
  2 28  1  0  0  0  0
  3 22  1  0  0  0  0
  3  4  1  0  0  0  0
  3 53  1  0  0  0  0
  4  5  1  0  0  0  0
  4 29  1  0  0  0  0
  4 30  1  0  0  0  0
  5  6  1  0  0  0  0
  5 31  1  0  0  0  0
  5 32  1  0  0  0  0
  6  7  1  0  0  0  0
  6 21  1  0  0  0  0
  6 33  1  0  0  0  0
  7  8  1  0  0  0  0
  7 34  1  0  0  0  0
  8  9  2  0  0  0  0
  8 10  1  0  0  0  0
 10 11  1  0  0  0  0
 10 35  1  0  0  0  0
 11 20  1  0  0  0  0
 11 12  2  0  0  0  0
 12 13  1  0  0  0  0
 12 36  1  0  0  0  0
 13 14  2  0  0  0  0
 14 15  1  0  0  0  0
 14 19  1  0  0  0  0
 15 16  1  0  0  0  0
 15 17  1  0  0  0  0
 15 18  1  0  0  0  0
 16 37  1  0  0  0  0
 16 38  1  0  0  0  0
 16 39  1  0  0  0  0
 17 40  1  0  0  0  0
 17 41  1  0  0  0  0
 17 42  1  0  0  0  0
 18 43  1  0  0  0  0
 18 44  1  0  0  0  0
 18 45  1  0  0  0  0
 19 20  2  0  0  0  0
 20 46  1  0  0  0  0
 21 22  1  0  0  0  0
 21 47  1  0  0  0  0
 21 48  1  0  0  0  0
 22 23  1  0  0  0  0
 22 49  1  0  0  0  0
 23 50  1  0  0  0  0
 23 51  1  0  0  0  0
 23 52  1  0  0  0  0
M  CHG  1   3   1
M  END
> <s_m_source_file>
AV-unprocessed.smi

> <i_m_source_file_index>
2710

> <i_lp_mmshare_version>
43012

> <i_f3d_flags>
0

> <s_epik_input>
W0NIM11bQ0gyXU4xW0NIMl1bQ0gyXVtDQEhdKFtDSDJdW0NASF0xW0NIM10pW05IXUMoPU8pW05IXWMyW2NIXW5jKEMoW0NIM10pKFtDSDNdKVtDSDNdKW5bY0hdMg==

> <s_epik_cmdline>
J2VwaWtfcHl0aG9uJywgJy1waCcsICc3LjAnLCAnLXRuJywgJzgnLCAnLW1hJywgJzIwMCcsICctbWV0YWxfYmluZGluZycsICctaW1hZScsICc8aW5maWxlLm1hZT4nLCAnLW9tYWUnLCAnPG91dGZpbGUubWFlPic=

> <r_lp_tautomer_probability>
1

> <r_epik_Ionization_Penalty>
0.00396003

> <r_epik_Ionization_Penalty_Charging>
0.0039379

> <r_epik_Ionization_Penalty_Neutral>
2.21316e-05

> <r_epik_State_Penalty>
0.00281651

> <r_epik_Charging_Adjusted_Penalty>
0.00675441

> <i_epik_Tot_Q>
1

> <i_epik_Tot_abs_Q>
1

> <r_epik_Metal_State_Penalty>
-0

> <b_epik_Metal_Only>
0

> <s_lp_Force_Field>
OPLS_2005

> <r_lp_Energy>
19.7949

> <b_lp_Chiralities_Consistent>
1

> <s_lp_Variant>
AV-unprocessed.smi:2710-6

> <Gold.Version>
5.8.1

> <Gold.Id.Protein>
6NUR|6NUR_protein|mol2

> <Gold.PLP.Fitness>
43.7239

> <Gold.PLP.PLP>
-35.0193

> <Gold.PLP.part.hbond>
-2.0000

> <Gold.PLP.part.metal>
0.0000

> <Gold.PLP.part.buried>
-0.7543

> <Gold.PLP.part.nonpolar>
-34.2362

> <Gold.PLP.part.repulsive>
1.4810

> <Gold.PLP.ligand.clash>
0.0000

> <Gold.PLP.ligand.torsion>
0.1640

> <Gold.PLP.Chemscore.Hbond>
2.0000

> <Gold.PLP.Chemscore.CHOScore>
1.0000

> <Gold.PLP.Chemscore.Metal>
0.0000

> <Gold.Chemscore.Hbonds>
donor molecule, donor type, donor heavy atom, donor atom, acceptor molecule, acceptor atom, score
      L1  H     3    53       P1  8028  2.00
      L1  C    20    46       P1 10171  1.00

> <Gold.PLP.Chemscore.Internal.Correction>
0.0327

> <Gold.Rescore>
     Score         DG    S(hbond)    S(metal)    S(lipo)     H(rot)  DE(clash)    DE(int)     intcor
     13.21     -16.30       1.00        0.00      92.60       1.31       1.72       1.37       ----

> <Gold.Chemscore.Fitness>
13.2087

> <Gold.Chemscore.DG>
-16.2961

> <Gold.Chemscore.ZeroCoef>
-5.4800

> <Gold.Chemscore.Hbond>
0.9973

> <Gold.Chemscore.Metal>
0.0000

> <Gold.Chemscore.Lipo>
92.5984

> <Gold.Chemscore.Internal_Hbond>
0.0000

> <Gold.Chemscore.DEClash>
1.7218

> <Gold.Chemscore.DEInternal>
1.3656

> <Gold.Chemscore.Rot>
1.3081

> <Gold.Chemscore.Internal.Correction>
   9.000000E+99

> <Gold.Chemscore.Hbonds>
donor molecule, donor type, donor heavy atom, donor atom, acceptor molecule, acceptor atom, score
      L1  H     3    53       P1  8028  0.96

> <Gold.Chemscore.Hbond.Weighted>
-3.3309

> <Gold.Chemscore.Metal.Weighted>
-0.0000

> <Gold.Chemscore.Lipo.Weighted>
-10.8340

> <Gold.Chemscore.Internal_Hbond.Weighted>
0.0000

> <Gold.Chemscore.DEClash.Weighted>
1.7218

> <Gold.Chemscore.DEInternal.Weighted>
1.3656

> <Gold.Chemscore.Rot.Weighted>
3.3488

> <Gold.Chemscore.Internal.Correction.Weighted>
   9.000000E+99

> <Gold.Protein.RotatedTorsions>
[ 6907 6896 6895 6894 ] final  -59.00 input  -60.11 | X-H torsion
[ 7974 7965 7964 7962 ] final -175.30 input  175.53 | X-H torsion
[ 8008 7997 7996 7995 ] final   70.59 input   59.86 | X-H torsion
[ 10167 10162 10161 10158 ] final -170.08 input  -65.29 | X-H torsion
[ 10718 10713 10712 10709 ] final  175.65 input   66.30 | X-H torsion
[ 10763 10752 10751 10750 ] final -116.42 input  -60.55 | X-H torsion
[ 11005 11000 10999 10996 ] final -122.16 input  -57.11 | X-H torsion

> <Gold.Protein.ActiveResidues>
 VAL166  LYS551  ARG553  GLY616  TRP617  ASP618  TYR619  PRO620  LYS621  CYS622 
 ASP623  PHE694  ASN695  SER759  ASP760  ASP761  ALA762  ILE779  LEU786  VAL792 
 PHE793  MET794  SER795  GLU796  ALA797  LYS798  CYS799  TRP800  GLU811  SER814 

> <Gold.Protein.RotatedAtoms>
  150.7964  134.7026  159.6558 H   0  0  0  0  0  0  0  0  0  0  0  0  # atno 6907 bound_to 6896
  152.4076  134.6176  160.0052 H   0  0  0  0  0  0  0  0  0  0  0  0  # atno 6908 bound_to 6896
  151.6429  133.3288  159.3170 H   0  0  0  0  0  0  0  0  0  0  0  0  # atno 6909 bound_to 6896
  144.7128  140.1341  143.6396 H   0  0  0  0  0  0  0  0  0  0  0  0  # atno 7974 bound_to 7965
  155.7410  140.3490  155.5104 H   0  0  0  0  0  0  0  0  0  0  0  0  # atno 8008 bound_to 7997
  155.9094  140.1048  157.1312 H   0  0  0  0  0  0  0  0  0  0  0  0  # atno 8009 bound_to 7997
  154.4054  140.1271  156.4524 H   0  0  0  0  0  0  0  0  0  0  0  0  # atno 8010 bound_to 7997
  139.5883  144.1269  152.1603 H   0  0  0  0  0  0  0  0  0  0  0  0  # atno 10167 bound_to 10162
  156.9317  130.9973  151.2986 H   0  0  0  0  0  0  0  0  0  0  0  0  # atno 10718 bound_to 10713
  154.8518  135.4346  154.1818 H   0  0  0  0  0  0  0  0  0  0  0  0  # atno 10763 bound_to 10752
  153.2907  135.6961  153.7302 H   0  0  0  0  0  0  0  0  0  0  0  0  # atno 10764 bound_to 10752
  153.6470  135.3458  155.3063 H   0  0  0  0  0  0  0  0  0  0  0  0  # atno 10765 bound_to 10752
  141.0016  134.0394  157.3530 H   0  0  0  0  0  0  0  0  0  0  0  0  # atno 11005 bound_to 11000
  145.9261  139.2576  143.1353 LP  0  0  0  0  0  0  0  0  0  0  0  0  # atno 17320 bound_to 7965
  145.9571  140.8864  143.0229 LP  0  0  0  0  0  0  0  0  0  0  0  0  # atno 17321 bound_to 7965
  140.0838  144.5678  150.7103 LP  0  0  0  0  0  0  0  0  0  0  0  0  # atno 17342 bound_to 10162
  140.7151  143.2537  151.4460 LP  0  0  0  0  0  0  0  0  0  0  0  0  # atno 17343 bound_to 10162
  157.5842  130.8398  149.8566 LP  0  0  0  0  0  0  0  0  0  0  0  0  # atno 17370 bound_to 10713
  156.0444  130.3731  150.1354 LP  0  0  0  0  0  0  0  0  0  0  0  0  # atno 17371 bound_to 10713
  139.9042  135.0174  156.7408 LP  0  0  0  0  0  0  0  0  0  0  0  0  # atno 17394 bound_to 11000
  140.6880  133.9415  155.7949 LP  0  0  0  0  0  0  0  0  0  0  0  0  # atno 17395 bound_to 11000

$$$$
