AV-unprocessed.smi:1679|AV-procd|sdf|6730|dock8
  -GOLD-   22720 7473D 1   1.00000     0.00000
 Structure written by MMmdl.
 45 46  0  0  0  0  0  0  0  0  1 V2000
  151.5312  145.1854  159.8522 C   0  0  0  0  0  0  0  0  0  0  0  0
  152.5459  144.0851  160.2005 C   0  0  1  0  0  0  0  0  0  0  0  0
  152.3241  143.5351  161.6256 C   0  0  0  0  0  0  0  0  0  0  0  0
  153.3664  142.4642  161.9871 C   0  0  0  0  0  0  0  0  0  0  0  0
  153.3965  141.3332  160.9477 C   0  0  0  0  0  0  0  0  0  0  0  0
  153.6130  141.8860  159.5308 C   0  0  0  0  0  0  0  0  0  0  0  0
  152.5436  142.9386  159.1635 C   0  0  1  0  0  0  0  0  0  0  0  0
  151.2299  142.3921  159.1494 O   0  0  0  0  0  0  0  0  0  0  0  0
  150.8154  141.7530  157.9519 C   0  0  0  0  0  0  0  0  0  0  0  0
  150.5307  140.2731  158.2549 C   0  0  0  0  0  0  0  0  0  0  0  0
  150.4985  139.4694  157.0359 N   0  0  0  0  0  0  0  0  0  0  0  0
  151.5067  139.3738  156.1538 C   0  0  0  0  0  0  0  0  0  0  0  0
  152.5974  139.9234  156.3147 O   0  0  0  0  0  0  0  0  0  0  0  0
  151.2590  138.5147  154.9077 C   0  0  0  0  0  0  0  0  0  0  0  0
  150.9671  137.1201  155.2681 N   0  0  0  0  0  0  0  0  0  0  0  0
  149.8764  136.4656  154.7131 C   0  0  0  0  0  0  0  0  0  0  0  0
  149.5195  135.2011  155.0409 C   0  0  0  0  0  0  0  0  0  0  0  0
  150.2904  134.4478  156.0241 C   0  0  0  0  0  0  0  0  0  0  0  0
  150.0444  133.3010  156.3913 O   0  0  0  0  0  0  0  0  0  0  0  0
  151.3826  135.1384  156.5554 N   0  0  0  0  0  0  0  0  0  0  0  0
  151.7567  136.4404  156.2205 C   0  0  0  0  0  0  0  0  0  0  0  0
  152.7381  136.9567  156.7530 O   0  0  0  0  0  0  0  0  0  0  0  0
  151.9459  134.6564  157.2407 H   0  0  0  0  0  0  0  0  0  0  0  0
  150.5076  144.8104  159.8845 H   0  0  0  0  0  0  0  0  0  0  0  0
  151.7095  145.5822  158.8526 H   0  0  0  0  0  0  0  0  0  0  0  0
  151.5995  146.0168  160.5539 H   0  0  0  0  0  0  0  0  0  0  0  0
  153.5338  144.5472  160.1768 H   0  0  0  0  0  0  0  0  0  0  0  0
  152.3703  144.3466  162.3522 H   0  0  0  0  0  0  0  0  0  0  0  0
  151.3226  143.1106  161.7074 H   0  0  0  0  0  0  0  0  0  0  0  0
  154.3528  142.9248  162.0512 H   0  0  0  0  0  0  0  0  0  0  0  0
  153.1527  142.0555  162.9747 H   0  0  0  0  0  0  0  0  0  0  0  0
  154.1848  140.6221  161.1951 H   0  0  0  0  0  0  0  0  0  0  0  0
  152.4593  140.7780  160.9788 H   0  0  0  0  0  0  0  0  0  0  0  0
  154.5996  142.3477  159.4766 H   0  0  0  0  0  0  0  0  0  0  0  0
  153.6317  141.0726  158.8063 H   0  0  0  0  0  0  0  0  0  0  0  0
  152.7643  143.3488  158.1768 H   0  0  0  0  0  0  0  0  0  0  0  0
  149.9137  142.2290  157.5647 H   0  0  0  0  0  0  0  0  0  0  0  0
  151.5868  141.8309  157.1857 H   0  0  0  0  0  0  0  0  0  0  0  0
  151.2682  139.8802  158.9568 H   0  0  0  0  0  0  0  0  0  0  0  0
  149.5614  140.1811  158.7455 H   0  0  0  0  0  0  0  0  0  0  0  0
  149.6389  138.9807  156.8316 H   0  0  0  0  0  0  0  0  0  0  0  0
  150.4177  138.9426  154.3605 H   0  0  0  0  0  0  0  0  0  0  0  0
  152.1070  138.5750  154.2222 H   0  0  0  0  0  0  0  0  0  0  0  0
  149.2709  136.9904  153.9877 H   0  0  0  0  0  0  0  0  0  0  0  0
  148.6560  134.7469  154.5766 H   0  0  0  0  0  0  0  0  0  0  0  0
  1  2  1  0  0  0  0
  1 24  1  0  0  0  0
  1 25  1  0  0  0  0
  1 26  1  0  0  0  0
  2  7  1  0  0  0  0
  2  3  1  0  0  0  0
  2 27  1  0  0  0  0
  3  4  1  0  0  0  0
  3 28  1  0  0  0  0
  3 29  1  0  0  0  0
  4  5  1  0  0  0  0
  4 30  1  0  0  0  0
  4 31  1  0  0  0  0
  5  6  1  0  0  0  0
  5 32  1  0  0  0  0
  5 33  1  0  0  0  0
  6  7  1  0  0  0  0
  6 34  1  0  0  0  0
  6 35  1  0  0  0  0
  7  8  1  0  0  0  0
  7 36  1  0  0  0  0
  8  9  1  0  0  0  0
  9 10  1  0  0  0  0
  9 37  1  0  0  0  0
  9 38  1  0  0  0  0
 10 11  1  0  0  0  0
 10 39  1  0  0  0  0
 10 40  1  0  0  0  0
 11 12  1  0  0  0  0
 11 41  1  0  0  0  0
 12 13  2  0  0  0  0
 12 14  1  0  0  0  0
 14 15  1  0  0  0  0
 14 42  1  0  0  0  0
 14 43  1  0  0  0  0
 15 21  1  0  0  0  0
 15 16  1  0  0  0  0
 16 17  2  0  0  0  0
 16 44  1  0  0  0  0
 17 18  1  0  0  0  0
 17 45  1  0  0  0  0
 18 19  2  0  0  0  0
 18 20  1  0  0  0  0
 20 23  1  0  0  0  0
 20 21  1  0  0  0  0
 21 22  2  0  0  0  0
M  END
> <s_m_source_file>
AV-unprocessed.smi

> <i_m_source_file_index>
1679

> <i_lp_mmshare_version>
43012

> <i_f3d_flags>
0

> <s_epik_input>
W0NIM11bQ0BASF0xW0NIMl1bQ0gyXVtDSDJdW0NIMl1bQ0BIXTFPW0NIMl1bQ0gyXVtOSF1DKD1PKVtDSDJdbjJbY0hdW2NIXWMoPU8pW25IXWMyPU8=

> <s_epik_cmdline>
J2VwaWtfcHl0aG9uJywgJy1waCcsICc3LjAnLCAnLXRuJywgJzgnLCAnLW1hJywgJzIwMCcsICctbWV0YWxfYmluZGluZycsICctaW1hZScsICc8aW5maWxlLm1hZT4nLCAnLW9tYWUnLCAnPG91dGZpbGUubWFlPic=

> <r_lp_tautomer_probability>
0.999537

> <r_epik_Ionization_Penalty>
0.0033132

> <r_epik_Ionization_Penalty_Charging>
0.00331317

> <r_epik_Ionization_Penalty_Neutral>
2.78599e-08

> <r_epik_State_Penalty>
0.002342

> <r_epik_Charging_Adjusted_Penalty>
0.00565517

> <i_epik_Tot_Q>
0

> <i_epik_Tot_abs_Q>
0

> <r_epik_Metal_State_Penalty>
0.365595

> <b_epik_Metal_Only>
0

> <s_lp_Force_Field>
OPLS_2005

> <r_lp_Energy>
9.24545

> <b_lp_Chiralities_Consistent>
1

> <s_lp_Variant>
AV-unprocessed.smi:1679-2

> <Gold.Version>
5.8.1

> <Gold.Id.Protein>
6NUR|6NUR_protein|mol2

> <Gold.PLP.Fitness>
46.6094

> <Gold.PLP.PLP>
-42.2564

> <Gold.PLP.part.hbond>
-1.1725

> <Gold.PLP.part.metal>
0.0000

> <Gold.PLP.part.buried>
-3.6034

> <Gold.PLP.part.nonpolar>
-36.7835

> <Gold.PLP.part.repulsive>
0.1925

> <Gold.PLP.ligand.clash>
0.0000

> <Gold.PLP.ligand.torsion>
0.8751

> <Gold.PLP.Chemscore.Hbond>
1.0000

> <Gold.PLP.Chemscore.CHOScore>
1.0000

> <Gold.PLP.Chemscore.Metal>
0.0000

> <Gold.Chemscore.Hbonds>
donor molecule, donor type, donor heavy atom, donor atom, acceptor molecule, acceptor atom, score
      P1  H  7997  8009       L1    13  1.00
      L1  C    16    44       P1  7948  0.84

> <Gold.PLP.Chemscore.Internal.Correction>
0.1032

> <Gold.Rescore>
     Score         DG    S(hbond)    S(metal)    S(lipo)     H(rot)  DE(clash)    DE(int)     intcor
     12.57     -15.02       0.98        0.00     108.60       2.52       0.29       2.16       ----

> <Gold.Chemscore.Fitness>
12.5747

> <Gold.Chemscore.DG>
-15.0221

> <Gold.Chemscore.ZeroCoef>
-5.4800

> <Gold.Chemscore.Hbond>
0.9831

> <Gold.Chemscore.Metal>
0.0000

> <Gold.Chemscore.Lipo>
108.5961

> <Gold.Chemscore.Internal_Hbond>
0.0000

> <Gold.Chemscore.DEClash>
0.2887

> <Gold.Chemscore.DEInternal>
2.1587

> <Gold.Chemscore.Rot>
2.5185

> <Gold.Chemscore.Internal.Correction>
   9.000000E+99

> <Gold.Chemscore.Hbonds>
donor molecule, donor type, donor heavy atom, donor atom, acceptor molecule, acceptor atom, score
      P1  H  7997  8009       L1    13  1.00

> <Gold.Chemscore.Hbond.Weighted>
-3.2836

> <Gold.Chemscore.Metal.Weighted>
-0.0000

> <Gold.Chemscore.Lipo.Weighted>
-12.7057

> <Gold.Chemscore.Internal_Hbond.Weighted>
0.0000

> <Gold.Chemscore.DEClash.Weighted>
0.2887

> <Gold.Chemscore.DEInternal.Weighted>
2.1587

> <Gold.Chemscore.Rot.Weighted>
6.4472

> <Gold.Chemscore.Internal.Correction.Weighted>
   9.000000E+99

> <Gold.Protein.RotatedTorsions>
[ 6907 6896 6895 6894 ] final   -9.96 input  -60.11 | X-H torsion
[ 7974 7965 7964 7962 ] final   12.66 input  175.53 | X-H torsion
[ 8008 7997 7996 7995 ] final -154.36 input   59.86 | X-H torsion
[ 10167 10162 10161 10158 ] final -158.18 input  -65.29 | X-H torsion
[ 10718 10713 10712 10709 ] final -111.77 input   66.30 | X-H torsion
[ 10763 10752 10751 10750 ] final -107.74 input  -60.55 | X-H torsion
[ 11005 11000 10999 10996 ] final  145.86 input  -57.11 | X-H torsion

> <Gold.Protein.ActiveResidues>
 VAL166  LYS551  ARG553  GLY616  TRP617  ASP618  TYR619  PRO620  LYS621  CYS622 
 ASP623  PHE694  ASN695  SER759  ASP760  ASP761  ALA762  ILE779  LEU786  VAL792 
 PHE793  MET794  SER795  GLU796  ALA797  LYS798  CYS799  TRP800  GLU811  SER814 

> <Gold.Protein.RotatedAtoms>
  151.4096  135.0983  159.9580 H   0  0  0  0  0  0  0  0  0  0  0  0  # atno 6907 bound_to 6896
  152.5024  133.8810  159.7357 H   0  0  0  0  0  0  0  0  0  0  0  0  # atno 6908 bound_to 6896
  150.9302  133.6719  159.2840 H   0  0  0  0  0  0  0  0  0  0  0  0  # atno 6909 bound_to 6896
  146.2346  139.9304  142.8497 H   0  0  0  0  0  0  0  0  0  0  0  0  # atno 7974 bound_to 7965
  155.6851  140.0749  157.2470 H   0  0  0  0  0  0  0  0  0  0  0  0  # atno 8008 bound_to 7997
  154.4098  140.1675  156.2077 H   0  0  0  0  0  0  0  0  0  0  0  0  # atno 8009 bound_to 7997
  155.9501  140.3378  155.6403 H   0  0  0  0  0  0  0  0  0  0  0  0  # atno 8010 bound_to 7997
  139.6712  143.9742  152.2284 H   0  0  0  0  0  0  0  0  0  0  0  0  # atno 10167 bound_to 10162
  156.0666  130.5885  150.8419 H   0  0  0  0  0  0  0  0  0  0  0  0  # atno 10718 bound_to 10713
  154.8093  135.4664  154.0475 H   0  0  0  0  0  0  0  0  0  0  0  0  # atno 10763 bound_to 10752
  153.1918  135.6856  153.8349 H   0  0  0  0  0  0  0  0  0  0  0  0  # atno 10764 bound_to 10752
  153.7864  135.3249  155.3350 H   0  0  0  0  0  0  0  0  0  0  0  0  # atno 10765 bound_to 10752
  140.0746  134.9132  157.1402 H   0  0  0  0  0  0  0  0  0  0  0  0  # atno 11005 bound_to 11000
  145.2050  140.9871  143.4134 LP  0  0  0  0  0  0  0  0  0  0  0  0  # atno 17320 bound_to 7965
  144.9741  139.3850  143.6294 LP  0  0  0  0  0  0  0  0  0  0  0  0  # atno 17321 bound_to 7965
  139.9507  144.6622  150.8175 LP  0  0  0  0  0  0  0  0  0  0  0  0  # atno 17342 bound_to 10162
  140.7619  143.3184  151.2678 LP  0  0  0  0  0  0  0  0  0  0  0  0  # atno 17343 bound_to 10162
  157.5712  131.0946  150.9414 LP  0  0  0  0  0  0  0  0  0  0  0  0  # atno 17370 bound_to 10713
  156.9630  130.5462  149.5287 LP  0  0  0  0  0  0  0  0  0  0  0  0  # atno 17371 bound_to 10713
  140.3576  134.2529  155.7191 LP  0  0  0  0  0  0  0  0  0  0  0  0  # atno 17394 bound_to 11000
  141.2025  133.7937  157.0389 LP  0  0  0  0  0  0  0  0  0  0  0  0  # atno 17395 bound_to 11000

$$$$
