AV-unprocessed.smi:3179|AV-procd|sdf|12132|dock10
  -GOLD-   2272017573D 1   1.00000     0.00000
 Structure written by MMmdl.
 34 34  0  0  0  0  0  0  0  0  2 V2000
  146.3978  142.0393  154.4015 C   0  0  0  0  0  0  0  0  0  0  0  0
  147.7928  141.9237  153.7807 C   0  0  0  0  0  0  0  0  0  0  0  0
  148.8382  141.9581  154.8117 N   0  3  0  0  0  0  0  0  0  0  0  0
  149.7769  141.0119  155.0094 C   0  0  0  0  0  0  0  0  0  0  0  0
  149.8025  139.9146  154.2278 N   0  0  0  0  0  0  0  0  0  0  0  0
  150.7641  138.8093  154.3340 C   0  0  0  0  0  0  0  0  0  0  0  0
  150.0774  137.5190  154.7900 C   0  0  0  0  0  0  0  0  0  0  0  0
  150.6905  141.1621  155.9883 N   0  0  0  0  0  0  0  0  0  0  0  0
  150.7730  142.2962  156.9188 C   0  0  0  0  0  0  0  0  0  0  0  0
  151.8170  142.0415  158.0126 C   0  0  0  0  0  0  0  0  0  0  0  0
  151.8644  143.1390  159.0221 C   0  0  0  0  0  0  0  0  0  0  0  0
  151.7945  142.9307  160.3398 N   0  0  0  0  0  0  0  0  0  0  0  0
  151.8375  144.1199  161.0720 C   0  0  0  0  0  0  0  0  0  0  0  0
  151.9223  145.2423  160.2879 C   0  0  0  0  0  0  0  0  0  0  0  0
  151.9521  144.8440  158.5917 S   0  0  0  0  0  0  0  0  0  0  0  0
  145.6285  142.0216  153.6290 H   0  0  0  0  0  0  0  0  0  0  0  0
  146.2887  142.9712  154.9571 H   0  0  0  0  0  0  0  0  0  0  0  0
  146.2006  141.2134  155.0856 H   0  0  0  0  0  0  0  0  0  0  0  0
  147.8772  140.9938  153.2179 H   0  0  0  0  0  0  0  0  0  0  0  0
  147.9577  142.7432  153.0806 H   0  0  0  0  0  0  0  0  0  0  0  0
  149.1040  139.8321  153.5030 H   0  0  0  0  0  0  0  0  0  0  0  0
  151.2414  138.6575  153.3656 H   0  0  0  0  0  0  0  0  0  0  0  0
  151.5461  139.0861  155.0416 H   0  0  0  0  0  0  0  0  0  0  0  0
  150.7996  136.7068  154.8765 H   0  0  0  0  0  0  0  0  0  0  0  0
  149.3109  137.2076  154.0798 H   0  0  0  0  0  0  0  0  0  0  0  0
  149.6033  137.6465  155.7637 H   0  0  0  0  0  0  0  0  0  0  0  0
  151.3686  140.4253  156.1202 H   0  0  0  0  0  0  0  0  0  0  0  0
  151.0312  143.1968  156.3607 H   0  0  0  0  0  0  0  0  0  0  0  0
  149.7903  142.4590  157.3625 H   0  0  0  0  0  0  0  0  0  0  0  0
  151.6039  141.1025  158.5252 H   0  0  0  0  0  0  0  0  0  0  0  0
  152.8077  141.9366  157.5690 H   0  0  0  0  0  0  0  0  0  0  0  0
  151.8008  144.0748  162.1507 H   0  0  0  0  0  0  0  0  0  0  0  0
  151.9667  146.2742  160.6041 H   0  0  0  0  0  0  0  0  0  0  0  0
  148.8391  142.7635  155.4212 H   0  0  0  0  0  0  0  0  0  0  0  0
  1  2  1  0  0  0  0
  1 16  1  0  0  0  0
  1 17  1  0  0  0  0
  1 18  1  0  0  0  0
  2  3  1  0  0  0  0
  2 19  1  0  0  0  0
  2 20  1  0  0  0  0
  3  4  2  0  0  0  0
  3 34  1  0  0  0  0
  4  5  1  0  0  0  0
  4  8  1  0  0  0  0
  5  6  1  0  0  0  0
  5 21  1  0  0  0  0
  6  7  1  0  0  0  0
  6 22  1  0  0  0  0
  6 23  1  0  0  0  0
  7 24  1  0  0  0  0
  7 25  1  0  0  0  0
  7 26  1  0  0  0  0
  8  9  1  0  0  0  0
  8 27  1  0  0  0  0
  9 10  1  0  0  0  0
  9 28  1  0  0  0  0
  9 29  1  0  0  0  0
 10 11  1  0  0  0  0
 10 30  1  0  0  0  0
 10 31  1  0  0  0  0
 11 15  1  0  0  0  0
 11 12  2  0  0  0  0
 12 13  1  0  0  0  0
 13 14  2  0  0  0  0
 13 32  1  0  0  0  0
 14 15  1  0  0  0  0
 14 33  1  0  0  0  0
M  CHG  1   3   1
M  END
> <s_m_source_file>
AV-unprocessed.smi

> <i_m_source_file_index>
3179

> <i_lp_mmshare_version>
43012

> <i_f3d_flags>
0

> <s_epik_input>
W0NIM11bQ0gyXS9OPUMoXFtOSF1bQ0gyXVtDSDNdKVtOSF1bQ0gyXVtDSDJdYzFuW2NIXVtjSF1zMQ==

> <s_epik_cmdline>
J2VwaWtfcHl0aG9uJywgJy1waCcsICc3LjAnLCAnLXRuJywgJzgnLCAnLW1hJywgJzIwMCcsICctbWV0YWxfYmluZGluZycsICctaW1hZScsICc8aW5maWxlLm1hZT4nLCAnLW9tYWUnLCAnPG91dGZpbGUubWFlPic=

> <r_lp_tautomer_probability>
1

> <r_epik_Ionization_Penalty>
3.28801e-05

> <r_epik_Ionization_Penalty_Charging>
8.99277e-08

> <r_epik_Ionization_Penalty_Neutral>
3.27902e-05

> <r_epik_State_Penalty>
-0

> <r_epik_Charging_Adjusted_Penalty>
8.99277e-08

> <i_epik_Tot_Q>
1

> <i_epik_Tot_abs_Q>
1

> <r_epik_Metal_State_Penalty>
-0

> <b_epik_Metal_Only>
0

> <s_epik_Chemistry_Notes>
This compound has an imine and may undergo hydrolysis.

> <s_lp_Force_Field>
OPLS_2005

> <r_lp_Energy>
0.386487

> <b_lp_Chiralities_Consistent>
1

> <s_lp_Variant>
AV-unprocessed.smi:3179-1

> <Gold.Version>
5.8.1

> <Gold.Id.Protein>
6NUR|6NUR_protein|mol2

> <Gold.PLP.Fitness>
42.7895

> <Gold.PLP.PLP>
-37.0952

> <Gold.PLP.part.hbond>
-2.1294

> <Gold.PLP.part.metal>
0.0000

> <Gold.PLP.part.buried>
-5.3967

> <Gold.PLP.part.nonpolar>
-29.3204

> <Gold.PLP.part.repulsive>
0.8688

> <Gold.PLP.ligand.clash>
0.0000

> <Gold.PLP.ligand.torsion>
0.1582

> <Gold.PLP.Chemscore.Hbond>
1.9972

> <Gold.PLP.Chemscore.CHOScore>
0.0000

> <Gold.PLP.Chemscore.Metal>
0.0000

> <Gold.Chemscore.Hbonds>
donor molecule, donor type, donor heavy atom, donor atom, acceptor molecule, acceptor atom, score
      L1  H     3    34       P1  8028  1.95
      L1  H     5    21       P1  7957  0.03

> <Gold.PLP.Chemscore.Internal.Correction>
0.0190

> <Gold.Rescore>
     Score         DG    S(hbond)    S(metal)    S(lipo)     H(rot)  DE(clash)    DE(int)     intcor
     14.89     -15.13       0.92        0.00      93.73       1.72       0.17       0.06       ----

> <Gold.Chemscore.Fitness>
14.8915

> <Gold.Chemscore.DG>
-15.1269

> <Gold.Chemscore.ZeroCoef>
-5.4800

> <Gold.Chemscore.Hbond>
0.9222

> <Gold.Chemscore.Metal>
0.0000

> <Gold.Chemscore.Lipo>
93.7324

> <Gold.Chemscore.Internal_Hbond>
0.0000

> <Gold.Chemscore.DEClash>
0.1707

> <Gold.Chemscore.DEInternal>
0.0647

> <Gold.Chemscore.Rot>
1.7187

> <Gold.Chemscore.Internal.Correction>
   9.000000E+99

> <Gold.Chemscore.Hbonds>
donor molecule, donor type, donor heavy atom, donor atom, acceptor molecule, acceptor atom, score
      L1  H     3    34       P1  8028  0.92
      L1  H     5    21       P1  7957  0.05

> <Gold.Chemscore.Hbond.Weighted>
-3.0800

> <Gold.Chemscore.Metal.Weighted>
-0.0000

> <Gold.Chemscore.Lipo.Weighted>
-10.9667

> <Gold.Chemscore.Internal_Hbond.Weighted>
0.0000

> <Gold.Chemscore.DEClash.Weighted>
0.1707

> <Gold.Chemscore.DEInternal.Weighted>
0.0647

> <Gold.Chemscore.Rot.Weighted>
4.3998

> <Gold.Chemscore.Internal.Correction.Weighted>
   9.000000E+99

> <Gold.Protein.RotatedTorsions>
[ 6907 6896 6895 6894 ] final  109.06 input  -60.11 | X-H torsion
[ 7974 7965 7964 7962 ] final -164.44 input  175.53 | X-H torsion
[ 8008 7997 7996 7995 ] final  150.53 input   59.86 | X-H torsion
[ 10167 10162 10161 10158 ] final  -55.79 input  -65.29 | X-H torsion
[ 10718 10713 10712 10709 ] final  -80.24 input   66.30 | X-H torsion
[ 10763 10752 10751 10750 ] final  144.61 input  -60.55 | X-H torsion
[ 11005 11000 10999 10996 ] final  161.39 input  -57.11 | X-H torsion

> <Gold.Protein.ActiveResidues>
 VAL166  LYS551  ARG553  GLY616  TRP617  ASP618  TYR619  PRO620  LYS621  CYS622 
 ASP623  PHE694  ASN695  SER759  ASP760  ASP761  ALA762  ILE779  LEU786  VAL792 
 PHE793  MET794  SER795  GLU796  ALA797  LYS798  CYS799  TRP800  GLU811  SER814 

> <Gold.Protein.RotatedAtoms>
  152.5084  133.8999  159.7435 H   0  0  0  0  0  0  0  0  0  0  0  0  # atno 6907 bound_to 6896
  150.9417  133.6640  159.2796 H   0  0  0  0  0  0  0  0  0  0  0  0  # atno 6908 bound_to 6896
  151.3949  135.0967  159.9590 H   0  0  0  0  0  0  0  0  0  0  0  0  # atno 6909 bound_to 6896
  144.7297  140.2961  143.6212 H   0  0  0  0  0  0  0  0  0  0  0  0  # atno 7974 bound_to 7965
  156.2712  140.2072  156.6031 H   0  0  0  0  0  0  0  0  0  0  0  0  # atno 8008 bound_to 7997
  154.6890  140.0532  157.0368 H   0  0  0  0  0  0  0  0  0  0  0  0  # atno 8009 bound_to 7997
  155.0893  140.3195  155.4581 H   0  0  0  0  0  0  0  0  0  0  0  0  # atno 8010 bound_to 7997
  140.6354  143.2480  151.5131 H   0  0  0  0  0  0  0  0  0  0  0  0  # atno 10167 bound_to 10162
  156.0074  130.4568  150.3770 H   0  0  0  0  0  0  0  0  0  0  0  0  # atno 10718 bound_to 10713
  153.9918  135.2931  155.3411 H   0  0  0  0  0  0  0  0  0  0  0  0  # atno 10763 bound_to 10752
  154.7210  135.5109  153.8815 H   0  0  0  0  0  0  0  0  0  0  0  0  # atno 10764 bound_to 10752
  153.0806  135.6678  154.0169 H   0  0  0  0  0  0  0  0  0  0  0  0  # atno 10765 bound_to 10752
  140.2153  134.8237  157.3164 H   0  0  0  0  0  0  0  0  0  0  0  0  # atno 11005 bound_to 11000
  145.7807  139.1890  143.2159 LP  0  0  0  0  0  0  0  0  0  0  0  0  # atno 17320 bound_to 7965
  146.0836  140.7736  142.9629 LP  0  0  0  0  0  0  0  0  0  0  0  0  # atno 17321 bound_to 7965
  139.5565  144.2262  152.1621 LP  0  0  0  0  0  0  0  0  0  0  0  0  # atno 17342 bound_to 10162
  140.1517  144.5108  150.6683 LP  0  0  0  0  0  0  0  0  0  0  0  0  # atno 17343 bound_to 10162
  157.1852  131.0402  151.2728 LP  0  0  0  0  0  0  0  0  0  0  0  0  # atno 17370 bound_to 10713
  157.4110  130.7385  149.6839 LP  0  0  0  0  0  0  0  0  0  0  0  0  # atno 17371 bound_to 10713
  140.1907  134.4375  155.7717 LP  0  0  0  0  0  0  0  0  0  0  0  0  # atno 17394 bound_to 11000
  141.2225  133.7026  156.8023 LP  0  0  0  0  0  0  0  0  0  0  0  0  # atno 17395 bound_to 11000

$$$$
