AV-unprocessed.smi:2488|AV-procd|sdf|9794|dock2
  -GOLD-   2272013433D 1   1.00000     0.00000
 Structure written by MMmdl.
 33 34  0  0  0  0  0  0  0  0  1 V2000
  152.3671  142.4956  158.7292 C   0  0  0  0  0  0  0  0  0  0  0  0
  152.3600  140.9634  158.6835 C   0  0  0  0  0  0  0  0  0  0  0  0
  151.8903  140.4295  157.3428 C   0  0  0  0  0  0  0  0  0  0  0  0
  152.7936  139.7361  156.6147 N   0  0  0  0  0  0  0  0  0  0  0  0
  152.3848  139.2741  155.4310 C   0  0  0  0  0  0  0  0  0  0  0  0
  151.1745  139.4278  154.8887 N   0  0  0  0  0  0  0  0  0  0  0  0
  150.2536  140.1180  155.6052 C   0  0  0  0  0  0  0  0  0  0  0  0
  148.9664  140.3175  155.0645 N   0  0  0  0  0  0  0  0  0  0  0  0
  148.8969  141.6150  154.3957 C   0  0  0  0  0  0  0  0  0  0  0  0
  147.4637  141.9180  153.9391 C   0  0  0  0  0  0  0  0  0  0  0  0
  147.0150  140.8650  153.0980 O   0  0  0  0  0  0  0  0  0  0  0  0
  146.9618  139.6272  153.7962 C   0  0  0  0  0  0  0  0  0  0  0  0
  148.3685  139.2133  154.2920 C   0  0  2  0  0  0  0  0  0  0  0  0
  148.2274  137.8631  155.0267 C   0  0  0  0  0  0  0  0  0  0  0  0
  148.7125  136.7624  154.4421 N   0  0  0  0  0  0  0  0  0  0  0  0
  147.6693  137.8176  156.1207 O   0  0  0  0  0  0  0  0  0  0  0  0
  150.5791  140.6569  156.8713 C   0  0  0  0  0  0  0  0  0  0  0  0
  149.6739  141.3546  157.6001 F   0  0  0  0  0  0  0  0  0  0  0  0
  152.7041  142.8537  159.7020 H   0  0  0  0  0  0  0  0  0  0  0  0
  151.3689  142.8978  158.5532 H   0  0  0  0  0  0  0  0  0  0  0  0
  153.0341  142.9097  157.9725 H   0  0  0  0  0  0  0  0  0  0  0  0
  153.3623  140.5840  158.8861 H   0  0  0  0  0  0  0  0  0  0  0  0
  151.7216  140.5733  159.4767 H   0  0  0  0  0  0  0  0  0  0  0  0
  153.1083  138.7210  154.8507 H   0  0  0  0  0  0  0  0  0  0  0  0
  149.2363  142.4110  155.0600 H   0  0  0  0  0  0  0  0  0  0  0  0
  149.5662  141.6140  153.5333 H   0  0  0  0  0  0  0  0  0  0  0  0
  146.7949  142.0356  154.7934 H   0  0  0  0  0  0  0  0  0  0  0  0
  147.4366  142.8539  153.3811 H   0  0  0  0  0  0  0  0  0  0  0  0
  146.2589  139.7089  154.6279 H   0  0  0  0  0  0  0  0  0  0  0  0
  146.5581  138.8740  153.1182 H   0  0  0  0  0  0  0  0  0  0  0  0
  148.9899  139.0436  153.4105 H   0  0  0  0  0  0  0  0  0  0  0  0
  148.6271  135.8686  154.9040 H   0  0  0  0  0  0  0  0  0  0  0  0
  149.1588  136.8299  153.5391 H   0  0  0  0  0  0  0  0  0  0  0  0
  1  2  1  0  0  0  0
  1 19  1  0  0  0  0
  1 20  1  0  0  0  0
  1 21  1  0  0  0  0
  2  3  1  0  0  0  0
  2 22  1  0  0  0  0
  2 23  1  0  0  0  0
  3 17  1  0  0  0  0
  3  4  2  0  0  0  0
  4  5  1  0  0  0  0
  5  6  2  0  0  0  0
  5 24  1  0  0  0  0
  6  7  1  0  0  0  0
  7  8  1  0  0  0  0
  7 17  2  0  0  0  0
  8 13  1  0  0  0  0
  8  9  1  0  0  0  0
  9 10  1  0  0  0  0
  9 25  1  0  0  0  0
  9 26  1  0  0  0  0
 10 11  1  0  0  0  0
 10 27  1  0  0  0  0
 10 28  1  0  0  0  0
 11 12  1  0  0  0  0
 12 13  1  0  0  0  0
 12 29  1  0  0  0  0
 12 30  1  0  0  0  0
 13 14  1  0  0  0  0
 13 31  1  0  0  0  0
 14 15  1  0  0  0  0
 14 16  2  0  0  0  0
 15 32  1  0  0  0  0
 15 33  1  0  0  0  0
 17 18  1  0  0  0  0
M  END
> <s_m_source_file>
AV-unprocessed.smi

> <i_m_source_file_index>
2488

> <i_lp_mmshare_version>
43012

> <i_f3d_flags>
0

> <s_epik_input>
W0NIM11bQ0gyXWMxbltjSF1uYyhjMUYpTjJbQ0gyXVtDSDJdT1tDSDJdW0NASF0yQyg9TylbTkgyXQ==

> <s_epik_cmdline>
J2VwaWtfcHl0aG9uJywgJy1waCcsICc3LjAnLCAnLXRuJywgJzgnLCAnLW1hJywgJzIwMCcsICctbWV0YWxfYmluZGluZycsICctaW1hZScsICc8aW5maWxlLm1hZT4nLCAnLW9tYWUnLCAnPG91dGZpbGUubWFlPic=

> <r_lp_tautomer_probability>
1

> <r_epik_Ionization_Penalty>
2.73136e-05

> <r_epik_Ionization_Penalty_Charging>
0

> <r_epik_Ionization_Penalty_Neutral>
2.73136e-05

> <r_epik_State_Penalty>
-0

> <r_epik_Charging_Adjusted_Penalty>
0

> <i_epik_Tot_Q>
0

> <i_epik_Tot_abs_Q>
0

> <r_epik_Metal_State_Penalty>
-0

> <b_epik_Metal_Only>
0

> <s_lp_Force_Field>
OPLS_2005

> <r_lp_Energy>
13.0675

> <b_lp_Chiralities_Consistent>
1

> <s_lp_Variant>
AV-unprocessed.smi:2488-2

> <Gold.Version>
5.8.1

> <Gold.Id.Protein>
6NUR|6NUR_protein|mol2

> <Gold.PLP.Fitness>
33.7605

> <Gold.PLP.PLP>
-27.1400

> <Gold.PLP.part.hbond>
-3.0000

> <Gold.PLP.part.metal>
0.0000

> <Gold.PLP.part.buried>
-2.8877

> <Gold.PLP.part.nonpolar>
-21.7594

> <Gold.PLP.part.repulsive>
0.3431

> <Gold.PLP.ligand.clash>
0.0000

> <Gold.PLP.ligand.torsion>
0.8613

> <Gold.PLP.Chemscore.Hbond>
2.7180

> <Gold.PLP.Chemscore.CHOScore>
0.0000

> <Gold.PLP.Chemscore.Metal>
0.0000

> <Gold.Chemscore.Hbonds>
donor molecule, donor type, donor heavy atom, donor atom, acceptor molecule, acceptor atom, score
      L1  H    15    33       P1  7948  0.82
      P1  H  7989  7998       L1     6  0.81
      P1  H  7997  8010       L1     4  1.00

> <Gold.PLP.Chemscore.Internal.Correction>
0.1891

> <Gold.Rescore>
     Score         DG    S(hbond)    S(metal)    S(lipo)     H(rot)  DE(clash)    DE(int)     intcor
     12.31     -13.23       1.83        0.00      54.55       1.86       0.10       0.82       ----

> <Gold.Chemscore.Fitness>
12.3110

> <Gold.Chemscore.DG>
-13.2309

> <Gold.Chemscore.ZeroCoef>
-5.4800

> <Gold.Chemscore.Hbond>
1.8339

> <Gold.Chemscore.Metal>
0.0000

> <Gold.Chemscore.Lipo>
54.5517

> <Gold.Chemscore.Internal_Hbond>
0.0000

> <Gold.Chemscore.DEClash>
0.1012

> <Gold.Chemscore.DEInternal>
0.8186

> <Gold.Chemscore.Rot>
1.8582

> <Gold.Chemscore.Internal.Correction>
   9.000000E+99

> <Gold.Chemscore.Hbonds>
donor molecule, donor type, donor heavy atom, donor atom, acceptor molecule, acceptor atom, score
      L1  H    15    33       P1  7948  0.81
      P1  H  7989  7998       L1     6  0.03
      P1  H  7997  8010       L1     4  0.34

> <Gold.Chemscore.Hbond.Weighted>
-6.1253

> <Gold.Chemscore.Metal.Weighted>
-0.0000

> <Gold.Chemscore.Lipo.Weighted>
-6.3825

> <Gold.Chemscore.Internal_Hbond.Weighted>
0.0000

> <Gold.Chemscore.DEClash.Weighted>
0.1012

> <Gold.Chemscore.DEInternal.Weighted>
0.8186

> <Gold.Chemscore.Rot.Weighted>
4.7570

> <Gold.Chemscore.Internal.Correction.Weighted>
   9.000000E+99

> <Gold.Protein.RotatedTorsions>
[ 6907 6896 6895 6894 ] final  155.01 input  -60.11 | X-H torsion
[ 7974 7965 7964 7962 ] final -127.08 input  175.53 | X-H torsion
[ 8008 7997 7996 7995 ] final   80.26 input   59.86 | X-H torsion
[ 10167 10162 10161 10158 ] final    7.95 input  -65.29 | X-H torsion
[ 10718 10713 10712 10709 ] final -142.33 input   66.30 | X-H torsion
[ 10763 10752 10751 10750 ] final  162.56 input  -60.55 | X-H torsion
[ 11005 11000 10999 10996 ] final   95.68 input  -57.11 | X-H torsion

> <Gold.Protein.ActiveResidues>
 VAL166  LYS551  ARG553  GLY616  TRP617  ASP618  TYR619  PRO620  LYS621  CYS622 
 ASP623  PHE694  ASN695  SER759  ASP760  ASP761  ALA762  ILE779  LEU786  VAL792 
 PHE793  MET794  SER795  GLU796  ALA797  LYS798  CYS799  TRP800  GLU811  SER814 

> <Gold.Protein.RotatedAtoms>
  152.0503  133.4016  159.4374 H   0  0  0  0  0  0  0  0  0  0  0  0  # atno 6907 bound_to 6896
  150.6870  134.3315  159.4838 H   0  0  0  0  0  0  0  0  0  0  0  0  # atno 6908 bound_to 6896
  152.1124  134.9264  160.0617 H   0  0  0  0  0  0  0  0  0  0  0  0  # atno 6909 bound_to 6896
  144.9807  140.7638  143.4614 H   0  0  0  0  0  0  0  0  0  0  0  0  # atno 7974 bound_to 7965
  155.8810  140.3444  155.5888 H   0  0  0  0  0  0  0  0  0  0  0  0  # atno 8008 bound_to 7997
  155.7719  140.0846  157.2122 H   0  0  0  0  0  0  0  0  0  0  0  0  # atno 8009 bound_to 7997
  154.4024  140.1516  156.2939 H   0  0  0  0  0  0  0  0  0  0  0  0  # atno 8010 bound_to 7997
  140.6342  143.7924  150.7337 H   0  0  0  0  0  0  0  0  0  0  0  0  # atno 10167 bound_to 10162
  156.3446  130.7655  151.1798 H   0  0  0  0  0  0  0  0  0  0  0  0  # atno 10718 bound_to 10713
  154.2803  135.2763  155.2700 H   0  0  0  0  0  0  0  0  0  0  0  0  # atno 10763 bound_to 10752
  154.5224  135.5752  153.6695 H   0  0  0  0  0  0  0  0  0  0  0  0  # atno 10764 bound_to 10752
  152.9930  135.6207  154.2962 H   0  0  0  0  0  0  0  0  0  0  0  0  # atno 10765 bound_to 10752
  139.8787  134.8912  156.4047 H   0  0  0  0  0  0  0  0  0  0  0  0  # atno 11005 bound_to 11000
  145.2424  139.2066  143.4985 LP  0  0  0  0  0  0  0  0  0  0  0  0  # atno 17320 bound_to 7965
  146.3407  140.2322  142.8593 LP  0  0  0  0  0  0  0  0  0  0  0  0  # atno 17321 bound_to 7965
  140.1542  143.4331  152.2111 LP  0  0  0  0  0  0  0  0  0  0  0  0  # atno 17342 bound_to 10162
  139.5554  144.7368  151.4311 LP  0  0  0  0  0  0  0  0  0  0  0  0  # atno 17343 bound_to 10162
  157.7452  131.0445  150.4795 LP  0  0  0  0  0  0  0  0  0  0  0  0  # atno 17370 bound_to 10713
  156.4981  130.4111  149.6368 LP  0  0  0  0  0  0  0  0  0  0  0  0  # atno 17371 bound_to 10713
  140.9242  133.7624  155.9944 LP  0  0  0  0  0  0  0  0  0  0  0  0  # atno 17394 bound_to 11000
  140.8405  134.3072  157.5315 LP  0  0  0  0  0  0  0  0  0  0  0  0  # atno 17395 bound_to 11000

$$$$
