AV-unprocessed.smi:232|AV-procd|sdf|1772|dock8
  -GOLD-   2262020313D 1   1.00000     0.00000
 Structure written by MMmdl.
 52 55  0  0  0  0  0  0  0  0  1 V2000
  151.3162  144.0130  159.0715 C   0  0  0  0  0  0  0  0  0  0  0  0
  151.2303  142.4818  159.0987 C   0  0  0  0  0  0  0  0  0  0  0  0
  152.6089  141.7983  159.2225 C   0  0  1  0  0  0  0  0  0  0  0  0
  153.4342  142.2804  160.4261 C   0  0  0  0  0  0  0  0  0  0  0  0
  154.2237  141.0487  160.8853 C   0  0  0  0  0  0  0  0  0  0  0  0
  153.8359  139.9507  159.8899 C   0  0  1  0  0  0  0  0  0  0  0  0
  153.8438  138.5393  160.4987 C   0  0  0  0  0  0  0  0  0  0  0  0
  152.5246  140.3520  159.3931 N   0  0  0  0  0  0  0  0  0  0  0  0
  152.0556  139.6781  158.3161 C   0  0  0  0  0  0  0  0  0  0  0  0
  152.3518  140.0945  157.0561 N   0  0  0  0  0  0  0  0  0  0  0  0
  151.8693  139.4283  156.0023 C   0  0  0  0  0  0  0  0  0  0  0  0
  151.0854  138.3474  155.9842 N   0  0  0  0  0  0  0  0  0  0  0  0
  150.7865  137.9317  157.2488 C   0  0  0  0  0  0  0  0  0  0  0  0
  151.2280  138.5343  158.4592 C   0  0  0  0  0  0  0  0  0  0  0  0
  150.7241  137.8401  159.5516 N   0  0  0  0  0  0  0  0  0  0  0  0
  150.0185  136.8809  159.0168 C   0  0  0  0  0  0  0  0  0  0  0  0
  149.9995  136.8630  157.6404 N   0  0  0  0  0  0  0  0  0  0  0  0
  149.2893  135.9178  156.7974 C   0  0  0  0  0  0  0  0  0  0  0  0
  150.2252  134.8454  156.2049 C   0  0  1  0  0  0  0  0  0  0  0  0
  151.0555  134.3332  157.2301 O   0  0  0  0  0  0  0  0  0  0  0  0
  149.4505  133.6814  155.5591 C   0  0  2  0  0  0  0  0  0  0  0  0
  150.3394  132.5991  154.9404 C   0  0  0  0  0  0  0  0  0  0  0  0
  149.4275  132.0135  153.8878 C   0  0  0  0  0  0  0  0  0  0  0  0
  148.7248  133.2622  153.3676 C   0  0  0  0  0  0  0  0  0  0  0  0
  148.6521  134.1562  154.4750 O   0  0  0  0  0  0  0  0  0  0  0  0
  150.3266  144.4534  158.9499 H   0  0  0  0  0  0  0  0  0  0  0  0
  151.9366  144.3572  158.2436 H   0  0  0  0  0  0  0  0  0  0  0  0
  151.7399  144.4065  159.9956 H   0  0  0  0  0  0  0  0  0  0  0  0
  150.5856  142.1656  159.9197 H   0  0  0  0  0  0  0  0  0  0  0  0
  150.7363  142.1565  158.1826 H   0  0  0  0  0  0  0  0  0  0  0  0
  153.1805  141.9955  158.3133 H   0  0  0  0  0  0  0  0  0  0  0  0
  154.0861  143.1109  160.1538 H   0  0  0  0  0  0  0  0  0  0  0  0
  152.7874  142.6196  161.2364 H   0  0  0  0  0  0  0  0  0  0  0  0
  155.3000  141.2226  160.8951 H   0  0  0  0  0  0  0  0  0  0  0  0
  153.9218  140.7798  161.8986 H   0  0  0  0  0  0  0  0  0  0  0  0
  154.5513  139.9811  159.0664 H   0  0  0  0  0  0  0  0  0  0  0  0
  154.8263  138.2966  160.9044 H   0  0  0  0  0  0  0  0  0  0  0  0
  153.6017  137.7830  159.7513 H   0  0  0  0  0  0  0  0  0  0  0  0
  153.1176  138.4527  161.3077 H   0  0  0  0  0  0  0  0  0  0  0  0
  152.1511  139.8178  155.0353 H   0  0  0  0  0  0  0  0  0  0  0  0
  149.4842  136.1571  159.6151 H   0  0  0  0  0  0  0  0  0  0  0  0
  148.4926  135.4544  157.3810 H   0  0  0  0  0  0  0  0  0  0  0  0
  148.8027  136.4785  155.9985 H   0  0  0  0  0  0  0  0  0  0  0  0
  150.8682  135.3061  155.4536 H   0  0  0  0  0  0  0  0  0  0  0  0
  151.9521  134.5536  157.0284 H   0  0  0  0  0  0  0  0  0  0  0  0
  148.7796  133.2210  156.2866 H   0  0  0  0  0  0  0  0  0  0  0  0
  151.2159  133.0432  154.4660 H   0  0  0  0  0  0  0  0  0  0  0  0
  150.6818  131.8621  155.6675 H   0  0  0  0  0  0  0  0  0  0  0  0
  149.9614  131.4673  153.1098 H   0  0  0  0  0  0  0  0  0  0  0  0
  148.7059  131.3382  154.3501 H   0  0  0  0  0  0  0  0  0  0  0  0
  149.3180  133.7328  152.5825 H   0  0  0  0  0  0  0  0  0  0  0  0
  147.7362  133.0460  152.9619 H   0  0  0  0  0  0  0  0  0  0  0  0
  1  2  1  0  0  0  0
  1 26  1  0  0  0  0
  1 27  1  0  0  0  0
  1 28  1  0  0  0  0
  2  3  1  0  0  0  0
  2 29  1  0  0  0  0
  2 30  1  0  0  0  0
  3  8  1  0  0  0  0
  3  4  1  0  0  0  0
  3 31  1  0  0  0  0
  4  5  1  0  0  0  0
  4 32  1  0  0  0  0
  4 33  1  0  0  0  0
  5  6  1  0  0  0  0
  5 34  1  0  0  0  0
  5 35  1  0  0  0  0
  6  7  1  0  0  0  0
  6  8  1  0  0  0  0
  6 36  1  0  0  0  0
  7 37  1  0  0  0  0
  7 38  1  0  0  0  0
  7 39  1  0  0  0  0
  8  9  1  0  0  0  0
  9 14  1  0  0  0  0
  9 10  2  0  0  0  0
 10 11  1  0  0  0  0
 11 12  2  0  0  0  0
 11 40  1  0  0  0  0
 12 13  1  0  0  0  0
 13 17  1  0  0  0  0
 13 14  2  0  0  0  0
 14 15  1  0  0  0  0
 15 16  2  0  0  0  0
 16 17  1  0  0  0  0
 16 41  1  0  0  0  0
 17 18  1  0  0  0  0
 18 19  1  0  0  0  0
 18 42  1  0  0  0  0
 18 43  1  0  0  0  0
 19 20  1  0  0  0  0
 19 21  1  0  0  0  0
 19 44  1  0  0  0  0
 20 45  1  0  0  0  0
 21 25  1  0  0  0  0
 21 22  1  0  0  0  0
 21 46  1  0  0  0  0
 22 23  1  0  0  0  0
 22 47  1  0  0  0  0
 22 48  1  0  0  0  0
 23 24  1  0  0  0  0
 23 49  1  0  0  0  0
 23 50  1  0  0  0  0
 24 25  1  0  0  0  0
 24 51  1  0  0  0  0
 24 52  1  0  0  0  0
M  END
> <s_m_source_file>
AV-unprocessed.smi

> <i_m_source_file_index>
232

> <i_lp_mmshare_version>
43012

> <i_f3d_flags>
0

> <s_epik_input>
W0NIM11bQ0gyXVtDQEBIXTFbQ0gyXVtDSDJdW0NAQEhdKFtDSDNdKU4xYyhuW2NIXW4yKWMoYzIzKW5bY0hdbjNbQ0gyXVtDQEhdKFtPSF0pW0NAQEhdNFtDSDJdW0NIMl1bQ0gyXU80

> <s_epik_cmdline>
J2VwaWtfcHl0aG9uJywgJy1waCcsICc3LjAnLCAnLXRuJywgJzgnLCAnLW1hJywgJzIwMCcsICctbWV0YWxfYmluZGluZycsICctaW1hZScsICc8aW5maWxlLm1hZT4nLCAnLW9tYWUnLCAnPG91dGZpbGUubWFlPic=

> <r_lp_tautomer_probability>
1

> <r_epik_Ionization_Penalty>
0.00258048

> <r_epik_Ionization_Penalty_Charging>
0

> <r_epik_Ionization_Penalty_Neutral>
0.00258048

> <r_epik_State_Penalty>
0.00168551

> <r_epik_Charging_Adjusted_Penalty>
0.00168551

> <i_epik_Tot_Q>
0

> <i_epik_Tot_abs_Q>
0

> <r_epik_Metal_State_Penalty>
-0

> <b_epik_Metal_Only>
0

> <s_lp_Force_Field>
OPLS_2005

> <r_lp_Energy>
51.197

> <b_lp_Chiralities_Consistent>
1

> <s_lp_Variant>
AV-unprocessed.smi:232-6

> <Gold.Version>
5.8.1

> <Gold.Id.Protein>
6NUR|6NUR_protein|mol2

> <Gold.PLP.Fitness>
43.9701

> <Gold.PLP.PLP>
-41.7095

> <Gold.PLP.part.hbond>
-3.0000

> <Gold.PLP.part.metal>
0.0000

> <Gold.PLP.part.buried>
-6.1571

> <Gold.PLP.part.nonpolar>
-33.6272

> <Gold.PLP.part.repulsive>
0.1331

> <Gold.PLP.ligand.clash>
0.0000

> <Gold.PLP.ligand.torsion>
1.0530

> <Gold.PLP.Chemscore.Hbond>
1.4408

> <Gold.PLP.Chemscore.CHOScore>
0.0000

> <Gold.PLP.Chemscore.Metal>
0.0000

> <Gold.Chemscore.Hbonds>
donor molecule, donor type, donor heavy atom, donor atom, acceptor molecule, acceptor atom, score
      P1  H  6896  6909       L1    20  0.31
      P1  H  7997  8008       L1    10  0.93

> <Gold.PLP.Chemscore.Internal.Correction>
0.0441

> <Gold.Rescore>
     Score         DG    S(hbond)    S(metal)    S(lipo)     H(rot)  DE(clash)    DE(int)     intcor
     12.24     -13.36       0.85        0.00      96.21       2.43       0.03       1.09       ----

> <Gold.Chemscore.Fitness>
12.2416

> <Gold.Chemscore.DG>
-13.3650

> <Gold.Chemscore.ZeroCoef>
-5.4800

> <Gold.Chemscore.Hbond>
0.8499

> <Gold.Chemscore.Metal>
0.0000

> <Gold.Chemscore.Lipo>
96.2132

> <Gold.Chemscore.Internal_Hbond>
0.0000

> <Gold.Chemscore.DEClash>
0.0300

> <Gold.Chemscore.DEInternal>
1.0934

> <Gold.Chemscore.Rot>
2.4260

> <Gold.Chemscore.Internal.Correction>
   9.000000E+99

> <Gold.Chemscore.Hbonds>
donor molecule, donor type, donor heavy atom, donor atom, acceptor molecule, acceptor atom, score
      P1  H  6896  6909       L1    20  0.24
      P1  H  7997  8008       L1    10  0.20

> <Gold.Chemscore.Hbond.Weighted>
-2.8387

> <Gold.Chemscore.Metal.Weighted>
-0.0000

> <Gold.Chemscore.Lipo.Weighted>
-11.2569

> <Gold.Chemscore.Internal_Hbond.Weighted>
0.0000

> <Gold.Chemscore.DEClash.Weighted>
0.0300

> <Gold.Chemscore.DEInternal.Weighted>
1.0934

> <Gold.Chemscore.Rot.Weighted>
6.2107

> <Gold.Chemscore.Internal.Correction.Weighted>
   9.000000E+99

> <Gold.Protein.RotatedTorsions>
[ 6907 6896 6895 6894 ] final   -8.38 input  -60.11 | X-H torsion
[ 7974 7965 7964 7962 ] final -118.85 input  175.53 | X-H torsion
[ 8008 7997 7996 7995 ] final  -57.79 input   59.86 | X-H torsion
[ 10167 10162 10161 10158 ] final  -46.55 input  -65.29 | X-H torsion
[ 10718 10713 10712 10709 ] final  127.49 input   66.30 | X-H torsion
[ 10763 10752 10751 10750 ] final  170.98 input  -60.55 | X-H torsion
[ 11005 11000 10999 10996 ] final  -63.89 input  -57.11 | X-H torsion

> <Gold.Protein.ActiveResidues>
 VAL166  LYS551  ARG553  GLY616  TRP617  ASP618  TYR619  PRO620  LYS621  CYS622 
 ASP623  PHE694  ASN695  SER759  ASP760  ASP761  ALA762  ILE779  LEU786  VAL792 
 PHE793  MET794  SER795  GLU796  ALA797  LYS798  CYS799  TRP800  GLU811  SER814 

> <Gold.Protein.RotatedAtoms>
  151.4345  135.1013  159.9651 H   0  0  0  0  0  0  0  0  0  0  0  0  # atno 6907 bound_to 6896
  152.4944  133.8586  159.7249 H   0  0  0  0  0  0  0  0  0  0  0  0  # atno 6908 bound_to 6896
  150.9131  133.6914  159.2877 H   0  0  0  0  0  0  0  0  0  0  0  0  # atno 6909 bound_to 6896
  145.0692  140.8347  143.4106 H   0  0  0  0  0  0  0  0  0  0  0  0  # atno 7974 bound_to 7965
  154.4282  140.1099  156.5854 H   0  0  0  0  0  0  0  0  0  0  0  0  # atno 8008 bound_to 7997
  155.6068  140.3494  155.4591 H   0  0  0  0  0  0  0  0  0  0  0  0  # atno 8009 bound_to 7997
  156.0130  140.1223  157.0424 H   0  0  0  0  0  0  0  0  0  0  0  0  # atno 8010 bound_to 7997
  140.6813  143.2826  151.3798 H   0  0  0  0  0  0  0  0  0  0  0  0  # atno 10167 bound_to 10162
  157.5328  131.1098  150.8982 H   0  0  0  0  0  0  0  0  0  0  0  0  # atno 10718 bound_to 10713
  154.4054  135.2755  155.2071 H   0  0  0  0  0  0  0  0  0  0  0  0  # atno 10763 bound_to 10752
  154.4079  135.6029  153.5939 H   0  0  0  0  0  0  0  0  0  0  0  0  # atno 10764 bound_to 10752
  152.9831  135.5942  154.4327 H   0  0  0  0  0  0  0  0  0  0  0  0  # atno 10765 bound_to 10752
  141.1408  133.6658  156.5750 H   0  0  0  0  0  0  0  0  0  0  0  0  # atno 11005 bound_to 11000
  145.1313  139.2630  143.5538 LP  0  0  0  0  0  0  0  0  0  0  0  0  # atno 17320 bound_to 7965
  146.3528  140.0965  142.8610 LP  0  0  0  0  0  0  0  0  0  0  0  0  # atno 17321 bound_to 7965
  139.6137  144.1046  152.2324 LP  0  0  0  0  0  0  0  0  0  0  0  0  # atno 17342 bound_to 10162
  140.0468  144.5964  150.7367 LP  0  0  0  0  0  0  0  0  0  0  0  0  # atno 17343 bound_to 10162
  156.9558  130.5436  149.5284 LP  0  0  0  0  0  0  0  0  0  0  0  0  # atno 17370 bound_to 10713
  156.0436  130.5515  150.8828 LP  0  0  0  0  0  0  0  0  0  0  0  0  # atno 17371 bound_to 10713
  140.3883  134.7463  157.4705 LP  0  0  0  0  0  0  0  0  0  0  0  0  # atno 17394 bound_to 11000
  140.0585  134.6029  155.8776 LP  0  0  0  0  0  0  0  0  0  0  0  0  # atno 17395 bound_to 11000

$$$$
