AV-unprocessed.smi:2959|AV-procd|sdf|11309|dock1
  -GOLD-   2272016203D 1   1.00000     0.00000
 Structure written by MMmdl.
 45 47  0  0  0  0  0  0  0  0  1 V2000
  148.8621  135.1688  157.0409 C   0  0  0  0  0  0  0  0  0  0  0  0
  149.5196  136.2062  157.9457 C   0  0  0  0  0  0  0  0  0  0  0  0
  149.4709  136.0750  159.1680 O   0  0  0  0  0  0  0  0  0  0  0  0
  150.1346  137.2287  157.3360 N   0  0  0  0  0  0  0  0  0  0  0  0
  150.8148  138.3193  158.0238 C   0  0  0  0  0  0  0  0  0  0  0  0
  151.4411  139.3222  157.0359 C   0  0  0  0  0  0  0  0  0  0  0  0
  151.6120  140.7047  157.6043 C   0  0  0  0  0  0  0  0  0  0  0  0
  151.1458  141.7738  156.9560 N   0  0  0  0  0  0  0  0  0  0  0  0
  151.5089  142.8183  157.7808 C   0  0  0  0  0  0  0  0  0  0  0  0
  151.3162  144.2109  157.6379 C   0  0  0  0  0  0  0  0  0  0  0  0
  151.7804  145.1009  158.6283 C   0  0  0  0  0  0  0  0  0  0  0  0
  152.4411  144.6118  159.7738 C   0  0  0  0  0  0  0  0  0  0  0  0
  152.6411  143.2274  159.9358 C   0  0  0  0  0  0  0  0  0  0  0  0
  152.1772  142.3426  158.9432 C   0  0  0  0  0  0  0  0  0  0  0  0
  152.2055  140.9577  158.8017 N   0  0  0  0  0  0  0  0  0  0  0  0
  152.7584  140.0283  159.7793 C   0  0  0  0  0  0  0  0  0  0  0  0
  154.2653  140.2223  160.0007 C   0  0  0  0  0  0  0  0  0  0  0  0
  154.6335  139.7047  161.2708 O   0  0  0  0  0  0  0  0  0  0  0  0
  154.5719  140.5453  162.3612 C   0  0  0  0  0  0  0  0  0  0  0  0
  153.6669  141.6245  162.2872 C   0  0  0  0  0  0  0  0  0  0  0  0
  153.5281  142.5249  163.3604 C   0  0  0  0  0  0  0  0  0  0  0  0
  154.2995  142.3547  164.5245 C   0  0  0  0  0  0  0  0  0  0  0  0
  155.2090  141.2843  164.6112 C   0  0  0  0  0  0  0  0  0  0  0  0
  155.3469  140.3831  163.5373 C   0  0  0  0  0  0  0  0  0  0  0  0
  147.8366  134.9838  157.3611 H   0  0  0  0  0  0  0  0  0  0  0  0
  149.4114  134.2284  157.0873 H   0  0  0  0  0  0  0  0  0  0  0  0
  148.8402  135.5006  156.0020 H   0  0  0  0  0  0  0  0  0  0  0  0
  150.1316  137.2542  156.3262 H   0  0  0  0  0  0  0  0  0  0  0  0
  150.0909  138.8373  158.6552 H   0  0  0  0  0  0  0  0  0  0  0  0
  151.5823  137.9170  158.6862 H   0  0  0  0  0  0  0  0  0  0  0  0
  152.4183  138.9586  156.7170 H   0  0  0  0  0  0  0  0  0  0  0  0
  150.8271  139.3509  156.1384 H   0  0  0  0  0  0  0  0  0  0  0  0
  150.8104  144.5948  156.7643 H   0  0  0  0  0  0  0  0  0  0  0  0
  151.6282  146.1637  158.5088 H   0  0  0  0  0  0  0  0  0  0  0  0
  152.7930  145.2996  160.5286 H   0  0  0  0  0  0  0  0  0  0  0  0
  153.1463  142.8513  160.8129 H   0  0  0  0  0  0  0  0  0  0  0  0
  152.2373  140.1890  160.7235 H   0  0  0  0  0  0  0  0  0  0  0  0
  152.5283  139.0025  159.4933 H   0  0  0  0  0  0  0  0  0  0  0  0
  154.8224  139.7275  159.2035 H   0  0  0  0  0  0  0  0  0  0  0  0
  154.4977  141.2876  159.9611 H   0  0  0  0  0  0  0  0  0  0  0  0
  153.0682  141.7609  161.3985 H   0  0  0  0  0  0  0  0  0  0  0  0
  152.8283  143.3446  163.2900 H   0  0  0  0  0  0  0  0  0  0  0  0
  154.1939  143.0438  165.3495 H   0  0  0  0  0  0  0  0  0  0  0  0
  155.8017  141.1525  165.5044 H   0  0  0  0  0  0  0  0  0  0  0  0
  156.0511  139.5721  163.6430 H   0  0  0  0  0  0  0  0  0  0  0  0
  1  2  1  0  0  0  0
  1 25  1  0  0  0  0
  1 26  1  0  0  0  0
  1 27  1  0  0  0  0
  2  3  2  0  0  0  0
  2  4  1  0  0  0  0
  4  5  1  0  0  0  0
  4 28  1  0  0  0  0
  5  6  1  0  0  0  0
  5 29  1  0  0  0  0
  5 30  1  0  0  0  0
  6  7  1  0  0  0  0
  6 31  1  0  0  0  0
  6 32  1  0  0  0  0
  7 15  1  0  0  0  0
  7  8  2  0  0  0  0
  8  9  1  0  0  0  0
  9 14  2  0  0  0  0
  9 10  1  0  0  0  0
 10 11  2  0  0  0  0
 10 33  1  0  0  0  0
 11 12  1  0  0  0  0
 11 34  1  0  0  0  0
 12 13  2  0  0  0  0
 12 35  1  0  0  0  0
 13 14  1  0  0  0  0
 13 36  1  0  0  0  0
 14 15  1  0  0  0  0
 15 16  1  0  0  0  0
 16 17  1  0  0  0  0
 16 37  1  0  0  0  0
 16 38  1  0  0  0  0
 17 18  1  0  0  0  0
 17 39  1  0  0  0  0
 17 40  1  0  0  0  0
 18 19  1  0  0  0  0
 19 24  1  0  0  0  0
 19 20  2  0  0  0  0
 20 21  1  0  0  0  0
 20 41  1  0  0  0  0
 21 22  2  0  0  0  0
 21 42  1  0  0  0  0
 22 23  1  0  0  0  0
 22 43  1  0  0  0  0
 23 24  2  0  0  0  0
 23 44  1  0  0  0  0
 24 45  1  0  0  0  0
M  END
> <s_m_source_file>
AV-unprocessed.smi

> <i_m_source_file_index>
2959

> <i_lp_mmshare_version>
43012

> <i_f3d_flags>
0

> <s_epik_input>
W0NIM11DKD1PKVtOSF1bQ0gyXVtDSDJdYyhuMSluKGMoYzEyKVtjSF1bY0hdW2NIXVtjSF0yKVtDSDJdW0NIMl1PYzNbY0hdW2NIXVtjSF1bY0hdW2NIXTM=

> <s_epik_cmdline>
J2VwaWtfcHl0aG9uJywgJy1waCcsICc3LjAnLCAnLXRuJywgJzgnLCAnLW1hJywgJzIwMCcsICctbWV0YWxfYmluZGluZycsICctaW1hZScsICc8aW5maWxlLm1hZT4nLCAnLW9tYWUnLCAnPG91dGZpbGUubWFlPic=

> <r_lp_tautomer_probability>
1

> <r_epik_Ionization_Penalty>
0.11099

> <r_epik_Ionization_Penalty_Charging>
0

> <r_epik_Ionization_Penalty_Neutral>
0.11099

> <r_epik_State_Penalty>
0.100724

> <r_epik_Charging_Adjusted_Penalty>
0.100724

> <i_epik_Tot_Q>
0

> <i_epik_Tot_abs_Q>
0

> <r_epik_Metal_State_Penalty>
0.0847

> <b_epik_Metal_Only>
0

> <s_lp_Force_Field>
OPLS_2005

> <r_lp_Energy>
14.3457

> <b_lp_Chiralities_Consistent>
1

> <s_lp_Variant>
AV-unprocessed.smi:2959-1

> <Gold.Version>
5.8.1

> <Gold.Id.Protein>
6NUR|6NUR_protein|mol2

> <Gold.PLP.Fitness>
49.3388

> <Gold.PLP.PLP>
-47.9142

> <Gold.PLP.part.hbond>
-1.0000

> <Gold.PLP.part.metal>
0.0000

> <Gold.PLP.part.buried>
-1.5338

> <Gold.PLP.part.nonpolar>
-44.2472

> <Gold.PLP.part.repulsive>
0.0973

> <Gold.PLP.ligand.clash>
0.0673

> <Gold.PLP.ligand.torsion>
0.8754

> <Gold.PLP.Chemscore.Hbond>
1.0000

> <Gold.PLP.Chemscore.CHOScore>
0.0000

> <Gold.PLP.Chemscore.Metal>
0.0000

> <Gold.Chemscore.Hbonds>
donor molecule, donor type, donor heavy atom, donor atom, acceptor molecule, acceptor atom, score
      P1  H  6896  6909       L1     3  1.00

> <Gold.PLP.Chemscore.Internal.Correction>
0.2428

> <Gold.Rescore>
     Score         DG    S(hbond)    S(metal)    S(lipo)     H(rot)  DE(clash)    DE(int)     intcor
     19.89     -20.78       0.99        0.00     149.13       2.14       0.04       0.86       ----

> <Gold.Chemscore.Fitness>
19.8862

> <Gold.Chemscore.DG>
-20.7837

> <Gold.Chemscore.ZeroCoef>
-5.4800

> <Gold.Chemscore.Hbond>
0.9947

> <Gold.Chemscore.Metal>
0.0000

> <Gold.Chemscore.Lipo>
149.1320

> <Gold.Chemscore.Internal_Hbond>
0.0000

> <Gold.Chemscore.DEClash>
0.0372

> <Gold.Chemscore.DEInternal>
0.8603

> <Gold.Chemscore.Rot>
2.1356

> <Gold.Chemscore.Internal.Correction>
   9.000000E+99

> <Gold.Chemscore.Hbonds>
donor molecule, donor type, donor heavy atom, donor atom, acceptor molecule, acceptor atom, score
      P1  H  6896  6909       L1     3  0.65

> <Gold.Chemscore.Hbond.Weighted>
-3.3224

> <Gold.Chemscore.Metal.Weighted>
-0.0000

> <Gold.Chemscore.Lipo.Weighted>
-17.4484

> <Gold.Chemscore.Internal_Hbond.Weighted>
0.0000

> <Gold.Chemscore.DEClash.Weighted>
0.0372

> <Gold.Chemscore.DEInternal.Weighted>
0.8603

> <Gold.Chemscore.Rot.Weighted>
5.4671

> <Gold.Chemscore.Internal.Correction.Weighted>
   9.000000E+99

> <Gold.Protein.RotatedTorsions>
[ 6907 6896 6895 6894 ] final   63.35 input  -60.11 | X-H torsion
[ 7974 7965 7964 7962 ] final  -82.19 input  175.53 | X-H torsion
[ 8008 7997 7996 7995 ] final -121.78 input   59.86 | X-H torsion
[ 10167 10162 10161 10158 ] final  -38.59 input  -65.29 | X-H torsion
[ 10718 10713 10712 10709 ] final   70.79 input   66.30 | X-H torsion
[ 10763 10752 10751 10750 ] final   48.56 input  -60.55 | X-H torsion
[ 11005 11000 10999 10996 ] final   82.28 input  -57.11 | X-H torsion

> <Gold.Protein.ActiveResidues>
 VAL166  LYS551  ARG553  GLY616  TRP617  ASP618  TYR619  PRO620  LYS621  CYS622 
 ASP623  PHE694  ASN695  SER759  ASP760  ASP761  ALA762  ILE779  LEU786  VAL792 
 PHE793  MET794  SER795  GLU796  ALA797  LYS798  CYS799  TRP800  GLU811  SER814 

> <Gold.Protein.RotatedAtoms>
  152.4246  134.5893  159.9969 H   0  0  0  0  0  0  0  0  0  0  0  0  # atno 6907 bound_to 6896
  151.6033  133.3348  159.3060 H   0  0  0  0  0  0  0  0  0  0  0  0  # atno 6908 bound_to 6896
  150.8135  134.7340  159.6774 H   0  0  0  0  0  0  0  0  0  0  0  0  # atno 6909 bound_to 6896
  145.5366  140.9515  143.1574 H   0  0  0  0  0  0  0  0  0  0  0  0  # atno 7974 bound_to 7965
  155.1536  140.0404  157.2826 H   0  0  0  0  0  0  0  0  0  0  0  0  # atno 8008 bound_to 7997
  154.6387  140.2541  155.7321 H   0  0  0  0  0  0  0  0  0  0  0  0  # atno 8009 bound_to 7997
  156.2521  140.2860  156.0770 H   0  0  0  0  0  0  0  0  0  0  0  0  # atno 8010 bound_to 7997
  140.7088  143.3267  151.2663 H   0  0  0  0  0  0  0  0  0  0  0  0  # atno 10167 bound_to 10162
  157.6418  130.9495  150.0699 H   0  0  0  0  0  0  0  0  0  0  0  0  # atno 10718 bound_to 10713
  152.9791  135.5940  154.3946 H   0  0  0  0  0  0  0  0  0  0  0  0  # atno 10763 bound_to 10752
  154.3598  135.2767  155.2328 H   0  0  0  0  0  0  0  0  0  0  0  0  # atno 10764 bound_to 10752
  154.4331  135.6031  153.6136 H   0  0  0  0  0  0  0  0  0  0  0  0  # atno 10765 bound_to 10752
  139.9069  134.8059  156.2153 H   0  0  0  0  0  0  0  0  0  0  0  0  # atno 11005 bound_to 11000
  144.7598  139.6983  143.7239 LP  0  0  0  0  0  0  0  0  0  0  0  0  # atno 17320 bound_to 7965
  146.2009  139.5303  142.9744 LP  0  0  0  0  0  0  0  0  0  0  0  0  # atno 17321 bound_to 7965
  139.6737  143.9974  152.2768 LP  0  0  0  0  0  0  0  0  0  0  0  0  # atno 17342 bound_to 10162
  139.9582  144.6576  150.8106 LP  0  0  0  0  0  0  0  0  0  0  0  0  # atno 17343 bound_to 10162
  156.1707  130.3646  149.9170 LP  0  0  0  0  0  0  0  0  0  0  0  0  # atno 17370 bound_to 10713
  156.7146  130.8983  151.3612 LP  0  0  0  0  0  0  0  0  0  0  0  0  # atno 17371 bound_to 10713
  141.0439  133.6923  156.1648 LP  0  0  0  0  0  0  0  0  0  0  0  0  # atno 17394 bound_to 11000
  140.6913  134.4663  157.5588 LP  0  0  0  0  0  0  0  0  0  0  0  0  # atno 17395 bound_to 11000

$$$$
