AV-unprocessed.smi:261|AV-procd|sdf|1990|dock9
  -GOLD-   2262021173D 1   1.00000     0.00000
 Structure written by MMmdl.
 51 54  0  0  0  0  0  0  0  0  1 V2000
  145.5496  132.7654  161.8105 C   0  0  0  0  0  0  0  0  0  0  0  0
  145.8458  134.0374  162.3639 O   0  0  0  0  0  0  0  0  0  0  0  0
  147.2339  134.3478  162.3911 C   0  0  2  0  0  0  0  0  0  0  0  0
  147.4955  135.7990  162.8166 C   0  0  0  0  0  0  0  0  0  0  0  0
  147.3118  136.6286  161.5353 C   0  0  2  0  0  0  0  0  0  0  0  0
  145.8627  137.1421  161.3943 C   0  0  0  0  0  0  0  0  0  0  0  0
  144.8579  136.2603  161.4334 N   0  0  0  0  0  0  0  0  0  0  0  0
  145.6563  138.3434  161.2377 O   0  0  0  0  0  0  0  0  0  0  0  0
  147.7266  135.6993  160.4832 N   0  0  0  0  0  0  0  0  0  0  0  0
  148.1521  136.0569  159.2393 C   0  0  0  0  0  0  0  0  0  0  0  0
  149.0256  135.2285  158.6070 N   0  0  0  0  0  0  0  0  0  0  0  0
  149.4807  135.5161  157.3851 C   0  0  0  0  0  0  0  0  0  0  0  0
  149.1966  136.5672  156.6169 N   0  0  0  0  0  0  0  0  0  0  0  0
  148.3207  137.4066  157.2376 C   0  0  0  0  0  0  0  0  0  0  0  0
  147.7522  137.2336  158.5340 C   0  0  0  0  0  0  0  0  0  0  0  0
  146.9042  138.3025  158.8078 N   0  0  0  0  0  0  0  0  0  0  0  0
  146.9692  139.0569  157.7463 C   0  0  0  0  0  0  0  0  0  0  0  0
  147.8039  138.5959  156.7562 N   0  0  0  0  0  0  0  0  0  0  0  0
  148.0766  139.2333  155.4810 C   0  0  0  0  0  0  0  0  0  0  0  0
  149.1699  138.5119  154.6642 C   0  0  1  0  0  0  0  0  0  0  0  0
  148.7909  138.5809  153.3042 O   0  0  0  0  0  0  0  0  0  0  0  0
  150.5865  139.1074  154.8259 C   0  0  2  0  0  0  0  0  0  0  0  0
  151.7049  138.2612  154.2134 C   0  0  0  0  0  0  0  0  0  0  0  0
  152.9424  138.6760  154.9936 C   0  0  0  0  0  0  0  0  0  0  0  0
  152.3809  139.3787  156.2313 C   0  0  0  0  0  0  0  0  0  0  0  0
  150.9831  139.1345  156.1892 O   0  0  0  0  0  0  0  0  0  0  0  0
  147.7568  134.3166  160.9516 C   0  0  0  0  0  0  0  0  0  0  0  0
  147.7695  133.6290  163.0136 H   0  0  0  0  0  0  0  0  0  0  0  0
  147.9834  137.4856  161.5834 H   0  0  0  0  0  0  0  0  0  0  0  0
  144.4702  132.6141  161.8095 H   0  0  0  0  0  0  0  0  0  0  0  0
  145.9972  131.9559  162.3867 H   0  0  0  0  0  0  0  0  0  0  0  0
  145.8974  132.6945  160.7792 H   0  0  0  0  0  0  0  0  0  0  0  0
  146.8740  136.1320  163.6479 H   0  0  0  0  0  0  0  0  0  0  0  0
  148.5310  135.8884  163.1480 H   0  0  0  0  0  0  0  0  0  0  0  0
  143.9057  136.5801  161.3314 H   0  0  0  0  0  0  0  0  0  0  0  0
  145.0567  135.2779  161.5536 H   0  0  0  0  0  0  0  0  0  0  0  0
  150.1715  134.8012  156.9629 H   0  0  0  0  0  0  0  0  0  0  0  0
  146.4142  139.9799  157.6617 H   0  0  0  0  0  0  0  0  0  0  0  0
  147.1447  139.2693  154.9151 H   0  0  0  0  0  0  0  0  0  0  0  0
  148.3670  140.2679  155.6694 H   0  0  0  0  0  0  0  0  0  0  0  0
  149.1924  137.4573  154.9419 H   0  0  0  0  0  0  0  0  0  0  0  0
  148.7203  137.7011  152.9667 H   0  0  0  0  0  0  0  0  0  0  0  0
  150.6235  140.1209  154.4211 H   0  0  0  0  0  0  0  0  0  0  0  0
  151.5078  137.2013  154.3808 H   0  0  0  0  0  0  0  0  0  0  0  0
  151.8114  138.4167  153.1396 H   0  0  0  0  0  0  0  0  0  0  0  0
  153.5463  137.8076  155.2583 H   0  0  0  0  0  0  0  0  0  0  0  0
  153.5675  139.3582  154.4167 H   0  0  0  0  0  0  0  0  0  0  0  0
  152.8147  139.0060  157.1592 H   0  0  0  0  0  0  0  0  0  0  0  0
  152.5598  140.4533  156.1783 H   0  0  0  0  0  0  0  0  0  0  0  0
  148.7888  133.9630  160.9376 H   0  0  0  0  0  0  0  0  0  0  0  0
  147.1637  133.6555  160.3178 H   0  0  0  0  0  0  0  0  0  0  0  0
  1  2  1  0  0  0  0
  1 30  1  0  0  0  0
  1 31  1  0  0  0  0
  1 32  1  0  0  0  0
  2  3  1  0  0  0  0
  3 28  1  0  0  0  0
  3 27  1  0  0  0  0
  3  4  1  0  0  0  0
  4  5  1  0  0  0  0
  4 33  1  0  0  0  0
  4 34  1  0  0  0  0
  5 29  1  0  0  0  0
  5  6  1  0  0  0  0
  5  9  1  0  0  0  0
  6  7  1  0  0  0  0
  6  8  2  0  0  0  0
  7 35  1  0  0  0  0
  7 36  1  0  0  0  0
  9 10  1  0  0  0  0
  9 27  1  0  0  0  0
 10 15  1  0  0  0  0
 10 11  2  0  0  0  0
 11 12  1  0  0  0  0
 12 13  2  0  0  0  0
 12 37  1  0  0  0  0
 13 14  1  0  0  0  0
 14 18  1  0  0  0  0
 14 15  2  0  0  0  0
 15 16  1  0  0  0  0
 16 17  2  0  0  0  0
 17 18  1  0  0  0  0
 17 38  1  0  0  0  0
 18 19  1  0  0  0  0
 19 20  1  0  0  0  0
 19 39  1  0  0  0  0
 19 40  1  0  0  0  0
 20 21  1  0  0  0  0
 20 22  1  0  0  0  0
 20 41  1  0  0  0  0
 21 42  1  0  0  0  0
 22 26  1  0  0  0  0
 22 23  1  0  0  0  0
 22 43  1  0  0  0  0
 23 24  1  0  0  0  0
 23 44  1  0  0  0  0
 23 45  1  0  0  0  0
 24 25  1  0  0  0  0
 24 46  1  0  0  0  0
 24 47  1  0  0  0  0
 25 26  1  0  0  0  0
 25 48  1  0  0  0  0
 25 49  1  0  0  0  0
 27 50  1  0  0  0  0
 27 51  1  0  0  0  0
M  END
> <s_m_source_file>
AV-unprocessed.smi

> <i_m_source_file_index>
261

> <i_lp_mmshare_version>
43012

> <i_f3d_flags>
0

> <s_epik_input>
W0NIM11PW0NASF0xW0NIMl1bQ0BASF0oQyg9TylbTkgyXSlOKFtDSDJdMSljKG5bY0hdbjIpYyhjMjMpbltjSF1uM1tDSDJdW0NASF0oW09IXSlbQ0BASF00W0NIMl1bQ0gyXVtDSDJdTzQ=

> <s_epik_cmdline>
J2VwaWtfcHl0aG9uJywgJy1waCcsICc3LjAnLCAnLXRuJywgJzgnLCAnLW1hJywgJzIwMCcsICctbWV0YWxfYmluZGluZycsICctaW1hZScsICc8aW5maWxlLm1hZT4nLCAnLW9tYWUnLCAnPG91dGZpbGUubWFlPic=

> <r_lp_tautomer_probability>
1

> <r_epik_Ionization_Penalty>
0.000713824

> <r_epik_Ionization_Penalty_Charging>
0

> <r_epik_Ionization_Penalty_Neutral>
0.000713824

> <r_epik_State_Penalty>
0.000402132

> <r_epik_Charging_Adjusted_Penalty>
0.000402132

> <i_epik_Tot_Q>
0

> <i_epik_Tot_abs_Q>
0

> <r_epik_Metal_State_Penalty>
-0

> <b_epik_Metal_Only>
0

> <s_lp_Force_Field>
OPLS_2005

> <r_lp_Energy>
44.1373

> <b_lp_Chiralities_Consistent>
1

> <s_lp_Variant>
AV-unprocessed.smi:261-8

> <Gold.Version>
5.8.1

> <Gold.Id.Protein>
6NUR|6NUR_protein|mol2

> <Gold.PLP.Fitness>
48.7803

> <Gold.PLP.PLP>
-42.5813

> <Gold.PLP.part.hbond>
-4.8206

> <Gold.PLP.part.metal>
0.0000

> <Gold.PLP.part.buried>
-7.1615

> <Gold.PLP.part.nonpolar>
-31.2540

> <Gold.PLP.part.repulsive>
0.0619

> <Gold.PLP.ligand.clash>
0.0000

> <Gold.PLP.ligand.torsion>
0.9195

> <Gold.PLP.Chemscore.Hbond>
2.6320

> <Gold.PLP.Chemscore.CHOScore>
0.0000

> <Gold.PLP.Chemscore.Metal>
0.0000

> <Gold.Chemscore.Hbonds>
donor molecule, donor type, donor heavy atom, donor atom, acceptor molecule, acceptor atom, score
      L1  H    21    42       P1  7948  1.00
      P1  H  6896  6907       L1    11  1.00
      P1  H  6934  6947       L1     8  0.64

> <Gold.PLP.Chemscore.Internal.Correction>
0.1420

> <Gold.Rescore>
     Score         DG    S(hbond)    S(metal)    S(lipo)     H(rot)  DE(clash)    DE(int)     intcor
      8.35     -11.80       1.52        0.00      80.16       3.18       0.08       3.38       ----

> <Gold.Chemscore.Fitness>
8.3455

> <Gold.Chemscore.DG>
-11.8017

> <Gold.Chemscore.ZeroCoef>
-5.4800

> <Gold.Chemscore.Hbond>
1.5244

> <Gold.Chemscore.Metal>
0.0000

> <Gold.Chemscore.Lipo>
80.1625

> <Gold.Chemscore.Internal_Hbond>
0.0000

> <Gold.Chemscore.DEClash>
0.0777

> <Gold.Chemscore.DEInternal>
3.3785

> <Gold.Chemscore.Rot>
3.1831

> <Gold.Chemscore.Internal.Correction>
   9.000000E+99

> <Gold.Chemscore.Hbonds>
donor molecule, donor type, donor heavy atom, donor atom, acceptor molecule, acceptor atom, score
      L1  H    21    42       P1  7948  0.99
      P1  H  6896  6907       L1    11  0.33
      P1  H  6934  6947       L1     8  0.39

> <Gold.Chemscore.Hbond.Weighted>
-5.0913

> <Gold.Chemscore.Metal.Weighted>
-0.0000

> <Gold.Chemscore.Lipo.Weighted>
-9.3790

> <Gold.Chemscore.Internal_Hbond.Weighted>
0.0000

> <Gold.Chemscore.DEClash.Weighted>
0.0777

> <Gold.Chemscore.DEInternal.Weighted>
3.3785

> <Gold.Chemscore.Rot.Weighted>
8.1486

> <Gold.Chemscore.Internal.Correction.Weighted>
   9.000000E+99

> <Gold.Protein.RotatedTorsions>
[ 6907 6896 6895 6894 ] final  -83.13 input  -60.11 | X-H torsion
[ 7974 7965 7964 7962 ] final  -18.65 input  175.53 | X-H torsion
[ 8008 7997 7996 7995 ] final  155.04 input   59.86 | X-H torsion
[ 10167 10162 10161 10158 ] final    9.30 input  -65.29 | X-H torsion
[ 10718 10713 10712 10709 ] final  -20.97 input   66.30 | X-H torsion
[ 10763 10752 10751 10750 ] final   62.29 input  -60.55 | X-H torsion
[ 11005 11000 10999 10996 ] final   28.89 input  -57.11 | X-H torsion

> <Gold.Protein.ActiveResidues>
 VAL166  LYS551  ARG553  GLY616  TRP617  ASP618  TYR619  PRO620  LYS621  CYS622 
 ASP623  PHE694  ASN695  SER759  ASP760  ASP761  ALA762  ILE779  LEU786  VAL792 
 PHE793  MET794  SER795  GLU796  ALA797  LYS798  CYS799  TRP800  GLU811  SER814 

> <Gold.Protein.RotatedAtoms>
  150.6889  134.3558  159.4928 H   0  0  0  0  0  0  0  0  0  0  0  0  # atno 6907 bound_to 6896
  152.1394  134.9072  160.0564 H   0  0  0  0  0  0  0  0  0  0  0  0  # atno 6908 bound_to 6896
  152.0211  133.3864  159.4295 H   0  0  0  0  0  0  0  0  0  0  0  0  # atno 6909 bound_to 6896
  146.1881  140.3951  142.8468 H   0  0  0  0  0  0  0  0  0  0  0  0  # atno 7974 bound_to 7965
  156.2500  140.1950  156.6739 H   0  0  0  0  0  0  0  0  0  0  0  0  # atno 8008 bound_to 7997
  154.6372  140.0588  156.9828 H   0  0  0  0  0  0  0  0  0  0  0  0  # atno 8009 bound_to 7997
  155.1619  140.3260  155.4412 H   0  0  0  0  0  0  0  0  0  0  0  0  # atno 8010 bound_to 7997
  140.6263  143.8093  150.7238 H   0  0  0  0  0  0  0  0  0  0  0  0  # atno 10167 bound_to 10162
  156.5246  130.4640  149.6579 H   0  0  0  0  0  0  0  0  0  0  0  0  # atno 10718 bound_to 10713
  152.9978  135.5470  154.6169 H   0  0  0  0  0  0  0  0  0  0  0  0  # atno 10763 bound_to 10752
  154.5477  135.2824  155.1039 H   0  0  0  0  0  0  0  0  0  0  0  0  # atno 10764 bound_to 10752
  154.2291  135.6437  153.5222 H   0  0  0  0  0  0  0  0  0  0  0  0  # atno 10765 bound_to 10752
  140.3107  134.2652  155.7735 H   0  0  0  0  0  0  0  0  0  0  0  0  # atno 11005 bound_to 11000
  144.8436  140.6894  143.6214 LP  0  0  0  0  0  0  0  0  0  0  0  0  # atno 17320 bound_to 7965
  145.3875  139.1623  143.4247 LP  0  0  0  0  0  0  0  0  0  0  0  0  # atno 17321 bound_to 7965
  140.1695  143.4207  152.2011 LP  0  0  0  0  0  0  0  0  0  0  0  0  # atno 17342 bound_to 10162
  139.5483  144.7317  151.4514 LP  0  0  0  0  0  0  0  0  0  0  0  0  # atno 17343 bound_to 10162
  156.3117  130.7232  151.2126 LP  0  0  0  0  0  0  0  0  0  0  0  0  # atno 17370 bound_to 10713
  157.7431  131.0479  150.4970 LP  0  0  0  0  0  0  0  0  0  0  0  0  # atno 17371 bound_to 10713
  141.2108  133.7706  156.9903 LP  0  0  0  0  0  0  0  0  0  0  0  0  # atno 17394 bound_to 11000
  140.1027  134.9525  157.1947 LP  0  0  0  0  0  0  0  0  0  0  0  0  # atno 17395 bound_to 11000

$$$$
