AV-unprocessed.smi:1368|AV-procd|sdf|5575|dock6
  -GOLD-   22720 5173D 1   1.00000     0.00000
 Structure written by MMmdl.
 46 48  0  0  0  0  0  0  0  0  1 V2000
  144.0378  133.8096  150.9750 C   0  0  0  0  0  0  0  0  0  0  0  0
  144.7920  135.1336  151.0542 C   0  0  0  0  0  0  0  0  0  0  0  0
  145.2130  135.6479  150.0191 O   0  0  0  0  0  0  0  0  0  0  0  0
  144.9628  135.6348  152.2919 N   0  0  0  0  0  0  0  0  0  0  0  0
  145.6045  136.8399  152.6898 C   0  0  0  0  0  0  0  0  0  0  0  0
  146.2349  137.5965  151.6817 C   0  0  0  0  0  0  0  0  0  0  0  0
  146.9058  138.7929  151.9987 C   0  0  0  0  0  0  0  0  0  0  0  0
  146.9694  139.2549  153.3281 C   0  0  0  0  0  0  0  0  0  0  0  0
  147.6444  140.4363  153.5496 O   0  0  0  0  0  0  0  0  0  0  0  0
  147.2412  141.2454  154.6467 C   0  0  0  0  0  0  0  0  0  0  0  0
  148.3176  141.1787  155.7417 C   0  0  2  0  0  0  0  0  0  0  0  0
  148.0611  142.2031  156.6824 O   0  0  0  0  0  0  0  0  0  0  0  0
  149.7339  141.3663  155.1603 C   0  0  0  0  0  0  0  0  0  0  0  0
  150.7838  140.8939  156.0535 N   0  0  0  0  0  0  0  0  0  0  0  0
  151.5855  139.8115  155.8998 C   0  0  0  0  0  0  0  0  0  0  0  0
  151.4788  138.9120  154.7095 C   0  0  0  0  0  0  0  0  0  0  0  0
  152.4754  139.6037  156.8703 N   0  0  0  0  0  0  0  0  0  0  0  0
  152.2294  140.6520  157.7359 C   0  0  0  0  0  0  0  0  0  0  0  0
  152.8457  140.9959  158.9606 C   0  0  0  0  0  0  0  0  0  0  0  0
  152.4189  142.1309  159.6806 C   0  0  0  0  0  0  0  0  0  0  0  0
  151.3716  142.9364  159.1883 C   0  0  0  0  0  0  0  0  0  0  0  0
  150.7451  142.6127  157.9695 C   0  0  0  0  0  0  0  0  0  0  0  0
  151.1753  141.4792  157.2540 C   0  0  0  0  0  0  0  0  0  0  0  0
  146.3494  138.4867  154.3448 C   0  0  0  0  0  0  0  0  0  0  0  0
  145.6777  137.2895  154.0298 C   0  0  0  0  0  0  0  0  0  0  0  0
  143.3332  133.7063  151.8010 H   0  0  0  0  0  0  0  0  0  0  0  0
  144.7379  132.9747  151.0121 H   0  0  0  0  0  0  0  0  0  0  0  0
  143.4766  133.7450  150.0422 H   0  0  0  0  0  0  0  0  0  0  0  0
  144.6342  135.0527  153.0485 H   0  0  0  0  0  0  0  0  0  0  0  0
  146.2030  137.2645  150.6540 H   0  0  0  0  0  0  0  0  0  0  0  0
  147.3776  139.3628  151.2114 H   0  0  0  0  0  0  0  0  0  0  0  0
  147.1490  142.2746  154.2957 H   0  0  0  0  0  0  0  0  0  0  0  0
  146.2699  140.9389  155.0398 H   0  0  0  0  0  0  0  0  0  0  0  0
  148.2631  140.2148  156.2483 H   0  0  0  0  0  0  0  0  0  0  0  0
  148.4018  143.0156  156.3402 H   0  0  0  0  0  0  0  0  0  0  0  0
  149.8239  140.8429  154.2082 H   0  0  0  0  0  0  0  0  0  0  0  0
  149.9140  142.4195  154.9408 H   0  0  0  0  0  0  0  0  0  0  0  0
  152.1904  138.0893  154.7878 H   0  0  0  0  0  0  0  0  0  0  0  0
  151.6961  139.4661  153.7964 H   0  0  0  0  0  0  0  0  0  0  0  0
  150.4762  138.4907  154.6392 H   0  0  0  0  0  0  0  0  0  0  0  0
  153.6484  140.3849  159.3467 H   0  0  0  0  0  0  0  0  0  0  0  0
  152.8967  142.3844  160.6156 H   0  0  0  0  0  0  0  0  0  0  0  0
  151.0488  143.8028  159.7469 H   0  0  0  0  0  0  0  0  0  0  0  0
  149.9410  143.2256  157.5904 H   0  0  0  0  0  0  0  0  0  0  0  0
  146.3776  138.7910  155.3799 H   0  0  0  0  0  0  0  0  0  0  0  0
  145.2383  136.7279  154.8391 H   0  0  0  0  0  0  0  0  0  0  0  0
  1  2  1  0  0  0  0
  1 26  1  0  0  0  0
  1 27  1  0  0  0  0
  1 28  1  0  0  0  0
  2  3  2  0  0  0  0
  2  4  1  0  0  0  0
  4  5  1  0  0  0  0
  4 29  1  0  0  0  0
  5 25  1  0  0  0  0
  5  6  2  0  0  0  0
  6  7  1  0  0  0  0
  6 30  1  0  0  0  0
  7  8  2  0  0  0  0
  7 31  1  0  0  0  0
  8  9  1  0  0  0  0
  8 24  1  0  0  0  0
  9 10  1  0  0  0  0
 10 11  1  0  0  0  0
 10 32  1  0  0  0  0
 10 33  1  0  0  0  0
 11 12  1  0  0  0  0
 11 13  1  0  0  0  0
 11 34  1  0  0  0  0
 12 35  1  0  0  0  0
 13 14  1  0  0  0  0
 13 36  1  0  0  0  0
 13 37  1  0  0  0  0
 14 23  1  0  0  0  0
 14 15  1  0  0  0  0
 15 16  1  0  0  0  0
 15 17  2  0  0  0  0
 16 38  1  0  0  0  0
 16 39  1  0  0  0  0
 16 40  1  0  0  0  0
 17 18  1  0  0  0  0
 18 23  2  0  0  0  0
 18 19  1  0  0  0  0
 19 20  2  0  0  0  0
 19 41  1  0  0  0  0
 20 21  1  0  0  0  0
 20 42  1  0  0  0  0
 21 22  2  0  0  0  0
 21 43  1  0  0  0  0
 22 23  1  0  0  0  0
 22 44  1  0  0  0  0
 24 25  2  0  0  0  0
 24 45  1  0  0  0  0
 25 46  1  0  0  0  0
M  END
> <s_m_source_file>
AV-unprocessed.smi

> <i_m_source_file_index>
1368

> <i_lp_mmshare_version>
43012

> <i_f3d_flags>
0

> <s_epik_input>
W0NIM11DKD1PKVtOSF1jMVtjSF1bY0hdYyhbY0hdW2NIXTEpT1tDSDJdW0NASF0oW09IXSlbQ0gyXW4oYyhuMilbQ0gzXSljKGMyMylbY0hdW2NIXVtjSF1bY0hdMw==

> <s_epik_cmdline>
J2VwaWtfcHl0aG9uJywgJy1waCcsICc3LjAnLCAnLXRuJywgJzgnLCAnLW1hJywgJzIwMCcsICctbWV0YWxfYmluZGluZycsICctaW1hZScsICc8aW5maWxlLm1hZT4nLCAnLW9tYWUnLCAnPG91dGZpbGUubWFlPic=

> <r_lp_tautomer_probability>
1

> <r_epik_Ionization_Penalty>
0.119634

> <r_epik_Ionization_Penalty_Charging>
0

> <r_epik_Ionization_Penalty_Neutral>
0.119634

> <r_epik_State_Penalty>
0.10919

> <r_epik_Charging_Adjusted_Penalty>
0.10919

> <i_epik_Tot_Q>
0

> <i_epik_Tot_abs_Q>
0

> <r_epik_Metal_State_Penalty>
0.0906856

> <b_epik_Metal_Only>
0

> <s_lp_Force_Field>
OPLS_2005

> <r_lp_Energy>
21.7849

> <b_lp_Chiralities_Consistent>
1

> <s_lp_Variant>
AV-unprocessed.smi:1368-1

> <Gold.Version>
5.8.1

> <Gold.Id.Protein>
6NUR|6NUR_protein|mol2

> <Gold.PLP.Fitness>
48.1437

> <Gold.PLP.PLP>
-44.1463

> <Gold.PLP.part.hbond>
-2.0000

> <Gold.PLP.part.metal>
0.0000

> <Gold.PLP.part.buried>
-3.8249

> <Gold.PLP.part.nonpolar>
-39.7857

> <Gold.PLP.part.repulsive>
1.1452

> <Gold.PLP.ligand.clash>
0.0000

> <Gold.PLP.ligand.torsion>
1.0653

> <Gold.PLP.Chemscore.Hbond>
2.0000

> <Gold.PLP.Chemscore.CHOScore>
0.0000

> <Gold.PLP.Chemscore.Metal>
0.0000

> <Gold.Chemscore.Hbonds>
donor molecule, donor type, donor heavy atom, donor atom, acceptor molecule, acceptor atom, score
      L1  H    12    35       P1  8028  1.00
      P1  H  7997  8008       L1    17  0.90

> <Gold.PLP.Chemscore.Internal.Correction>
0.1281

> <Gold.Rescore>
     Score         DG    S(hbond)    S(metal)    S(lipo)     H(rot)  DE(clash)    DE(int)     intcor
     12.58     -14.95       0.93        0.00     106.64       2.39       0.02       2.35       ----

> <Gold.Chemscore.Fitness>
12.5788

> <Gold.Chemscore.DG>
-14.9544

> <Gold.Chemscore.ZeroCoef>
-5.4800

> <Gold.Chemscore.Hbond>
0.9338

> <Gold.Chemscore.Metal>
0.0000

> <Gold.Chemscore.Lipo>
106.6445

> <Gold.Chemscore.Internal_Hbond>
0.0000

> <Gold.Chemscore.DEClash>
0.0226

> <Gold.Chemscore.DEInternal>
2.3530

> <Gold.Chemscore.Rot>
2.3914

> <Gold.Chemscore.Internal.Correction>
   9.000000E+99

> <Gold.Chemscore.Hbonds>
donor molecule, donor type, donor heavy atom, donor atom, acceptor molecule, acceptor atom, score
      L1  H    12    35       P1  8028  0.82
      P1  H  7997  8008       L1    17  0.14

> <Gold.Chemscore.Hbond.Weighted>
-3.1190

> <Gold.Chemscore.Metal.Weighted>
-0.0000

> <Gold.Chemscore.Lipo.Weighted>
-12.4774

> <Gold.Chemscore.Internal_Hbond.Weighted>
0.0000

> <Gold.Chemscore.DEClash.Weighted>
0.0226

> <Gold.Chemscore.DEInternal.Weighted>
2.3530

> <Gold.Chemscore.Rot.Weighted>
6.1220

> <Gold.Chemscore.Internal.Correction.Weighted>
   9.000000E+99

> <Gold.Protein.RotatedTorsions>
[ 6907 6896 6895 6894 ] final -173.64 input  -60.11 | X-H torsion
[ 7974 7965 7964 7962 ] final  146.67 input  175.53 | X-H torsion
[ 8008 7997 7996 7995 ] final  -40.79 input   59.86 | X-H torsion
[ 10167 10162 10161 10158 ] final  -14.49 input  -65.29 | X-H torsion
[ 10718 10713 10712 10709 ] final  -96.36 input   66.30 | X-H torsion
[ 10763 10752 10751 10750 ] final  -40.59 input  -60.55 | X-H torsion
[ 11005 11000 10999 10996 ] final   96.07 input  -57.11 | X-H torsion

> <Gold.Protein.ActiveResidues>
 VAL166  LYS551  ARG553  GLY616  TRP617  ASP618  TYR619  PRO620  LYS621  CYS622 
 ASP623  PHE694  ASN695  SER759  ASP760  ASP761  ALA762  ILE779  LEU786  VAL792 
 PHE793  MET794  SER795  GLU796  ALA797  LYS798  CYS799  TRP800  GLU811  SER814 

> <Gold.Protein.RotatedAtoms>
  151.5594  133.3405  159.2967 H   0  0  0  0  0  0  0  0  0  0  0  0  # atno 6907 bound_to 6896
  150.8431  134.7734  159.6960 H   0  0  0  0  0  0  0  0  0  0  0  0  # atno 6908 bound_to 6896
  152.4495  134.5431  159.9896 H   0  0  0  0  0  0  0  0  0  0  0  0  # atno 6909 bound_to 6896
  144.8652  139.5933  143.5912 H   0  0  0  0  0  0  0  0  0  0  0  0  # atno 7974 bound_to 7965
  154.4009  140.1516  156.3085 H   0  0  0  0  0  0  0  0  0  0  0  0  # atno 8008 bound_to 7997
  155.8637  140.3452  155.5752 H   0  0  0  0  0  0  0  0  0  0  0  0  # atno 8009 bound_to 7997
  155.7852  140.0849  157.2029 H   0  0  0  0  0  0  0  0  0  0  0  0  # atno 8010 bound_to 7997
  140.7202  143.5316  150.9513 H   0  0  0  0  0  0  0  0  0  0  0  0  # atno 10167 bound_to 10162
  156.0061  130.5148  150.6214 H   0  0  0  0  0  0  0  0  0  0  0  0  # atno 10718 bound_to 10713
  153.9485  135.6753  153.4744 H   0  0  0  0  0  0  0  0  0  0  0  0  # atno 10763 bound_to 10752
  153.0896  135.4881  154.8661 H   0  0  0  0  0  0  0  0  0  0  0  0  # atno 10764 bound_to 10752
  154.7338  135.3144  154.8805 H   0  0  0  0  0  0  0  0  0  0  0  0  # atno 10765 bound_to 10752
  139.8784  134.8932  156.4105 H   0  0  0  0  0  0  0  0  0  0  0  0  # atno 11005 bound_to 11000
  146.2891  139.7087  142.9174 LP  0  0  0  0  0  0  0  0  0  0  0  0  # atno 17320 bound_to 7965
  145.4234  141.0408  143.2951 LP  0  0  0  0  0  0  0  0  0  0  0  0  # atno 17321 bound_to 7965
  139.9037  143.6805  152.3127 LP  0  0  0  0  0  0  0  0  0  0  0  0  # atno 17342 bound_to 10162
  139.7163  144.7611  151.1028 LP  0  0  0  0  0  0  0  0  0  0  0  0  # atno 17343 bound_to 10162
  157.4029  131.0812  151.1292 LP  0  0  0  0  0  0  0  0  0  0  0  0  # atno 17370 bound_to 10713
  157.1948  130.6368  149.5717 LP  0  0  0  0  0  0  0  0  0  0  0  0  # atno 17371 bound_to 10713
  140.9204  133.7649  155.9899 LP  0  0  0  0  0  0  0  0  0  0  0  0  # atno 17394 bound_to 11000
  140.8446  134.3026  157.5300 LP  0  0  0  0  0  0  0  0  0  0  0  0  # atno 17395 bound_to 11000

$$$$
