AV-unprocessed.smi:2010|AV-procd|sdf|8150|dock7
  -GOLD-   2272010393D 1   1.00000     0.00000
 Structure written by MMmdl.
 41 42  0  0  0  0  0  0  0  0  1 V2000
  152.2530  144.8816  159.9261 C   0  0  0  0  0  0  0  0  0  0  0  0
  151.6384  143.6904  159.1779 C   0  0  0  0  0  0  0  0  0  0  0  0
  152.3398  142.3719  159.5317 C   0  0  0  0  0  0  0  0  0  0  0  0
  151.7169  141.1807  158.7848 C   0  0  0  0  0  0  0  0  0  0  0  0
  151.6885  141.4083  157.3261 N   0  0  0  0  0  0  0  0  0  0  0  0
  151.4462  140.0351  156.2966 S   0  0  0  0  0  0  0  0  0  0  0  0
  152.5253  139.9879  155.2979 O   0  0  0  0  0  0  0  0  0  0  0  0
  151.1219  138.8600  157.1197 O   0  0  0  0  0  0  0  0  0  0  0  0
  150.0068  140.5525  155.5058 N   0  0  0  0  0  0  0  0  0  0  0  0
  149.5328  139.8349  154.3208 C   0  0  1  0  0  0  0  0  0  0  0  0
  148.7962  138.5587  154.7552 C   0  0  0  0  0  0  0  0  0  0  0  0
  148.6977  140.7831  153.4347 C   0  0  0  0  0  0  0  0  0  0  0  0
  147.4929  141.2749  154.0835 N   0  0  0  0  0  0  0  0  0  0  0  0
  147.1093  142.5829  154.2943 C   0  0  0  0  0  0  0  0  0  0  0  0
  145.9081  142.5557  154.9427 C   0  0  0  0  0  0  0  0  0  0  0  0
  145.6310  141.1669  155.0813 C   0  0  0  0  0  0  0  0  0  0  0  0
  146.5800  140.4029  154.5647 N   0  0  0  0  0  0  0  0  0  0  0  0
  151.0781  142.6880  156.9134 C   0  0  0  0  0  0  0  0  0  0  0  0
  151.7033  143.8796  157.6564 C   0  0  0  0  0  0  0  0  0  0  0  0
  153.3057  145.0094  159.6715 H   0  0  0  0  0  0  0  0  0  0  0  0
  152.1851  144.7438  161.0054 H   0  0  0  0  0  0  0  0  0  0  0  0
  151.7355  145.8089  159.6791 H   0  0  0  0  0  0  0  0  0  0  0  0
  150.5907  143.6141  159.4721 H   0  0  0  0  0  0  0  0  0  0  0  0
  153.4005  142.4395  159.2853 H   0  0  0  0  0  0  0  0  0  0  0  0
  152.2849  142.1958  160.6063 H   0  0  0  0  0  0  0  0  0  0  0  0
  152.2881  140.2791  159.0055 H   0  0  0  0  0  0  0  0  0  0  0  0
  150.6995  141.0049  159.1360 H   0  0  0  0  0  0  0  0  0  0  0  0
  149.2604  140.7850  156.1603 H   0  0  0  0  0  0  0  0  0  0  0  0
  150.4036  139.5316  153.7380 H   0  0  0  0  0  0  0  0  0  0  0  0
  148.4281  138.0079  153.8894 H   0  0  0  0  0  0  0  0  0  0  0  0
  147.9426  138.7815  155.3958 H   0  0  0  0  0  0  0  0  0  0  0  0
  149.4604  137.8953  155.3097 H   0  0  0  0  0  0  0  0  0  0  0  0
  149.2987  141.6415  153.1312 H   0  0  0  0  0  0  0  0  0  0  0  0
  148.4125  140.2717  152.5141 H   0  0  0  0  0  0  0  0  0  0  0  0
  147.7193  143.4138  153.9717 H   0  0  0  0  0  0  0  0  0  0  0  0
  145.3169  143.3989  155.2672 H   0  0  0  0  0  0  0  0  0  0  0  0
  144.7740  140.6942  155.5380 H   0  0  0  0  0  0  0  0  0  0  0  0
  151.2036  142.8269  155.8396 H   0  0  0  0  0  0  0  0  0  0  0  0
  150.0048  142.6460  157.1031 H   0  0  0  0  0  0  0  0  0  0  0  0
  151.1876  144.7969  157.3707 H   0  0  0  0  0  0  0  0  0  0  0  0
  152.7411  143.9995  157.3417 H   0  0  0  0  0  0  0  0  0  0  0  0
  1  2  1  0  0  0  0
  1 20  1  0  0  0  0
  1 21  1  0  0  0  0
  1 22  1  0  0  0  0
  2 19  1  0  0  0  0
  2  3  1  0  0  0  0
  2 23  1  0  0  0  0
  3  4  1  0  0  0  0
  3 24  1  0  0  0  0
  3 25  1  0  0  0  0
  4  5  1  0  0  0  0
  4 26  1  0  0  0  0
  4 27  1  0  0  0  0
  5  6  1  0  0  0  0
  5 18  1  0  0  0  0
  6  7  2  0  0  0  0
  6  8  2  0  0  0  0
  6  9  1  0  0  0  0
  9 10  1  0  0  0  0
  9 28  1  0  0  0  0
 10 11  1  0  0  0  0
 10 12  1  0  0  0  0
 10 29  1  0  0  0  0
 11 30  1  0  0  0  0
 11 31  1  0  0  0  0
 11 32  1  0  0  0  0
 12 13  1  0  0  0  0
 12 33  1  0  0  0  0
 12 34  1  0  0  0  0
 13 17  1  0  0  0  0
 13 14  1  0  0  0  0
 14 15  2  0  0  0  0
 14 35  1  0  0  0  0
 15 16  1  0  0  0  0
 15 36  1  0  0  0  0
 16 17  2  0  0  0  0
 16 37  1  0  0  0  0
 18 19  1  0  0  0  0
 18 38  1  0  0  0  0
 18 39  1  0  0  0  0
 19 40  1  0  0  0  0
 19 41  1  0  0  0  0
M  END
> <s_m_source_file>
AV-unprocessed.smi

> <i_m_source_file_index>
2010

> <i_lp_mmshare_version>
43012

> <i_f3d_flags>
0

> <s_epik_input>
W0NIM11bQ0hdMVtDSDJdW0NIMl1OKFtDSDJdW0NIMl0xKVMoPU8pKD1PKVtOSF1bQ0BIXShbQ0gzXSlbQ0gyXW4yW2NIXVtjSF1bY0hdbjI=

> <s_epik_cmdline>
J2VwaWtfcHl0aG9uJywgJy1waCcsICc3LjAnLCAnLXRuJywgJzgnLCAnLW1hJywgJzIwMCcsICctbWV0YWxfYmluZGluZycsICctaW1hZScsICc8aW5maWxlLm1hZT4nLCAnLW9tYWUnLCAnPG91dGZpbGUubWFlPic=

> <r_lp_tautomer_probability>
1

> <r_epik_Ionization_Penalty>
0.0313937

> <r_epik_Ionization_Penalty_Charging>
0

> <r_epik_Ionization_Penalty_Neutral>
0.0313937

> <r_epik_State_Penalty>
0.0259441

> <r_epik_Charging_Adjusted_Penalty>
0.0259441

> <i_epik_Tot_Q>
0

> <i_epik_Tot_abs_Q>
0

> <r_epik_Metal_State_Penalty>
0.365037

> <b_epik_Metal_Only>
0

> <s_lp_Force_Field>
OPLS_2005

> <r_lp_Energy>
7.16397

> <b_lp_Chiralities_Consistent>
1

> <s_lp_Variant>
AV-unprocessed.smi:2010-2

> <Gold.Version>
5.8.1

> <Gold.Id.Protein>
6NUR|6NUR_protein|mol2

> <Gold.PLP.Fitness>
41.9565

> <Gold.PLP.PLP>
-36.1644

> <Gold.PLP.part.hbond>
-2.0000

> <Gold.PLP.part.metal>
0.0000

> <Gold.PLP.part.buried>
0.2379

> <Gold.PLP.part.nonpolar>
-34.0560

> <Gold.PLP.part.repulsive>
0.0889

> <Gold.PLP.ligand.clash>
0.0000

> <Gold.PLP.ligand.torsion>
1.6076

> <Gold.PLP.Chemscore.Hbond>
1.4109

> <Gold.PLP.Chemscore.CHOScore>
0.8860

> <Gold.PLP.Chemscore.Metal>
0.0000

> <Gold.Chemscore.Hbonds>
donor molecule, donor type, donor heavy atom, donor atom, acceptor molecule, acceptor atom, score
      P1  H  7989  7998       L1     7  0.38
      P1  H  7997  8009       L1     7  1.00
      L1  C    14    35       P1  8028  0.79

> <Gold.PLP.Chemscore.Internal.Correction>
2.1168

> <Gold.Rescore>
     Score         DG    S(hbond)    S(metal)    S(lipo)     H(rot)  DE(clash)    DE(int)     intcor
     12.02     -16.27       0.98        0.00      99.15       1.59       1.65       2.60       ----

> <Gold.Chemscore.Fitness>
12.0206

> <Gold.Chemscore.DG>
-16.2722

> <Gold.Chemscore.ZeroCoef>
-5.4800

> <Gold.Chemscore.Hbond>
0.9767

> <Gold.Chemscore.Metal>
0.0000

> <Gold.Chemscore.Lipo>
99.1501

> <Gold.Chemscore.Internal_Hbond>
0.0000

> <Gold.Chemscore.DEClash>
1.6530

> <Gold.Chemscore.DEInternal>
2.5987

> <Gold.Chemscore.Rot>
1.5901

> <Gold.Chemscore.Internal.Correction>
   9.000000E+99

> <Gold.Chemscore.Hbonds>
donor molecule, donor type, donor heavy atom, donor atom, acceptor molecule, acceptor atom, score
      P1  H  7989  7998       L1     7  0.19
      P1  H  7997  8009       L1     7  0.73

> <Gold.Chemscore.Hbond.Weighted>
-3.2623

> <Gold.Chemscore.Metal.Weighted>
-0.0000

> <Gold.Chemscore.Lipo.Weighted>
-11.6006

> <Gold.Chemscore.Internal_Hbond.Weighted>
0.0000

> <Gold.Chemscore.DEClash.Weighted>
1.6530

> <Gold.Chemscore.DEInternal.Weighted>
2.5987

> <Gold.Chemscore.Rot.Weighted>
4.0707

> <Gold.Chemscore.Internal.Correction.Weighted>
   9.000000E+99

> <Gold.Protein.RotatedTorsions>
[ 6907 6896 6895 6894 ] final   50.33 input  -60.11 | X-H torsion
[ 7974 7965 7964 7962 ] final  -89.87 input  175.53 | X-H torsion
[ 8008 7997 7996 7995 ] final -153.90 input   59.86 | X-H torsion
[ 10167 10162 10161 10158 ] final  169.81 input  -65.29 | X-H torsion
[ 10718 10713 10712 10709 ] final  154.21 input   66.30 | X-H torsion
[ 10763 10752 10751 10750 ] final  -30.36 input  -60.55 | X-H torsion
[ 11005 11000 10999 10996 ] final -115.67 input  -57.11 | X-H torsion

> <Gold.Protein.ActiveResidues>
 VAL166  LYS551  ARG553  GLY616  TRP617  ASP618  TYR619  PRO620  LYS621  CYS622 
 ASP623  PHE694  ASN695  SER759  ASP760  ASP761  ALA762  ILE779  LEU786  VAL792 
 PHE793  MET794  SER795  GLU796  ALA797  LYS798  CYS799  TRP800  GLU811  SER814 

> <Gold.Protein.RotatedAtoms>
  152.3007  134.7615  160.0358 H   0  0  0  0  0  0  0  0  0  0  0  0  # atno 6907 bound_to 6896
  151.8129  133.3379  159.3569 H   0  0  0  0  0  0  0  0  0  0  0  0  # atno 6908 bound_to 6896
  150.7272  134.5576  159.5870 H   0  0  0  0  0  0  0  0  0  0  0  0  # atno 6909 bound_to 6896
  145.4340  140.9557  143.2112 H   0  0  0  0  0  0  0  0  0  0  0  0  # atno 7974 bound_to 7965
  155.6780  140.0741  157.2495 H   0  0  0  0  0  0  0  0  0  0  0  0  # atno 8008 bound_to 7997
  154.4111  140.1687  156.2003 H   0  0  0  0  0  0  0  0  0  0  0  0  # atno 8009 bound_to 7997
  155.9559  140.3373  155.6451 H   0  0  0  0  0  0  0  0  0  0  0  0  # atno 8010 bound_to 7997
  139.5002  144.3665  151.9770 H   0  0  0  0  0  0  0  0  0  0  0  0  # atno 10167 bound_to 10162
  157.2346  131.0746  151.1831 H   0  0  0  0  0  0  0  0  0  0  0  0  # atno 10718 bound_to 10713
  153.7797  135.6906  153.4891 H   0  0  0  0  0  0  0  0  0  0  0  0  # atno 10763 bound_to 10752
  153.1820  135.4503  155.0038 H   0  0  0  0  0  0  0  0  0  0  0  0  # atno 10764 bound_to 10752
  154.8086  135.3367  154.7301 H   0  0  0  0  0  0  0  0  0  0  0  0  # atno 10765 bound_to 10752
  141.0472  133.9743  157.2897 H   0  0  0  0  0  0  0  0  0  0  0  0  # atno 11005 bound_to 11000
  144.8164  139.5869  143.7006 LP  0  0  0  0  0  0  0  0  0  0  0  0  # atno 17320 bound_to 7965
  146.2592  139.6371  142.9374 LP  0  0  0  0  0  0  0  0  0  0  0  0  # atno 17321 bound_to 7965
  140.3101  144.3548  150.6036 LP  0  0  0  0  0  0  0  0  0  0  0  0  # atno 17342 bound_to 10162
  140.5806  143.2173  151.7436 LP  0  0  0  0  0  0  0  0  0  0  0  0  # atno 17343 bound_to 10162
  157.3442  130.7049  149.6400 LP  0  0  0  0  0  0  0  0  0  0  0  0  # atno 17370 bound_to 10713
  155.9673  130.4271  150.4728 LP  0  0  0  0  0  0  0  0  0  0  0  0  # atno 17371 bound_to 10713
  139.9321  135.0199  156.8436 LP  0  0  0  0  0  0  0  0  0  0  0  0  # atno 17394 bound_to 11000
  140.6123  134.0071  155.7582 LP  0  0  0  0  0  0  0  0  0  0  0  0  # atno 17395 bound_to 11000

$$$$
