AV-unprocessed.smi:2121|AV-procd|sdf|8640|dock2
  -GOLD-   2272011383D 1   1.00000     0.00000
 Structure written by MMmdl.
 49 50  0  0  0  0  0  0  0  0  1 V2000
  150.3384  144.3959  159.4858 C   0  0  0  0  0  0  0  0  0  0  0  0
  151.8115  144.2055  159.0823 C   0  0  2  0  0  0  0  0  0  0  0  0
  152.0024  143.2399  157.8964 C   0  0  0  0  0  0  0  0  0  0  0  0
  151.8210  141.8523  158.3150 N   0  0  0  0  0  0  0  0  0  0  0  0
  151.6741  140.9111  157.2725 C   0  0  0  0  0  0  0  0  0  0  0  0
  150.6335  141.0558  156.3242 C   0  0  0  0  0  0  0  0  0  0  0  0
  150.5108  140.1102  155.2885 C   0  0  0  0  0  0  0  0  0  0  0  0
  151.4216  139.0379  155.2279 C   0  0  0  0  0  0  0  0  0  0  0  0
  151.3183  138.0060  154.1134 C   0  0  0  0  0  0  0  0  0  0  0  0
  150.2030  137.0775  154.2611 N   0  0  0  0  0  0  0  0  0  0  0  0
  150.1634  136.0582  155.1323 C   0  0  0  0  0  0  0  0  0  0  0  0
  151.0694  135.8182  155.9322 O   0  0  0  0  0  0  0  0  0  0  0  0
  148.9017  135.1818  155.0924 C   0  0  2  0  0  0  0  0  0  0  0  0
  149.3190  133.7478  154.7264 C   0  0  0  0  0  0  0  0  0  0  0  0
  147.9778  135.6633  154.0667 N   0  0  0  0  0  0  0  0  0  0  0  0
  146.7074  136.0314  154.2878 C   0  0  0  0  0  0  0  0  0  0  0  0
  146.1014  136.4522  153.1772 N   0  0  0  0  0  0  0  0  0  0  0  0
  146.1510  135.9929  155.3835 O   0  0  0  0  0  0  0  0  0  0  0  0
  152.4239  138.9705  156.2193 C   0  0  0  0  0  0  0  0  0  0  0  0
  152.5481  139.8760  157.2121 N   0  0  0  0  0  0  0  0  0  0  0  0
  152.6470  141.4863  159.4625 C   0  0  0  0  0  0  0  0  0  0  0  0
  152.4106  142.4632  160.6282 C   0  0  1  0  0  0  0  0  0  0  0  0
  153.3605  142.1952  161.8001 C   0  0  0  0  0  0  0  0  0  0  0  0
  152.6265  143.8022  160.1847 O   0  0  0  0  0  0  0  0  0  0  0  0
  149.7678  144.8327  158.6659 H   0  0  0  0  0  0  0  0  0  0  0  0
  150.2531  145.0668  160.3409 H   0  0  0  0  0  0  0  0  0  0  0  0
  149.8561  143.4546  159.7483 H   0  0  0  0  0  0  0  0  0  0  0  0
  152.1816  145.1838  158.7750 H   0  0  0  0  0  0  0  0  0  0  0  0
  151.3243  143.5206  157.0917 H   0  0  0  0  0  0  0  0  0  0  0  0
  153.0136  143.3444  157.5005 H   0  0  0  0  0  0  0  0  0  0  0  0
  149.9244  141.8677  156.3855 H   0  0  0  0  0  0  0  0  0  0  0  0
  149.7237  140.2070  154.5553 H   0  0  0  0  0  0  0  0  0  0  0  0
  151.2532  138.5072  153.1461 H   0  0  0  0  0  0  0  0  0  0  0  0
  152.2418  137.4271  154.0989 H   0  0  0  0  0  0  0  0  0  0  0  0
  149.4148  137.2055  153.6429 H   0  0  0  0  0  0  0  0  0  0  0  0
  148.4076  135.1818  156.0661 H   0  0  0  0  0  0  0  0  0  0  0  0
  150.0049  133.3343  155.4670 H   0  0  0  0  0  0  0  0  0  0  0  0
  149.8113  133.7018  153.7537 H   0  0  0  0  0  0  0  0  0  0  0  0
  148.4508  133.0890  154.6869 H   0  0  0  0  0  0  0  0  0  0  0  0
  148.3413  135.7395  153.1283 H   0  0  0  0  0  0  0  0  0  0  0  0
  145.1384  136.7526  153.2068 H   0  0  0  0  0  0  0  0  0  0  0  0
  146.6109  136.4625  152.3057 H   0  0  0  0  0  0  0  0  0  0  0  0
  153.1523  138.1729  156.2193 H   0  0  0  0  0  0  0  0  0  0  0  0
  152.4120  140.4729  159.7901 H   0  0  0  0  0  0  0  0  0  0  0  0
  153.6969  141.4981  159.1659 H   0  0  0  0  0  0  0  0  0  0  0  0
  151.3885  142.3566  160.9919 H   0  0  0  0  0  0  0  0  0  0  0  0
  153.2326  141.1836  162.1859 H   0  0  0  0  0  0  0  0  0  0  0  0
  153.1736  142.8898  162.6194 H   0  0  0  0  0  0  0  0  0  0  0  0
  154.4017  142.3094  161.4975 H   0  0  0  0  0  0  0  0  0  0  0  0
  1  2  1  0  0  0  0
  1 25  1  0  0  0  0
  1 26  1  0  0  0  0
  1 27  1  0  0  0  0
  2 24  1  0  0  0  0
  2  3  1  0  0  0  0
  2 28  1  0  0  0  0
  3  4  1  0  0  0  0
  3 29  1  0  0  0  0
  3 30  1  0  0  0  0
  4  5  1  0  0  0  0
  4 21  1  0  0  0  0
  5 20  1  0  0  0  0
  5  6  2  0  0  0  0
  6  7  1  0  0  0  0
  6 31  1  0  0  0  0
  7  8  2  0  0  0  0
  7 32  1  0  0  0  0
  8  9  1  0  0  0  0
  8 19  1  0  0  0  0
  9 10  1  0  0  0  0
  9 33  1  0  0  0  0
  9 34  1  0  0  0  0
 10 11  1  0  0  0  0
 10 35  1  0  0  0  0
 11 12  2  0  0  0  0
 11 13  1  0  0  0  0
 13 14  1  0  0  0  0
 13 15  1  0  0  0  0
 13 36  1  0  0  0  0
 14 37  1  0  0  0  0
 14 38  1  0  0  0  0
 14 39  1  0  0  0  0
 15 16  1  0  0  0  0
 15 40  1  0  0  0  0
 16 17  1  0  0  0  0
 16 18  2  0  0  0  0
 17 41  1  0  0  0  0
 17 42  1  0  0  0  0
 19 20  2  0  0  0  0
 19 43  1  0  0  0  0
 21 22  1  0  0  0  0
 21 44  1  0  0  0  0
 21 45  1  0  0  0  0
 22 23  1  0  0  0  0
 22 24  1  0  0  0  0
 22 46  1  0  0  0  0
 23 47  1  0  0  0  0
 23 48  1  0  0  0  0
 23 49  1  0  0  0  0
M  END
> <s_m_source_file>
AV-unprocessed.smi

> <i_m_source_file_index>
2121

> <i_lp_mmshare_version>
43012

> <i_f3d_flags>
0

> <s_epik_input>
W0NIM11bQ0BASF0xW0NIMl1OKFtDSDJdW0NASF0oTzEpW0NIM10pYzJbY0hdW2NIXWMoW2NIXW4yKVtDSDJdW05IXUMoPU8pW0NASF0oW0NIM10pW05IXUMoPU8pW05IMl0=

> <s_epik_cmdline>
J2VwaWtfcHl0aG9uJywgJy1waCcsICc3LjAnLCAnLXRuJywgJzgnLCAnLW1hJywgJzIwMCcsICctbWV0YWxfYmluZGluZycsICctaW1hZScsICc8aW5maWxlLm1hZT4nLCAnLW9tYWUnLCAnPG91dGZpbGUubWFlPic=

> <r_lp_tautomer_probability>
1

> <r_epik_Ionization_Penalty>
0.0063713

> <r_epik_Ionization_Penalty_Charging>
0

> <r_epik_Ionization_Penalty_Neutral>
0.0063713

> <r_epik_State_Penalty>
0.00467069

> <r_epik_Charging_Adjusted_Penalty>
0.00467069

> <i_epik_Tot_Q>
0

> <i_epik_Tot_abs_Q>
0

> <r_epik_Metal_State_Penalty>
-0

> <b_epik_Metal_Only>
0

> <s_lp_Force_Field>
OPLS_2005

> <r_lp_Energy>
12.6407

> <b_lp_Chiralities_Consistent>
1

> <s_lp_Variant>
AV-unprocessed.smi:2121-1

> <Gold.Version>
5.8.1

> <Gold.Id.Protein>
6NUR|6NUR_protein|mol2

> <Gold.PLP.Fitness>
56.9177

> <Gold.PLP.PLP>
-44.9416

> <Gold.PLP.part.hbond>
-5.9828

> <Gold.PLP.part.metal>
0.0000

> <Gold.PLP.part.buried>
-3.6094

> <Gold.PLP.part.nonpolar>
-34.5443

> <Gold.PLP.part.repulsive>
0.1471

> <Gold.PLP.ligand.clash>
0.0000

> <Gold.PLP.ligand.torsion>
0.4822

> <Gold.PLP.Chemscore.Hbond>
4.1850

> <Gold.PLP.Chemscore.CHOScore>
0.0000

> <Gold.PLP.Chemscore.Metal>
0.0000

> <Gold.Chemscore.Hbonds>
donor molecule, donor type, donor heavy atom, donor atom, acceptor molecule, acceptor atom, score
      L1  H    10    35       P1  7948  0.54
      L1  H    15    40       P1  7948  0.88
      L1  H    17    42       P1  7948  0.08
      P1  H  7997  8010       L1    20  0.59
      P1  H 10752 10764       L1    12  0.47

> <Gold.PLP.Chemscore.Internal.Correction>
0.3854

> <Gold.Rescore>
     Score         DG    S(hbond)    S(metal)    S(lipo)     H(rot)  DE(clash)    DE(int)     intcor
     19.73     -20.37       2.67        0.00     107.64       2.58       0.10       0.53       ----

> <Gold.Chemscore.Fitness>
19.7348

> <Gold.Chemscore.DG>
-20.3679

> <Gold.Chemscore.ZeroCoef>
-5.4800

> <Gold.Chemscore.Hbond>
2.6671

> <Gold.Chemscore.Metal>
0.0000

> <Gold.Chemscore.Lipo>
107.6440

> <Gold.Chemscore.Internal_Hbond>
0.0000

> <Gold.Chemscore.DEClash>
0.1020

> <Gold.Chemscore.DEInternal>
0.5311

> <Gold.Chemscore.Rot>
2.5838

> <Gold.Chemscore.Internal.Correction>
   9.000000E+99

> <Gold.Chemscore.Hbonds>
donor molecule, donor type, donor heavy atom, donor atom, acceptor molecule, acceptor atom, score
      L1  H    10    35       P1  7948  0.50
      L1  H    15    40       P1  7948  0.84
      L1  H    17    42       P1  7948  0.10
      P1  H  7997  8010       L1    20  0.04
      P1  H 10752 10764       L1    12  0.41

> <Gold.Chemscore.Hbond.Weighted>
-8.9080

> <Gold.Chemscore.Metal.Weighted>
-0.0000

> <Gold.Chemscore.Lipo.Weighted>
-12.5943

> <Gold.Chemscore.Internal_Hbond.Weighted>
0.0000

> <Gold.Chemscore.DEClash.Weighted>
0.1020

> <Gold.Chemscore.DEInternal.Weighted>
0.5311

> <Gold.Chemscore.Rot.Weighted>
6.6145

> <Gold.Chemscore.Internal.Correction.Weighted>
   9.000000E+99

> <Gold.Protein.RotatedTorsions>
[ 6907 6896 6895 6894 ] final  -36.68 input  -60.11 | X-H torsion
[ 7974 7965 7964 7962 ] final  160.37 input  175.53 | X-H torsion
[ 8008 7997 7996 7995 ] final   41.32 input   59.86 | X-H torsion
[ 10167 10162 10161 10158 ] final  -48.33 input  -65.29 | X-H torsion
[ 10718 10713 10712 10709 ] final -137.81 input   66.30 | X-H torsion
[ 10763 10752 10751 10750 ] final  -38.15 input  -60.55 | X-H torsion
[ 11005 11000 10999 10996 ] final  111.27 input  -57.11 | X-H torsion

> <Gold.Protein.ActiveResidues>
 VAL166  LYS551  ARG553  GLY616  TRP617  ASP618  TYR619  PRO620  LYS621  CYS622 
 ASP623  PHE694  ASN695  SER759  ASP760  ASP761  ALA762  ILE779  LEU786  VAL792 
 PHE793  MET794  SER795  GLU796  ALA797  LYS798  CYS799  TRP800  GLU811  SER814 

> <Gold.Protein.RotatedAtoms>
  151.0242  134.9491  159.8075 H   0  0  0  0  0  0  0  0  0  0  0  0  # atno 6907 bound_to 6896
  152.5332  134.2864  159.9037 H   0  0  0  0  0  0  0  0  0  0  0  0  # atno 6908 bound_to 6896
  151.2872  133.4140  159.2665 H   0  0  0  0  0  0  0  0  0  0  0  0  # atno 6909 bound_to 6896
  144.7741  139.7747  143.6286 H   0  0  0  0  0  0  0  0  0  0  0  0  # atno 7974 bound_to 7965
  155.2677  140.3364  155.4268 H   0  0  0  0  0  0  0  0  0  0  0  0  # atno 8008 bound_to 7997
  156.2147  140.1784  156.7659 H   0  0  0  0  0  0  0  0  0  0  0  0  # atno 8009 bound_to 7997
  154.5736  140.0666  156.8985 H   0  0  0  0  0  0  0  0  0  0  0  0  # atno 8010 bound_to 7997
  140.6736  143.2745  151.4055 H   0  0  0  0  0  0  0  0  0  0  0  0  # atno 10167 bound_to 10162
  156.2923  130.7382  151.1411 H   0  0  0  0  0  0  0  0  0  0  0  0  # atno 10718 bound_to 10713
  153.9080  135.6795  153.4752 H   0  0  0  0  0  0  0  0  0  0  0  0  # atno 10763 bound_to 10752
  153.1094  135.4790  154.9005 H   0  0  0  0  0  0  0  0  0  0  0  0  # atno 10764 bound_to 10752
  154.7541  135.3193  154.8457 H   0  0  0  0  0  0  0  0  0  0  0  0  # atno 10765 bound_to 10752
  139.8900  134.9504  156.6407 H   0  0  0  0  0  0  0  0  0  0  0  0  # atno 11005 bound_to 11000
  146.1908  139.5147  142.9806 LP  0  0  0  0  0  0  0  0  0  0  0  0  # atno 17320 bound_to 7965
  145.6238  141.0317  143.1900 LP  0  0  0  0  0  0  0  0  0  0  0  0  # atno 17321 bound_to 7965
  139.6016  144.1284  152.2204 LP  0  0  0  0  0  0  0  0  0  0  0  0  # atno 17342 bound_to 10162
  140.0670  144.5810  150.7220 LP  0  0  0  0  0  0  0  0  0  0  0  0  # atno 17343 bound_to 10162
  157.7346  131.0580  150.5516 LP  0  0  0  0  0  0  0  0  0  0  0  0  # atno 17370 bound_to 10713
  156.5634  130.4261  149.6052 LP  0  0  0  0  0  0  0  0  0  0  0  0  # atno 17371 bound_to 10713
  140.7596  133.8829  155.8408 LP  0  0  0  0  0  0  0  0  0  0  0  0  # atno 17394 bound_to 11000
  140.9933  134.1249  157.4387 LP  0  0  0  0  0  0  0  0  0  0  0  0  # atno 17395 bound_to 11000

$$$$
