AV-unprocessed.smi:2802|AV-procd|sdf|10804|dock6
  -GOLD-   2272015243D 1   1.00000     0.00000
 Structure written by MMmdl.
 47 48  0  0  0  0  0  0  0  0  1 V2000
  150.8465  139.6985  155.0137 C   0  0  0  0  0  0  0  0  0  0  0  0
  149.3122  139.6658  154.9488 C   0  0  1  0  0  0  0  0  0  0  0  0
  148.7473  141.0402  154.5531 C   0  0  0  0  0  0  0  0  0  0  0  0
  147.2042  141.0762  154.4978 C   0  0  0  0  0  0  0  0  0  0  0  0
  146.6001  141.0898  155.9199 C   0  0  0  0  0  0  0  0  0  0  0  0
  146.7737  142.3968  153.8250 C   0  0  0  0  0  0  0  0  0  0  0  0
  146.6636  139.8974  153.6379 C   0  0  0  0  0  0  0  0  0  0  0  0
  147.2795  138.4772  153.8567 C   0  0  1  0  0  0  0  0  0  0  0  0
  146.6812  137.7528  155.0979 C   0  0  0  0  0  0  0  0  0  0  0  0
  145.2673  137.8111  155.1232 O   0  0  0  0  0  0  0  0  0  0  0  0
  147.0238  137.6700  152.6513 N   0  0  0  0  0  0  0  0  0  0  0  0
  145.8477  137.2346  152.1647 C   0  0  0  0  0  0  0  0  0  0  0  0
  144.7587  137.4852  152.6827 O   0  0  0  0  0  0  0  0  0  0  0  0
  145.9403  136.3851  150.8914 C   0  0  0  0  0  0  0  0  0  0  0  0
  145.5466  134.9366  151.1315 C   0  0  0  0  0  0  0  0  0  0  0  0
  144.4110  134.3809  150.5064 C   0  0  0  0  0  0  0  0  0  0  0  0
  144.0867  133.0347  150.7618 C   0  0  0  0  0  0  0  0  0  0  0  0
  144.9140  132.2996  151.6346 C   0  0  0  0  0  0  0  0  0  0  0  0
  146.0036  132.8208  152.2389 N   0  0  0  0  0  0  0  0  0  0  0  0
  146.3075  134.1126  151.9886 C   0  0  0  0  0  0  0  0  0  0  0  0
  148.8225  138.5922  153.9612 C   0  0  0  0  0  0  0  0  0  0  0  0
  151.2803  139.9466  154.0445 H   0  0  0  0  0  0  0  0  0  0  0  0
  151.2477  138.7323  155.3204 H   0  0  0  0  0  0  0  0  0  0  0  0
  151.1935  140.4408  155.7332 H   0  0  0  0  0  0  0  0  0  0  0  0
  148.9627  139.4105  155.9483 H   0  0  0  0  0  0  0  0  0  0  0  0
  149.1097  141.8031  155.2434 H   0  0  0  0  0  0  0  0  0  0  0  0
  149.1502  141.3094  153.5753 H   0  0  0  0  0  0  0  0  0  0  0  0
  145.5121  141.0250  155.8893 H   0  0  0  0  0  0  0  0  0  0  0  0
  146.8531  142.0133  156.4417 H   0  0  0  0  0  0  0  0  0  0  0  0
  146.9598  140.2823  156.5501 H   0  0  0  0  0  0  0  0  0  0  0  0
  145.6877  142.4739  153.7609 H   0  0  0  0  0  0  0  0  0  0  0  0
  147.1667  142.4814  152.8112 H   0  0  0  0  0  0  0  0  0  0  0  0
  147.1314  143.2637  154.3820 H   0  0  0  0  0  0  0  0  0  0  0  0
  145.5778  139.8566  153.7309 H   0  0  0  0  0  0  0  0  0  0  0  0
  146.8444  140.1624  152.5943 H   0  0  0  0  0  0  0  0  0  0  0  0
  146.9469  136.7007  155.1192 H   0  0  0  0  0  0  0  0  0  0  0  0
  147.0595  138.1837  156.0248 H   0  0  0  0  0  0  0  0  0  0  0  0
  144.9321  137.2612  154.4315 H   0  0  0  0  0  0  0  0  0  0  0  0
  147.8482  137.3952  152.1375 H   0  0  0  0  0  0  0  0  0  0  0  0
  145.2969  136.8190  150.1249 H   0  0  0  0  0  0  0  0  0  0  0  0
  146.9602  136.4200  150.5057 H   0  0  0  0  0  0  0  0  0  0  0  0
  143.7970  134.9747  149.8450 H   0  0  0  0  0  0  0  0  0  0  0  0
  143.2241  132.5766  150.3012 H   0  0  0  0  0  0  0  0  0  0  0  0
  144.6944  131.2649  151.8526 H   0  0  0  0  0  0  0  0  0  0  0  0
  147.1827  134.5008  152.4888 H   0  0  0  0  0  0  0  0  0  0  0  0
  149.2302  138.8344  152.9776 H   0  0  0  0  0  0  0  0  0  0  0  0
  149.2559  137.6260  154.2229 H   0  0  0  0  0  0  0  0  0  0  0  0
  1  2  1  0  0  0  0
  1 22  1  0  0  0  0
  1 23  1  0  0  0  0
  1 24  1  0  0  0  0
  2 21  1  0  0  0  0
  2  3  1  0  0  0  0
  2 25  1  0  0  0  0
  3  4  1  0  0  0  0
  3 26  1  0  0  0  0
  3 27  1  0  0  0  0
  4  5  1  0  0  0  0
  4  6  1  0  0  0  0
  4  7  1  0  0  0  0
  5 28  1  0  0  0  0
  5 29  1  0  0  0  0
  5 30  1  0  0  0  0
  6 31  1  0  0  0  0
  6 32  1  0  0  0  0
  6 33  1  0  0  0  0
  7  8  1  0  0  0  0
  7 34  1  0  0  0  0
  7 35  1  0  0  0  0
  8  9  1  0  0  0  0
  8 11  1  0  0  0  0
  8 21  1  0  0  0  0
  9 10  1  0  0  0  0
  9 36  1  0  0  0  0
  9 37  1  0  0  0  0
 10 38  1  0  0  0  0
 11 12  1  0  0  0  0
 11 39  1  0  0  0  0
 12 13  2  0  0  0  0
 12 14  1  0  0  0  0
 14 15  1  0  0  0  0
 14 40  1  0  0  0  0
 14 41  1  0  0  0  0
 15 20  1  0  0  0  0
 15 16  2  0  0  0  0
 16 17  1  0  0  0  0
 16 42  1  0  0  0  0
 17 18  2  0  0  0  0
 17 43  1  0  0  0  0
 18 19  1  0  0  0  0
 18 44  1  0  0  0  0
 19 20  2  0  0  0  0
 20 45  1  0  0  0  0
 21 46  1  0  0  0  0
 21 47  1  0  0  0  0
M  END
> <s_m_source_file>
AV-unprocessed.smi

> <i_m_source_file_index>
2802

> <i_lp_mmshare_version>
43012

> <i_f3d_flags>
0

> <s_epik_input>
W0NIM11DMShbQ0gzXSlbQ0gyXVtDQEBIXShbQ0gzXSlbQ0gyXVtDQF0oW0NIMl0xKShbQ0gyXVtPSF0pW05IXUMoPU8pW0NIMl1jMltjSF1bY0hdW2NIXW5bY0hdMg==

> <s_epik_cmdline>
J2VwaWtfcHl0aG9uJywgJy1waCcsICc3LjAnLCAnLXRuJywgJzgnLCAnLW1hJywgJzIwMCcsICctbWV0YWxfYmluZGluZycsICctaW1hZScsICc8aW5maWxlLm1hZT4nLCAnLW9tYWUnLCAnPG91dGZpbGUubWFlPic=

> <r_epik_Ionization_Penalty>
0.004793

> <r_epik_Ionization_Penalty_Charging>
0

> <r_epik_Ionization_Penalty_Neutral>
0.004793

> <r_epik_State_Penalty>
0.00347421

> <r_epik_Charging_Adjusted_Penalty>
0.00347421

> <i_epik_Tot_Q>
0

> <i_epik_Tot_abs_Q>
0

> <r_epik_Metal_State_Penalty>
-0

> <b_epik_Metal_Only>
0

> <s_lp_Force_Field>
OPLS_2005

> <r_lp_Energy>
22.6817

> <b_lp_Chiralities_Consistent>
1

> <s_lp_Variant>
AV-unprocessed.smi:2802-2

> <Gold.Version>
5.8.1

> <Gold.Id.Protein>
6NUR|6NUR_protein|mol2

> <Gold.PLP.Fitness>
37.6363

> <Gold.PLP.PLP>
-32.1121

> <Gold.PLP.part.hbond>
-1.0000

> <Gold.PLP.part.metal>
0.0000

> <Gold.PLP.part.buried>
-2.2744

> <Gold.PLP.part.nonpolar>
-29.9687

> <Gold.PLP.part.repulsive>
0.3832

> <Gold.PLP.ligand.clash>
0.0000

> <Gold.PLP.ligand.torsion>
0.2082

> <Gold.PLP.Chemscore.Hbond>
0.9760

> <Gold.PLP.Chemscore.CHOScore>
1.0000

> <Gold.PLP.Chemscore.Metal>
0.0000

> <Gold.Chemscore.Hbonds>
donor molecule, donor type, donor heavy atom, donor atom, acceptor molecule, acceptor atom, score
      L1  H    11    39       P1  7948  0.96
      L1  C    20    45       P1  7948  1.00

> <Gold.PLP.Chemscore.Internal.Correction>
0.0127

> <Gold.Rescore>
     Score         DG    S(hbond)    S(metal)    S(lipo)     H(rot)  DE(clash)    DE(int)     intcor
     11.71     -13.88       0.89        0.00      90.36       2.00       0.26       1.91       ----

> <Gold.Chemscore.Fitness>
11.7129

> <Gold.Chemscore.DG>
-13.8819

> <Gold.Chemscore.ZeroCoef>
-5.4800

> <Gold.Chemscore.Hbond>
0.8851

> <Gold.Chemscore.Metal>
0.0000

> <Gold.Chemscore.Lipo>
90.3631

> <Gold.Chemscore.Internal_Hbond>
0.0000

> <Gold.Chemscore.DEClash>
0.2628

> <Gold.Chemscore.DEInternal>
1.9063

> <Gold.Chemscore.Rot>
2.0026

> <Gold.Chemscore.Internal.Correction>
   9.000000E+99

> <Gold.Chemscore.Hbonds>
donor molecule, donor type, donor heavy atom, donor atom, acceptor molecule, acceptor atom, score
      L1  H    11    39       P1  7948  0.91

> <Gold.Chemscore.Hbond.Weighted>
-2.9561

> <Gold.Chemscore.Metal.Weighted>
-0.0000

> <Gold.Chemscore.Lipo.Weighted>
-10.5725

> <Gold.Chemscore.Internal_Hbond.Weighted>
0.0000

> <Gold.Chemscore.DEClash.Weighted>
0.2628

> <Gold.Chemscore.DEInternal.Weighted>
1.9063

> <Gold.Chemscore.Rot.Weighted>
5.1267

> <Gold.Chemscore.Internal.Correction.Weighted>
   9.000000E+99

> <Gold.Protein.RotatedTorsions>
[ 6907 6896 6895 6894 ] final   16.35 input  -60.11 | X-H torsion
[ 7974 7965 7964 7962 ] final   34.77 input  175.53 | X-H torsion
[ 8008 7997 7996 7995 ] final   95.85 input   59.86 | X-H torsion
[ 10167 10162 10161 10158 ] final  -57.09 input  -65.29 | X-H torsion
[ 10718 10713 10712 10709 ] final   73.23 input   66.30 | X-H torsion
[ 10763 10752 10751 10750 ] final  -98.59 input  -60.55 | X-H torsion
[ 11005 11000 10999 10996 ] final   54.83 input  -57.11 | X-H torsion

> <Gold.Protein.ActiveResidues>
 VAL166  LYS551  ARG553  GLY616  TRP617  ASP618  TYR619  PRO620  LYS621  CYS622 
 ASP623  PHE694  ASN695  SER759  ASP760  ASP761  ALA762  ILE779  LEU786  VAL792 
 PHE793  MET794  SER795  GLU796  ALA797  LYS798  CYS799  TRP800  GLU811  SER814 

> <Gold.Protein.RotatedAtoms>
  151.8325  135.0617  160.0438 H   0  0  0  0  0  0  0  0  0  0  0  0  # atno 6907 bound_to 6896
  152.2870  133.5520  159.5541 H   0  0  0  0  0  0  0  0  0  0  0  0  # atno 6908 bound_to 6896
  150.7213  134.0399  159.3804 H   0  0  0  0  0  0  0  0  0  0  0  0  # atno 6909 bound_to 6896
  146.1329  139.6226  142.9214 H   0  0  0  0  0  0  0  0  0  0  0  0  # atno 7974 bound_to 7965
  156.0733  140.3281  155.7603 H   0  0  0  0  0  0  0  0  0  0  0  0  # atno 8008 bound_to 7997
  155.5270  140.0590  157.2913 H   0  0  0  0  0  0  0  0  0  0  0  0  # atno 8009 bound_to 7997
  154.4542  140.1934  156.0446 H   0  0  0  0  0  0  0  0  0  0  0  0  # atno 8010 bound_to 7997
  140.6279  143.2446  151.5317 H   0  0  0  0  0  0  0  0  0  0  0  0  # atno 10167 bound_to 10162
  157.6538  130.9618  150.1040 H   0  0  0  0  0  0  0  0  0  0  0  0  # atno 10718 bound_to 10713
  154.7427  135.5003  153.9151 H   0  0  0  0  0  0  0  0  0  0  0  0  # atno 10763 bound_to 10752
  153.1060  135.6697  153.9594 H   0  0  0  0  0  0  0  0  0  0  0  0  # atno 10764 bound_to 10752
  153.9367  135.3072  155.3423 H   0  0  0  0  0  0  0  0  0  0  0  0  # atno 10765 bound_to 10752
  140.0655  134.5542  155.9104 H   0  0  0  0  0  0  0  0  0  0  0  0  # atno 11005 bound_to 11000
  145.5220  141.0431  143.2430 LP  0  0  0  0  0  0  0  0  0  0  0  0  # atno 17320 bound_to 7965
  144.7710  139.6736  143.7195 LP  0  0  0  0  0  0  0  0  0  0  0  0  # atno 17321 bound_to 7965
  139.5496  144.2429  152.1507 LP  0  0  0  0  0  0  0  0  0  0  0  0  # atno 17342 bound_to 10162
  140.1665  144.4976  150.6603 LP  0  0  0  0  0  0  0  0  0  0  0  0  # atno 17343 bound_to 10162
  156.1954  130.3657  149.8855 LP  0  0  0  0  0  0  0  0  0  0  0  0  # atno 17370 bound_to 10713
  156.6773  130.8844  151.3571 LP  0  0  0  0  0  0  0  0  0  0  0  0  # atno 17371 bound_to 10713
  141.1991  133.6605  156.5826 LP  0  0  0  0  0  0  0  0  0  0  0  0  # atno 17394 bound_to 11000
  140.3705  134.7609  157.4595 LP  0  0  0  0  0  0  0  0  0  0  0  0  # atno 17395 bound_to 11000

$$$$
