#       Name:                AV-unprocessed.smi:535
#       Creating user name   scv26
#       Creation time:       Thu Mar 26 23:35:04 2020


#       File generated by GOLD software.
#

@<TRIPOS>MOLECULE
AV-unprocessed.smi:535
    53    55     1
SMALL
NO_CHARGES


@<TRIPOS>ATOM
      1 ****        -4.2931   1.4444  -0.5051 C.3            1 S1                 0.0000
      2 ****        -3.5868   0.2312  -0.6956 O.3            1 S1                 0.0000
      3 ****        -2.1962   0.4371  -0.8742 C.3            1 S1                 0.0000
      4 ****        -1.5110  -0.9238  -1.0405 C.3            1 S1                 0.0000
      5 ****        -0.0627  -0.7809  -1.1587 N.pl3          1 S1                 0.0000
      6 ****         0.8638  -0.6498  -0.1686 C.2            1 S1                 0.0000
      7 ****         0.5215  -0.6532   1.1852 N.pl3          1 S1                 0.0000
      8 ****        -0.1783  -1.7166   1.9057 C.3            1 S1                 0.0000
      9 ****        -1.3825  -1.1671   2.6896 C.3            1 S1                 0.0000
     10 ****        -0.9276  -0.0845   3.6777 C.3            1 S1                 0.0000
     11 ****        -0.0918   0.9847   2.9520 C.3            1 S1                 0.0000
     12 ****         0.4566   2.0324   3.9299 C.3            1 S1                 0.0000
     13 ****         1.0426   0.3152   2.1489 C.3            1 S1                 0.0000
     14 ****         2.1139  -0.4604  -0.6001 N.2            1 S1                 0.0000
     15 ****         1.9805  -0.4918  -1.9789 C.2            1 S1                 0.0000
     16 ****         0.6822  -0.6653  -2.3347 C.2            1 S1                 0.0000
     17 ****         0.2487  -0.6767  -3.7394 C.2            1 S1                 0.0000
     18 ****        -0.9223  -0.8050  -4.0893 O.2            1 S1                 0.0000
     19 ****         1.2719  -0.5175  -4.6137 N.am           1 S1                 0.0000
     20 ****         2.5971  -0.3472  -4.3215 C.2            1 S1                 0.0000
     21 ****         3.4139  -0.2040  -5.2312 O.2            1 S1                 0.0000
     22 ****         2.9617  -0.3396  -2.9995 N.am           1 S1                 0.0000
     23 ****         4.3650  -0.1554  -2.6241 C.3            1 S1                 0.0000
     24 ****         1.0270  -0.5169  -5.5931 H              1 S1                 0.0000
     25 ****        -5.3544   1.2339  -0.3735 H              1 S1                 0.0000
     26 ****        -4.1849   2.1032  -1.3677 H              1 S1                 0.0000
     27 ****        -3.9413   1.9702   0.3837 H              1 S1                 0.0000
     28 ****        -2.0167   1.0587  -1.7530 H              1 S1                 0.0000
     29 ****        -1.7852   0.9606  -0.0096 H              1 S1                 0.0000
     30 ****        -1.7551  -1.5700  -0.2035 H              1 S1                 0.0000
     31 ****        -1.9030  -1.4449  -1.9117 H              1 S1                 0.0000
     32 ****        -0.4861  -2.5052   1.2202 H              1 S1                 0.0000
     33 ****         0.5222  -2.1894   2.5954 H              1 S1                 0.0000
     34 ****        -2.1186  -0.7497   2.0020 H              1 S1                 0.0000
     35 ****        -1.8813  -1.9754   3.2248 H              1 S1                 0.0000
     36 ****        -1.7933   0.3698   4.1608 H              1 S1                 0.0000
     37 ****        -0.3326  -0.5435   4.4685 H              1 S1                 0.0000
     38 ****        -0.7437   1.5023   2.2465 H              1 S1                 0.0000
     39 ****         1.1318   1.5811   4.6576 H              1 S1                 0.0000
     40 ****        -0.3509   2.5167   4.4796 H              1 S1                 0.0000
     41 ****         1.0082   2.8104   3.4013 H              1 S1                 0.0000
     42 ****         1.7444  -0.1833   2.8192 H              1 S1                 0.0000
     43 ****         1.6118   1.0800   1.6190 H              1 S1                 0.0000
     44 ****         5.0168  -0.8134  -3.2011 H              1 S1                 0.0000
     45 ****         4.5450  -0.3745  -1.5717 H              1 S1                 0.0000
     46 ****         4.6717   0.8751  -2.8064 H              1 S1                 0.0000
     47 ****        -3.9500  -0.2279  -1.5064 LP             1 S1                 0.0000
     48 ****        -3.7248  -0.3500   0.1064 LP             1 S1                 0.0000
     49 ****         2.9445  -0.3281  -0.0592 LP             1 S1                 0.0000
     50 ****        -1.6410  -0.9093  -3.4019 LP             1 S1                 0.0000
     51 ****        -1.1565  -0.8052  -5.0615 LP             1 S1                 0.0000
     52 ****         3.1084  -0.2123  -6.1834 LP             1 S1                 0.0000
     53 ****         4.3830  -0.0795  -5.0181 LP             1 S1                 0.0000
@<TRIPOS>BOND
    1    1    2 1     
    2    1   25 1     
    3    1   26 1     
    4    1   27 1     
    5    2    3 1     
    6    3    4 1     
    7    3   28 1     
    8    3   29 1     
    9    4    5 1     
   10    4   30 1     
   11    4   31 1     
   12    5   16 1     
   13    5    6 1     
   14    6    7 1     
   15    6   14 2     
   16    7   13 1     
   17    7    8 1     
   18    8    9 1     
   19    8   32 1     
   20    8   33 1     
   21    9   10 1     
   22    9   34 1     
   23    9   35 1     
   24   10   11 1     
   25   10   36 1     
   26   10   37 1     
   27   11   12 1     
   28   11   13 1     
   29   11   38 1     
   30   12   39 1     
   31   12   40 1     
   32   12   41 1     
   33   13   42 1     
   34   13   43 1     
   35   14   15 1     
   36   15   22 1     
   37   15   16 2     
   38   16   17 1     
   39   17   18 2     
   40   17   19 1     
   41   19   24 1     
   42   19   20 1     
   43   20   21 2     
   44   20   22 1     
   45   22   23 1     
   46   23   44 1     
   47   23   45 1     
   48   23   46 1     
   49    2   47 1     
   50    2   48 1     
   51   14   49 1     
   52   18   50 1     
   53   18   51 1     
   54   21   52 1     
   55   21   53 1     
@<TRIPOS>SUBSTRUCTURE
      1 S1             1
@<TRIPOS>SET
LONE_PAIRS      STATIC     ATOMS    <user>   **** ""
7 47 48 49 50 51 52 53
DONOR_HYDROGENS      STATIC     ATOMS    <user>   **** ""
1 24
ATOM$BLUE        STATIC     ATOMS    COLORGROUP SYSTEM
7 47 48 49 50 51 52 53
ATOM$RED        STATIC     ATOMS    COLORGROUP SYSTEM
1 24
