#       Name:                AV-unprocessed.smi:1951
#       Creating user name   scv26
#       Creation time:       Fri Mar 27 10:03:18 2020


#       File generated by GOLD software.
#

@<TRIPOS>MOLECULE
AV-unprocessed.smi:1951
    51    52     1
SMALL
NO_CHARGES


@<TRIPOS>ATOM
      1 ****        -6.7949  -0.9399  -0.0293 C.3            1 S1                 0.0000
      2 ****        -5.5120  -0.4708  -0.4301 O.3            1 S1                 0.0000
      3 ****        -5.3356   0.8865  -0.6202 C.ar           1 S1                 0.0000
      4 ****        -6.3964   1.7094  -0.4239 N.ar           1 S1                 0.0000
      5 ****        -6.2255   3.0341  -0.6119 C.ar           1 S1                 0.0000
      6 ****        -5.0022   3.6047  -1.0089 C.ar           1 S1                 0.0000
      7 ****        -3.9002   2.7537  -1.2118 C.ar           1 S1                 0.0000
      8 ****        -4.0598   1.3623  -1.0031 C.ar           1 S1                 0.0000
      9 ****        -3.0178   0.4152  -1.1988 N.am           1 S1                 0.0000
     10 ****        -1.6916   0.6050  -1.0998 C.2            1 S1                 0.0000
     11 ****        -1.1427   1.6697  -0.8163 O.2            1 S1                 0.0000
     12 ****        -1.0200  -0.5333  -1.3239 N.am           1 S1                 0.0000
     13 ****         0.4300  -0.6714  -1.2557 C.3            1 S1                 0.0000
     14 ****         0.9160  -0.7677   0.2033 C.3            1 S1                 0.0000
     15 ****         2.3865  -0.9465   0.3007 N.4            1 S1                 1.0000
     16 ****         2.7893  -1.5820   1.5820 C.3            1 S1                 0.0000
     17 ****         4.2983  -1.8769   1.6088 C.3            1 S1                 0.0000
     18 ****         5.1203  -0.6002   1.3677 C.3            1 S1                 0.0000
     19 ****         6.6283  -0.8874   1.3657 C.3            1 S1                 0.0000
     20 ****         4.6618   0.0538   0.0538 C.3            1 S1                 0.0000
     21 ****         3.1449   0.3094   0.0553 C.3            1 S1                 0.0000
     22 ****        -6.7644  -2.0238   0.0790 H              1 S1                 0.0000
     23 ****        -7.5569  -0.7036  -0.7734 H              1 S1                 0.0000
     24 ****        -7.0911  -0.5199   0.9330 H              1 S1                 0.0000
     25 ****        -7.0919   3.6574  -0.4473 H              1 S1                 0.0000
     26 ****        -4.9131   4.6704  -1.1590 H              1 S1                 0.0000
     27 ****        -2.9631   3.1793  -1.5363 H              1 S1                 0.0000
     28 ****        -3.3232  -0.5356  -1.3475 H              1 S1                 0.0000
     29 ****        -1.5499  -1.3625  -1.5510 H              1 S1                 0.0000
     30 ****         0.7105  -1.5731  -1.8006 H              1 S1                 0.0000
     31 ****         0.8935   0.1643  -1.7807 H              1 S1                 0.0000
     32 ****         0.6171   0.1101   0.7786 H              1 S1                 0.0000
     33 ****         0.4173  -1.6208   0.6660 H              1 S1                 0.0000
     34 ****         2.5172  -0.9304   2.4142 H              1 S1                 0.0000
     35 ****         2.2434  -2.5161   1.7186 H              1 S1                 0.0000
     36 ****         4.5679  -2.3189   2.5687 H              1 S1                 0.0000
     37 ****         4.5374  -2.6212   0.8479 H              1 S1                 0.0000
     38 ****         4.9167   0.0956   2.1832 H              1 S1                 0.0000
     39 ****         6.9006  -1.5774   0.5665 H              1 S1                 0.0000
     40 ****         6.9438  -1.3313   2.3103 H              1 S1                 0.0000
     41 ****         7.2024   0.0288   1.2250 H              1 S1                 0.0000
     42 ****         5.1912   0.9952  -0.0986 H              1 S1                 0.0000
     43 ****         4.9220  -0.5865  -0.7905 H              1 S1                 0.0000
     44 ****         2.8617   0.7430  -0.9030 H              1 S1                 0.0000
     45 ****         2.8906   1.0452   0.8202 H              1 S1                 0.0000
     46 ****         2.6451  -1.5963  -0.4280 H              1 S1                 0.0000
     47 ****        -5.2900  -0.9212  -1.2948 LP             1 S1                 0.0000
     48 ****        -4.8603  -0.7576   0.2721 LP             1 S1                 0.0000
     49 ****        -7.2843   1.3424  -0.1463 LP             1 S1                 0.0000
     50 ****        -1.6942   2.4845  -0.6376 LP             1 S1                 0.0000
     51 ****        -0.1453   1.7198  -0.7646 LP             1 S1                 0.0000
@<TRIPOS>BOND
    1    1    2 1     
    2    1   22 1     
    3    1   23 1     
    4    1   24 1     
    5    2    3 1     
    6    3    8 ar    
    7    3    4 ar    
    8    4    5 ar    
    9    5    6 ar    
   10    5   25 1     
   11    6    7 ar    
   12    6   26 1     
   13    7    8 ar    
   14    7   27 1     
   15    8    9 1     
   16    9   10 am    
   17    9   28 1     
   18   10   11 2     
   19   10   12 am    
   20   12   13 1     
   21   12   29 1     
   22   13   14 1     
   23   13   30 1     
   24   13   31 1     
   25   14   15 1     
   26   14   32 1     
   27   14   33 1     
   28   15   21 1     
   29   15   16 1     
   30   15   46 1     
   31   16   17 1     
   32   16   34 1     
   33   16   35 1     
   34   17   18 1     
   35   17   36 1     
   36   17   37 1     
   37   18   19 1     
   38   18   20 1     
   39   18   38 1     
   40   19   39 1     
   41   19   40 1     
   42   19   41 1     
   43   20   21 1     
   44   20   42 1     
   45   20   43 1     
   46   21   44 1     
   47   21   45 1     
   48    2   47 1     
   49    2   48 1     
   50    4   49 1     
   51   11   50 1     
   52   11   51 1     
@<TRIPOS>SUBSTRUCTURE
      1 S1             1
@<TRIPOS>SET
LONE_PAIRS      STATIC     ATOMS    <user>   **** ""
5 47 48 49 50 51
DONOR_HYDROGENS      STATIC     ATOMS    <user>   **** ""
3 28 29 46
ATOM$BLUE        STATIC     ATOMS    COLORGROUP SYSTEM
5 47 48 49 50 51
ATOM$RED        STATIC     ATOMS    COLORGROUP SYSTEM
3 28 29 46
