AV-unprocessed.smi:1226|AV-procd|sdf|5144|dock8
  -GOLD-   22720 4213D 1   1.00000     0.00000
 Structure written by MMmdl.
 37 38  0  0  0  0  0  0  0  0  1 V2000
  146.0538  135.4966  152.2590 C   0  0  0  0  0  0  0  0  0  0  0  0
  146.6740  136.8491  152.1731 C   0  0  0  0  0  0  0  0  0  0  0  0
  146.9337  137.6115  153.2383 N   0  0  0  0  0  0  0  0  0  0  0  0
  147.5170  138.8355  152.8959 C   0  0  0  0  0  0  0  0  0  0  0  0
  147.8818  139.8151  153.9695 C   0  0  0  0  0  0  0  0  0  0  0  0
  148.6197  141.0424  153.4089 C   0  0  0  0  0  0  0  0  0  0  0  0
  149.1159  141.9062  154.4739 N   0  0  0  0  0  0  0  0  0  0  0  0
  150.0884  141.5789  155.3359 C   0  0  0  0  0  0  0  0  0  0  0  0
  150.6851  140.5022  155.3276 O   0  0  0  0  0  0  0  0  0  0  0  0
  150.3273  142.5630  156.2131 N   0  0  0  0  0  0  0  0  0  0  0  0
  151.3087  142.5011  157.2907 C   0  0  0  0  0  0  0  0  0  0  0  0
  151.3719  143.8132  158.0923 C   0  0  2  0  0  0  0  0  0  0  0  0
  152.3412  143.7978  159.2756 C   0  0  0  0  0  0  0  0  0  0  0  0
  151.7447  144.8076  160.2451 C   0  0  0  0  0  0  0  0  0  0  0  0
  150.3471  145.0878  159.6861 C   0  0  0  0  0  0  0  0  0  0  0  0
  150.1265  144.0716  158.7187 O   0  0  0  0  0  0  0  0  0  0  0  0
  147.6942  138.9905  151.5434 C   0  0  0  0  0  0  0  0  0  0  0  0
  147.1348  137.6022  150.6515 S   0  0  0  0  0  0  0  0  0  0  0  0
  146.0330  135.1487  153.2923 H   0  0  0  0  0  0  0  0  0  0  0  0
  146.6257  134.7852  151.6631 H   0  0  0  0  0  0  0  0  0  0  0  0
  145.0323  135.5311  151.8806 H   0  0  0  0  0  0  0  0  0  0  0  0
  146.9831  140.1416  154.4944 H   0  0  0  0  0  0  0  0  0  0  0  0
  148.5020  139.3224  154.7194 H   0  0  0  0  0  0  0  0  0  0  0  0
  149.4449  140.7334  152.7649 H   0  0  0  0  0  0  0  0  0  0  0  0
  147.9431  141.6287  152.7866 H   0  0  0  0  0  0  0  0  0  0  0  0
  148.6855  142.8150  154.5620 H   0  0  0  0  0  0  0  0  0  0  0  0
  149.7858  143.4116  156.1387 H   0  0  0  0  0  0  0  0  0  0  0  0
  151.0839  141.6640  157.9537 H   0  0  0  0  0  0  0  0  0  0  0  0
  152.2821  142.2899  156.8474 H   0  0  0  0  0  0  0  0  0  0  0  0
  151.6065  144.6510  157.4327 H   0  0  0  0  0  0  0  0  0  0  0  0
  152.3559  142.8114  159.7409 H   0  0  0  0  0  0  0  0  0  0  0  0
  153.3616  144.0452  158.9809 H   0  0  0  0  0  0  0  0  0  0  0  0
  151.6958  144.3909  161.2517 H   0  0  0  0  0  0  0  0  0  0  0  0
  152.3351  145.7234  160.2897 H   0  0  0  0  0  0  0  0  0  0  0  0
  149.5760  145.0739  160.4567 H   0  0  0  0  0  0  0  0  0  0  0  0
  150.3193  146.0613  159.1944 H   0  0  0  0  0  0  0  0  0  0  0  0
  148.1193  139.8335  151.0192 H   0  0  0  0  0  0  0  0  0  0  0  0
  1  2  1  0  0  0  0
  1 19  1  0  0  0  0
  1 20  1  0  0  0  0
  1 21  1  0  0  0  0
  2 18  1  0  0  0  0
  2  3  2  0  0  0  0
  3  4  1  0  0  0  0
  4  5  1  0  0  0  0
  4 17  2  0  0  0  0
  5  6  1  0  0  0  0
  5 22  1  0  0  0  0
  5 23  1  0  0  0  0
  6  7  1  0  0  0  0
  6 24  1  0  0  0  0
  6 25  1  0  0  0  0
  7  8  1  0  0  0  0
  7 26  1  0  0  0  0
  8  9  2  0  0  0  0
  8 10  1  0  0  0  0
 10 11  1  0  0  0  0
 10 27  1  0  0  0  0
 11 12  1  0  0  0  0
 11 28  1  0  0  0  0
 11 29  1  0  0  0  0
 12 16  1  0  0  0  0
 12 13  1  0  0  0  0
 12 30  1  0  0  0  0
 13 14  1  0  0  0  0
 13 31  1  0  0  0  0
 13 32  1  0  0  0  0
 14 15  1  0  0  0  0
 14 33  1  0  0  0  0
 14 34  1  0  0  0  0
 15 16  1  0  0  0  0
 15 35  1  0  0  0  0
 15 36  1  0  0  0  0
 17 18  1  0  0  0  0
 17 37  1  0  0  0  0
M  END
> <s_m_source_file>
AV-unprocessed.smi

> <i_m_source_file_index>
1226

> <i_lp_mmshare_version>
43012

> <i_f3d_flags>
0

> <s_epik_input>
W0NIM11jMW5jKFtjSF1zMSlbQ0gyXVtDSDJdW05IXUMoPU8pW05IXVtDSDJdW0NAQEhdMltDSDJdW0NIMl1bQ0gyXU8y

> <s_epik_cmdline>
J2VwaWtfcHl0aG9uJywgJy1waCcsICc3LjAnLCAnLXRuJywgJzgnLCAnLW1hJywgJzIwMCcsICctbWV0YWxfYmluZGluZycsICctaW1hZScsICc8aW5maWxlLm1hZT4nLCAnLW9tYWUnLCAnPG91dGZpbGUubWFlPic=

> <r_epik_Ionization_Penalty>
0.00199722

> <r_epik_Ionization_Penalty_Charging>
0

> <r_epik_Ionization_Penalty_Neutral>
0.00199722

> <r_epik_State_Penalty>
0.00132705

> <r_epik_Charging_Adjusted_Penalty>
0.00132705

> <i_epik_Tot_Q>
0

> <i_epik_Tot_abs_Q>
0

> <r_epik_Metal_State_Penalty>
-0

> <b_epik_Metal_Only>
0

> <s_lp_Force_Field>
OPLS_2005

> <r_lp_Energy>
9.02747

> <b_lp_Chiralities_Consistent>
1

> <s_lp_Variant>
AV-unprocessed.smi:1226-1

> <Gold.Version>
5.8.1

> <Gold.Id.Protein>
6NUR|6NUR_protein|mol2

> <Gold.PLP.Fitness>
43.4560

> <Gold.PLP.PLP>
-34.9853

> <Gold.PLP.part.hbond>
-2.4532

> <Gold.PLP.part.metal>
0.0000

> <Gold.PLP.part.buried>
1.3390

> <Gold.PLP.part.nonpolar>
-34.3879

> <Gold.PLP.part.repulsive>
1.3998

> <Gold.PLP.ligand.clash>
0.0000

> <Gold.PLP.ligand.torsion>
0.0693

> <Gold.PLP.Chemscore.Hbond>
2.0554

> <Gold.PLP.Chemscore.CHOScore>
0.8090

> <Gold.PLP.Chemscore.Metal>
0.0000

> <Gold.Chemscore.Hbonds>
donor molecule, donor type, donor heavy atom, donor atom, acceptor molecule, acceptor atom, score
      L1  H     7    26       P1  8028  0.52
      L1  H    10    27       P1  8028  1.00
      P1  H  7989  7998       L1     9  0.59

> <Gold.PLP.Chemscore.Internal.Correction>
0.0160

> <Gold.Rescore>
     Score         DG    S(hbond)    S(metal)    S(lipo)     H(rot)  DE(clash)    DE(int)     intcor
     15.57     -19.10       1.93        0.00      99.43       1.75       1.48       2.05       ----

> <Gold.Chemscore.Fitness>
15.5685

> <Gold.Chemscore.DG>
-19.0990

> <Gold.Chemscore.ZeroCoef>
-5.4800

> <Gold.Chemscore.Hbond>
1.9347

> <Gold.Chemscore.Metal>
0.0000

> <Gold.Chemscore.Lipo>
99.4346

> <Gold.Chemscore.Internal_Hbond>
0.0000

> <Gold.Chemscore.DEClash>
1.4803

> <Gold.Chemscore.DEInternal>
2.0502

> <Gold.Chemscore.Rot>
1.7487

> <Gold.Chemscore.Internal.Correction>
   9.000000E+99

> <Gold.Chemscore.Hbonds>
donor molecule, donor type, donor heavy atom, donor atom, acceptor molecule, acceptor atom, score
      L1  H     7    26       P1  8028  0.53
      L1  H    10    27       P1  8028  1.00
      P1  H  7989  7998       L1     9  0.06

> <Gold.Chemscore.Hbond.Weighted>
-6.4619

> <Gold.Chemscore.Metal.Weighted>
-0.0000

> <Gold.Chemscore.Lipo.Weighted>
-11.6339

> <Gold.Chemscore.Internal_Hbond.Weighted>
0.0000

> <Gold.Chemscore.DEClash.Weighted>
1.4803

> <Gold.Chemscore.DEInternal.Weighted>
2.0502

> <Gold.Chemscore.Rot.Weighted>
4.4768

> <Gold.Chemscore.Internal.Correction.Weighted>
   9.000000E+99

> <Gold.Protein.RotatedTorsions>
[ 6907 6896 6895 6894 ] final  170.66 input  -60.11 | X-H torsion
[ 7974 7965 7964 7962 ] final  -53.47 input  175.53 | X-H torsion
[ 8008 7997 7996 7995 ] final  -91.43 input   59.86 | X-H torsion
[ 10167 10162 10161 10158 ] final   90.38 input  -65.29 | X-H torsion
[ 10718 10713 10712 10709 ] final   -9.16 input   66.30 | X-H torsion
[ 10763 10752 10751 10750 ] final -163.35 input  -60.55 | X-H torsion
[ 11005 11000 10999 10996 ] final  144.98 input  -57.11 | X-H torsion

> <Gold.Protein.ActiveResidues>
 VAL166  LYS551  ARG553  GLY616  TRP617  ASP618  TYR619  PRO620  LYS621  CYS622 
 ASP623  PHE694  ASN695  SER759  ASP760  ASP761  ALA762  ILE779  LEU786  VAL792 
 PHE793  MET794  SER795  GLU796  ALA797  LYS798  CYS799  TRP800  GLU811  SER814 

> <Gold.Protein.RotatedAtoms>
  151.8125  133.3383  159.3559 H   0  0  0  0  0  0  0  0  0  0  0  0  # atno 6907 bound_to 6896
  150.7321  134.5650  159.5871 H   0  0  0  0  0  0  0  0  0  0  0  0  # atno 6908 bound_to 6896
  152.3064  134.7551  160.0397 H   0  0  0  0  0  0  0  0  0  0  0  0  # atno 6909 bound_to 6896
  145.8964  140.8029  142.9765 H   0  0  0  0  0  0  0  0  0  0  0  0  # atno 7974 bound_to 7965
  154.7107  140.0519  157.0547 H   0  0  0  0  0  0  0  0  0  0  0  0  # atno 8008 bound_to 7997
  155.0559  140.3184  155.4657 H   0  0  0  0  0  0  0  0  0  0  0  0  # atno 8009 bound_to 7997
  156.2788  140.2107  156.5685 H   0  0  0  0  0  0  0  0  0  0  0  0  # atno 8010 bound_to 7997
  139.8479  144.6608  150.9205 H   0  0  0  0  0  0  0  0  0  0  0  0  # atno 10167 bound_to 10162
  156.6920  130.5068  149.5941 H   0  0  0  0  0  0  0  0  0  0  0  0  # atno 10718 bound_to 10713
  154.7131  135.3010  154.9166 H   0  0  0  0  0  0  0  0  0  0  0  0  # atno 10763 bound_to 10752
  154.0062  135.6700  153.4766 H   0  0  0  0  0  0  0  0  0  0  0  0  # atno 10764 bound_to 10752
  153.0771  135.5029  154.8341 H   0  0  0  0  0  0  0  0  0  0  0  0  # atno 10765 bound_to 10752
  140.0675  134.9170  157.1290 H   0  0  0  0  0  0  0  0  0  0  0  0  # atno 11005 bound_to 11000
  144.6733  140.1609  143.7422 LP  0  0  0  0  0  0  0  0  0  0  0  0  # atno 17320 bound_to 7965
  145.8845  139.2341  143.1586 LP  0  0  0  0  0  0  0  0  0  0  0  0  # atno 17321 bound_to 7965
  140.7791  143.3854  151.1403 LP  0  0  0  0  0  0  0  0  0  0  0  0  # atno 17342 bound_to 10162
  139.7494  143.8801  152.3072 LP  0  0  0  0  0  0  0  0  0  0  0  0  # atno 17343 bound_to 10162
  156.1791  130.6487  151.0929 LP  0  0  0  0  0  0  0  0  0  0  0  0  # atno 17370 bound_to 10713
  157.7005  131.0777  150.6834 LP  0  0  0  0  0  0  0  0  0  0  0  0  # atno 17371 bound_to 10713
  140.3676  134.2425  155.7181 LP  0  0  0  0  0  0  0  0  0  0  0  0  # atno 17394 bound_to 11000
  141.1999  133.8001  157.0516 LP  0  0  0  0  0  0  0  0  0  0  0  0  # atno 17395 bound_to 11000

$$$$
