AV-unprocessed.smi:431|AV-procd|sdf|2547|dock9
  -GOLD-   2262022513D 1   1.00000     0.00000
 Structure written by MMmdl.
 43 44  0  0  0  0  0  0  0  0  1 V2000
  155.1239  137.7174  163.5474 C   0  0  0  0  0  0  0  0  0  0  0  0
  155.9976  137.3948  164.7703 C   0  0  0  0  0  0  0  0  0  0  0  0
  156.9895  138.5142  165.1586 C   0  0  2  0  0  0  0  0  0  0  0  0
  157.9030  138.0642  166.3113 C   0  0  0  0  0  0  0  0  0  0  0  0
  156.2652  139.8151  165.5359 C   0  0  0  0  0  0  0  0  0  0  0  0
  156.1730  140.1546  166.7160 O   0  0  0  0  0  0  0  0  0  0  0  0
  155.7436  140.5258  164.5237 N   0  0  0  0  0  0  0  0  0  0  0  0
  154.9777  141.7581  164.6777 C   0  0  0  0  0  0  0  0  0  0  0  0
  154.2107  142.1698  163.4292 C   0  0  0  0  0  0  0  0  0  0  0  0
  153.3360  143.2760  163.4224 C   0  0  0  0  0  0  0  0  0  0  0  0
  152.6572  143.6040  162.2337 C   0  0  0  0  0  0  0  0  0  0  0  0
  152.8671  142.8149  161.0775 C   0  0  0  0  0  0  0  0  0  0  0  0
  152.2027  143.1286  159.8711 N   0  0  0  0  0  0  0  0  0  0  0  0
  152.2251  144.5368  159.4820 C   0  0  0  0  0  0  0  0  0  0  0  0
  151.2265  144.7940  158.3402 C   0  0  0  0  0  0  0  0  0  0  0  0
  151.4997  143.9165  157.2529 O   0  0  0  0  0  0  0  0  0  0  0  0
  151.3590  142.5505  157.6282 C   0  0  0  0  0  0  0  0  0  0  0  0
  152.3643  142.2135  158.7422 C   0  0  0  0  0  0  0  0  0  0  0  0
  153.6962  141.7418  161.0942 N   0  0  0  0  0  0  0  0  0  0  0  0
  154.3460  141.4330  162.2361 C   0  0  0  0  0  0  0  0  0  0  0  0
  154.5072  136.8601  163.2781 H   0  0  0  0  0  0  0  0  0  0  0  0
  155.7357  137.9707  162.6815 H   0  0  0  0  0  0  0  0  0  0  0  0
  154.4515  138.5533  163.7409 H   0  0  0  0  0  0  0  0  0  0  0  0
  155.3551  137.1529  165.6183 H   0  0  0  0  0  0  0  0  0  0  0  0
  156.5604  136.4853  164.5569 H   0  0  0  0  0  0  0  0  0  0  0  0
  157.6264  138.7139  164.2950 H   0  0  0  0  0  0  0  0  0  0  0  0
  158.5971  138.8543  166.6010 H   0  0  0  0  0  0  0  0  0  0  0  0
  158.4992  137.1989  166.0205 H   0  0  0  0  0  0  0  0  0  0  0  0
  157.3272  137.7857  167.1950 H   0  0  0  0  0  0  0  0  0  0  0  0
  155.8688  140.1782  163.5841 H   0  0  0  0  0  0  0  0  0  0  0  0
  154.2928  141.6628  165.5222 H   0  0  0  0  0  0  0  0  0  0  0  0
  155.6710  142.5598  164.9321 H   0  0  0  0  0  0  0  0  0  0  0  0
  153.1804  143.8677  164.3125 H   0  0  0  0  0  0  0  0  0  0  0  0
  151.9772  144.4424  162.2286 H   0  0  0  0  0  0  0  0  0  0  0  0
  151.9816  145.1921  160.3167 H   0  0  0  0  0  0  0  0  0  0  0  0
  153.2345  144.7959  159.1596 H   0  0  0  0  0  0  0  0  0  0  0  0
  150.1997  144.6565  158.6838 H   0  0  0  0  0  0  0  0  0  0  0  0
  151.3104  145.8245  157.9945 H   0  0  0  0  0  0  0  0  0  0  0  0
  150.3361  142.3543  157.9544 H   0  0  0  0  0  0  0  0  0  0  0  0
  151.5407  141.9222  156.7561 H   0  0  0  0  0  0  0  0  0  0  0  0
  153.3833  142.2882  158.3600 H   0  0  0  0  0  0  0  0  0  0  0  0
  152.2110  141.1830  159.0655 H   0  0  0  0  0  0  0  0  0  0  0  0
  154.9965  140.5717  162.1922 H   0  0  0  0  0  0  0  0  0  0  0  0
  1  2  1  0  0  0  0
  1 21  1  0  0  0  0
  1 22  1  0  0  0  0
  1 23  1  0  0  0  0
  2  3  1  0  0  0  0
  2 24  1  0  0  0  0
  2 25  1  0  0  0  0
  3  4  1  0  0  0  0
  3  5  1  0  0  0  0
  3 26  1  0  0  0  0
  4 27  1  0  0  0  0
  4 28  1  0  0  0  0
  4 29  1  0  0  0  0
  5  6  2  0  0  0  0
  5  7  1  0  0  0  0
  7  8  1  0  0  0  0
  7 30  1  0  0  0  0
  8  9  1  0  0  0  0
  8 31  1  0  0  0  0
  8 32  1  0  0  0  0
  9 20  1  0  0  0  0
  9 10  2  0  0  0  0
 10 11  1  0  0  0  0
 10 33  1  0  0  0  0
 11 12  2  0  0  0  0
 11 34  1  0  0  0  0
 12 13  1  0  0  0  0
 12 19  1  0  0  0  0
 13 18  1  0  0  0  0
 13 14  1  0  0  0  0
 14 15  1  0  0  0  0
 14 35  1  0  0  0  0
 14 36  1  0  0  0  0
 15 16  1  0  0  0  0
 15 37  1  0  0  0  0
 15 38  1  0  0  0  0
 16 17  1  0  0  0  0
 17 18  1  0  0  0  0
 17 39  1  0  0  0  0
 17 40  1  0  0  0  0
 18 41  1  0  0  0  0
 18 42  1  0  0  0  0
 19 20  2  0  0  0  0
 20 43  1  0  0  0  0
M  END
> <s_m_source_file>
AV-unprocessed.smi

> <i_m_source_file_index>
431

> <i_lp_mmshare_version>
43012

> <i_f3d_flags>
0

> <s_epik_input>
W0NIM11bQ0gyXVtDQEhdKFtDSDNdKUMoPU8pW05IXVtDSDJdYzFbY0hdW2NIXWMobltjSF0xKU4yW0NIMl1bQ0gyXU9bQ0gyXVtDSDJdMg==

> <s_epik_cmdline>
J2VwaWtfcHl0aG9uJywgJy1waCcsICc3LjAnLCAnLXRuJywgJzgnLCAnLW1hJywgJzIwMCcsICctbWV0YWxfYmluZGluZycsICctaW1hZScsICc8aW5maWxlLm1hZT4nLCAnLW9tYWUnLCAnPG91dGZpbGUubWFlPic=

> <r_lp_tautomer_probability>
1

> <r_epik_Ionization_Penalty>
0.00513882

> <r_epik_Ionization_Penalty_Charging>
0

> <r_epik_Ionization_Penalty_Neutral>
0.00513882

> <r_epik_State_Penalty>
0.00374265

> <r_epik_Charging_Adjusted_Penalty>
0.00374265

> <i_epik_Tot_Q>
0

> <i_epik_Tot_abs_Q>
0

> <r_epik_Metal_State_Penalty>
-0

> <b_epik_Metal_Only>
0

> <s_lp_Force_Field>
OPLS_2005

> <r_lp_Energy>
15.574

> <b_lp_Chiralities_Consistent>
1

> <s_lp_Variant>
AV-unprocessed.smi:431-1

> <Gold.Version>
5.8.1

> <Gold.Id.Protein>
6NUR|6NUR_protein|mol2

> <Gold.PLP.Fitness>
39.6813

> <Gold.PLP.PLP>
-40.8161

> <Gold.PLP.part.hbond>
0.0000

> <Gold.PLP.part.metal>
0.0000

> <Gold.PLP.part.buried>
-4.0464

> <Gold.PLP.part.nonpolar>
-35.9448

> <Gold.PLP.part.repulsive>
0.2068

> <Gold.PLP.ligand.clash>
0.0000

> <Gold.PLP.ligand.torsion>
0.7499

> <Gold.PLP.Chemscore.Hbond>
0.0000

> <Gold.PLP.Chemscore.CHOScore>
0.0000

> <Gold.PLP.Chemscore.Metal>
0.0000

> <Gold.PLP.Chemscore.Internal.Correction>
0.3649

> <Gold.Rescore>
     Score         DG    S(hbond)    S(metal)    S(lipo)     H(rot)  DE(clash)    DE(int)     intcor
     14.05     -15.04       0.00        0.00     117.61       1.64       0.23       0.76       ----

> <Gold.Chemscore.Fitness>
14.0451

> <Gold.Chemscore.DG>
-15.0406

> <Gold.Chemscore.ZeroCoef>
-5.4800

> <Gold.Chemscore.Hbond>
0.0000

> <Gold.Chemscore.Metal>
0.0000

> <Gold.Chemscore.Lipo>
117.6132

> <Gold.Chemscore.Internal_Hbond>
0.0000

> <Gold.Chemscore.DEClash>
0.2312

> <Gold.Chemscore.DEInternal>
0.7643

> <Gold.Chemscore.Rot>
1.6407

> <Gold.Chemscore.Internal.Correction>
   9.000000E+99

> <Gold.Chemscore.Hbond.Weighted>
-0.0000

> <Gold.Chemscore.Metal.Weighted>
-0.0000

> <Gold.Chemscore.Lipo.Weighted>
-13.7607

> <Gold.Chemscore.Internal_Hbond.Weighted>
0.0000

> <Gold.Chemscore.DEClash.Weighted>
0.2312

> <Gold.Chemscore.DEInternal.Weighted>
0.7643

> <Gold.Chemscore.Rot.Weighted>
4.2001

> <Gold.Chemscore.Internal.Correction.Weighted>
   9.000000E+99

> <Gold.Protein.RotatedTorsions>
[ 6907 6896 6895 6894 ] final  116.87 input  -60.11 | X-H torsion
[ 7974 7965 7964 7962 ] final  -25.21 input  175.53 | X-H torsion
[ 8008 7997 7996 7995 ] final   40.09 input   59.86 | X-H torsion
[ 10167 10162 10161 10158 ] final -166.92 input  -65.29 | X-H torsion
[ 10718 10713 10712 10709 ] final  -63.56 input   66.30 | X-H torsion
[ 10763 10752 10751 10750 ] final -147.85 input  -60.55 | X-H torsion
[ 11005 11000 10999 10996 ] final  140.98 input  -57.11 | X-H torsion

> <Gold.Protein.ActiveResidues>
 VAL166  LYS551  ARG553  GLY616  TRP617  ASP618  TYR619  PRO620  LYS621  CYS622 
 ASP623  PHE694  ASN695  SER759  ASP760  ASP761  ALA762  ILE779  LEU786  VAL792 
 PHE793  MET794  SER795  GLU796  ALA797  LYS798  CYS799  TRP800  GLU811  SER814 

> <Gold.Protein.RotatedAtoms>
  152.4650  133.7903  159.6897 H   0  0  0  0  0  0  0  0  0  0  0  0  # atno 6907 bound_to 6896
  150.8610  133.7634  159.2999 H   0  0  0  0  0  0  0  0  0  0  0  0  # atno 6908 bound_to 6896
  151.5199  135.1070  159.9928 H   0  0  0  0  0  0  0  0  0  0  0  0  # atno 6909 bound_to 6896
  146.1505  140.4856  142.8613 H   0  0  0  0  0  0  0  0  0  0  0  0  # atno 7974 bound_to 7965
  155.2474  140.3350  155.4285 H   0  0  0  0  0  0  0  0  0  0  0  0  # atno 8008 bound_to 7997
  156.2230  140.1817  156.7475 H   0  0  0  0  0  0  0  0  0  0  0  0  # atno 8009 bound_to 7997
  154.5855  140.0646  156.9149 H   0  0  0  0  0  0  0  0  0  0  0  0  # atno 8010 bound_to 7997
  139.6083  144.0867  152.1816 H   0  0  0  0  0  0  0  0  0  0  0  0  # atno 10167 bound_to 10162
  156.0783  130.4222  150.1294 H   0  0  0  0  0  0  0  0  0  0  0  0  # atno 10718 bound_to 10713
  154.8264  135.3349  154.6882 H   0  0  0  0  0  0  0  0  0  0  0  0  # atno 10763 bound_to 10752
  153.7507  135.6939  153.4951 H   0  0  0  0  0  0  0  0  0  0  0  0  # atno 10764 bound_to 10752
  153.2178  135.4459  155.0405 H   0  0  0  0  0  0  0  0  0  0  0  0  # atno 10765 bound_to 10752
  140.0367  134.9325  157.0766 H   0  0  0  0  0  0  0  0  0  0  0  0  # atno 11005 bound_to 11000
  144.7899  140.6010  143.6549 LP  0  0  0  0  0  0  0  0  0  0  0  0  # atno 17320 bound_to 7965
  145.4834  139.1494  143.3749 LP  0  0  0  0  0  0  0  0  0  0  0  0  # atno 17321 bound_to 7965
  140.0480  144.5955  150.7359 LP  0  0  0  0  0  0  0  0  0  0  0  0  # atno 17342 bound_to 10162
  140.7301  143.2679  151.3983 LP  0  0  0  0  0  0  0  0  0  0  0  0  # atno 17343 bound_to 10162
  156.9331  130.9720  151.3529 LP  0  0  0  0  0  0  0  0  0  0  0  0  # atno 17370 bound_to 10713
  157.5889  130.8429  149.8630 LP  0  0  0  0  0  0  0  0  0  0  0  0  # atno 17371 bound_to 10713
  140.4136  134.1955  155.7163 LP  0  0  0  0  0  0  0  0  0  0  0  0  # atno 17394 bound_to 11000
  141.1861  133.8309  157.1080 LP  0  0  0  0  0  0  0  0  0  0  0  0  # atno 17395 bound_to 11000

$$$$
