#       Name:                AV-unprocessed.smi:713
#       Creating user name   scv26
#       Creation time:       Fri Mar 27 00:46:40 2020


#       File generated by GOLD software.
#

@<TRIPOS>MOLECULE
AV-unprocessed.smi:713
    44    45     1
SMALL
NO_CHARGES


@<TRIPOS>ATOM
      1 ****        -3.6824  -1.7858  -1.9255 C.3            1 S1                 0.0000
      2 ****        -3.0506  -1.0709  -0.7136 C.3            1 S1                 0.0000
      3 ****        -1.5390  -0.8296  -0.8743 C.2            1 S1                 0.0000
      4 ****        -0.9238  -1.2947  -1.8348 O.2            1 S1                 0.0000
      5 ****        -0.9525  -0.0821   0.0752 N.am           1 S1                 0.0000
      6 ****         0.4644   0.2619   0.1230 C.3            1 S1                 0.0000
      7 ****         0.8750   0.5476   1.5786 C.3            1 S1                 0.0000
      8 ****         2.3521   0.9590   1.6810 C.3            1 S1                 0.0000
      9 ****         2.6764   2.1470   0.7566 C.3            1 S1                 0.0000
     10 ****         2.2249   1.9376  -0.7072 C.3            1 S1                 0.0000
     11 ****         3.3207   0.7794  -1.6668 S.o2           1 S1                 0.0000
     12 ****         4.9136   1.6998  -1.7288 C.3            1 S1                 0.0000
     13 ****         3.5496  -0.4518  -0.8965 O.2            1 S1                 0.0000
     14 ****         2.7941   0.6839  -3.0365 O.2            1 S1                 0.0000
     15 ****         0.7517   1.4876  -0.7686 C.3            1 S1                 0.0000
     16 ****        -3.3353  -1.7703   0.5350 N.pl3          1 S1                 0.0000
     17 ****        -3.8523  -1.2459   1.7025 C.2            1 S1                 0.0000
     18 ****        -3.9169  -2.2596   2.6149 C.2            1 S1                 0.0000
     19 ****        -3.4037  -3.3829   1.9087 C.2            1 S1                 0.0000
     20 ****        -3.0515  -3.0872   0.6686 N.2            1 S1                 0.0000
     21 ****        -3.5357  -1.2130  -2.8417 H              1 S1                 0.0000
     22 ****        -4.7569  -1.9080  -1.7872 H              1 S1                 0.0000
     23 ****        -3.2553  -2.7772  -2.0828 H              1 S1                 0.0000
     24 ****        -3.5159  -0.0865  -0.6426 H              1 S1                 0.0000
     25 ****        -1.5294   0.2627   0.8286 H              1 S1                 0.0000
     26 ****         1.0402  -0.5932  -0.2330 H              1 S1                 0.0000
     27 ****         0.2513   1.3437   1.9882 H              1 S1                 0.0000
     28 ****         0.6972  -0.3328   2.1974 H              1 S1                 0.0000
     29 ****         2.5847   1.2266   2.7121 H              1 S1                 0.0000
     30 ****         2.9885   0.1070   1.4494 H              1 S1                 0.0000
     31 ****         2.1678   3.0292   1.1475 H              1 S1                 0.0000
     32 ****         3.7396   2.3774   0.8054 H              1 S1                 0.0000
     33 ****         2.2996   2.8940  -1.2252 H              1 S1                 0.0000
     34 ****         5.6127   1.1623  -2.3692 H              1 S1                 0.0000
     35 ****         5.3392   1.7792  -0.7293 H              1 S1                 0.0000
     36 ****         4.7453   2.6958  -2.1374 H              1 S1                 0.0000
     37 ****         0.4713   1.2793  -1.8016 H              1 S1                 0.0000
     38 ****         0.1187   2.3167  -0.4490 H              1 S1                 0.0000
     39 ****        -4.1281  -0.2050   1.7861 H              1 S1                 0.0000
     40 ****        -4.2739  -2.2064   3.6326 H              1 S1                 0.0000
     41 ****        -3.2748  -4.3966   2.2585 H              1 S1                 0.0000
     42 ****        -1.4064  -1.8368  -2.5226 LP             1 S1                 0.0000
     43 ****         0.0582  -1.1300  -1.9267 LP             1 S1                 0.0000
     44 ****        -2.6618  -3.7006  -0.0183 LP             1 S1                 0.0000
@<TRIPOS>BOND
    1    1    2 1     
    2    1   21 1     
    3    1   22 1     
    4    1   23 1     
    5    2    3 1     
    6    2   16 1     
    7    2   24 1     
    8    3    4 2     
    9    3    5 am    
   10    5    6 1     
   11    5   25 1     
   12    6   15 1     
   13    6    7 1     
   14    6   26 1     
   15    7    8 1     
   16    7   27 1     
   17    7   28 1     
   18    8    9 1     
   19    8   29 1     
   20    8   30 1     
   21    9   10 1     
   22    9   31 1     
   23    9   32 1     
   24   10   11 1     
   25   10   15 1     
   26   10   33 1     
   27   11   12 1     
   28   11   13 2     
   29   11   14 2     
   30   12   34 1     
   31   12   35 1     
   32   12   36 1     
   33   15   37 1     
   34   15   38 1     
   35   16   20 1     
   36   16   17 1     
   37   17   18 2     
   38   17   39 1     
   39   18   19 1     
   40   18   40 1     
   41   19   20 2     
   42   19   41 1     
   43    4   42 1     
   44    4   43 1     
   45   20   44 1     
@<TRIPOS>SUBSTRUCTURE
      1 S1             1
@<TRIPOS>SET
LONE_PAIRS      STATIC     ATOMS    <user>   **** ""
5 42 43 13 14 44
DONOR_HYDROGENS      STATIC     ATOMS    <user>   **** ""
1 25
ATOM$BLUE        STATIC     ATOMS    COLORGROUP SYSTEM
5 42 43 13 14 44
ATOM$RED        STATIC     ATOMS    COLORGROUP SYSTEM
1 25
