#       Name:                AV-unprocessed.smi:224
#       Creating user name   scv26
#       Creation time:       Thu Mar 26 20:18:30 2020


#       File generated by GOLD software.
#

@<TRIPOS>MOLECULE
AV-unprocessed.smi:224
    65    68     1
SMALL
NO_CHARGES


@<TRIPOS>ATOM
      1 ****        -3.4223   4.4879   3.2785 C.3            1 S1                 0.0000
      2 ****        -2.0775   4.4302   2.5427 C.3            1 S1                 0.0000
      3 ****        -1.2248   5.3969   3.1233 O.3            1 S1                 0.0000
      4 ****        -1.4282   3.0346   2.6521 C.3            1 S1                 0.0000
      5 ****        -0.1312   2.9116   1.9309 N.4            1 S1                 1.0000
      6 ****         0.6147   1.6870   2.3272 C.3            1 S1                 0.0000
      7 ****         2.0183   1.6589   1.6959 C.3            1 S1                 0.0000
      8 ****         1.9415   1.8446   0.2521 N.pl3          1 S1                 0.0000
      9 ****         1.9632   0.7861  -0.6057 C.ar           1 S1                 0.0000
     10 ****         2.2238   1.0514  -1.9129 N.ar           1 S1                 0.0000
     11 ****         2.2693   0.0692  -2.8160 C.ar           1 S1                 0.0000
     12 ****         2.0834  -1.2373  -2.6332 N.ar           1 S1                 0.0000
     13 ****         1.8159  -1.5207  -1.3273 C.ar           1 S1                 0.0000
     14 ****         1.7408  -0.5823  -0.2555 C.ar           1 S1                 0.0000
     15 ****         1.4420  -1.2581   0.9234 N.2            1 S1                 0.0000
     16 ****         1.3599  -2.5117   0.5740 C.2            1 S1                 0.0000
     17 ****         1.5592  -2.7587  -0.7638 N.pl3          1 S1                 0.0000
     18 ****         1.5215  -4.0558  -1.4233 C.3            1 S1                 0.0000
     19 ****         0.0895  -4.5532  -1.7317 C.3            1 S1                 0.0000
     20 ****        -0.6122  -4.7251  -0.5119 O.3            1 S1                 0.0000
     21 ****         0.0711  -5.8771  -2.4849 C.3            1 S1                 0.0000
     22 ****        -1.2361  -5.8013  -3.2622 C.3            1 S1                 0.0000
     23 ****        -1.2820  -4.4460  -3.6761 O.3            1 S1                 0.0000
     24 ****        -0.7388  -3.6258  -2.6451 C.3            1 S1                 0.0000
     25 ****         1.2392   3.0615  -0.1542 C.3            1 S1                 0.0000
     26 ****        -0.1819   3.1169   0.4481 C.3            1 S1                 0.0000
     27 ****        -1.1494   2.1562  -0.2756 C.3            1 S1                 0.0000
     28 ****        -4.1295   3.7725   2.8575 H              1 S1                 0.0000
     29 ****        -3.8717   5.4786   3.2000 H              1 S1                 0.0000
     30 ****        -3.3079   4.2575   4.3384 H              1 S1                 0.0000
     31 ****        -2.2557   4.6998   1.5024 H              1 S1                 0.0000
     32 ****        -0.4629   5.5041   2.5753 H              1 S1                 0.0000
     33 ****        -1.2605   2.8190   3.7085 H              1 S1                 0.0000
     34 ****        -2.1182   2.2660   2.3035 H              1 S1                 0.0000
     35 ****         0.7141   1.6513   3.4125 H              1 S1                 0.0000
     36 ****         0.0434   0.8047   2.0393 H              1 S1                 0.0000
     37 ****         2.6091   2.4802   2.1027 H              1 S1                 0.0000
     38 ****         2.5621   0.7537   1.9623 H              1 S1                 0.0000
     39 ****         2.4869   0.3736  -3.8293 H              1 S1                 0.0000
     40 ****         1.1431  -3.2953   1.2857 H              1 S1                 0.0000
     41 ****         2.1016  -3.9890  -2.3446 H              1 S1                 0.0000
     42 ****         2.0414  -4.7750  -0.7889 H              1 S1                 0.0000
     43 ****        -1.4860  -5.0257  -0.7104 H              1 S1                 0.0000
     44 ****         0.9010  -5.9225  -3.1916 H              1 S1                 0.0000
     45 ****         0.1375  -6.7530  -1.8381 H              1 S1                 0.0000
     46 ****        -1.2637  -6.4835  -4.1121 H              1 S1                 0.0000
     47 ****        -2.0892  -6.0170  -2.6171 H              1 S1                 0.0000
     48 ****        -1.5388  -3.1170  -2.1050 H              1 S1                 0.0000
     49 ****        -0.1260  -2.8595  -3.1179 H              1 S1                 0.0000
     50 ****         1.8181   3.9107   0.2111 H              1 S1                 0.0000
     51 ****         1.1919   3.1841  -1.2362 H              1 S1                 0.0000
     52 ****        -0.5394   4.1284   0.2610 H              1 S1                 0.0000
     53 ****        -1.1130   2.3151  -1.3536 H              1 S1                 0.0000
     54 ****        -2.1834   2.3149   0.0296 H              1 S1                 0.0000
     55 ****        -0.9036   1.1099  -0.0953 H              1 S1                 0.0000
     56 ****         0.4329   3.6729   2.2800 H              1 S1                 0.0000
     57 ****        -0.9432   5.0922   4.0332 LP             1 S1                 0.0000
     58 ****        -1.7088   6.2687   3.1988 LP             1 S1                 0.0000
     59 ****         2.3836   1.9952  -2.2022 LP             1 S1                 0.0000
     60 ****         2.1336  -1.9218  -3.3605 LP             1 S1                 0.0000
     61 ****         1.3177  -0.8688   1.8361 LP             1 S1                 0.0000
     62 ****        -0.6577  -3.8541  -0.0227 LP             1 S1                 0.0000
     63 ****        -0.1429  -5.4019   0.0553 LP             1 S1                 0.0000
     64 ****        -2.2304  -4.1809  -3.8504 LP             1 S1                 0.0000
     65 ****        -0.7452  -4.3327  -4.5121 LP             1 S1                 0.0000
@<TRIPOS>BOND
    1    1    2 1     
    2    1   28 1     
    3    1   29 1     
    4    1   30 1     
    5    2    3 1     
    6    2    4 1     
    7    2   31 1     
    8    3   32 1     
    9    4    5 1     
   10    4   33 1     
   11    4   34 1     
   12    5   26 1     
   13    5    6 1     
   14    5   56 1     
   15    6    7 1     
   16    6   35 1     
   17    6   36 1     
   18    7    8 1     
   19    7   37 1     
   20    7   38 1     
   21    8    9 1     
   22    8   25 1     
   23    9   14 ar    
   24    9   10 ar    
   25   10   11 ar    
   26   11   12 ar    
   27   11   39 1     
   28   12   13 ar    
   29   13   17 1     
   30   13   14 ar    
   31   14   15 1     
   32   15   16 2     
   33   16   17 1     
   34   16   40 1     
   35   17   18 1     
   36   18   19 1     
   37   18   41 1     
   38   18   42 1     
   39   19   24 1     
   40   19   20 1     
   41   19   21 1     
   42   20   43 1     
   43   21   22 1     
   44   21   44 1     
   45   21   45 1     
   46   22   23 1     
   47   22   46 1     
   48   22   47 1     
   49   23   24 1     
   50   24   48 1     
   51   24   49 1     
   52   25   26 1     
   53   25   50 1     
   54   25   51 1     
   55   26   27 1     
   56   26   52 1     
   57   27   53 1     
   58   27   54 1     
   59   27   55 1     
   60    3   57 1     
   61    3   58 1     
   62   10   59 1     
   63   12   60 1     
   64   15   61 1     
   65   20   62 1     
   66   20   63 1     
   67   23   64 1     
   68   23   65 1     
@<TRIPOS>SUBSTRUCTURE
      1 S1             1
@<TRIPOS>SET
LONE_PAIRS      STATIC     ATOMS    <user>   **** ""
9 57 58 59 60 61 62 63 64 65
DONOR_HYDROGENS      STATIC     ATOMS    <user>   **** ""
3 32 56 43
ATOM$BLUE        STATIC     ATOMS    COLORGROUP SYSTEM
9 57 58 59 60 61 62 63 64 65
ATOM$RED        STATIC     ATOMS    COLORGROUP SYSTEM
3 32 56 43
