AV-unprocessed.smi:172|AV-procd|sdf|1422|dock5
  -GOLD-   2262019193D 1   1.00000     0.00000
 Structure written by MMmdl.
 56 60  0  0  0  0  0  0  0  0  1 V2000
  147.3474  139.5604  152.7163 O   0  0  0  0  0  0  0  0  0  0  0  0
  147.3331  139.3370  154.1129 C   0  0  0  0  0  0  0  0  0  0  0  0
  147.8062  140.5649  154.9170 C   0  0  0  0  0  0  0  0  0  0  0  0
  147.4781  140.3992  156.4168 C   0  0  0  0  0  0  0  0  0  0  0  0
  147.6043  139.0423  156.9241 N   0  0  0  0  0  0  0  0  0  0  0  0
  146.7013  138.0157  156.7531 C   0  0  0  0  0  0  0  0  0  0  0  0
  147.0287  136.8841  157.3146 N   0  0  0  0  0  0  0  0  0  0  0  0
  148.2561  137.1495  157.9063 C   0  0  0  0  0  0  0  0  0  0  0  0
  149.1629  136.3785  158.6791 C   0  0  0  0  0  0  0  0  0  0  0  0
  148.9073  135.0889  159.0071 N   0  0  0  0  0  0  0  0  0  0  0  0
  148.7844  134.2436  157.8116 C   0  0  0  0  0  0  0  0  0  0  0  0
  150.0266  134.2148  156.9296 C   0  0  0  0  0  0  0  0  0  0  0  0
  150.2165  135.2545  155.8505 C   0  0  0  0  0  0  0  0  0  0  0  0
  149.9329  133.8203  155.4749 C   0  0  0  0  0  0  0  0  0  0  0  0
  147.8944  134.9423  160.0707 C   0  0  0  0  0  0  0  0  0  0  0  0
  148.0382  136.0291  161.1741 C   0  0  0  0  0  0  0  0  0  0  0  0
  146.9995  135.8713  162.2947 C   0  0  0  0  0  0  0  0  0  0  0  0
  147.0770  134.4795  162.9314 C   0  0  0  0  0  0  0  0  0  0  0  0
  146.9084  133.3918  161.8646 C   0  0  0  0  0  0  0  0  0  0  0  0
  147.9422  133.5430  160.7370 C   0  0  0  0  0  0  0  0  0  0  0  0
  150.3071  136.9751  159.1064 N   0  0  0  0  0  0  0  0  0  0  0  0
  150.5474  138.2516  158.7921 C   0  0  0  0  0  0  0  0  0  0  0  0
  149.7916  139.0944  158.0839 N   0  0  0  0  0  0  0  0  0  0  0  0
  148.6409  138.4964  157.6610 C   0  0  0  0  0  0  0  0  0  0  0  0
  149.2614  140.9675  154.6343 C   0  0  0  0  0  0  0  0  0  0  0  0
  148.8553  142.0403  153.7598 O   0  0  0  0  0  0  0  0  0  0  0  0
  147.5139  141.9337  154.2802 C   0  0  0  0  0  0  0  0  0  0  0  0
  148.2460  139.5949  152.4256 H   0  0  0  0  0  0  0  0  0  0  0  0
  146.3287  139.0356  154.4115 H   0  0  0  0  0  0  0  0  0  0  0  0
  147.9791  138.4797  154.3051 H   0  0  0  0  0  0  0  0  0  0  0  0
  148.1238  141.0438  157.0143 H   0  0  0  0  0  0  0  0  0  0  0  0
  146.4606  140.7338  156.6239 H   0  0  0  0  0  0  0  0  0  0  0  0
  145.7777  138.1382  156.2064 H   0  0  0  0  0  0  0  0  0  0  0  0
  148.5799  133.2158  158.1050 H   0  0  0  0  0  0  0  0  0  0  0  0
  147.9337  134.5752  157.2146 H   0  0  0  0  0  0  0  0  0  0  0  0
  150.9406  133.9302  157.4480 H   0  0  0  0  0  0  0  0  0  0  0  0
  149.4200  135.9799  155.6965 H   0  0  0  0  0  0  0  0  0  0  0  0
  151.2253  135.6273  155.6846 H   0  0  0  0  0  0  0  0  0  0  0  0
  150.7513  133.2316  155.0656 H   0  0  0  0  0  0  0  0  0  0  0  0
  148.9468  133.5880  155.0776 H   0  0  0  0  0  0  0  0  0  0  0  0
  146.9126  135.0553  159.6078 H   0  0  0  0  0  0  0  0  0  0  0  0
  149.0411  135.9853  161.6013 H   0  0  0  0  0  0  0  0  0  0  0  0
  147.9262  137.0310  160.7591 H   0  0  0  0  0  0  0  0  0  0  0  0
  147.1564  136.6360  163.0559 H   0  0  0  0  0  0  0  0  0  0  0  0
  145.9994  136.0360  161.8921 H   0  0  0  0  0  0  0  0  0  0  0  0
  148.0367  134.3570  163.4352 H   0  0  0  0  0  0  0  0  0  0  0  0
  146.3074  134.3750  163.6968 H   0  0  0  0  0  0  0  0  0  0  0  0
  147.0009  132.4065  162.3224 H   0  0  0  0  0  0  0  0  0  0  0  0
  145.9027  133.4437  161.4455 H   0  0  0  0  0  0  0  0  0  0  0  0
  147.7398  132.7581  160.0096 H   0  0  0  0  0  0  0  0  0  0  0  0
  148.9422  133.3558  161.1308 H   0  0  0  0  0  0  0  0  0  0  0  0
  151.4764  138.6573  159.1643 H   0  0  0  0  0  0  0  0  0  0  0  0
  149.7968  141.3419  155.5085 H   0  0  0  0  0  0  0  0  0  0  0  0
  149.8475  140.2044  154.1210 H   0  0  0  0  0  0  0  0  0  0  0  0
  146.7592  141.9163  153.4933 H   0  0  0  0  0  0  0  0  0  0  0  0
  147.3040  142.7251  155.0007 H   0  0  0  0  0  0  0  0  0  0  0  0
  1  2  1  0  0  0  0
  1 28  1  0  0  0  0
  2  3  1  0  0  0  0
  2 29  1  0  0  0  0
  2 30  1  0  0  0  0
  3 27  1  0  0  0  0
  3  4  1  0  0  0  0
  3 25  1  0  0  0  0
  4  5  1  0  0  0  0
  4 31  1  0  0  0  0
  4 32  1  0  0  0  0
  5 24  1  0  0  0  0
  5  6  1  0  0  0  0
  6  7  2  0  0  0  0
  6 33  1  0  0  0  0
  7  8  1  0  0  0  0
  8 24  2  0  0  0  0
  8  9  1  0  0  0  0
  9 10  1  0  0  0  0
  9 21  2  0  0  0  0
 10 11  1  0  0  0  0
 10 15  1  0  0  0  0
 11 12  1  0  0  0  0
 11 34  1  0  0  0  0
 11 35  1  0  0  0  0
 12 14  1  0  0  0  0
 12 13  1  0  0  0  0
 12 36  1  0  0  0  0
 13 14  1  0  0  0  0
 13 37  1  0  0  0  0
 13 38  1  0  0  0  0
 14 39  1  0  0  0  0
 14 40  1  0  0  0  0
 15 20  1  0  0  0  0
 15 16  1  0  0  0  0
 15 41  1  0  0  0  0
 16 17  1  0  0  0  0
 16 42  1  0  0  0  0
 16 43  1  0  0  0  0
 17 18  1  0  0  0  0
 17 44  1  0  0  0  0
 17 45  1  0  0  0  0
 18 19  1  0  0  0  0
 18 46  1  0  0  0  0
 18 47  1  0  0  0  0
 19 20  1  0  0  0  0
 19 48  1  0  0  0  0
 19 49  1  0  0  0  0
 20 50  1  0  0  0  0
 20 51  1  0  0  0  0
 21 22  1  0  0  0  0
 22 23  2  0  0  0  0
 22 52  1  0  0  0  0
 23 24  1  0  0  0  0
 25 26  1  0  0  0  0
 25 53  1  0  0  0  0
 25 54  1  0  0  0  0
 26 27  1  0  0  0  0
 27 55  1  0  0  0  0
 27 56  1  0  0  0  0
M  END
> <s_m_source_file>
AV-unprocessed.smi

> <i_m_source_file_index>
172

> <i_lp_mmshare_version>
43012

> <i_f3d_flags>
0

> <s_epik_input>
W0NIMl0xT1tDSDJdQzEoW0NIMl1bT0hdKVtDSDJdbihbY0hdbjIpYyhjMjMpbltjSF1uYzNOKFtDSDJdW0NIXTRbQ0gyXVtDSDJdNClbQ0hdNVtDSDJdW0NIMl1bQ0gyXVtDSDJdW0NIMl01

> <s_epik_cmdline>
J2VwaWtfcHl0aG9uJywgJy1waCcsICc3LjAnLCAnLXRuJywgJzgnLCAnLW1hJywgJzIwMCcsICctbWV0YWxfYmluZGluZycsICctaW1hZScsICc8aW5maWxlLm1hZT4nLCAnLW9tYWUnLCAnPG91dGZpbGUubWFlPic=

> <r_lp_tautomer_probability>
1

> <r_epik_Ionization_Penalty>
0.0023612

> <r_epik_Ionization_Penalty_Charging>
0

> <r_epik_Ionization_Penalty_Neutral>
0.0023612

> <r_epik_State_Penalty>
0.00145434

> <r_epik_Charging_Adjusted_Penalty>
0.00145434

> <i_epik_Tot_Q>
0

> <i_epik_Tot_abs_Q>
0

> <r_epik_Metal_State_Penalty>
-0

> <b_epik_Metal_Only>
0

> <s_lp_Force_Field>
OPLS_2005

> <r_lp_Energy>
48.1575

> <b_lp_Chiralities_Consistent>
1

> <s_lp_Variant>
AV-unprocessed.smi:172-1

> <Gold.Version>
5.8.1

> <Gold.Id.Protein>
6NUR|6NUR_protein|mol2

> <Gold.PLP.Fitness>
43.4061

> <Gold.PLP.PLP>
-37.6023

> <Gold.PLP.part.hbond>
-3.6472

> <Gold.PLP.part.metal>
0.0000

> <Gold.PLP.part.buried>
-4.5457

> <Gold.PLP.part.nonpolar>
-29.9639

> <Gold.PLP.part.repulsive>
0.2200

> <Gold.PLP.ligand.clash>
0.0000

> <Gold.PLP.ligand.torsion>
1.5584

> <Gold.PLP.Chemscore.Hbond>
2.4640

> <Gold.PLP.Chemscore.CHOScore>
0.0000

> <Gold.PLP.Chemscore.Metal>
0.0000

> <Gold.Chemscore.Hbonds>
donor molecule, donor type, donor heavy atom, donor atom, acceptor molecule, acceptor atom, score
      L1  H     1    28       P1  7957  1.00
      P1  H  6896  6909       L1    10  0.80
      P1  H  8011  8017       L1    26  0.43

> <Gold.PLP.Chemscore.Internal.Correction>
1.5286

> <Gold.Rescore>
     Score         DG    S(hbond)    S(metal)    S(lipo)     H(rot)  DE(clash)    DE(int)     intcor
     12.32     -13.88       1.56        0.00      90.24       2.87       0.02       1.54       ----

> <Gold.Chemscore.Fitness>
12.3183

> <Gold.Chemscore.DG>
-13.8813

> <Gold.Chemscore.ZeroCoef>
-5.4800

> <Gold.Chemscore.Hbond>
1.5573

> <Gold.Chemscore.Metal>
0.0000

> <Gold.Chemscore.Lipo>
90.2436

> <Gold.Chemscore.Internal_Hbond>
0.0000

> <Gold.Chemscore.DEClash>
0.0217

> <Gold.Chemscore.DEInternal>
1.5413

> <Gold.Chemscore.Rot>
2.8744

> <Gold.Chemscore.Internal.Correction>
   9.000000E+99

> <Gold.Chemscore.Hbonds>
donor molecule, donor type, donor heavy atom, donor atom, acceptor molecule, acceptor atom, score
      L1  H     1    28       P1  7957  0.96
      P1  H  6896  6909       L1    10  0.03
      P1  H  8011  8017       L1    26  0.43

> <Gold.Chemscore.Hbond.Weighted>
-5.2012

> <Gold.Chemscore.Metal.Weighted>
-0.0000

> <Gold.Chemscore.Lipo.Weighted>
-10.5585

> <Gold.Chemscore.Internal_Hbond.Weighted>
0.0000

> <Gold.Chemscore.DEClash.Weighted>
0.0217

> <Gold.Chemscore.DEInternal.Weighted>
1.5413

> <Gold.Chemscore.Rot.Weighted>
7.3584

> <Gold.Chemscore.Internal.Correction.Weighted>
   9.000000E+99

> <Gold.Protein.RotatedTorsions>
[ 6907 6896 6895 6894 ] final   42.36 input  -60.11 | X-H torsion
[ 7974 7965 7964 7962 ] final   21.38 input  175.53 | X-H torsion
[ 8008 7997 7996 7995 ] final   44.59 input   59.86 | X-H torsion
[ 10167 10162 10161 10158 ] final   57.94 input  -65.29 | X-H torsion
[ 10718 10713 10712 10709 ] final  173.58 input   66.30 | X-H torsion
[ 10763 10752 10751 10750 ] final -114.75 input  -60.55 | X-H torsion
[ 11005 11000 10999 10996 ] final   -1.93 input  -57.11 | X-H torsion

> <Gold.Protein.ActiveResidues>
 VAL166  LYS551  ARG553  GLY616  TRP617  ASP618  TYR619  PRO620  LYS621  CYS622 
 ASP623  PHE694  ASN695  SER759  ASP760  ASP761  ALA762  ILE779  LEU786  VAL792 
 PHE793  MET794  SER795  GLU796  ALA797  LYS798  CYS799  TRP800  GLU811  SER814 

> <Gold.Protein.RotatedAtoms>
  152.2069  134.8537  160.0501 H   0  0  0  0  0  0  0  0  0  0  0  0  # atno 6907 bound_to 6896
  151.9370  133.3622  159.3959 H   0  0  0  0  0  0  0  0  0  0  0  0  # atno 6908 bound_to 6896
  150.6967  134.4403  159.5333 H   0  0  0  0  0  0  0  0  0  0  0  0  # atno 6909 bound_to 6896
  146.2073  139.8035  142.8716 H   0  0  0  0  0  0  0  0  0  0  0  0  # atno 7974 bound_to 7965
  155.3218  140.3397  155.4241 H   0  0  0  0  0  0  0  0  0  0  0  0  # atno 8008 bound_to 7997
  156.1905  140.1696  156.8138 H   0  0  0  0  0  0  0  0  0  0  0  0  # atno 8009 bound_to 7997
  154.5437  140.0719  156.8536 H   0  0  0  0  0  0  0  0  0  0  0  0  # atno 8010 bound_to 7997
  140.1925  144.4071  150.6564 H   0  0  0  0  0  0  0  0  0  0  0  0  # atno 10167 bound_to 10162
  156.9623  131.0064  151.2925 H   0  0  0  0  0  0  0  0  0  0  0  0  # atno 10718 bound_to 10713
  154.8453  135.4406  154.1555 H   0  0  0  0  0  0  0  0  0  0  0  0  # atno 10763 bound_to 10752
  153.2705  135.6944  153.7492 H   0  0  0  0  0  0  0  0  0  0  0  0  # atno 10764 bound_to 10752
  153.6734  135.3415  155.3134 H   0  0  0  0  0  0  0  0  0  0  0  0  # atno 10765 bound_to 10752
  140.6527  133.9390  155.8389 H   0  0  0  0  0  0  0  0  0  0  0  0  # atno 11005 bound_to 11000
  145.3271  141.0258  143.3467 LP  0  0  0  0  0  0  0  0  0  0  0  0  # atno 17320 bound_to 7965
  144.8825  139.4884  143.6716 LP  0  0  0  0  0  0  0  0  0  0  0  0  # atno 17321 bound_to 7965
  140.6446  143.2210  151.6215 LP  0  0  0  0  0  0  0  0  0  0  0  0  # atno 17342 bound_to 10162
  139.5250  144.3088  152.1011 LP  0  0  0  0  0  0  0  0  0  0  0  0  # atno 17343 bound_to 10162
  157.5650  130.8271  149.8315 LP  0  0  0  0  0  0  0  0  0  0  0  0  # atno 17370 bound_to 10713
  156.0317  130.3762  150.1669 LP  0  0  0  0  0  0  0  0  0  0  0  0  # atno 17371 bound_to 10713
  141.0524  134.0465  157.3766 LP  0  0  0  0  0  0  0  0  0  0  0  0  # atno 17394 bound_to 11000
  139.9040  135.0174  156.7401 LP  0  0  0  0  0  0  0  0  0  0  0  0  # atno 17395 bound_to 11000

$$$$
