AV-unprocessed.smi:952|AV-procd|sdf|4255|dock7
  -GOLD-   22720 2163D 1   1.00000     0.00000
 Structure written by MMmdl.
 35 35  0  0  0  0  0  0  0  0  1 V2000
  150.8889  136.7765  155.0403 C   0  0  0  0  0  0  0  0  0  0  0  0
  151.0753  138.1278  154.3425 C   0  0  0  0  0  0  0  0  0  0  0  0
  152.0752  139.0353  155.0779 C   0  0  0  0  0  0  0  0  0  0  0  0
  151.7481  139.1590  156.4937 N   0  0  0  0  0  0  0  0  0  0  0  0
  152.1794  138.3326  157.4584 C   0  0  0  0  0  0  0  0  0  0  0  0
  152.8954  137.3542  157.2386 O   0  0  0  0  0  0  0  0  0  0  0  0
  151.7100  138.6523  158.8828 C   0  0  0  0  0  0  0  0  0  0  0  0
  152.0840  140.0024  159.2930 N   0  0  0  0  0  0  0  0  0  0  0  0
  153.3356  140.4887  159.3024 C   0  0  0  0  0  0  0  0  0  0  0  0
  154.3065  139.8554  158.8856 O   0  0  0  0  0  0  0  0  0  0  0  0
  153.5100  141.8960  159.8920 C   0  0  2  0  0  0  0  0  0  0  0  0
  153.2670  141.9372  161.4149 C   0  0  0  0  0  0  0  0  0  0  0  0
  152.6707  142.8414  159.1638 N   0  0  0  0  0  0  0  0  0  0  0  0
  152.6643  144.2183  159.2639 C   0  0  0  0  0  0  0  0  0  0  0  0
  151.7625  144.6936  158.3557 C   0  0  0  0  0  0  0  0  0  0  0  0
  151.2694  143.5186  157.7239 C   0  0  0  0  0  0  0  0  0  0  0  0
  151.8194  142.4147  158.2016 N   0  0  0  0  0  0  0  0  0  0  0  0
  150.1755  136.1551  154.4986 H   0  0  0  0  0  0  0  0  0  0  0  0
  150.5143  136.9058  156.0560 H   0  0  0  0  0  0  0  0  0  0  0  0
  151.8306  136.2298  155.0964 H   0  0  0  0  0  0  0  0  0  0  0  0
  151.4123  137.9552  153.3195 H   0  0  0  0  0  0  0  0  0  0  0  0
  150.1101  138.6303  154.2680 H   0  0  0  0  0  0  0  0  0  0  0  0
  153.0802  138.6200  154.9987 H   0  0  0  0  0  0  0  0  0  0  0  0
  152.1099  140.0224  154.6137 H   0  0  0  0  0  0  0  0  0  0  0  0
  151.1593  139.9347  156.7606 H   0  0  0  0  0  0  0  0  0  0  0  0
  150.6308  138.5117  158.9683 H   0  0  0  0  0  0  0  0  0  0  0  0
  152.1743  137.9430  159.5680 H   0  0  0  0  0  0  0  0  0  0  0  0
  151.3453  140.5871  159.6560 H   0  0  0  0  0  0  0  0  0  0  0  0
  154.5459  142.1964  159.7256 H   0  0  0  0  0  0  0  0  0  0  0  0
  153.9512  141.2691  161.9387 H   0  0  0  0  0  0  0  0  0  0  0  0
  152.2510  141.6409  161.6792 H   0  0  0  0  0  0  0  0  0  0  0  0
  153.4296  142.9420  161.8059 H   0  0  0  0  0  0  0  0  0  0  0  0
  153.2989  144.7409  159.9646 H   0  0  0  0  0  0  0  0  0  0  0  0
  151.5015  145.7240  158.1655 H   0  0  0  0  0  0  0  0  0  0  0  0
  150.5378  143.4360  156.9336 H   0  0  0  0  0  0  0  0  0  0  0  0
  1  2  1  0  0  0  0
  1 18  1  0  0  0  0
  1 19  1  0  0  0  0
  1 20  1  0  0  0  0
  2  3  1  0  0  0  0
  2 21  1  0  0  0  0
  2 22  1  0  0  0  0
  3  4  1  0  0  0  0
  3 23  1  0  0  0  0
  3 24  1  0  0  0  0
  4  5  1  0  0  0  0
  4 25  1  0  0  0  0
  5  6  2  0  0  0  0
  5  7  1  0  0  0  0
  7  8  1  0  0  0  0
  7 26  1  0  0  0  0
  7 27  1  0  0  0  0
  8  9  1  0  0  0  0
  8 28  1  0  0  0  0
  9 10  2  0  0  0  0
  9 11  1  0  0  0  0
 11 12  1  0  0  0  0
 11 13  1  0  0  0  0
 11 29  1  0  0  0  0
 12 30  1  0  0  0  0
 12 31  1  0  0  0  0
 12 32  1  0  0  0  0
 13 17  1  0  0  0  0
 13 14  1  0  0  0  0
 14 15  2  0  0  0  0
 14 33  1  0  0  0  0
 15 16  1  0  0  0  0
 15 34  1  0  0  0  0
 16 17  2  0  0  0  0
 16 35  1  0  0  0  0
M  END
> <s_m_source_file>
AV-unprocessed.smi

> <i_m_source_file_index>
952

> <i_lp_mmshare_version>
43012

> <i_f3d_flags>
0

> <s_epik_input>
W0NIM11bQ0gyXVtDSDJdW05IXUMoPU8pW0NIMl1bTkhdQyg9TylbQ0BIXShbQ0gzXSluMVtjSF1bY0hdW2NIXW4x

> <s_epik_cmdline>
J2VwaWtfcHl0aG9uJywgJy1waCcsICc3LjAnLCAnLXRuJywgJzgnLCAnLW1hJywgJzIwMCcsICctbWV0YWxfYmluZGluZycsICctaW1hZScsICc8aW5maWxlLm1hZT4nLCAnLW9tYWUnLCAnPG91dGZpbGUubWFlPic=

> <r_lp_tautomer_probability>
1

> <r_epik_Ionization_Penalty>
2.62173e-05

> <r_epik_Ionization_Penalty_Charging>
0

> <r_epik_Ionization_Penalty_Neutral>
2.62173e-05

> <r_epik_State_Penalty>
-0

> <r_epik_Charging_Adjusted_Penalty>
0

> <i_epik_Tot_Q>
0

> <i_epik_Tot_abs_Q>
0

> <r_epik_Metal_State_Penalty>
-0

> <b_epik_Metal_Only>
0

> <s_lp_Force_Field>
OPLS_2005

> <r_lp_Energy>
2.54984

> <b_lp_Chiralities_Consistent>
1

> <s_lp_Variant>
AV-unprocessed.smi:952-1

> <Gold.Version>
5.8.1

> <Gold.Id.Protein>
6NUR|6NUR_protein|mol2

> <Gold.PLP.Fitness>
42.4766

> <Gold.PLP.PLP>
-37.0749

> <Gold.PLP.part.hbond>
-1.0000

> <Gold.PLP.part.metal>
0.0000

> <Gold.PLP.part.buried>
-3.5864

> <Gold.PLP.part.nonpolar>
-32.3463

> <Gold.PLP.part.repulsive>
0.2765

> <Gold.PLP.ligand.clash>
0.0000

> <Gold.PLP.ligand.torsion>
0.3688

> <Gold.PLP.Chemscore.Hbond>
1.0000

> <Gold.PLP.Chemscore.CHOScore>
1.0000

> <Gold.PLP.Chemscore.Metal>
0.0000

> <Gold.Chemscore.Hbonds>
donor molecule, donor type, donor heavy atom, donor atom, acceptor molecule, acceptor atom, score
      P1  H  7997  8010       L1    10  1.00
      L1  C    16    35       P1  8028  1.00

> <Gold.PLP.Chemscore.Internal.Correction>
0.1393

> <Gold.Rescore>
     Score         DG    S(hbond)    S(metal)    S(lipo)     H(rot)  DE(clash)    DE(int)     intcor
     10.19     -13.33       0.98        0.00      88.01       2.24       0.02       3.12       ----

> <Gold.Chemscore.Fitness>
10.1850

> <Gold.Chemscore.DG>
-13.3273

> <Gold.Chemscore.ZeroCoef>
-5.4800

> <Gold.Chemscore.Hbond>
0.9805

> <Gold.Chemscore.Metal>
0.0000

> <Gold.Chemscore.Lipo>
88.0123

> <Gold.Chemscore.Internal_Hbond>
0.0000

> <Gold.Chemscore.DEClash>
0.0178

> <Gold.Chemscore.DEInternal>
3.1244

> <Gold.Chemscore.Rot>
2.2364

> <Gold.Chemscore.Internal.Correction>
   9.000000E+99

> <Gold.Chemscore.Hbonds>
donor molecule, donor type, donor heavy atom, donor atom, acceptor molecule, acceptor atom, score
      P1  H  7997  8010       L1    10  0.97

> <Gold.Chemscore.Hbond.Weighted>
-3.2750

> <Gold.Chemscore.Metal.Weighted>
-0.0000

> <Gold.Chemscore.Lipo.Weighted>
-10.2974

> <Gold.Chemscore.Internal_Hbond.Weighted>
0.0000

> <Gold.Chemscore.DEClash.Weighted>
0.0178

> <Gold.Chemscore.DEInternal.Weighted>
3.1244

> <Gold.Chemscore.Rot.Weighted>
5.7251

> <Gold.Chemscore.Internal.Correction.Weighted>
   9.000000E+99

> <Gold.Protein.RotatedTorsions>
[ 6907 6896 6895 6894 ] final  145.60 input  -60.11 | X-H torsion
[ 7974 7965 7964 7962 ] final  -47.21 input  175.53 | X-H torsion
[ 8008 7997 7996 7995 ] final   13.88 input   59.86 | X-H torsion
[ 10167 10162 10161 10158 ] final -134.37 input  -65.29 | X-H torsion
[ 10718 10713 10712 10709 ] final   92.54 input   66.30 | X-H torsion
[ 10763 10752 10751 10750 ] final  -56.79 input  -60.55 | X-H torsion
[ 11005 11000 10999 10996 ] final    1.49 input  -57.11 | X-H torsion

> <Gold.Protein.ActiveResidues>
 VAL166  LYS551  ARG553  GLY616  TRP617  ASP618  TYR619  PRO620  LYS621  CYS622 
 ASP623  PHE694  ASN695  SER759  ASP760  ASP761  ALA762  ILE779  LEU786  VAL792 
 PHE793  MET794  SER795  GLU796  ALA797  LYS798  CYS799  TRP800  GLU811  SER814 

> <Gold.Protein.RotatedAtoms>
  152.1787  133.4693  159.4946 H   0  0  0  0  0  0  0  0  0  0  0  0  # atno 6907 bound_to 6896
  150.6931  134.1860  159.4276 H   0  0  0  0  0  0  0  0  0  0  0  0  # atno 6908 bound_to 6896
  151.9771  135.0047  160.0606 H   0  0  0  0  0  0  0  0  0  0  0  0  # atno 6909 bound_to 6896
  145.9639  140.7451  142.9443 H   0  0  0  0  0  0  0  0  0  0  0  0  # atno 7974 bound_to 7965
  154.8406  140.2914  155.5662 H   0  0  0  0  0  0  0  0  0  0  0  0  # atno 8008 bound_to 7997
  156.3011  140.2514  156.3280 H   0  0  0  0  0  0  0  0  0  0  0  0  # atno 8009 bound_to 7997
  154.9129  140.0388  157.1945 H   0  0  0  0  0  0  0  0  0  0  0  0  # atno 8010 bound_to 7997
  139.8888  143.6748  152.2615 H   0  0  0  0  0  0  0  0  0  0  0  0  # atno 10167 bound_to 10162
  157.6958  131.0447  150.3897 H   0  0  0  0  0  0  0  0  0  0  0  0  # atno 10718 bound_to 10713
  154.2122  135.6392  153.5119 H   0  0  0  0  0  0  0  0  0  0  0  0  # atno 10763 bound_to 10752
  152.9987  135.5477  154.6203 H   0  0  0  0  0  0  0  0  0  0  0  0  # atno 10764 bound_to 10752
  154.5642  135.2911  155.0863 H   0  0  0  0  0  0  0  0  0  0  0  0  # atno 10765 bound_to 10752
  140.6149  133.9715  155.8195 H   0  0  0  0  0  0  0  0  0  0  0  0  # atno 11005 bound_to 11000
  144.6821  140.2637  143.7315 LP  0  0  0  0  0  0  0  0  0  0  0  0  # atno 17320 bound_to 7965
  145.8001  139.1961  143.2053 LP  0  0  0  0  0  0  0  0  0  0  0  0  # atno 17321 bound_to 7965
  139.7129  144.7617  151.1082 LP  0  0  0  0  0  0  0  0  0  0  0  0  # atno 17342 bound_to 10162
  140.7730  143.5307  150.9426 LP  0  0  0  0  0  0  0  0  0  0  0  0  # atno 17343 bound_to 10162
  156.4302  130.3970  149.6765 LP  0  0  0  0  0  0  0  0  0  0  0  0  # atno 17370 bound_to 10713
  156.3985  130.7663  151.2669 LP  0  0  0  0  0  0  0  0  0  0  0  0  # atno 17371 bound_to 10713
  141.0783  134.0101  157.3425 LP  0  0  0  0  0  0  0  0  0  0  0  0  # atno 17394 bound_to 11000
  139.9177  135.0198  156.7945 LP  0  0  0  0  0  0  0  0  0  0  0  0  # atno 17395 bound_to 11000

$$$$
