AV-unprocessed.smi:2775|AV-procd|sdf|10703|dock3
  -GOLD-   2272015143D 1   1.00000     0.00000
 Structure written by MMmdl.
 43 46  0  0  0  0  0  0  0  0  2 V2000
  144.1777  132.2259  150.2943 C   0  0  0  0  0  0  0  0  0  0  0  0
  144.1165  133.4207  151.2264 C   0  0  0  0  0  0  0  0  0  0  0  0
  142.8984  133.8290  151.6453 N   0  3  0  0  0  0  0  0  0  0  0  0
  142.7202  134.8726  152.4814 C   0  0  0  0  0  0  0  0  0  0  0  0
  143.8342  135.5943  152.9518 C   0  0  0  0  0  0  0  0  0  0  0  0
  145.1354  135.2199  152.5306 C   0  0  0  0  0  0  0  0  0  0  0  0
  146.3171  135.8807  152.9671 N   0  0  0  0  0  0  0  0  0  0  0  0
  146.4841  136.7201  154.0075 C   0  0  0  0  0  0  0  0  0  0  0  0
  145.6045  137.0319  154.8071 O   0  0  0  0  0  0  0  0  0  0  0  0
  147.7256  137.2254  154.1039 N   0  0  0  0  0  0  0  0  0  0  0  0
  148.2286  138.1622  155.1180 C   0  0  1  0  0  0  0  0  0  0  0  0
  149.7526  138.1342  155.3006 C   0  0  1  0  0  0  0  0  0  0  0  0
  150.8314  137.1400  155.0644 C   0  0  0  0  0  0  0  0  0  0  0  0
  151.8906  138.1329  154.5210 C   0  0  0  0  0  0  0  0  0  0  0  0
  151.1966  139.3935  154.3439 O   0  0  0  0  0  0  0  0  0  0  0  0
  149.8559  139.0269  154.0744 C   0  0  2  0  0  0  0  0  0  0  0  0
  148.5099  139.5947  154.5595 C   0  0  0  0  0  0  0  0  0  0  0  0
  147.5537  140.3003  153.5901 C   0  0  0  0  0  0  0  0  0  0  0  0
  147.9911  141.6321  154.2089 C   0  0  0  0  0  0  0  0  0  0  0  0
  148.4606  140.8528  155.4414 C   0  0  0  0  0  0  0  0  0  0  0  0
  145.2737  134.1064  151.6650 C   0  0  0  0  0  0  0  0  0  0  0  0
  146.8411  133.5883  151.1414 Cl  0  0  0  0  0  0  0  0  0  0  0  0
  144.6536  132.5024  149.3532 H   0  0  0  0  0  0  0  0  0  0  0  0
  143.1809  131.8441  150.0703 H   0  0  0  0  0  0  0  0  0  0  0  0
  144.7546  131.4198  150.7485 H   0  0  0  0  0  0  0  0  0  0  0  0
  141.6983  135.0944  152.7527 H   0  0  0  0  0  0  0  0  0  0  0  0
  143.6677  136.4123  153.6357 H   0  0  0  0  0  0  0  0  0  0  0  0
  147.1166  135.7773  152.3588 H   0  0  0  0  0  0  0  0  0  0  0  0
  148.3935  136.9287  153.4064 H   0  0  0  0  0  0  0  0  0  0  0  0
  147.6634  138.1666  156.0514 H   0  0  0  0  0  0  0  0  0  0  0  0
  149.9774  138.6833  156.2223 H   0  0  0  0  0  0  0  0  0  0  0  0
  151.1551  136.6378  155.9760 H   0  0  0  0  0  0  0  0  0  0  0  0
  150.5521  136.3939  154.3197 H   0  0  0  0  0  0  0  0  0  0  0  0
  152.7213  138.2655  155.2147 H   0  0  0  0  0  0  0  0  0  0  0  0
  152.2954  137.7858  153.5694 H   0  0  0  0  0  0  0  0  0  0  0  0
  149.7712  138.4923  153.1233 H   0  0  0  0  0  0  0  0  0  0  0  0
  147.8022  140.1836  152.5350 H   0  0  0  0  0  0  0  0  0  0  0  0
  146.5065  140.0675  153.7882 H   0  0  0  0  0  0  0  0  0  0  0  0
  148.8160  142.0972  153.6667 H   0  0  0  0  0  0  0  0  0  0  0  0
  147.1807  142.3369  154.3964 H   0  0  0  0  0  0  0  0  0  0  0  0
  147.6968  140.7939  156.2183 H   0  0  0  0  0  0  0  0  0  0  0  0
  149.4223  141.1740  155.8424 H   0  0  0  0  0  0  0  0  0  0  0  0
  142.0759  133.3209  151.3192 H   0  0  0  0  0  0  0  0  0  0  0  0
  1  2  1  0  0  0  0
  1 23  1  0  0  0  0
  1 24  1  0  0  0  0
  1 25  1  0  0  0  0
  2 21  1  0  0  0  0
  2  3  2  0  0  0  0
  3  4  1  0  0  0  0
  3 43  1  0  0  0  0
  4  5  2  0  0  0  0
  4 26  1  0  0  0  0
  5  6  1  0  0  0  0
  5 27  1  0  0  0  0
  6  7  1  0  0  0  0
  6 21  2  0  0  0  0
  7  8  1  0  0  0  0
  7 28  1  0  0  0  0
  8  9  2  0  0  0  0
  8 10  1  0  0  0  0
 10 11  1  0  0  0  0
 10 29  1  0  0  0  0
 11 17  1  0  0  0  0
 11 12  1  0  0  0  0
 11 30  1  0  0  0  0
 12 16  1  0  0  0  0
 12 13  1  0  0  0  0
 12 31  1  0  0  0  0
 13 14  1  0  0  0  0
 13 32  1  0  0  0  0
 13 33  1  0  0  0  0
 14 15  1  0  0  0  0
 14 34  1  0  0  0  0
 14 35  1  0  0  0  0
 15 16  1  0  0  0  0
 16 17  1  0  0  0  0
 16 36  1  0  0  0  0
 17 20  1  0  0  0  0
 17 18  1  0  0  0  0
 18 19  1  0  0  0  0
 18 37  1  0  0  0  0
 18 38  1  0  0  0  0
 19 20  1  0  0  0  0
 19 39  1  0  0  0  0
 19 40  1  0  0  0  0
 20 41  1  0  0  0  0
 20 42  1  0  0  0  0
 21 22  1  0  0  0  0
M  CHG  1   3   1
M  END
> <s_m_source_file>
AV-unprocessed.smi

> <i_m_source_file_index>
2775

> <i_lp_mmshare_version>
43012

> <i_f3d_flags>
0

> <s_epik_input>
W0NIM11jMW5bY0hdW2NIXWMoYzFDbClbTkhdQyg9TylbTkhdW0NAQEhdMltDQEhdKFtDSDJdW0NIMl1PMylbQ0BASF0zQzI0W0NIMl1bQ0gyXVtDSDJdNA==

> <s_epik_cmdline>
J2VwaWtfcHl0aG9uJywgJy1waCcsICc3LjAnLCAnLXRuJywgJzgnLCAnLW1hJywgJzIwMCcsICctbWV0YWxfYmluZGluZycsICctaW1hZScsICc8aW5maWxlLm1hZT4nLCAnLW9tYWUnLCAnPG91dGZpbGUubWFlPic=

> <r_epik_Ionization_Penalty>
2.4104

> <r_epik_Ionization_Penalty_Charging>
2.41038

> <r_epik_Ionization_Penalty_Neutral>
1.9872e-05

> <r_epik_State_Penalty>
2.56896

> <r_epik_Charging_Adjusted_Penalty>
4.97934

> <i_epik_Tot_Q>
1

> <i_epik_Tot_abs_Q>
1

> <r_epik_Metal_State_Penalty>
2.57906

> <b_epik_Metal_Only>
0

> <s_lp_Force_Field>
OPLS_2005

> <r_lp_Energy>
86.6526

> <b_lp_Chiralities_Consistent>
1

> <s_lp_Variant>
AV-unprocessed.smi:2775-16

> <Gold.Version>
5.8.1

> <Gold.Id.Protein>
6NUR|6NUR_protein|mol2

> <Gold.PLP.Fitness>
44.2350

> <Gold.PLP.PLP>
-35.0437

> <Gold.PLP.part.hbond>
-4.0000

> <Gold.PLP.part.metal>
0.0000

> <Gold.PLP.part.buried>
-4.7169

> <Gold.PLP.part.nonpolar>
-26.5566

> <Gold.PLP.part.repulsive>
0.1836

> <Gold.PLP.ligand.clash>
0.0000

> <Gold.PLP.ligand.torsion>
0.2745

> <Gold.PLP.Chemscore.Hbond>
3.1414

> <Gold.PLP.Chemscore.CHOScore>
0.0000

> <Gold.PLP.Chemscore.Metal>
0.0000

> <Gold.Chemscore.Hbonds>
donor molecule, donor type, donor heavy atom, donor atom, acceptor molecule, acceptor atom, score
      L1  H     3    43       P1 10186  0.13
      L1  H     7    28       P1  7948  1.00
      L1  H    10    29       P1  7948  1.00
      P1  H  7989  7998       L1    15  1.00

> <Gold.PLP.Chemscore.Internal.Correction>
0.3160

> <Gold.Rescore>
     Score         DG    S(hbond)    S(metal)    S(lipo)     H(rot)  DE(clash)    DE(int)     intcor
     22.33     -23.80       3.12        0.00      89.36       1.00       0.01       1.47       ----

> <Gold.Chemscore.Fitness>
22.3278

> <Gold.Chemscore.DG>
-23.8022

> <Gold.Chemscore.ZeroCoef>
-5.4800

> <Gold.Chemscore.Hbond>
3.1217

> <Gold.Chemscore.Metal>
0.0000

> <Gold.Chemscore.Lipo>
89.3639

> <Gold.Chemscore.Internal_Hbond>
0.0000

> <Gold.Chemscore.DEClash>
0.0052

> <Gold.Chemscore.DEInternal>
1.4692

> <Gold.Chemscore.Rot>
1.0000

> <Gold.Chemscore.Internal.Correction>
   9.000000E+99

> <Gold.Chemscore.Hbonds>
donor molecule, donor type, donor heavy atom, donor atom, acceptor molecule, acceptor atom, score
      L1  H     3    43       P1 10186  0.04
      L1  H     7    28       P1  7948  0.96
      L1  H    10    29       P1  7948  0.99
      P1  H  7989  7998       L1    15  0.78

> <Gold.Chemscore.Hbond.Weighted>
-10.4266

> <Gold.Chemscore.Metal.Weighted>
-0.0000

> <Gold.Chemscore.Lipo.Weighted>
-10.4556

> <Gold.Chemscore.Internal_Hbond.Weighted>
0.0000

> <Gold.Chemscore.DEClash.Weighted>
0.0052

> <Gold.Chemscore.DEInternal.Weighted>
1.4692

> <Gold.Chemscore.Rot.Weighted>
2.5600

> <Gold.Chemscore.Internal.Correction.Weighted>
   9.000000E+99

> <Gold.Protein.RotatedTorsions>
[ 6907 6896 6895 6894 ] final  -21.46 input  -60.11 | X-H torsion
[ 7974 7965 7964 7962 ] final  129.17 input  175.53 | X-H torsion
[ 8008 7997 7996 7995 ] final  172.33 input   59.86 | X-H torsion
[ 10167 10162 10161 10158 ] final  -12.98 input  -65.29 | X-H torsion
[ 10718 10713 10712 10709 ] final  -82.57 input   66.30 | X-H torsion
[ 10763 10752 10751 10750 ] final  125.95 input  -60.55 | X-H torsion
[ 11005 11000 10999 10996 ] final  -32.87 input  -57.11 | X-H torsion

> <Gold.Protein.ActiveResidues>
 VAL166  LYS551  ARG553  GLY616  TRP617  ASP618  TYR619  PRO620  LYS621  CYS622 
 ASP623  PHE694  ASN695  SER759  ASP760  ASP761  ALA762  ILE779  LEU786  VAL792 
 PHE793  MET794  SER795  GLU796  ALA797  LYS798  CYS799  TRP800  GLU811  SER814 

> <Gold.Protein.RotatedAtoms>
  151.2330  135.0561  159.8994 H   0  0  0  0  0  0  0  0  0  0  0  0  # atno 6907 bound_to 6896
  152.5402  134.0516  159.8123 H   0  0  0  0  0  0  0  0  0  0  0  0  # atno 6908 bound_to 6896
  151.0699  133.5426  159.2659 H   0  0  0  0  0  0  0  0  0  0  0  0  # atno 6909 bound_to 6896
  145.0316  139.4041  143.5147 H   0  0  0  0  0  0  0  0  0  0  0  0  # atno 7974 bound_to 7965
  156.1185  140.1488  156.9239 H   0  0  0  0  0  0  0  0  0  0  0  0  # atno 8008 bound_to 7997
  154.4818  140.0877  156.7436 H   0  0  0  0  0  0  0  0  0  0  0  0  # atno 8009 bound_to 7997
  155.4471  140.3433  155.4299 H   0  0  0  0  0  0  0  0  0  0  0  0  # atno 8010 bound_to 7997
  140.7173  143.5475  150.9339 H   0  0  0  0  0  0  0  0  0  0  0  0  # atno 10167 bound_to 10162
  156.0031  130.4638  150.4124 H   0  0  0  0  0  0  0  0  0  0  0  0  # atno 10718 bound_to 10713
  153.6855  135.3307  155.3189 H   0  0  0  0  0  0  0  0  0  0  0  0  # atno 10763 bound_to 10752
  154.8454  135.4419  154.1562 H   0  0  0  0  0  0  0  0  0  0  0  0  # atno 10764 bound_to 10752
  153.2590  135.6989  153.7676 H   0  0  0  0  0  0  0  0  0  0  0  0  # atno 10765 bound_to 10752
  140.9587  133.7177  156.1335 H   0  0  0  0  0  0  0  0  0  0  0  0  # atno 11005 bound_to 11000
  146.3499  139.9869  142.8690 LP  0  0  0  0  0  0  0  0  0  0  0  0  # atno 17320 bound_to 7965
  145.1763  140.9745  143.4292 LP  0  0  0  0  0  0  0  0  0  0  0  0  # atno 17321 bound_to 7965
  139.9199  143.6619  152.3099 LP  0  0  0  0  0  0  0  0  0  0  0  0  # atno 17342 bound_to 10162
  139.7032  144.7632  151.1238 LP  0  0  0  0  0  0  0  0  0  0  0  0  # atno 17343 bound_to 10162
  157.2186  131.0477  151.2559 LP  0  0  0  0  0  0  0  0  0  0  0  0  # atno 17370 bound_to 10713
  157.3821  130.7237  149.6638 LP  0  0  0  0  0  0  0  0  0  0  0  0  # atno 17371 bound_to 10713
  140.7498  134.4057  157.5543 LP  0  0  0  0  0  0  0  0  0  0  0  0  # atno 17394 bound_to 11000
  139.8871  134.8892  156.2548 LP  0  0  0  0  0  0  0  0  0  0  0  0  # atno 17395 bound_to 11000

$$$$
