#       Name:                AV-unprocessed.smi:317
#       Creating user name   scv26
#       Creation time:       Thu Mar 26 22:22:59 2020


#       File generated by GOLD software.
#

@<TRIPOS>MOLECULE
AV-unprocessed.smi:317
    45    46     1
SMALL
NO_CHARGES


@<TRIPOS>ATOM
      1 ****        -3.9275  -0.7799   1.2028 C.3            1 S1                 0.0000
      2 ****        -3.7067  -0.3848  -0.2668 C.3            1 S1                 0.0000
      3 ****        -4.2883  -1.4435  -1.2210 C.3            1 S1                 0.0000
      4 ****        -4.5501  -0.8727  -2.4857 O.3            1 S1                 0.0000
      5 ****        -2.2748  -0.2416  -0.5168 N.am           1 S1                 0.0000
      6 ****        -1.5579   0.8703  -0.3020 C.2            1 S1                 0.0000
      7 ****        -2.0314   1.9120   0.1523 O.2            1 S1                 0.0000
      8 ****        -0.2677   0.6841  -0.6253 N.am           1 S1                 0.0000
      9 ****         0.8074   1.6063  -0.4917 C.ar           1 S1                 0.0000
     10 ****         0.6205   2.9917  -0.7176 C.ar           1 S1                 0.0000
     11 ****         1.7255   3.8570  -0.6469 C.ar           1 S1                 0.0000
     12 ****         2.9860   3.3031  -0.3679 C.ar           1 S1                 0.0000
     13 ****         3.1828   1.9854  -0.1627 N.ar           1 S1                 0.0000
     14 ****         2.1241   1.1394  -0.2130 C.ar           1 S1                 0.0000
     15 ****         2.3873  -0.2288   0.0289 N.3            1 S1                 0.0000
     16 ****         3.7565  -0.7329   0.0216 C.3            1 S1                 0.0000
     17 ****         3.6783  -2.0998   0.6953 C.3            1 S1                 0.0000
     18 ****         2.6038  -1.8788   1.7549 C.3            1 S1                 0.0000
     19 ****         1.6356  -0.8957   1.0885 C.3            1 S1                 0.0000
     20 ****        -4.9897  -0.8844   1.4254 H              1 S1                 0.0000
     21 ****        -3.5261  -0.0260   1.8810 H              1 S1                 0.0000
     22 ****        -3.4440  -1.7291   1.4364 H              1 S1                 0.0000
     23 ****        -4.2159   0.5657  -0.4395 H              1 S1                 0.0000
     24 ****        -3.6260  -2.3041  -1.3230 H              1 S1                 0.0000
     25 ****        -5.2380  -1.8172  -0.8369 H              1 S1                 0.0000
     26 ****        -4.9258  -1.5364  -3.0436 H              1 S1                 0.0000
     27 ****        -1.7981  -1.0474  -0.8939 H              1 S1                 0.0000
     28 ****        -0.0040  -0.2534  -0.8912 H              1 S1                 0.0000
     29 ****        -0.3474   3.3995  -0.9669 H              1 S1                 0.0000
     30 ****         1.6106   4.9172  -0.8162 H              1 S1                 0.0000
     31 ****         3.8612   3.9335  -0.3136 H              1 S1                 0.0000
     32 ****         4.1483  -0.8031  -0.9933 H              1 S1                 0.0000
     33 ****         4.4136  -0.0819   0.5999 H              1 S1                 0.0000
     34 ****         3.3460  -2.8517  -0.0217 H              1 S1                 0.0000
     35 ****         4.6320  -2.4241   1.1127 H              1 S1                 0.0000
     36 ****         2.1190  -2.8026   2.0709 H              1 S1                 0.0000
     37 ****         3.0492  -1.4143   2.6355 H              1 S1                 0.0000
     38 ****         1.2254  -0.1889   1.8111 H              1 S1                 0.0000
     39 ****         0.8050  -1.4408   0.6398 H              1 S1                 0.0000
     40 ****        -3.6977  -0.5379  -2.8873 LP             1 S1                 0.0000
     41 ****        -5.1926  -0.1130  -2.3860 LP             1 S1                 0.0000
     42 ****        -3.0031   1.9604   0.3833 LP             1 S1                 0.0000
     43 ****        -1.4442   2.7096   0.2903 LP             1 S1                 0.0000
     44 ****         4.1005   1.6351   0.0248 LP             1 S1                 0.0000
     45 ****         2.0049  -0.4951  -0.8559 LP             1 S1                 0.0000
@<TRIPOS>BOND
    1    1    2 1     
    2    1   20 1     
    3    1   21 1     
    4    1   22 1     
    5    2    3 1     
    6    2    5 1     
    7    2   23 1     
    8    3    4 1     
    9    3   24 1     
   10    3   25 1     
   11    4   26 1     
   12    5    6 am    
   13    5   27 1     
   14    6    7 2     
   15    6    8 am    
   16    8    9 1     
   17    8   28 1     
   18    9   14 ar    
   19    9   10 ar    
   20   10   11 ar    
   21   10   29 1     
   22   11   12 ar    
   23   11   30 1     
   24   12   13 ar    
   25   12   31 1     
   26   13   14 ar    
   27   14   15 1     
   28   15   19 1     
   29   15   16 1     
   30   16   17 1     
   31   16   32 1     
   32   16   33 1     
   33   17   18 1     
   34   17   34 1     
   35   17   35 1     
   36   18   19 1     
   37   18   36 1     
   38   18   37 1     
   39   19   38 1     
   40   19   39 1     
   41    4   40 1     
   42    4   41 1     
   43    7   42 1     
   44    7   43 1     
   45   13   44 1     
   46   15   45 1     
@<TRIPOS>SUBSTRUCTURE
      1 S1             1
@<TRIPOS>SET
LONE_PAIRS      STATIC     ATOMS    <user>   **** ""
6 40 41 42 43 44 45
DONOR_HYDROGENS      STATIC     ATOMS    <user>   **** ""
3 26 27 28
ATOM$BLUE        STATIC     ATOMS    COLORGROUP SYSTEM
6 40 41 42 43 44 45
ATOM$RED        STATIC     ATOMS    COLORGROUP SYSTEM
3 26 27 28
