AV-unprocessed.smi:2378|AV-procd|sdf|9450|dock9
  -GOLD-   2272013 83D 1   1.00000     0.00000
 Structure written by MMmdl.
 40 41  0  0  0  0  0  0  0  0  1 V2000
  151.5341  145.7964  160.6805 C   0  0  0  0  0  0  0  0  0  0  0  0
  151.6676  144.4734  159.9559 C   0  0  0  0  0  0  0  0  0  0  0  0
  152.5067  143.4580  160.4530 C   0  0  0  0  0  0  0  0  0  0  0  0
  152.5882  142.2521  159.7324 C   0  0  0  0  0  0  0  0  0  0  0  0
  151.9033  142.0247  158.5921 N   0  0  0  0  0  0  0  0  0  0  0  0
  151.0918  142.9953  158.1030 C   0  0  0  0  0  0  0  0  0  0  0  0
  150.3259  142.8591  156.9146 N   0  0  0  0  0  0  0  0  0  0  0  0
  149.9588  141.7281  156.2862 C   0  0  0  0  0  0  0  0  0  0  0  0
  150.2445  140.5863  156.6481 O   0  0  0  0  0  0  0  0  0  0  0  0
  149.2331  141.9962  155.1909 N   0  0  0  0  0  0  0  0  0  0  0  0
  148.6936  140.9957  154.2772 C   0  0  0  0  0  0  0  0  0  0  0  0
  147.6528  141.6071  153.3238 C   0  0  0  0  0  0  0  0  0  0  0  0
  146.6698  142.5492  154.0363 C   0  0  1  0  0  0  0  0  0  0  0  0
  145.8840  143.4222  153.0385 C   0  0  0  0  0  0  0  0  0  0  0  0
  144.8612  144.2941  153.7750 C   0  0  0  0  0  0  0  0  0  0  0  0
  143.9791  143.4131  154.6654 C   0  0  0  0  0  0  0  0  0  0  0  0
  144.8500  142.5335  155.5768 C   0  0  0  0  0  0  0  0  0  0  0  0
  145.7503  141.7602  154.7893 O   0  0  0  0  0  0  0  0  0  0  0  0
  150.9520  144.2363  158.7648 C   0  0  0  0  0  0  0  0  0  0  0  0
  152.0192  145.7638  161.6566 H   0  0  0  0  0  0  0  0  0  0  0  0
  150.4826  146.0418  160.8316 H   0  0  0  0  0  0  0  0  0  0  0  0
  151.9938  146.5941  160.0967 H   0  0  0  0  0  0  0  0  0  0  0  0
  153.0750  143.5946  161.3613 H   0  0  0  0  0  0  0  0  0  0  0  0
  153.2205  141.4485  160.0804 H   0  0  0  0  0  0  0  0  0  0  0  0
  150.0234  143.7244  156.4924 H   0  0  0  0  0  0  0  0  0  0  0  0
  149.0456  142.9627  154.9682 H   0  0  0  0  0  0  0  0  0  0  0  0
  149.5027  140.5255  153.7158 H   0  0  0  0  0  0  0  0  0  0  0  0
  148.2334  140.2083  154.8741 H   0  0  0  0  0  0  0  0  0  0  0  0
  148.1731  142.1600  152.5405 H   0  0  0  0  0  0  0  0  0  0  0  0
  147.0965  140.8144  152.8218 H   0  0  0  0  0  0  0  0  0  0  0  0
  147.2308  143.1938  154.7156 H   0  0  0  0  0  0  0  0  0  0  0  0
  146.5657  144.0519  152.4662 H   0  0  0  0  0  0  0  0  0  0  0  0
  145.3681  142.7855  152.3185 H   0  0  0  0  0  0  0  0  0  0  0  0
  145.3810  145.0324  154.3869 H   0  0  0  0  0  0  0  0  0  0  0  0
  144.2503  144.8492  153.0627 H   0  0  0  0  0  0  0  0  0  0  0  0
  143.3086  144.0311  155.2632 H   0  0  0  0  0  0  0  0  0  0  0  0
  143.3484  142.7781  154.0420 H   0  0  0  0  0  0  0  0  0  0  0  0
  145.4059  143.1429  156.2910 H   0  0  0  0  0  0  0  0  0  0  0  0
  144.2216  141.8579  156.1573 H   0  0  0  0  0  0  0  0  0  0  0  0
  150.3024  145.0015  158.3646 H   0  0  0  0  0  0  0  0  0  0  0  0
  1  2  1  0  0  0  0
  1 20  1  0  0  0  0
  1 21  1  0  0  0  0
  1 22  1  0  0  0  0
  2 19  1  0  0  0  0
  2  3  2  0  0  0  0
  3  4  1  0  0  0  0
  3 23  1  0  0  0  0
  4  5  2  0  0  0  0
  4 24  1  0  0  0  0
  5  6  1  0  0  0  0
  6  7  1  0  0  0  0
  6 19  2  0  0  0  0
  7  8  1  0  0  0  0
  7 25  1  0  0  0  0
  8  9  2  0  0  0  0
  8 10  1  0  0  0  0
 10 11  1  0  0  0  0
 10 26  1  0  0  0  0
 11 12  1  0  0  0  0
 11 27  1  0  0  0  0
 11 28  1  0  0  0  0
 12 13  1  0  0  0  0
 12 29  1  0  0  0  0
 12 30  1  0  0  0  0
 13 18  1  0  0  0  0
 13 14  1  0  0  0  0
 13 31  1  0  0  0  0
 14 15  1  0  0  0  0
 14 32  1  0  0  0  0
 14 33  1  0  0  0  0
 15 16  1  0  0  0  0
 15 34  1  0  0  0  0
 15 35  1  0  0  0  0
 16 17  1  0  0  0  0
 16 36  1  0  0  0  0
 16 37  1  0  0  0  0
 17 18  1  0  0  0  0
 17 38  1  0  0  0  0
 17 39  1  0  0  0  0
 19 40  1  0  0  0  0
M  END
> <s_m_source_file>
AV-unprocessed.smi

> <i_m_source_file_index>
2378

> <i_lp_mmshare_version>
43012

> <i_f3d_flags>
0

> <s_epik_input>
W0NIM11jMVtjSF1bY0hdbmMoW2NIXTEpW05IXUMoPU8pW05IXVtDSDJdW0NIMl1bQ0BASF0yW0NIMl1bQ0gyXVtDSDJdW0NIMl1PMg==

> <s_epik_cmdline>
J2VwaWtfcHl0aG9uJywgJy1waCcsICc3LjAnLCAnLXRuJywgJzgnLCAnLW1hJywgJzIwMCcsICctbWV0YWxfYmluZGluZycsICctaW1hZScsICc8aW5maWxlLm1hZT4nLCAnLW9tYWUnLCAnPG91dGZpbGUubWFlPic=

> <r_lp_tautomer_probability>
1

> <r_epik_Ionization_Penalty>
8.60919e-05

> <r_epik_Ionization_Penalty_Charging>
0

> <r_epik_Ionization_Penalty_Neutral>
8.60919e-05

> <r_epik_State_Penalty>
-0

> <r_epik_Charging_Adjusted_Penalty>
0

> <i_epik_Tot_Q>
0

> <i_epik_Tot_abs_Q>
0

> <r_epik_Metal_State_Penalty>
-0

> <b_epik_Metal_Only>
0

> <s_lp_Force_Field>
OPLS_2005

> <r_lp_Energy>
10.7522

> <b_lp_Chiralities_Consistent>
1

> <s_lp_Variant>
AV-unprocessed.smi:2378-2

> <Gold.Version>
5.8.1

> <Gold.Id.Protein>
6NUR|6NUR_protein|mol2

> <Gold.PLP.Fitness>
48.5241

> <Gold.PLP.PLP>
-43.2541

> <Gold.PLP.part.hbond>
-2.0000

> <Gold.PLP.part.metal>
0.0000

> <Gold.PLP.part.buried>
-7.6530

> <Gold.PLP.part.nonpolar>
-33.8370

> <Gold.PLP.part.repulsive>
0.3789

> <Gold.PLP.ligand.clash>
0.0000

> <Gold.PLP.ligand.torsion>
0.3298

> <Gold.PLP.Chemscore.Hbond>
1.9760

> <Gold.PLP.Chemscore.CHOScore>
0.0000

> <Gold.PLP.Chemscore.Metal>
0.0000

> <Gold.Chemscore.Hbonds>
donor molecule, donor type, donor heavy atom, donor atom, acceptor molecule, acceptor atom, score
      L1  H     7    25       P1  8028  1.00
      L1  H    10    26       P1  8028  0.93

> <Gold.PLP.Chemscore.Internal.Correction>
0.0016

> <Gold.Rescore>
     Score         DG    S(hbond)    S(metal)    S(lipo)     H(rot)  DE(clash)    DE(int)     intcor
     18.07     -19.69       1.90        0.00      98.34       1.42       0.28       1.34       ----

> <Gold.Chemscore.Fitness>
18.0667

> <Gold.Chemscore.DG>
-19.6887

> <Gold.Chemscore.ZeroCoef>
-5.4800

> <Gold.Chemscore.Hbond>
1.9014

> <Gold.Chemscore.Metal>
0.0000

> <Gold.Chemscore.Lipo>
98.3391

> <Gold.Chemscore.Internal_Hbond>
0.0000

> <Gold.Chemscore.DEClash>
0.2790

> <Gold.Chemscore.DEInternal>
1.3429

> <Gold.Chemscore.Rot>
1.4248

> <Gold.Chemscore.Internal.Correction>
   9.000000E+99

> <Gold.Chemscore.Hbonds>
donor molecule, donor type, donor heavy atom, donor atom, acceptor molecule, acceptor atom, score
      L1  H     7    25       P1  8028  0.98
      L1  H    10    26       P1  8028  0.91

> <Gold.Chemscore.Hbond.Weighted>
-6.3506

> <Gold.Chemscore.Metal.Weighted>
-0.0000

> <Gold.Chemscore.Lipo.Weighted>
-11.5057

> <Gold.Chemscore.Internal_Hbond.Weighted>
0.0000

> <Gold.Chemscore.DEClash.Weighted>
0.2790

> <Gold.Chemscore.DEInternal.Weighted>
1.3429

> <Gold.Chemscore.Rot.Weighted>
3.6476

> <Gold.Chemscore.Internal.Correction.Weighted>
   9.000000E+99

> <Gold.Protein.RotatedTorsions>
[ 6907 6896 6895 6894 ] final -110.39 input  -60.11 | X-H torsion
[ 7974 7965 7964 7962 ] final -104.35 input  175.53 | X-H torsion
[ 8008 7997 7996 7995 ] final -119.62 input   59.86 | X-H torsion
[ 10167 10162 10161 10158 ] final  175.73 input  -65.29 | X-H torsion
[ 10718 10713 10712 10709 ] final    1.16 input   66.30 | X-H torsion
[ 10763 10752 10751 10750 ] final  -36.45 input  -60.55 | X-H torsion
[ 11005 11000 10999 10996 ] final  -75.74 input  -57.11 | X-H torsion

> <Gold.Protein.ActiveResidues>
 VAL166  LYS551  ARG553  GLY616  TRP617  ASP618  TYR619  PRO620  LYS621  CYS622 
 ASP623  PHE694  ASN695  SER759  ASP760  ASP761  ALA762  ILE779  LEU786  VAL792 
 PHE793  MET794  SER795  GLU796  ALA797  LYS798  CYS799  TRP800  GLU811  SER814 

> <Gold.Protein.RotatedAtoms>
  150.7622  133.9388  159.3449 H   0  0  0  0  0  0  0  0  0  0  0  0  # atno 6907 bound_to 6896
  151.7294  135.0876  160.0307 H   0  0  0  0  0  0  0  0  0  0  0  0  # atno 6908 bound_to 6896
  152.3599  133.6246  159.6043 H   0  0  0  0  0  0  0  0  0  0  0  0  # atno 6909 bound_to 6896
  145.2443  140.9216  143.3132 H   0  0  0  0  0  0  0  0  0  0  0  0  # atno 7974 bound_to 7965
  155.1186  140.0398  157.2744 H   0  0  0  0  0  0  0  0  0  0  0  0  # atno 8008 bound_to 7997
  154.6630  140.2595  155.7062 H   0  0  0  0  0  0  0  0  0  0  0  0  # atno 8009 bound_to 7997
  156.2627  140.2813  156.1110 H   0  0  0  0  0  0  0  0  0  0  0  0  # atno 8010 bound_to 7997
  139.5188  144.2998  152.0389 H   0  0  0  0  0  0  0  0  0  0  0  0  # atno 10167 bound_to 10162
  156.8441  130.5531  149.5675 H   0  0  0  0  0  0  0  0  0  0  0  0  # atno 10718 bound_to 10713
  153.8800  135.6822  153.4767 H   0  0  0  0  0  0  0  0  0  0  0  0  # atno 10763 bound_to 10752
  153.1239  135.4727  154.9238 H   0  0  0  0  0  0  0  0  0  0  0  0  # atno 10764 bound_to 10752
  154.7673  135.3228  154.8212 H   0  0  0  0  0  0  0  0  0  0  0  0  # atno 10765 bound_to 10752
  141.1648  133.6958  156.7563 H   0  0  0  0  0  0  0  0  0  0  0  0  # atno 11005 bound_to 11000
  144.9560  139.4031  143.6379 LP  0  0  0  0  0  0  0  0  0  0  0  0  # atno 17320 bound_to 7965
  146.3320  139.8591  142.8859 LP  0  0  0  0  0  0  0  0  0  0  0  0  # atno 17321 bound_to 7965
  140.2446  144.4233  150.6246 LP  0  0  0  0  0  0  0  0  0  0  0  0  # atno 17342 bound_to 10162
  140.6267  143.2182  151.6582 LP  0  0  0  0  0  0  0  0  0  0  0  0  # atno 17343 bound_to 10162
  156.0864  130.5862  150.9656 LP  0  0  0  0  0  0  0  0  0  0  0  0  # atno 17370 bound_to 10713
  157.6340  131.0918  150.8386 LP  0  0  0  0  0  0  0  0  0  0  0  0  # atno 17371 bound_to 10713
  140.2566  134.8499  157.3719 LP  0  0  0  0  0  0  0  0  0  0  0  0  # atno 17394 bound_to 11000
  140.1651  134.4680  155.7869 LP  0  0  0  0  0  0  0  0  0  0  0  0  # atno 17395 bound_to 11000

$$$$
