#       Name:                AV-unprocessed.smi:869
#       Creating user name   scv26
#       Creation time:       Fri Mar 27 01:49:19 2020


#       File generated by GOLD software.
#

@<TRIPOS>MOLECULE
AV-unprocessed.smi:869
    53    55     1
SMALL
NO_CHARGES


@<TRIPOS>ATOM
      1 ****        -1.0881   1.4570   6.0090 C.3            1 S1                 0.0000
      2 ****        -1.6689   1.9691   4.8224 O.3            1 S1                 0.0000
      3 ****        -1.3557   1.1861   3.6818 C.3            1 S1                 0.0000
      4 ****        -1.9773   1.7369   2.4403 C.2            1 S1                 0.0000
      5 ****        -2.7092   2.8834   2.3503 N.pl3          1 S1                 1.0000
      6 ****        -3.1235   3.0789   1.0325 C.ar           1 S1                 0.0000
      7 ****        -3.8808   4.0935   0.4553 C.ar           1 S1                 0.0000
      8 ****        -4.1249   3.9908  -0.9301 C.ar           1 S1                 0.0000
      9 ****        -3.6236   2.9111  -1.6861 C.ar           1 S1                 0.0000
     10 ****        -2.8566   1.8883  -1.0894 C.ar           1 S1                 0.0000
     11 ****        -2.6203   1.9978   0.2805 C.ar           1 S1                 0.0000
     12 ****        -1.9196   1.1968   1.1887 N.pl3          1 S1                 0.0000
     13 ****        -1.2618  -0.0278   0.7062 C.3            1 S1                 0.0000
     14 ****         0.0944   0.2465   0.0256 C.3            1 S1                 0.0000
     15 ****         0.9502   0.8839   0.9535 O.3            1 S1                 0.0000
     16 ****         0.7674  -1.0492  -0.4534 C.3            1 S1                 0.0000
     17 ****         1.7283  -0.7232  -1.4490 O.3            1 S1                 0.0000
     18 ****         2.4339  -1.7507  -2.0380 C.ar           1 S1                 0.0000
     19 ****         3.3799  -1.3948  -3.0212 C.ar           1 S1                 0.0000
     20 ****         4.1425  -2.3789  -3.6790 C.ar           1 S1                 0.0000
     21 ****         3.9676  -3.7396  -3.3585 C.ar           1 S1                 0.0000
     22 ****         4.7802  -4.8032  -4.0679 C.3            1 S1                 0.0000
     23 ****         3.0258  -4.1070  -2.3775 C.ar           1 S1                 0.0000
     24 ****         2.2636  -3.1220  -1.7196 C.ar           1 S1                 0.0000
     25 ****        -1.3584   2.0918   6.8527 H              1 S1                 0.0000
     26 ****         0.0000   1.4363   5.9387 H              1 S1                 0.0000
     27 ****        -1.4450   0.4481   6.2193 H              1 S1                 0.0000
     28 ****        -0.2745   1.1460   3.5437 H              1 S1                 0.0000
     29 ****        -1.7079   0.1638   3.8257 H              1 S1                 0.0000
     30 ****        -4.2657   4.9214   1.0323 H              1 S1                 0.0000
     31 ****        -4.7079   4.7556  -1.4225 H              1 S1                 0.0000
     32 ****        -3.8313   2.8663  -2.7454 H              1 S1                 0.0000
     33 ****        -2.4753   1.0662  -1.6769 H              1 S1                 0.0000
     34 ****        -1.1291  -0.6943   1.5592 H              1 S1                 0.0000
     35 ****        -1.9448  -0.5366   0.0250 H              1 S1                 0.0000
     36 ****        -0.0592   0.9118  -0.8246 H              1 S1                 0.0000
     37 ****         1.7764   1.0559   0.5275 H              1 S1                 0.0000
     38 ****         1.2184  -1.5866   0.3831 H              1 S1                 0.0000
     39 ****         0.0142  -1.6994  -0.9016 H              1 S1                 0.0000
     40 ****         3.5222  -0.3546  -3.2753 H              1 S1                 0.0000
     41 ****         4.8604  -2.0846  -4.4306 H              1 S1                 0.0000
     42 ****         4.1958  -5.2467  -4.8741 H              1 S1                 0.0000
     43 ****         5.0670  -5.5948  -3.3750 H              1 S1                 0.0000
     44 ****         5.6907  -4.3822  -4.4954 H              1 S1                 0.0000
     45 ****         2.8833  -5.1482  -2.1271 H              1 S1                 0.0000
     46 ****         1.5525  -3.4461  -0.9752 H              1 S1                 0.0000
     47 ****        -2.9065   3.4856   3.1394 H              1 S1                 0.0000
     48 ****        -1.3312   2.8989   4.6756 LP             1 S1                 0.0000
     49 ****        -2.6624   1.9892   4.9345 LP             1 S1                 0.0000
     50 ****         1.0951   0.2885   1.7438 LP             1 S1                 0.0000
     51 ****         0.5401   1.7446   1.2554 LP             1 S1                 0.0000
     52 ****         2.3957  -0.1098  -1.0267 LP             1 S1                 0.0000
     53 ****         1.2458  -0.2390  -2.1789 LP             1 S1                 0.0000
@<TRIPOS>BOND
    1    1    2 1     
    2    1   25 1     
    3    1   26 1     
    4    1   27 1     
    5    2    3 1     
    6    3    4 1     
    7    3   28 1     
    8    3   29 1     
    9    4   12 1     
   10    4    5 2     
   11    5    6 1     
   12    5   47 1     
   13    6   11 ar    
   14    6    7 ar    
   15    7    8 ar    
   16    7   30 1     
   17    8    9 ar    
   18    8   31 1     
   19    9   10 ar    
   20    9   32 1     
   21   10   11 ar    
   22   10   33 1     
   23   11   12 1     
   24   12   13 1     
   25   13   14 1     
   26   13   34 1     
   27   13   35 1     
   28   14   15 1     
   29   14   16 1     
   30   14   36 1     
   31   15   37 1     
   32   16   17 1     
   33   16   38 1     
   34   16   39 1     
   35   17   18 1     
   36   18   24 ar    
   37   18   19 ar    
   38   19   20 ar    
   39   19   40 1     
   40   20   21 ar    
   41   20   41 1     
   42   21   22 1     
   43   21   23 ar    
   44   22   42 1     
   45   22   43 1     
   46   22   44 1     
   47   23   24 ar    
   48   23   45 1     
   49   24   46 1     
   50    2   48 1     
   51    2   49 1     
   52   15   50 1     
   53   15   51 1     
   54   17   52 1     
   55   17   53 1     
@<TRIPOS>SUBSTRUCTURE
      1 S1             1
@<TRIPOS>SET
LONE_PAIRS      STATIC     ATOMS    <user>   **** ""
6 48 49 50 51 52 53
DONOR_HYDROGENS      STATIC     ATOMS    <user>   **** ""
2 47 37
ATOM$BLUE        STATIC     ATOMS    COLORGROUP SYSTEM
6 48 49 50 51 52 53
ATOM$RED        STATIC     ATOMS    COLORGROUP SYSTEM
2 47 37
