AV-unprocessed.smi:816|AV-procd|sdf|3827|dock5
  -GOLD-   22720 1273D 1   1.00000     0.00000
 Structure written by MMmdl.
 40 41  0  0  0  0  0  0  0  0  1 V2000
  150.0610  143.8346  158.9282 C   0  0  0  0  0  0  0  0  0  0  0  0
  151.0639  142.7125  158.9137 C   0  0  0  0  0  0  0  0  0  0  0  0
  150.9514  141.8462  157.9613 N   0  0  0  0  0  0  0  0  0  0  0  0
  151.8193  140.7768  157.8550 N   0  0  0  0  0  0  0  0  0  0  0  0
  151.5543  139.9062  156.7037 C   0  0  0  0  0  0  0  0  0  0  0  0
  150.7580  140.6376  155.6008 C   0  0  1  0  0  0  0  0  0  0  0  0
  150.8228  139.8860  154.4052 O   0  0  0  0  0  0  0  0  0  0  0  0
  149.2713  140.7851  155.9600 C   0  0  0  0  0  0  0  0  0  0  0  0
  148.5548  141.1869  154.7993 O   0  0  0  0  0  0  0  0  0  0  0  0
  147.3875  141.9002  154.9652 C   0  0  0  0  0  0  0  0  0  0  0  0
  146.7752  142.4044  153.7994 C   0  0  0  0  0  0  0  0  0  0  0  0
  145.5817  143.1484  153.8746 C   0  0  0  0  0  0  0  0  0  0  0  0
  144.9826  143.3952  155.1254 C   0  0  0  0  0  0  0  0  0  0  0  0
  143.7512  144.1631  155.2068 C   0  0  0  0  0  0  0  0  0  0  0  0
  142.7711  144.7747  155.2715 N   0  0  0  0  0  0  0  0  0  0  0  0
  145.5828  142.8938  156.2974 C   0  0  0  0  0  0  0  0  0  0  0  0
  146.7775  142.1512  156.2203 C   0  0  0  0  0  0  0  0  0  0  0  0
  152.8519  140.5265  158.7093 C   0  0  0  0  0  0  0  0  0  0  0  0
  153.6066  139.5623  158.5749 O   0  0  0  0  0  0  0  0  0  0  0  0
  152.9715  141.5097  159.7884 C   0  0  0  0  0  0  0  0  0  0  0  0
  154.0361  141.2807  160.7114 C   0  0  0  0  0  0  0  0  0  0  0  0
  154.8902  141.1078  161.4738 N   0  0  0  0  0  0  0  0  0  0  0  0
  152.1269  142.5653  159.9026 C   0  0  0  0  0  0  0  0  0  0  0  0
  152.2095  143.6141  161.0033 C   0  0  0  0  0  0  0  0  0  0  0  0
  149.5043  143.8451  159.8654 H   0  0  0  0  0  0  0  0  0  0  0  0
  149.3372  143.7433  158.1170 H   0  0  0  0  0  0  0  0  0  0  0  0
  150.5578  144.7985  158.8172 H   0  0  0  0  0  0  0  0  0  0  0  0
  152.4664  139.4619  156.3005 H   0  0  0  0  0  0  0  0  0  0  0  0
  150.9735  139.0553  157.0646 H   0  0  0  0  0  0  0  0  0  0  0  0
  151.1754  141.6278  155.4125 H   0  0  0  0  0  0  0  0  0  0  0  0
  150.2936  139.1097  154.5067 H   0  0  0  0  0  0  0  0  0  0  0  0
  148.8800  139.8279  156.3093 H   0  0  0  0  0  0  0  0  0  0  0  0
  149.1510  141.5145  156.7630 H   0  0  0  0  0  0  0  0  0  0  0  0
  147.2271  142.2208  152.8356 H   0  0  0  0  0  0  0  0  0  0  0  0
  145.1315  143.5275  152.9681 H   0  0  0  0  0  0  0  0  0  0  0  0
  145.1316  143.0753  157.2625 H   0  0  0  0  0  0  0  0  0  0  0  0
  147.2055  141.7843  157.1406 H   0  0  0  0  0  0  0  0  0  0  0  0
  153.0739  143.4661  161.6499 H   0  0  0  0  0  0  0  0  0  0  0  0
  151.3180  143.5791  161.6302 H   0  0  0  0  0  0  0  0  0  0  0  0
  152.2917  144.6146  160.5774 H   0  0  0  0  0  0  0  0  0  0  0  0
  1  2  1  0  0  0  0
  1 25  1  0  0  0  0
  1 26  1  0  0  0  0
  1 27  1  0  0  0  0
  2 23  1  0  0  0  0
  2  3  2  0  0  0  0
  3  4  1  0  0  0  0
  4  5  1  0  0  0  0
  4 18  1  0  0  0  0
  5  6  1  0  0  0  0
  5 28  1  0  0  0  0
  5 29  1  0  0  0  0
  6  7  1  0  0  0  0
  6  8  1  0  0  0  0
  6 30  1  0  0  0  0
  7 31  1  0  0  0  0
  8  9  1  0  0  0  0
  8 32  1  0  0  0  0
  8 33  1  0  0  0  0
  9 10  1  0  0  0  0
 10 17  1  0  0  0  0
 10 11  2  0  0  0  0
 11 12  1  0  0  0  0
 11 34  1  0  0  0  0
 12 13  2  0  0  0  0
 12 35  1  0  0  0  0
 13 14  1  0  0  0  0
 13 16  1  0  0  0  0
 14 15  3  0  0  0  0
 16 17  2  0  0  0  0
 16 36  1  0  0  0  0
 17 37  1  0  0  0  0
 18 19  2  0  0  0  0
 18 20  1  0  0  0  0
 20 21  1  0  0  0  0
 20 23  2  0  0  0  0
 21 22  3  0  0  0  0
 23 24  1  0  0  0  0
 24 38  1  0  0  0  0
 24 39  1  0  0  0  0
 24 40  1  0  0  0  0
M  END
> <s_m_source_file>
AV-unprocessed.smi

> <i_m_source_file_index>
816

> <i_lp_mmshare_version>
43012

> <i_f3d_flags>
0

> <s_epik_input>
TiNDYyhjMVtDSDNdKWMoPU8pbihuYzFbQ0gzXSlbQ0gyXVtDQEhdKFtPSF0pW0NIMl1PYzJbY0hdW2NIXWMoQyNOKVtjSF1bY0hdMg==

> <s_epik_cmdline>
J2VwaWtfcHl0aG9uJywgJy1waCcsICc3LjAnLCAnLXRuJywgJzgnLCAnLW1hJywgJzIwMCcsICctbWV0YWxfYmluZGluZycsICctaW1hZScsICc8aW5maWxlLm1hZT4nLCAnLW9tYWUnLCAnPG91dGZpbGUubWFlPic=

> <r_lp_tautomer_probability>
1

> <r_epik_Ionization_Penalty>
1.1732e-07

> <r_epik_Ionization_Penalty_Charging>
1.4567e-10

> <r_epik_Ionization_Penalty_Neutral>
1.17174e-07

> <r_epik_State_Penalty>
-0

> <r_epik_Charging_Adjusted_Penalty>
1.4567e-10

> <i_epik_Tot_Q>
0

> <i_epik_Tot_abs_Q>
0

> <r_epik_Metal_State_Penalty>
-0

> <b_epik_Metal_Only>
0

> <s_lp_Force_Field>
OPLS_2005

> <r_lp_Energy>
30.507

> <b_lp_Chiralities_Consistent>
1

> <s_lp_Variant>
AV-unprocessed.smi:816-2

> <Gold.Version>
5.8.1

> <Gold.Id.Protein>
6NUR|6NUR_protein|mol2

> <Gold.PLP.Fitness>
51.2864

> <Gold.PLP.PLP>
-46.6532

> <Gold.PLP.part.hbond>
-3.0000

> <Gold.PLP.part.metal>
0.0000

> <Gold.PLP.part.buried>
-6.6900

> <Gold.PLP.part.nonpolar>
-36.8962

> <Gold.PLP.part.repulsive>
0.2234

> <Gold.PLP.ligand.clash>
0.0000

> <Gold.PLP.ligand.torsion>
0.7097

> <Gold.PLP.Chemscore.Hbond>
2.0000

> <Gold.PLP.Chemscore.CHOScore>
0.0000

> <Gold.PLP.Chemscore.Metal>
0.0000

> <Gold.Chemscore.Hbonds>
donor molecule, donor type, donor heavy atom, donor atom, acceptor molecule, acceptor atom, score
      P1  H  7989  7998       L1     7  1.00
      P1  H  7997  8008       L1    19  1.00

> <Gold.PLP.Chemscore.Internal.Correction>
0.0527

> <Gold.Rescore>
     Score         DG    S(hbond)    S(metal)    S(lipo)     H(rot)  DE(clash)    DE(int)     intcor
     11.31     -14.71       1.77        0.00      85.91       2.62       1.37       2.03       ----

> <Gold.Chemscore.Fitness>
11.3086

> <Gold.Chemscore.DG>
-14.7144

> <Gold.Chemscore.ZeroCoef>
-5.4800

> <Gold.Chemscore.Hbond>
1.7650

> <Gold.Chemscore.Metal>
0.0000

> <Gold.Chemscore.Lipo>
85.9136

> <Gold.Chemscore.Internal_Hbond>
0.0000

> <Gold.Chemscore.DEClash>
1.3740

> <Gold.Chemscore.DEInternal>
2.0318

> <Gold.Chemscore.Rot>
2.6222

> <Gold.Chemscore.Internal.Correction>
   9.000000E+99

> <Gold.Chemscore.Hbonds>
donor molecule, donor type, donor heavy atom, donor atom, acceptor molecule, acceptor atom, score
      P1  H  7989  7998       L1     7  0.29
      P1  H  7997  8008       L1    19  0.64

> <Gold.Chemscore.Hbond.Weighted>
-5.8953

> <Gold.Chemscore.Metal.Weighted>
-0.0000

> <Gold.Chemscore.Lipo.Weighted>
-10.0519

> <Gold.Chemscore.Internal_Hbond.Weighted>
0.0000

> <Gold.Chemscore.DEClash.Weighted>
1.3740

> <Gold.Chemscore.DEInternal.Weighted>
2.0318

> <Gold.Chemscore.Rot.Weighted>
6.7127

> <Gold.Chemscore.Internal.Correction.Weighted>
   9.000000E+99

> <Gold.Protein.RotatedTorsions>
[ 6907 6896 6895 6894 ] final  -24.65 input  -60.11 | X-H torsion
[ 7974 7965 7964 7962 ] final   41.99 input  175.53 | X-H torsion
[ 8008 7997 7996 7995 ] final -110.54 input   59.86 | X-H torsion
[ 10167 10162 10161 10158 ] final -114.98 input  -65.29 | X-H torsion
[ 10718 10713 10712 10709 ] final  -55.10 input   66.30 | X-H torsion
[ 10763 10752 10751 10750 ] final   69.31 input  -60.55 | X-H torsion
[ 11005 11000 10999 10996 ] final  -90.16 input  -57.11 | X-H torsion

> <Gold.Protein.ActiveResidues>
 VAL166  LYS551  ARG553  GLY616  TRP617  ASP618  TYR619  PRO620  LYS621  CYS622 
 ASP623  PHE694  ASN695  SER759  ASP760  ASP761  ALA762  ILE779  LEU786  VAL792 
 PHE793  MET794  SER795  GLU796  ALA797  LYS798  CYS799  TRP800  GLU811  SER814 

> <Gold.Protein.RotatedAtoms>
  151.1865  135.0384  159.8814 H   0  0  0  0  0  0  0  0  0  0  0  0  # atno 6907 bound_to 6896
  152.5442  134.1004  159.8325 H   0  0  0  0  0  0  0  0  0  0  0  0  # atno 6908 bound_to 6896
  151.1127  133.5114  159.2637 H   0  0  0  0  0  0  0  0  0  0  0  0  # atno 6909 bound_to 6896
  146.0778  139.5352  142.9557 H   0  0  0  0  0  0  0  0  0  0  0  0  # atno 7974 bound_to 7965
  154.9761  140.0397  157.2257 H   0  0  0  0  0  0  0  0  0  0  0  0  # atno 8008 bound_to 7997
  154.7756  140.2809  155.6081 H   0  0  0  0  0  0  0  0  0  0  0  0  # atno 8009 bound_to 7997
  156.2928  140.2601  156.2569 H   0  0  0  0  0  0  0  0  0  0  0  0  # atno 8010 bound_to 7997
  140.0950  143.4664  152.1847 H   0  0  0  0  0  0  0  0  0  0  0  0  # atno 10167 bound_to 10162
  156.1396  130.4155  150.0126 H   0  0  0  0  0  0  0  0  0  0  0  0  # atno 10718 bound_to 10713
  153.0280  135.5215  154.7268 H   0  0  0  0  0  0  0  0  0  0  0  0  # atno 10763 bound_to 10752
  154.6307  135.2900  155.0222 H   0  0  0  0  0  0  0  0  0  0  0  0  # atno 10764 bound_to 10752
  154.1174  135.6613  153.4949 H   0  0  0  0  0  0  0  0  0  0  0  0  # atno 10765 bound_to 10752
  141.1571  133.7675  156.9699 H   0  0  0  0  0  0  0  0  0  0  0  0  # atno 11005 bound_to 11000
  145.6275  141.0311  143.1881 LP  0  0  0  0  0  0  0  0  0  0  0  0  # atno 17320 bound_to 7965
  144.7273  139.7836  143.7360 LP  0  0  0  0  0  0  0  0  0  0  0  0  # atno 17321 bound_to 7965
  139.5703  144.7459  151.3909 LP  0  0  0  0  0  0  0  0  0  0  0  0  # atno 17342 bound_to 10162
  140.7008  143.7636  150.7400 LP  0  0  0  0  0  0  0  0  0  0  0  0  # atno 17343 bound_to 10162
  156.8015  130.9292  151.3646 LP  0  0  0  0  0  0  0  0  0  0  0  0  # atno 17370 bound_to 10713
  157.6563  130.8928  149.9737 LP  0  0  0  0  0  0  0  0  0  0  0  0  # atno 17371 bound_to 10713
  140.1136  134.9461  157.2102 LP  0  0  0  0  0  0  0  0  0  0  0  0  # atno 17394 bound_to 11000
  140.3161  134.2969  155.7256 LP  0  0  0  0  0  0  0  0  0  0  0  0  # atno 17395 bound_to 11000

$$$$
