AV-unprocessed.smi:3008|AV-procd|sdf|11448|dock3
  -GOLD-   2272016383D 1   1.00000     0.00000
 Structure written by MMmdl.
 38 39  0  0  0  0  0  0  0  0  1 V2000
  149.7991  138.7274  153.2090 N   0  0  0  0  0  0  0  0  0  0  0  0
  150.5380  138.9237  154.3042 C   0  0  0  0  0  0  0  0  0  0  0  0
  150.7270  140.0410  154.7806 O   0  0  0  0  0  0  0  0  0  0  0  0
  151.1552  137.6875  154.9598 C   0  0  0  0  0  0  0  0  0  0  0  0
  150.5817  137.4491  156.2717 N   0  0  0  0  0  0  0  0  0  0  0  0
  149.9164  136.3246  156.7193 C   0  0  0  0  0  0  0  0  0  0  0  0
  149.5756  136.5834  158.0127 C   0  0  0  0  0  0  0  0  0  0  0  0
  148.8792  135.6834  158.8576 N   0  0  0  0  0  0  0  0  0  0  0  0
  148.4973  135.8782  160.1349 C   0  0  0  0  0  0  0  0  0  0  0  0
  148.7561  136.9077  160.7604 O   0  0  0  0  0  0  0  0  0  0  0  0
  147.8571  134.8183  160.7000 N   0  0  0  0  0  0  0  0  0  0  0  0
  147.2863  133.6850  159.9388 C   0  0  0  0  0  0  0  0  0  0  0  0
  145.9562  133.1299  160.4926 C   0  0  0  0  0  0  0  0  0  0  0  0
  144.9346  134.2033  160.9122 C   0  0  0  0  0  0  0  0  0  0  0  0
  145.1258  134.6829  162.3614 C   0  0  0  0  0  0  0  0  0  0  0  0
  146.4120  135.4872  162.6097 C   0  0  0  0  0  0  0  0  0  0  0  0
  147.6929  134.7603  162.1611 C   0  0  0  0  0  0  0  0  0  0  0  0
  150.0635  137.8924  158.2886 C   0  0  0  0  0  0  0  0  0  0  0  0
  150.6705  138.4063  157.2292 N   0  0  0  0  0  0  0  0  0  0  0  0
  149.3786  139.5160  152.7391 H   0  0  0  0  0  0  0  0  0  0  0  0
  149.6696  137.7923  152.8503 H   0  0  0  0  0  0  0  0  0  0  0  0
  150.9753  136.8115  154.3354 H   0  0  0  0  0  0  0  0  0  0  0  0
  152.2373  137.8001  155.0482 H   0  0  0  0  0  0  0  0  0  0  0  0
  149.7495  135.4611  156.0923 H   0  0  0  0  0  0  0  0  0  0  0  0
  148.6346  134.7941  158.4469 H   0  0  0  0  0  0  0  0  0  0  0  0
  147.0769  133.9711  158.9074 H   0  0  0  0  0  0  0  0  0  0  0  0
  148.0274  132.8865  159.8869 H   0  0  0  0  0  0  0  0  0  0  0  0
  145.5088  132.5055  159.7185 H   0  0  0  0  0  0  0  0  0  0  0  0
  146.1449  132.4526  161.3263 H   0  0  0  0  0  0  0  0  0  0  0  0
  144.9508  135.0447  160.2182 H   0  0  0  0  0  0  0  0  0  0  0  0
  143.9360  133.7718  160.8348 H   0  0  0  0  0  0  0  0  0  0  0  0
  144.2718  135.2989  162.6449 H   0  0  0  0  0  0  0  0  0  0  0  0
  145.1036  133.8220  163.0308 H   0  0  0  0  0  0  0  0  0  0  0  0
  146.3409  136.4604  162.1222 H   0  0  0  0  0  0  0  0  0  0  0  0
  146.4824  135.6966  163.6776 H   0  0  0  0  0  0  0  0  0  0  0  0
  147.6942  133.7278  162.5119 H   0  0  0  0  0  0  0  0  0  0  0  0
  148.5553  135.2134  162.6536 H   0  0  0  0  0  0  0  0  0  0  0  0
  150.0077  138.4798  159.1929 H   0  0  0  0  0  0  0  0  0  0  0  0
  1  2  1  0  0  0  0
  1 20  1  0  0  0  0
  1 21  1  0  0  0  0
  2  3  2  0  0  0  0
  2  4  1  0  0  0  0
  4  5  1  0  0  0  0
  4 22  1  0  0  0  0
  4 23  1  0  0  0  0
  5 19  1  0  0  0  0
  5  6  1  0  0  0  0
  6  7  2  0  0  0  0
  6 24  1  0  0  0  0
  7  8  1  0  0  0  0
  7 18  1  0  0  0  0
  8  9  1  0  0  0  0
  8 25  1  0  0  0  0
  9 10  2  0  0  0  0
  9 11  1  0  0  0  0
 11 17  1  0  0  0  0
 11 12  1  0  0  0  0
 12 13  1  0  0  0  0
 12 26  1  0  0  0  0
 12 27  1  0  0  0  0
 13 14  1  0  0  0  0
 13 28  1  0  0  0  0
 13 29  1  0  0  0  0
 14 15  1  0  0  0  0
 14 30  1  0  0  0  0
 14 31  1  0  0  0  0
 15 16  1  0  0  0  0
 15 32  1  0  0  0  0
 15 33  1  0  0  0  0
 16 17  1  0  0  0  0
 16 34  1  0  0  0  0
 16 35  1  0  0  0  0
 17 36  1  0  0  0  0
 17 37  1  0  0  0  0
 18 19  2  0  0  0  0
 18 38  1  0  0  0  0
M  END
> <s_m_source_file>
AV-unprocessed.smi

> <i_m_source_file_index>
3008

> <i_lp_mmshare_version>
43012

> <i_f3d_flags>
0

> <s_epik_input>
W05IMl1DKD1PKVtDSDJdbjFbY0hdYyhbY0hdbjEpW05IXUMoPU8pTjJbQ0gyXVtDSDJdW0NIMl1bQ0gyXVtDSDJdW0NIMl0y

> <s_epik_cmdline>
J2VwaWtfcHl0aG9uJywgJy1waCcsICc3LjAnLCAnLXRuJywgJzgnLCAnLW1hJywgJzIwMCcsICctbWV0YWxfYmluZGluZycsICctaW1hZScsICc8aW5maWxlLm1hZT4nLCAnLW9tYWUnLCAnPG91dGZpbGUubWFlPic=

> <r_lp_tautomer_probability>
1

> <r_epik_Ionization_Penalty>
4.99812e-05

> <r_epik_Ionization_Penalty_Charging>
0

> <r_epik_Ionization_Penalty_Neutral>
4.99812e-05

> <r_epik_State_Penalty>
-0

> <r_epik_Charging_Adjusted_Penalty>
0

> <i_epik_Tot_Q>
0

> <i_epik_Tot_abs_Q>
0

> <r_epik_Metal_State_Penalty>
-0

> <b_epik_Metal_Only>
0

> <s_lp_Force_Field>
OPLS_2005

> <r_lp_Energy>
37.733

> <b_lp_Chiralities_Consistent>
1

> <s_lp_Variant>
AV-unprocessed.smi:3008-1

> <Gold.Version>
5.8.1

> <Gold.Id.Protein>
6NUR|6NUR_protein|mol2

> <Gold.PLP.Fitness>
38.8344

> <Gold.PLP.PLP>
-27.8010

> <Gold.PLP.part.hbond>
-4.5634

> <Gold.PLP.part.metal>
0.0000

> <Gold.PLP.part.buried>
-4.5554

> <Gold.PLP.part.nonpolar>
-18.9268

> <Gold.PLP.part.repulsive>
0.2761

> <Gold.PLP.ligand.clash>
0.0000

> <Gold.PLP.ligand.torsion>
0.1321

> <Gold.PLP.Chemscore.Hbond>
3.7600

> <Gold.PLP.Chemscore.CHOScore>
0.0000

> <Gold.PLP.Chemscore.Metal>
0.0000

> <Gold.Chemscore.Hbonds>
donor molecule, donor type, donor heavy atom, donor atom, acceptor molecule, acceptor atom, score
      L1  H     1    20       P1  7957  0.56
      L1  H     1    21       P1  7948  1.00
      P1  H  6931  6943       L1    10  0.90
      P1  H  7989  7998       L1     3  1.00

> <Gold.PLP.Chemscore.Internal.Correction>
0.0175

> <Gold.Rescore>
     Score         DG    S(hbond)    S(metal)    S(lipo)     H(rot)  DE(clash)    DE(int)     intcor
     17.68     -19.18       3.49        0.00      50.68       1.52       0.01       1.48       ----

> <Gold.Chemscore.Fitness>
17.6824

> <Gold.Chemscore.DG>
-19.1806

> <Gold.Chemscore.ZeroCoef>
-5.4800

> <Gold.Chemscore.Hbond>
3.4898

> <Gold.Chemscore.Metal>
0.0000

> <Gold.Chemscore.Lipo>
50.6815

> <Gold.Chemscore.Internal_Hbond>
0.0000

> <Gold.Chemscore.DEClash>
0.0135

> <Gold.Chemscore.DEInternal>
1.4847

> <Gold.Chemscore.Rot>
1.5176

> <Gold.Chemscore.Internal.Correction>
   9.000000E+99

> <Gold.Chemscore.Hbonds>
donor molecule, donor type, donor heavy atom, donor atom, acceptor molecule, acceptor atom, score
      L1  H     1    20       P1  7957  0.56
      L1  H     1    21       P1  7948  0.60
      P1  H  6931  6943       L1    10  0.88
      P1  H  7989  7998       L1     3  0.40

> <Gold.Chemscore.Hbond.Weighted>
-11.6560

> <Gold.Chemscore.Metal.Weighted>
-0.0000

> <Gold.Chemscore.Lipo.Weighted>
-5.9297

> <Gold.Chemscore.Internal_Hbond.Weighted>
0.0000

> <Gold.Chemscore.DEClash.Weighted>
0.0135

> <Gold.Chemscore.DEInternal.Weighted>
1.4847

> <Gold.Chemscore.Rot.Weighted>
3.8851

> <Gold.Chemscore.Internal.Correction.Weighted>
   9.000000E+99

> <Gold.Protein.RotatedTorsions>
[ 6907 6896 6895 6894 ] final   19.75 input  -60.11 | X-H torsion
[ 7974 7965 7964 7962 ] final  -87.71 input  175.53 | X-H torsion
[ 8008 7997 7996 7995 ] final   10.99 input   59.86 | X-H torsion
[ 10167 10162 10161 10158 ] final -101.85 input  -65.29 | X-H torsion
[ 10718 10713 10712 10709 ] final  124.20 input   66.30 | X-H torsion
[ 10763 10752 10751 10750 ] final  -31.75 input  -60.55 | X-H torsion
[ 11005 11000 10999 10996 ] final  -22.97 input  -57.11 | X-H torsion

> <Gold.Protein.ActiveResidues>
 VAL166  LYS551  ARG553  GLY616  TRP617  ASP618  TYR619  PRO620  LYS621  CYS622 
 ASP623  PHE694  ASN695  SER759  ASP760  ASP761  ALA762  ILE779  LEU786  VAL792 
 PHE793  MET794  SER795  GLU796  ALA797  LYS798  CYS799  TRP800  GLU811  SER814 

> <Gold.Protein.RotatedAtoms>
  151.8858  135.0436  160.0492 H   0  0  0  0  0  0  0  0  0  0  0  0  # atno 6907 bound_to 6896
  152.2476  133.5183  159.5315 H   0  0  0  0  0  0  0  0  0  0  0  0  # atno 6908 bound_to 6896
  150.7073  134.0920  159.3978 H   0  0  0  0  0  0  0  0  0  0  0  0  # atno 6909 bound_to 6896
  145.4629  140.9561  143.1959 H   0  0  0  0  0  0  0  0  0  0  0  0  # atno 7974 bound_to 7965
  154.8009  140.2852  155.5922 H   0  0  0  0  0  0  0  0  0  0  0  0  # atno 8008 bound_to 7997
  156.2977  140.2586  156.2806 H   0  0  0  0  0  0  0  0  0  0  0  0  # atno 8009 bound_to 7997
  154.9559  140.0378  157.2156 H   0  0  0  0  0  0  0  0  0  0  0  0  # atno 8010 bound_to 7997
  140.2369  143.3567  152.0837 H   0  0  0  0  0  0  0  0  0  0  0  0  # atno 10167 bound_to 10162
  157.5604  131.1090  150.8549 H   0  0  0  0  0  0  0  0  0  0  0  0  # atno 10718 bound_to 10713
  153.8025  135.6889  153.4853 H   0  0  0  0  0  0  0  0  0  0  0  0  # atno 10763 bound_to 10752
  153.1679  135.4554  154.9861 H   0  0  0  0  0  0  0  0  0  0  0  0  # atno 10764 bound_to 10752
  154.8000  135.3334  154.7513 H   0  0  0  0  0  0  0  0  0  0  0  0  # atno 10765 bound_to 10752
  140.8707  133.7722  156.0183 H   0  0  0  0  0  0  0  0  0  0  0  0  # atno 11005 bound_to 11000
  144.7992  139.6175  143.7079 LP  0  0  0  0  0  0  0  0  0  0  0  0  # atno 17320 bound_to 7965
  146.2441  139.6061  142.9472 LP  0  0  0  0  0  0  0  0  0  0  0  0  # atno 17321 bound_to 7965
  139.5091  144.6861  151.5884 LP  0  0  0  0  0  0  0  0  0  0  0  0  # atno 17342 bound_to 10162
  140.6143  143.9377  150.6477 LP  0  0  0  0  0  0  0  0  0  0  0  0  # atno 17343 bound_to 10162
  156.9048  130.5259  149.5281 LP  0  0  0  0  0  0  0  0  0  0  0  0  # atno 17370 bound_to 10713
  156.0657  130.5701  150.9283 LP  0  0  0  0  0  0  0  0  0  0  0  0  # atno 17371 bound_to 10713
  140.8576  134.2879  157.5248 LP  0  0  0  0  0  0  0  0  0  0  0  0  # atno 17394 bound_to 11000
  139.8712  134.9501  156.4046 LP  0  0  0  0  0  0  0  0  0  0  0  0  # atno 17395 bound_to 11000

$$$$
