AV-unprocessed.smi:2177|AV-procd|sdf|8850|dock3
  -GOLD-   2272012 43D 1   1.00000     0.00000
 Structure written by MMmdl.
 42 43  0  0  0  0  0  0  0  0  1 V2000
  152.5139  138.8863  155.1892 C   0  0  0  0  0  0  0  0  0  0  0  0
  151.2731  139.6557  155.5417 C   0  0  0  0  0  0  0  0  0  0  0  0
  150.6126  140.2964  154.5915 N   0  0  0  0  0  0  0  0  0  0  0  0
  149.5796  140.8847  155.2271 N   0  0  0  0  0  0  0  0  0  0  0  0
  148.6430  141.6876  154.4650 C   0  0  0  0  0  0  0  0  0  0  0  0
  149.5818  140.6067  156.5803 C   0  0  0  0  0  0  0  0  0  0  0  0
  148.5394  141.1471  157.5060 C   0  0  0  0  0  0  0  0  0  0  0  0
  150.6704  139.8114  156.8241 C   0  0  0  0  0  0  0  0  0  0  0  0
  151.1498  139.2354  158.1335 C   0  0  0  0  0  0  0  0  0  0  0  0
  152.4635  139.9065  158.5331 C   0  0  0  0  0  0  0  0  0  0  0  0
  153.5354  139.3358  158.3334 O   0  0  0  0  0  0  0  0  0  0  0  0
  152.3607  141.1261  159.0820 N   0  0  0  0  0  0  0  0  0  0  0  0
  153.4728  142.0028  159.4314 C   0  0  2  0  0  0  0  0  0  0  0  0
  154.1493  141.4986  160.7172 C   0  0  0  0  0  0  0  0  0  0  0  0
  152.9364  143.4394  159.5742 C   0  0  1  0  0  0  0  0  0  0  0  0
  152.1415  143.9533  158.3734 C   0  0  0  0  0  0  0  0  0  0  0  0
  151.2290  145.0120  158.9740 C   0  0  0  0  0  0  0  0  0  0  0  0
  151.2936  144.7519  160.4816 C   0  0  0  0  0  0  0  0  0  0  0  0
  151.9730  143.5120  160.6144 O   0  0  0  0  0  0  0  0  0  0  0  0
  153.3436  139.1683  155.8377 H   0  0  0  0  0  0  0  0  0  0  0  0
  152.8244  139.0674  154.1596 H   0  0  0  0  0  0  0  0  0  0  0  0
  152.3525  137.8146  155.3041 H   0  0  0  0  0  0  0  0  0  0  0  0
  147.7230  141.1243  154.3091 H   0  0  0  0  0  0  0  0  0  0  0  0
  149.0660  141.9529  153.4950 H   0  0  0  0  0  0  0  0  0  0  0  0
  148.4134  142.6047  155.0080 H   0  0  0  0  0  0  0  0  0  0  0  0
  148.5762  140.6514  158.4758 H   0  0  0  0  0  0  0  0  0  0  0  0
  147.5396  141.0011  157.0971 H   0  0  0  0  0  0  0  0  0  0  0  0
  148.6871  142.2145  157.6701 H   0  0  0  0  0  0  0  0  0  0  0  0
  150.4174  139.3773  158.9289 H   0  0  0  0  0  0  0  0  0  0  0  0
  151.3079  138.1589  158.0596 H   0  0  0  0  0  0  0  0  0  0  0  0
  151.4336  141.5067  159.2035 H   0  0  0  0  0  0  0  0  0  0  0  0
  154.2047  141.9890  158.6216 H   0  0  0  0  0  0  0  0  0  0  0  0
  155.0062  142.1176  160.9832 H   0  0  0  0  0  0  0  0  0  0  0  0
  154.5134  140.4777  160.5969 H   0  0  0  0  0  0  0  0  0  0  0  0
  153.4573  141.5078  161.5601 H   0  0  0  0  0  0  0  0  0  0  0  0
  153.7511  144.1297  159.8033 H   0  0  0  0  0  0  0  0  0  0  0  0
  152.7808  144.3465  157.5825 H   0  0  0  0  0  0  0  0  0  0  0  0
  151.5368  143.1505  157.9490 H   0  0  0  0  0  0  0  0  0  0  0  0
  151.5780  146.0190  158.7435 H   0  0  0  0  0  0  0  0  0  0  0  0
  150.2131  144.9125  158.5906 H   0  0  0  0  0  0  0  0  0  0  0  0
  151.8706  145.5312  160.9813 H   0  0  0  0  0  0  0  0  0  0  0  0
  150.3069  144.7095  160.9429 H   0  0  0  0  0  0  0  0  0  0  0  0
  1  2  1  0  0  0  0
  1 20  1  0  0  0  0
  1 21  1  0  0  0  0
  1 22  1  0  0  0  0
  2  8  1  0  0  0  0
  2  3  2  0  0  0  0
  3  4  1  0  0  0  0
  4  5  1  0  0  0  0
  4  6  1  0  0  0  0
  5 23  1  0  0  0  0
  5 24  1  0  0  0  0
  5 25  1  0  0  0  0
  6  7  1  0  0  0  0
  6  8  2  0  0  0  0
  7 26  1  0  0  0  0
  7 27  1  0  0  0  0
  7 28  1  0  0  0  0
  8  9  1  0  0  0  0
  9 10  1  0  0  0  0
  9 29  1  0  0  0  0
  9 30  1  0  0  0  0
 10 11  2  0  0  0  0
 10 12  1  0  0  0  0
 12 13  1  0  0  0  0
 12 31  1  0  0  0  0
 13 14  1  0  0  0  0
 13 15  1  0  0  0  0
 13 32  1  0  0  0  0
 14 33  1  0  0  0  0
 14 34  1  0  0  0  0
 14 35  1  0  0  0  0
 15 19  1  0  0  0  0
 15 16  1  0  0  0  0
 15 36  1  0  0  0  0
 16 17  1  0  0  0  0
 16 37  1  0  0  0  0
 16 38  1  0  0  0  0
 17 18  1  0  0  0  0
 17 39  1  0  0  0  0
 17 40  1  0  0  0  0
 18 19  1  0  0  0  0
 18 41  1  0  0  0  0
 18 42  1  0  0  0  0
M  END
> <s_m_source_file>
AV-unprocessed.smi

> <i_m_source_file_index>
2177

> <i_lp_mmshare_version>
43012

> <i_f3d_flags>
0

> <s_epik_input>
W0NIM11jMW5uKFtDSDNdKWMoW0NIM10pYzFbQ0gyXUMoPU8pW05IXVtDQEhdKFtDSDNdKVtDQEBIXTJbQ0gyXVtDSDJdW0NIMl1PMg==

> <s_epik_cmdline>
J2VwaWtfcHl0aG9uJywgJy1waCcsICc3LjAnLCAnLXRuJywgJzgnLCAnLW1hJywgJzIwMCcsICctbWV0YWxfYmluZGluZycsICctaW1hZScsICc8aW5maWxlLm1hZT4nLCAnLW9tYWUnLCAnPG91dGZpbGUubWFlPic=

> <r_lp_tautomer_probability>
1

> <r_epik_Ionization_Penalty>
0.00310467

> <r_epik_Ionization_Penalty_Charging>
0

> <r_epik_Ionization_Penalty_Neutral>
0.00310467

> <r_epik_State_Penalty>
0.00218493

> <r_epik_Charging_Adjusted_Penalty>
0.00218493

> <i_epik_Tot_Q>
0

> <i_epik_Tot_abs_Q>
0

> <r_epik_Metal_State_Penalty>
-0

> <b_epik_Metal_Only>
0

> <s_lp_Force_Field>
OPLS_2005

> <r_lp_Energy>
12.0116

> <b_lp_Chiralities_Consistent>
1

> <s_lp_Variant>
AV-unprocessed.smi:2177-3

> <Gold.Version>
5.8.1

> <Gold.Id.Protein>
6NUR|6NUR_protein|mol2

> <Gold.PLP.Fitness>
48.6556

> <Gold.PLP.PLP>
-43.8019

> <Gold.PLP.part.hbond>
-2.0000

> <Gold.PLP.part.metal>
0.0000

> <Gold.PLP.part.buried>
-5.3035

> <Gold.PLP.part.nonpolar>
-37.2339

> <Gold.PLP.part.repulsive>
0.2864

> <Gold.PLP.ligand.clash>
0.0000

> <Gold.PLP.ligand.torsion>
0.5910

> <Gold.PLP.Chemscore.Hbond>
2.0000

> <Gold.PLP.Chemscore.CHOScore>
0.0000

> <Gold.PLP.Chemscore.Metal>
0.0000

> <Gold.Chemscore.Hbonds>
donor molecule, donor type, donor heavy atom, donor atom, acceptor molecule, acceptor atom, score
      P1  H  7989  7998       L1     3  1.00
      P1  H  7997  8010       L1    11  1.00

> <Gold.PLP.Chemscore.Internal.Correction>
0.0358

> <Gold.Rescore>
     Score         DG    S(hbond)    S(metal)    S(lipo)     H(rot)  DE(clash)    DE(int)     intcor
     20.19     -20.79       1.91        0.00     108.32       1.46       0.02       0.59       ----

> <Gold.Chemscore.Fitness>
20.1904

> <Gold.Chemscore.DG>
-20.7921

> <Gold.Chemscore.ZeroCoef>
-5.4800

> <Gold.Chemscore.Hbond>
1.9112

> <Gold.Chemscore.Metal>
0.0000

> <Gold.Chemscore.Lipo>
108.3187

> <Gold.Chemscore.Internal_Hbond>
0.0000

> <Gold.Chemscore.DEClash>
0.0153

> <Gold.Chemscore.DEInternal>
0.5864

> <Gold.Chemscore.Rot>
1.4627

> <Gold.Chemscore.Internal.Correction>
   9.000000E+99

> <Gold.Chemscore.Hbonds>
donor molecule, donor type, donor heavy atom, donor atom, acceptor molecule, acceptor atom, score
      P1  H  7989  7998       L1     3  0.77
      P1  H  7997  8010       L1    11  0.94

> <Gold.Chemscore.Hbond.Weighted>
-6.3833

> <Gold.Chemscore.Metal.Weighted>
-0.0000

> <Gold.Chemscore.Lipo.Weighted>
-12.6733

> <Gold.Chemscore.Internal_Hbond.Weighted>
0.0000

> <Gold.Chemscore.DEClash.Weighted>
0.0153

> <Gold.Chemscore.DEInternal.Weighted>
0.5864

> <Gold.Chemscore.Rot.Weighted>
3.7445

> <Gold.Chemscore.Internal.Correction.Weighted>
   9.000000E+99

> <Gold.Protein.RotatedTorsions>
[ 6907 6896 6895 6894 ] final  -23.63 input  -60.11 | X-H torsion
[ 7974 7965 7964 7962 ] final -108.95 input  175.53 | X-H torsion
[ 8008 7997 7996 7995 ] final   32.73 input   59.86 | X-H torsion
[ 10167 10162 10161 10158 ] final  118.25 input  -65.29 | X-H torsion
[ 10718 10713 10712 10709 ] final   84.39 input   66.30 | X-H torsion
[ 10763 10752 10751 10750 ] final -106.20 input  -60.55 | X-H torsion
[ 11005 11000 10999 10996 ] final  -59.45 input  -57.11 | X-H torsion

> <Gold.Protein.ActiveResidues>
 VAL166  LYS551  ARG553  GLY616  TRP617  ASP618  TYR619  PRO620  LYS621  CYS622 
 ASP623  PHE694  ASN695  SER759  ASP760  ASP761  ALA762  ILE779  LEU786  VAL792 
 PHE793  MET794  SER795  GLU796  ALA797  LYS798  CYS799  TRP800  GLU811  SER814 

> <Gold.Protein.RotatedAtoms>
  151.2012  135.0443  159.8872 H   0  0  0  0  0  0  0  0  0  0  0  0  # atno 6907 bound_to 6896
  152.5432  134.0848  159.8261 H   0  0  0  0  0  0  0  0  0  0  0  0  # atno 6908 bound_to 6896
  151.0989  133.5211  159.2643 H   0  0  0  0  0  0  0  0  0  0  0  0  # atno 6909 bound_to 6896
  145.1865  140.8995  143.3449 H   0  0  0  0  0  0  0  0  0  0  0  0  # atno 7974 bound_to 7965
  155.1272  140.3254  155.4483 H   0  0  0  0  0  0  0  0  0  0  0  0  # atno 8008 bound_to 7997
  156.2645  140.2017  156.6341 H   0  0  0  0  0  0  0  0  0  0  0  0  # atno 8009 bound_to 7997
  154.6639  140.0544  157.0079 H   0  0  0  0  0  0  0  0  0  0  0  0  # atno 8010 bound_to 7997
  139.6124  144.7084  151.2815 H   0  0  0  0  0  0  0  0  0  0  0  0  # atno 10167 bound_to 10162
  157.6897  131.0131  150.2665 H   0  0  0  0  0  0  0  0  0  0  0  0  # atno 10718 bound_to 10713
  154.7997  135.4721  154.0245 H   0  0  0  0  0  0  0  0  0  0  0  0  # atno 10763 bound_to 10752
  153.1760  135.6833  153.8549 H   0  0  0  0  0  0  0  0  0  0  0  0  # atno 10764 bound_to 10752
  153.8115  135.3216  155.3379 H   0  0  0  0  0  0  0  0  0  0  0  0  # atno 10765 bound_to 10752
  141.1248  133.6616  156.5073 H   0  0  0  0  0  0  0  0  0  0  0  0  # atno 11005 bound_to 11000
  145.0084  139.3533  143.6132 LP  0  0  0  0  0  0  0  0  0  0  0  0  # atno 17320 bound_to 7965
  146.3444  139.9336  142.8750 LP  0  0  0  0  0  0  0  0  0  0  0  0  # atno 17321 bound_to 7965
  140.7328  143.6813  150.7998 LP  0  0  0  0  0  0  0  0  0  0  0  0  # atno 17342 bound_to 10162
  140.0410  143.5346  152.2718 LP  0  0  0  0  0  0  0  0  0  0  0  0  # atno 17343 bound_to 10162
  156.3235  130.3789  149.7554 LP  0  0  0  0  0  0  0  0  0  0  0  0  # atno 17370 bound_to 10713
  156.5116  130.8174  151.3171 LP  0  0  0  0  0  0  0  0  0  0  0  0  # atno 17371 bound_to 10713
  140.4397  134.7027  157.4985 LP  0  0  0  0  0  0  0  0  0  0  0  0  # atno 17394 bound_to 11000
  140.0237  134.6508  155.9203 LP  0  0  0  0  0  0  0  0  0  0  0  0  # atno 17395 bound_to 11000

$$$$
