#       Name:                AV-unprocessed.smi:3141
#       Creating user name   scv26
#       Creation time:       Fri Mar 27 17:36:40 2020


#       File generated by GOLD software.
#

@<TRIPOS>MOLECULE
AV-unprocessed.smi:3141
    38    40     1
SMALL
NO_CHARGES


@<TRIPOS>ATOM
      1 ****        -0.8550   1.5255  -0.6166 O.2            1 S1                 0.0000
      2 ****        -1.2215   0.3500  -0.6239 C.2            1 S1                 0.0000
      3 ****        -2.4996  -0.0421  -0.5411 N.am           1 S1                 0.0000
      4 ****        -3.6254   0.8283  -0.4363 C.3            1 S1                 0.0000
      5 ****        -4.7795   0.3855   0.4373 C.3            1 S1                 0.0000
      6 ****        -4.9263   0.3694  -1.0591 C.3            1 S1                 0.0000
      7 ****        -0.3870  -0.6951  -0.7107 N.am           1 S1                 0.0000
      8 ****         1.0678  -0.5966  -0.7923 C.3            1 S1                 0.0000
      9 ****         1.6683  -1.9111  -1.3263 C.3            1 S1                 0.0000
     10 ****         2.4105  -2.5513  -0.1515 C.3            1 S1                 0.0000
     11 ****         2.8721  -1.3661   0.6899 C.3            1 S1                 0.0000
     12 ****         1.7011  -0.3801   0.6033 C.3            1 S1                 0.0000
     13 ****         2.0891   0.9989   0.8563 N.pl3          1 S1                 0.0000
     14 ****         1.6053   1.8251   1.8627 C.2            1 S1                 0.0000
     15 ****         2.2409   3.0375   1.7194 C.2            1 S1                 0.0000
     16 ****         3.1161   2.9830   0.6377 N.2            1 S1                 0.0000
     17 ****         2.9703   1.7479   0.1762 C.2            1 S1                 0.0000
     18 ****        -2.6931  -1.0327  -0.5553 H              1 S1                 0.0000
     19 ****        -3.4335   1.8999  -0.4688 H              1 S1                 0.0000
     20 ****        -4.6967  -0.5741   0.9440 H              1 S1                 0.0000
     21 ****        -5.3173   1.1561   0.9861 H              1 S1                 0.0000
     22 ****        -5.5619   1.1293  -1.5094 H              1 S1                 0.0000
     23 ****        -4.9424  -0.6016  -1.5506 H              1 S1                 0.0000
     24 ****        -0.7822  -1.6241  -0.7094 H              1 S1                 0.0000
     25 ****         1.3346   0.2057  -1.4831 H              1 S1                 0.0000
     26 ****         0.9258  -2.5854  -1.7556 H              1 S1                 0.0000
     27 ****         2.3836  -1.6811  -2.1172 H              1 S1                 0.0000
     28 ****         1.7214  -3.1667   0.4283 H              1 S1                 0.0000
     29 ****         3.2363  -3.1866  -0.4725 H              1 S1                 0.0000
     30 ****         3.1066  -1.6478   1.7169 H              1 S1                 0.0000
     31 ****         3.7741  -0.9415   0.2472 H              1 S1                 0.0000
     32 ****         0.9810  -0.6694   1.3715 H              1 S1                 0.0000
     33 ****         0.8657   1.4929   2.5761 H              1 S1                 0.0000
     34 ****         2.1352   3.9378   2.3064 H              1 S1                 0.0000
     35 ****         3.5170   1.3794  -0.6795 H              1 S1                 0.0000
     36 ****        -1.5305   2.2594  -0.5454 LP             1 S1                 0.0000
     37 ****         0.1181   1.7463  -0.6819 LP             1 S1                 0.0000
     38 ****         3.7141   3.7054   0.2903 LP             1 S1                 0.0000
@<TRIPOS>BOND
    1    1    2 2     
    2    2    3 am    
    3    2    7 am    
    4    3    4 1     
    5    3   18 1     
    6    4    6 1     
    7    4    5 1     
    8    4   19 1     
    9    5    6 1     
   10    5   20 1     
   11    5   21 1     
   12    6   22 1     
   13    6   23 1     
   14    7    8 1     
   15    7   24 1     
   16    8   12 1     
   17    8    9 1     
   18    8   25 1     
   19    9   10 1     
   20    9   26 1     
   21    9   27 1     
   22   10   11 1     
   23   10   28 1     
   24   10   29 1     
   25   11   12 1     
   26   11   30 1     
   27   11   31 1     
   28   12   13 1     
   29   12   32 1     
   30   13   17 1     
   31   13   14 1     
   32   14   15 2     
   33   14   33 1     
   34   15   16 1     
   35   15   34 1     
   36   16   17 2     
   37   17   35 1     
   38    1   36 1     
   39    1   37 1     
   40   16   38 1     
@<TRIPOS>SUBSTRUCTURE
      1 S1             1
@<TRIPOS>SET
LONE_PAIRS      STATIC     ATOMS    <user>   **** ""
3 36 37 38
DONOR_HYDROGENS      STATIC     ATOMS    <user>   **** ""
2 18 24
ATOM$BLUE        STATIC     ATOMS    COLORGROUP SYSTEM
3 36 37 38
ATOM$RED        STATIC     ATOMS    COLORGROUP SYSTEM
2 18 24
