AV-unprocessed.smi:798|AV-procd|sdf|3771|dock6
  -GOLD-   22720 1203D 1   1.00000     0.00000
 Structure written by MMmdl.
 34 36  0  0  0  0  0  0  0  0  1 V2000
  147.4114  143.1472  160.6236 O   0  0  0  0  0  0  0  0  0  0  0  0
  147.5268  144.0507  159.7951 C   0  0  0  0  0  0  0  0  0  0  0  0
  146.5335  144.8555  159.3784 N   0  0  0  0  0  0  0  0  0  0  0  0
  145.1661  144.8357  159.7620 C   0  0  0  0  0  0  0  0  0  0  0  0
  144.1793  145.3752  159.0292 N   0  0  0  0  0  0  0  0  0  0  0  0
  142.9390  145.2231  159.6353 N   0  0  0  0  0  0  0  0  0  0  0  0
  143.0387  144.5751  160.7993 C   0  0  0  0  0  0  0  0  0  0  0  0
  144.6579  144.0865  161.2689 S   0  0  0  0  0  0  0  0  0  0  0  0
  148.6837  144.3536  159.1898 N   0  0  0  0  0  0  0  0  0  0  0  0
  149.9499  143.6587  159.4089 C   0  0  2  0  0  0  0  0  0  0  0  0
  150.9551  144.5779  160.1372 C   0  0  1  0  0  0  0  0  0  0  0  0
  152.0942  143.7119  160.7048 C   0  0  0  0  0  0  0  0  0  0  0  0
  152.8756  143.3185  159.4372 C   0  0  0  0  0  0  0  0  0  0  0  0
  152.0712  143.9984  158.3080 C   0  0  2  0  0  0  0  0  0  0  0  0
  151.6572  145.2971  158.9882 C   0  0  0  0  0  0  0  0  0  0  0  0
  150.6918  143.3283  158.0879 C   0  0  1  0  0  0  0  0  0  0  0  0
  150.7114  141.8287  157.7332 C   0  0  0  0  0  0  0  0  0  0  0  0
  151.2258  141.6378  156.4324 O   0  0  0  0  0  0  0  0  0  0  0  0
  146.7820  145.5595  158.6991 H   0  0  0  0  0  0  0  0  0  0  0  0
  142.1521  144.3846  161.3857 H   0  0  0  0  0  0  0  0  0  0  0  0
  148.6908  145.1118  158.5235 H   0  0  0  0  0  0  0  0  0  0  0  0
  149.7642  142.7625  160.0045 H   0  0  0  0  0  0  0  0  0  0  0  0
  150.5012  145.2314  160.8834 H   0  0  0  0  0  0  0  0  0  0  0  0
  152.7252  144.2919  161.3793 H   0  0  0  0  0  0  0  0  0  0  0  0
  151.7269  142.8448  161.2550 H   0  0  0  0  0  0  0  0  0  0  0  0
  153.8869  143.7253  159.4791 H   0  0  0  0  0  0  0  0  0  0  0  0
  152.9696  142.2404  159.3155 H   0  0  0  0  0  0  0  0  0  0  0  0
  152.6405  144.1327  157.3878 H   0  0  0  0  0  0  0  0  0  0  0  0
  150.9865  145.9104  158.3838 H   0  0  0  0  0  0  0  0  0  0  0  0
  152.5026  145.9078  159.3103 H   0  0  0  0  0  0  0  0  0  0  0  0
  150.2041  143.8518  157.2626 H   0  0  0  0  0  0  0  0  0  0  0  0
  151.2927  141.2462  158.4468 H   0  0  0  0  0  0  0  0  0  0  0  0
  149.6975  141.4288  157.7588 H   0  0  0  0  0  0  0  0  0  0  0  0
  151.4936  142.4768  156.0898 H   0  0  0  0  0  0  0  0  0  0  0  0
  1  2  2  0  0  0  0
  2  3  1  0  0  0  0
  2  9  1  0  0  0  0
  3  4  1  0  0  0  0
  3 19  1  0  0  0  0
  4  8  1  0  0  0  0
  4  5  2  0  0  0  0
  5  6  1  0  0  0  0
  6  7  2  0  0  0  0
  7  8  1  0  0  0  0
  7 20  1  0  0  0  0
  9 10  1  0  0  0  0
  9 21  1  0  0  0  0
 10 16  1  0  0  0  0
 10 11  1  0  0  0  0
 10 22  1  0  0  0  0
 11 15  1  0  0  0  0
 11 12  1  0  0  0  0
 11 23  1  0  0  0  0
 12 13  1  0  0  0  0
 12 24  1  0  0  0  0
 12 25  1  0  0  0  0
 13 14  1  0  0  0  0
 13 26  1  0  0  0  0
 13 27  1  0  0  0  0
 14 15  1  0  0  0  0
 14 16  1  0  0  0  0
 14 28  1  0  0  0  0
 15 29  1  0  0  0  0
 15 30  1  0  0  0  0
 16 17  1  0  0  0  0
 16 31  1  0  0  0  0
 17 18  1  0  0  0  0
 17 32  1  0  0  0  0
 17 33  1  0  0  0  0
 18 34  1  0  0  0  0
M  END
> <s_m_source_file>
AV-unprocessed.smi

> <i_m_source_file_index>
798

> <i_lp_mmshare_version>
43012

> <i_f3d_flags>
0

> <s_epik_input>
W0NIMl0xW0NIMl1bQ0BASF0oW0NIMl0yKVtDQEBIXShbQ0gyXVtPSF0pW0NAQEhdKFtDQEhdMTIpW05IXUMoPU8pW05IXWMzbm5bY0hdczM=

> <s_epik_cmdline>
J2VwaWtfcHl0aG9uJywgJy1waCcsICc3LjAnLCAnLXRuJywgJzgnLCAnLW1hJywgJzIwMCcsICctbWV0YWxfYmluZGluZycsICctaW1hZScsICc8aW5maWxlLm1hZT4nLCAnLW9tYWUnLCAnPG91dGZpbGUubWFlPic=

> <r_lp_tautomer_probability>
1

> <r_epik_Ionization_Penalty>
0.000329046

> <r_epik_Ionization_Penalty_Charging>
0

> <r_epik_Ionization_Penalty_Neutral>
0.000329046

> <r_epik_State_Penalty>
-0

> <r_epik_Charging_Adjusted_Penalty>
0

> <i_epik_Tot_Q>
0

> <i_epik_Tot_abs_Q>
0

> <r_epik_Metal_State_Penalty>
0.173433

> <b_epik_Metal_Only>
0

> <s_lp_Force_Field>
OPLS_2005

> <r_lp_Energy>
48.5099

> <b_lp_Chiralities_Consistent>
1

> <s_lp_Variant>
AV-unprocessed.smi:798-3

> <Gold.Version>
5.8.1

> <Gold.Id.Protein>
6NUR|6NUR_protein|mol2

> <Gold.PLP.Fitness>
40.9448

> <Gold.PLP.PLP>
-32.3738

> <Gold.PLP.part.hbond>
-3.8064

> <Gold.PLP.part.metal>
0.0000

> <Gold.PLP.part.buried>
-3.0134

> <Gold.PLP.part.nonpolar>
-26.7592

> <Gold.PLP.part.repulsive>
0.3789

> <Gold.PLP.ligand.clash>
0.0000

> <Gold.PLP.ligand.torsion>
0.2628

> <Gold.PLP.Chemscore.Hbond>
3.0263

> <Gold.PLP.Chemscore.CHOScore>
0.0000

> <Gold.PLP.Chemscore.Metal>
0.0000

> <Gold.Chemscore.Hbonds>
donor molecule, donor type, donor heavy atom, donor atom, acceptor molecule, acceptor atom, score
      L1  H     3    19       P1  8029  0.91
      L1  H     9    21       P1  8029  0.98
      P1  H  6933  6944       L1     1  1.00
      P1  H  6934  6946       L1     1  0.16

> <Gold.PLP.Chemscore.Internal.Correction>
0.0176

> <Gold.Rescore>
     Score         DG    S(hbond)    S(metal)    S(lipo)     H(rot)  DE(clash)    DE(int)     intcor
     20.71     -21.79       3.15        0.00      92.08       1.94       0.03       1.05       ----

> <Gold.Chemscore.Fitness>
20.7127

> <Gold.Chemscore.DG>
-21.7934

> <Gold.Chemscore.ZeroCoef>
-5.4800

> <Gold.Chemscore.Hbond>
3.1487

> <Gold.Chemscore.Metal>
0.0000

> <Gold.Chemscore.Lipo>
92.0831

> <Gold.Chemscore.Internal_Hbond>
0.0000

> <Gold.Chemscore.DEClash>
0.0324

> <Gold.Chemscore.DEInternal>
1.0483

> <Gold.Chemscore.Rot>
1.9442

> <Gold.Chemscore.Internal.Correction>
   9.000000E+99

> <Gold.Chemscore.Hbonds>
donor molecule, donor type, donor heavy atom, donor atom, acceptor molecule, acceptor atom, score
      L1  H     3    19       P1  8029  0.90
      L1  H     9    21       P1  8029  0.91
      P1  H  6933  6944       L1     1  0.96
      P1  H  6934  6946       L1     1  0.16

> <Gold.Chemscore.Hbond.Weighted>
-10.5167

> <Gold.Chemscore.Metal.Weighted>
-0.0000

> <Gold.Chemscore.Lipo.Weighted>
-10.7737

> <Gold.Chemscore.Internal_Hbond.Weighted>
0.0000

> <Gold.Chemscore.DEClash.Weighted>
0.0324

> <Gold.Chemscore.DEInternal.Weighted>
1.0483

> <Gold.Chemscore.Rot.Weighted>
4.9771

> <Gold.Chemscore.Internal.Correction.Weighted>
   9.000000E+99

> <Gold.Protein.RotatedTorsions>
[ 6907 6896 6895 6894 ] final  -42.59 input  -60.11 | X-H torsion
[ 7974 7965 7964 7962 ] final  152.62 input  175.53 | X-H torsion
[ 8008 7997 7996 7995 ] final  -53.02 input   59.86 | X-H torsion
[ 10167 10162 10161 10158 ] final   -9.45 input  -65.29 | X-H torsion
[ 10718 10713 10712 10709 ] final  150.12 input   66.30 | X-H torsion
[ 10763 10752 10751 10750 ] final -135.10 input  -60.55 | X-H torsion
[ 11005 11000 10999 10996 ] final   -5.89 input  -57.11 | X-H torsion

> <Gold.Protein.ActiveResidues>
 VAL166  LYS551  ARG553  GLY616  TRP617  ASP618  TYR619  PRO620  LYS621  CYS622 
 ASP623  PHE694  ASN695  SER759  ASP760  ASP761  ALA762  ILE779  LEU786  VAL792 
 PHE793  MET794  SER795  GLU796  ALA797  LYS798  CYS799  TRP800  GLU811  SER814 

> <Gold.Protein.RotatedAtoms>
  150.9535  134.8932  159.7686 H   0  0  0  0  0  0  0  0  0  0  0  0  # atno 6907 bound_to 6896
  152.5129  134.3773  159.9349 H   0  0  0  0  0  0  0  0  0  0  0  0  # atno 6908 bound_to 6896
  151.3788  133.3788  159.2742 H   0  0  0  0  0  0  0  0  0  0  0  0  # atno 6909 bound_to 6896
  144.8210  139.6692  143.6100 H   0  0  0  0  0  0  0  0  0  0  0  0  # atno 7974 bound_to 7965
  154.4122  140.1210  156.5086 H   0  0  0  0  0  0  0  0  0  0  0  0  # atno 8008 bound_to 7997
  155.6822  140.3496  155.4840 H   0  0  0  0  0  0  0  0  0  0  0  0  # atno 8009 bound_to 7997
  155.9541  140.1110  157.0941 H   0  0  0  0  0  0  0  0  0  0  0  0  # atno 8010 bound_to 7997
  140.7087  143.5856  150.8946 H   0  0  0  0  0  0  0  0  0  0  0  0  # atno 10167 bound_to 10162
  157.2875  131.0847  151.1487 H   0  0  0  0  0  0  0  0  0  0  0  0  # atno 10718 bound_to 10713
  154.8709  135.3714  154.4843 H   0  0  0  0  0  0  0  0  0  0  0  0  # atno 10763 bound_to 10752
  153.5494  135.7025  153.5603 H   0  0  0  0  0  0  0  0  0  0  0  0  # atno 10764 bound_to 10752
  153.3729  135.4016  155.1766 H   0  0  0  0  0  0  0  0  0  0  0  0  # atno 10765 bound_to 10752
  140.6961  133.9030  155.8651 H   0  0  0  0  0  0  0  0  0  0  0  0  # atno 11005 bound_to 11000
  146.2515  139.6210  142.9424 LP  0  0  0  0  0  0  0  0  0  0  0  0  # atno 17320 bound_to 7965
  145.5105  141.0435  143.2490 LP  0  0  0  0  0  0  0  0  0  0  0  0  # atno 17321 bound_to 7965
  139.9582  143.6194  152.3010 LP  0  0  0  0  0  0  0  0  0  0  0  0  # atno 17342 bound_to 10162
  139.6737  144.7659  151.1736 LP  0  0  0  0  0  0  0  0  0  0  0  0  # atno 17343 bound_to 10162
  157.2896  130.6790  149.6107 LP  0  0  0  0  0  0  0  0  0  0  0  0  # atno 17370 bound_to 10713
  155.9666  130.4425  150.5382 LP  0  0  0  0  0  0  0  0  0  0  0  0  # atno 17371 bound_to 10713
  141.0202  134.0900  157.4129 LP  0  0  0  0  0  0  0  0  0  0  0  0  # atno 17394 bound_to 11000
  139.8910  135.0115  156.6765 LP  0  0  0  0  0  0  0  0  0  0  0  0  # atno 17395 bound_to 11000

$$$$
