#       Name:                AV-unprocessed.smi:1033
#       Creating user name   scv26
#       Creation time:       Fri Mar 27 02:47:59 2020


#       File generated by GOLD software.
#

@<TRIPOS>MOLECULE
AV-unprocessed.smi:1033
    62    64     1
SMALL
NO_CHARGES


@<TRIPOS>ATOM
      1 ****        -6.9588   1.3177   1.2321 C.3            1 S1                 0.0000
      2 ****        -5.6280   1.6476   0.5792 C.ar           1 S1                 0.0000
      3 ****        -5.6175   2.1682  -0.7347 C.ar           1 S1                 0.0000
      4 ****        -4.4016   2.4883  -1.3772 C.ar           1 S1                 0.0000
      5 ****        -4.1584   3.0004  -2.6402 N.2            1 S1                 0.0000
      6 ****        -2.8308   3.0770  -2.6484 C.2            1 S1                 0.0000
      7 ****        -2.1836   2.6669  -1.5404 N.pl3          1 S1                 0.0000
      8 ****        -0.7498   2.6473  -1.3149 C.3            1 S1                 0.0000
      9 ****        -0.1614   1.2289  -1.4350 C.3            1 S1                 0.0000
     10 ****        -0.3753   0.7474  -2.7482 O.3            1 S1                 0.0000
     11 ****         1.3507   1.2088  -1.1375 C.3            1 S1                 0.0000
     12 ****         1.9205  -0.1629  -1.1496 N.4            1 S1                 1.0000
     13 ****         1.5824  -0.9646   0.0571 C.3            1 S1                 0.0000
     14 ****         2.1603  -2.3883  -0.0708 C.3            1 S1                 0.0000
     15 ****         3.6099  -2.4098  -0.2813 N.3            1 S1                 0.0000
     16 ****         4.4064  -2.0192   0.8881 C.3            1 S1                 0.0000
     17 ****         4.3086  -2.9621   2.1042 C.3            1 S1                 0.0000
     18 ****         4.8275  -4.3775   1.8127 C.3            1 S1                 0.0000
     19 ****         5.0873  -2.4141   3.1464 O.3            1 S1                 0.0000
     20 ****         3.9180  -1.6118  -1.4681 C.3            1 S1                 0.0000
     21 ****         3.3876  -0.1653  -1.3850 C.3            1 S1                 0.0000
     22 ****        -3.1870   2.2706  -0.6636 C.ar           1 S1                 0.0000
     23 ****        -3.1838   1.7542   0.6441 C.ar           1 S1                 0.0000
     24 ****        -4.4077   1.4405   1.2715 C.ar           1 S1                 0.0000
     25 ****        -4.3949   0.8846   2.6845 C.3            1 S1                 0.0000
     26 ****        -7.7923   1.5069   0.5549 H              1 S1                 0.0000
     27 ****        -7.1071   1.9267   2.1241 H              1 S1                 0.0000
     28 ****        -6.9946   0.2668   1.5194 H              1 S1                 0.0000
     29 ****        -6.5468   2.3273  -1.2618 H              1 S1                 0.0000
     30 ****        -2.2971   3.4470  -3.5118 H              1 S1                 0.0000
     31 ****        -0.2719   3.3247  -2.0243 H              1 S1                 0.0000
     32 ****        -0.5598   3.0521  -0.3201 H              1 S1                 0.0000
     33 ****        -0.6926   0.5768  -0.7427 H              1 S1                 0.0000
     34 ****        -1.3041   0.7617  -2.9262 H              1 S1                 0.0000
     35 ****         1.8579   1.8214  -1.8849 H              1 S1                 0.0000
     36 ****         1.5576   1.6736  -0.1724 H              1 S1                 0.0000
     37 ****         1.9577  -0.4705   0.9541 H              1 S1                 0.0000
     38 ****         0.5020  -1.0379   0.1722 H              1 S1                 0.0000
     39 ****         1.8898  -2.9817   0.8015 H              1 S1                 0.0000
     40 ****         1.6766  -2.8842  -0.9136 H              1 S1                 0.0000
     41 ****         5.4554  -1.9639   0.5932 H              1 S1                 0.0000
     42 ****         4.1393  -1.0105   1.2025 H              1 S1                 0.0000
     43 ****         3.2836  -3.0148   2.4700 H              1 S1                 0.0000
     44 ****         4.2287  -4.8647   1.0427 H              1 S1                 0.0000
     45 ****         4.7838  -5.0037   2.7044 H              1 S1                 0.0000
     46 ****         5.8616  -4.3600   1.4670 H              1 S1                 0.0000
     47 ****         5.9920  -2.4019   2.8732 H              1 S1                 0.0000
     48 ****         4.9951  -1.6029  -1.6399 H              1 S1                 0.0000
     49 ****         3.4832  -2.0960  -2.3437 H              1 S1                 0.0000
     50 ****         3.6072   0.3492  -2.3212 H              1 S1                 0.0000
     51 ****         3.8929   0.3918  -0.5950 H              1 S1                 0.0000
     52 ****        -2.2475   1.6019   1.1602 H              1 S1                 0.0000
     53 ****        -3.3783   0.7967   3.0691 H              1 S1                 0.0000
     54 ****        -4.8485  -0.1064   2.7088 H              1 S1                 0.0000
     55 ****        -4.9518   1.5376   3.3569 H              1 S1                 0.0000
     56 ****         1.5082  -0.6351  -1.9419 H              1 S1                 0.0000
     57 ****        -4.8097   3.2476  -3.3576 LP             1 S1                 0.0000
     58 ****        -0.0318  -0.1887  -2.8242 LP             1 S1                 0.0000
     59 ****         0.1026   1.3321  -3.4037 LP             1 S1                 0.0000
     60 ****         3.8818  -3.3606  -0.4299 LP             1 S1                 0.0000
     61 ****         4.9914  -2.9747   3.9689 LP             1 S1                 0.0000
     62 ****         4.7816  -1.4820   3.3408 LP             1 S1                 0.0000
@<TRIPOS>BOND
    1    1    2 1     
    2    1   26 1     
    3    1   27 1     
    4    1   28 1     
    5    2   24 ar    
    6    2    3 ar    
    7    3    4 ar    
    8    3   29 1     
    9    4   22 ar    
   10    4    5 1     
   11    5    6 2     
   12    6    7 1     
   13    6   30 1     
   14    7    8 1     
   15    7   22 1     
   16    8    9 1     
   17    8   31 1     
   18    8   32 1     
   19    9   10 1     
   20    9   11 1     
   21    9   33 1     
   22   10   34 1     
   23   11   12 1     
   24   11   35 1     
   25   11   36 1     
   26   12   21 1     
   27   12   13 1     
   28   12   56 1     
   29   13   14 1     
   30   13   37 1     
   31   13   38 1     
   32   14   15 1     
   33   14   39 1     
   34   14   40 1     
   35   15   16 1     
   36   15   20 1     
   37   16   17 1     
   38   16   41 1     
   39   16   42 1     
   40   17   18 1     
   41   17   19 1     
   42   17   43 1     
   43   18   44 1     
   44   18   45 1     
   45   18   46 1     
   46   19   47 1     
   47   20   21 1     
   48   20   48 1     
   49   20   49 1     
   50   21   50 1     
   51   21   51 1     
   52   22   23 ar    
   53   23   24 ar    
   54   23   52 1     
   55   24   25 1     
   56   25   53 1     
   57   25   54 1     
   58   25   55 1     
   59    5   57 1     
   60   10   58 1     
   61   10   59 1     
   62   15   60 1     
   63   19   61 1     
   64   19   62 1     
@<TRIPOS>SUBSTRUCTURE
      1 S1             1
@<TRIPOS>SET
LONE_PAIRS      STATIC     ATOMS    <user>   **** ""
6 57 58 59 60 61 62
DONOR_HYDROGENS      STATIC     ATOMS    <user>   **** ""
3 34 56 47
ATOM$BLUE        STATIC     ATOMS    COLORGROUP SYSTEM
6 57 58 59 60 61 62
ATOM$RED        STATIC     ATOMS    COLORGROUP SYSTEM
3 34 56 47
