AV-unprocessed.smi:1946|AV-procd|sdf|7861|dock9
  -GOLD-   2272010 13D 1   1.00000     0.00000
 Structure written by MMmdl.
 38 40  0  0  0  0  0  0  0  0  1 V2000
  149.2771  133.6271  155.1397 C   0  0  0  0  0  0  0  0  0  0  0  0
  150.2317  134.0344  156.6572 S   0  0  0  0  0  0  0  0  0  0  0  0
  149.4102  133.6752  157.8235 O   0  0  0  0  0  0  0  0  0  0  0  0
  151.5808  133.4650  156.5137 O   0  0  0  0  0  0  0  0  0  0  0  0
  150.3683  135.8168  156.6016 C   0  0  0  0  0  0  0  0  0  0  0  0
  150.7771  136.4522  155.4124 C   0  0  0  0  0  0  0  0  0  0  0  0
  150.8524  137.8578  155.3648 C   0  0  0  0  0  0  0  0  0  0  0  0
  150.5067  138.6295  156.4971 C   0  0  0  0  0  0  0  0  0  0  0  0
  150.5934  140.1471  156.4578 C   0  0  2  0  0  0  0  0  0  0  0  0
  150.5163  140.6563  155.1399 O   0  0  0  0  0  0  0  0  0  0  0  0
  151.8808  140.6521  157.1368 C   0  0  0  0  0  0  0  0  0  0  0  0
  151.6606  141.8632  157.9059 N   0  0  0  0  0  0  0  0  0  0  0  0
  151.0049  142.9725  157.5133 C   0  0  0  0  0  0  0  0  0  0  0  0
  150.9203  143.9715  158.3876 N   0  0  0  0  0  0  0  0  0  0  0  0
  151.6006  143.4496  159.4747 C   0  0  0  0  0  0  0  0  0  0  0  0
  151.8720  144.0102  160.7435 C   0  0  0  0  0  0  0  0  0  0  0  0
  152.5957  143.2783  161.7079 C   0  0  0  0  0  0  0  0  0  0  0  0
  153.0582  141.9774  161.4204 C   0  0  0  0  0  0  0  0  0  0  0  0
  152.7994  141.3973  160.1636 C   0  0  0  0  0  0  0  0  0  0  0  0
  152.0773  142.1314  159.2044 C   0  0  0  0  0  0  0  0  0  0  0  0
  150.0880  137.9818  157.6799 C   0  0  0  0  0  0  0  0  0  0  0  0
  150.0125  136.5767  157.7330 C   0  0  0  0  0  0  0  0  0  0  0  0
  149.1339  132.5485  155.0802 H   0  0  0  0  0  0  0  0  0  0  0  0
  149.8250  133.9692  154.2620 H   0  0  0  0  0  0  0  0  0  0  0  0
  148.3059  134.1201  155.1768 H   0  0  0  0  0  0  0  0  0  0  0  0
  151.0344  135.8709  154.5392 H   0  0  0  0  0  0  0  0  0  0  0  0
  151.1767  138.3421  154.4552 H   0  0  0  0  0  0  0  0  0  0  0  0
  149.7333  140.5487  156.9956 H   0  0  0  0  0  0  0  0  0  0  0  0
  149.6050  140.7516  154.9084 H   0  0  0  0  0  0  0  0  0  0  0  0
  152.2711  139.8910  157.8137 H   0  0  0  0  0  0  0  0  0  0  0  0
  152.6597  140.8407  156.3964 H   0  0  0  0  0  0  0  0  0  0  0  0
  150.5616  143.0497  156.5311 H   0  0  0  0  0  0  0  0  0  0  0  0
  151.5227  145.0055  160.9753 H   0  0  0  0  0  0  0  0  0  0  0  0
  152.7974  143.7179  162.6737 H   0  0  0  0  0  0  0  0  0  0  0  0
  153.6119  141.4253  162.1656 H   0  0  0  0  0  0  0  0  0  0  0  0
  153.1511  140.4013  159.9390 H   0  0  0  0  0  0  0  0  0  0  0  0
  149.8218  138.5612  158.5519 H   0  0  0  0  0  0  0  0  0  0  0  0
  149.6830  136.0897  158.6390 H   0  0  0  0  0  0  0  0  0  0  0  0
  1  2  1  0  0  0  0
  1 23  1  0  0  0  0
  1 24  1  0  0  0  0
  1 25  1  0  0  0  0
  2  3  2  0  0  0  0
  2  4  2  0  0  0  0
  2  5  1  0  0  0  0
  5 22  1  0  0  0  0
  5  6  2  0  0  0  0
  6  7  1  0  0  0  0
  6 26  1  0  0  0  0
  7  8  2  0  0  0  0
  7 27  1  0  0  0  0
  8  9  1  0  0  0  0
  8 21  1  0  0  0  0
  9 10  1  0  0  0  0
  9 11  1  0  0  0  0
  9 28  1  0  0  0  0
 10 29  1  0  0  0  0
 11 12  1  0  0  0  0
 11 30  1  0  0  0  0
 11 31  1  0  0  0  0
 12 20  1  0  0  0  0
 12 13  1  0  0  0  0
 13 14  2  0  0  0  0
 13 32  1  0  0  0  0
 14 15  1  0  0  0  0
 15 20  2  0  0  0  0
 15 16  1  0  0  0  0
 16 17  2  0  0  0  0
 16 33  1  0  0  0  0
 17 18  1  0  0  0  0
 17 34  1  0  0  0  0
 18 19  2  0  0  0  0
 18 35  1  0  0  0  0
 19 20  1  0  0  0  0
 19 36  1  0  0  0  0
 21 22  2  0  0  0  0
 21 37  1  0  0  0  0
 22 38  1  0  0  0  0
M  END
> <s_m_source_file>
AV-unprocessed.smi

> <i_m_source_file_index>
1946

> <i_lp_mmshare_version>
43012

> <i_f3d_flags>
0

> <s_epik_input>
W0NIM11TKD1PKSg9TyljMVtjSF1bY0hdYyhbY0hdW2NIXTEpW0NASF0oW09IXSlbQ0gyXW4oW2NIXW4yKWMoYzIzKVtjSF1bY0hdW2NIXVtjSF0z

> <s_epik_cmdline>
J2VwaWtfcHl0aG9uJywgJy1waCcsICc3LjAnLCAnLXRuJywgJzgnLCAnLW1hJywgJzIwMCcsICctbWV0YWxfYmluZGluZycsICctaW1hZScsICc8aW5maWxlLm1hZT4nLCAnLW9tYWUnLCAnPG91dGZpbGUubWFlPic=

> <r_epik_Ionization_Penalty>
0.0696512

> <r_epik_Ionization_Penalty_Charging>
0

> <r_epik_Ionization_Penalty_Neutral>
0.0696512

> <r_epik_State_Penalty>
0.0610247

> <r_epik_Charging_Adjusted_Penalty>
0.0610247

> <i_epik_Tot_Q>
0

> <i_epik_Tot_abs_Q>
0

> <r_epik_Metal_State_Penalty>
6.42746e-05

> <b_epik_Metal_Only>
0

> <s_lp_Force_Field>
OPLS_2005

> <r_lp_Energy>
7.3467

> <b_lp_Chiralities_Consistent>
1

> <s_lp_Variant>
AV-unprocessed.smi:1946-1

> <Gold.Version>
5.8.1

> <Gold.Id.Protein>
6NUR|6NUR_protein|mol2

> <Gold.PLP.Fitness>
44.4835

> <Gold.PLP.PLP>
-38.4239

> <Gold.PLP.part.hbond>
-2.0000

> <Gold.PLP.part.metal>
0.0000

> <Gold.PLP.part.buried>
-5.6693

> <Gold.PLP.part.nonpolar>
-31.0561

> <Gold.PLP.part.repulsive>
0.1463

> <Gold.PLP.ligand.clash>
0.0000

> <Gold.PLP.ligand.torsion>
2.3379

> <Gold.PLP.Chemscore.Hbond>
1.9120

> <Gold.PLP.Chemscore.CHOScore>
0.9860

> <Gold.PLP.Chemscore.Metal>
0.0000

> <Gold.Chemscore.Hbonds>
donor molecule, donor type, donor heavy atom, donor atom, acceptor molecule, acceptor atom, score
      P1  H  6896  6908       L1     3  1.00
      P1  H  7989  7998       L1    10  0.91
      L1  C    13    32       P1  8028  0.98

> <Gold.PLP.Chemscore.Internal.Correction>
2.0414

> <Gold.Rescore>
     Score         DG    S(hbond)    S(metal)    S(lipo)     H(rot)  DE(clash)    DE(int)     intcor
     16.20     -18.50       1.80        0.00     103.39       1.98       0.09       2.20       ----

> <Gold.Chemscore.Fitness>
16.2007

> <Gold.Chemscore.DG>
-18.4976

> <Gold.Chemscore.ZeroCoef>
-5.4800

> <Gold.Chemscore.Hbond>
1.7966

> <Gold.Chemscore.Metal>
0.0000

> <Gold.Chemscore.Lipo>
103.3863

> <Gold.Chemscore.Internal_Hbond>
0.0000

> <Gold.Chemscore.DEClash>
0.0943

> <Gold.Chemscore.DEInternal>
2.2027

> <Gold.Chemscore.Rot>
1.9840

> <Gold.Chemscore.Internal.Correction>
   9.000000E+99

> <Gold.Chemscore.Hbonds>
donor molecule, donor type, donor heavy atom, donor atom, acceptor molecule, acceptor atom, score
      P1  H  6896  6908       L1     3  0.25
      P1  H  7989  7998       L1    10  0.61

> <Gold.Chemscore.Hbond.Weighted>
-6.0005

> <Gold.Chemscore.Metal.Weighted>
-0.0000

> <Gold.Chemscore.Lipo.Weighted>
-12.0962

> <Gold.Chemscore.Internal_Hbond.Weighted>
0.0000

> <Gold.Chemscore.DEClash.Weighted>
0.0943

> <Gold.Chemscore.DEInternal.Weighted>
2.2027

> <Gold.Chemscore.Rot.Weighted>
5.0791

> <Gold.Chemscore.Internal.Correction.Weighted>
   9.000000E+99

> <Gold.Protein.RotatedTorsions>
[ 6907 6896 6895 6894 ] final  121.15 input  -60.11 | X-H torsion
[ 7974 7965 7964 7962 ] final   51.18 input  175.53 | X-H torsion
[ 8008 7997 7996 7995 ] final -161.20 input   59.86 | X-H torsion
[ 10167 10162 10161 10158 ] final   36.86 input  -65.29 | X-H torsion
[ 10718 10713 10712 10709 ] final    8.12 input   66.30 | X-H torsion
[ 10763 10752 10751 10750 ] final  163.11 input  -60.55 | X-H torsion
[ 11005 11000 10999 10996 ] final   31.58 input  -57.11 | X-H torsion

> <Gold.Protein.ActiveResidues>
 VAL166  LYS551  ARG553  GLY616  TRP617  ASP618  TYR619  PRO620  LYS621  CYS622 
 ASP623  PHE694  ASN695  SER759  ASP760  ASP761  ALA762  ILE779  LEU786  VAL792 
 PHE793  MET794  SER795  GLU796  ALA797  LYS798  CYS799  TRP800  GLU811  SER814 

> <Gold.Protein.RotatedAtoms>
  152.4344  133.7334  159.6600 H   0  0  0  0  0  0  0  0  0  0  0  0  # atno 6907 bound_to 6896
  150.8226  133.8216  159.3138 H   0  0  0  0  0  0  0  0  0  0  0  0  # atno 6908 bound_to 6896
  151.5893  135.1056  160.0087 H   0  0  0  0  0  0  0  0  0  0  0  0  # atno 6909 bound_to 6896
  145.9938  139.4367  143.0057 H   0  0  0  0  0  0  0  0  0  0  0  0  # atno 7974 bound_to 7965
  155.7887  140.0875  157.2020 H   0  0  0  0  0  0  0  0  0  0  0  0  # atno 8008 bound_to 7997
  154.3986  140.1494  156.3195 H   0  0  0  0  0  0  0  0  0  0  0  0  # atno 8009 bound_to 7997
  155.8581  140.3431  155.5740 H   0  0  0  0  0  0  0  0  0  0  0  0  # atno 8010 bound_to 7997
  140.4088  144.1622  150.6138 H   0  0  0  0  0  0  0  0  0  0  0  0  # atno 10167 bound_to 10162
  156.9469  130.5882  149.5655 H   0  0  0  0  0  0  0  0  0  0  0  0  # atno 10718 bound_to 10713
  154.2887  135.2761  155.2664 H   0  0  0  0  0  0  0  0  0  0  0  0  # atno 10763 bound_to 10752
  154.5153  135.5771  153.6640 H   0  0  0  0  0  0  0  0  0  0  0  0  # atno 10764 bound_to 10752
  152.9917  135.6191  154.3051 H   0  0  0  0  0  0  0  0  0  0  0  0  # atno 10765 bound_to 10752
  140.2824  134.2957  155.7797 H   0  0  0  0  0  0  0  0  0  0  0  0  # atno 11005 bound_to 11000
  145.7590  140.9943  143.1210 LP  0  0  0  0  0  0  0  0  0  0  0  0  # atno 17320 bound_to 7965
  144.6897  139.9307  143.7471 LP  0  0  0  0  0  0  0  0  0  0  0  0  # atno 17321 bound_to 7965
  140.4660  143.2430  151.9154 LP  0  0  0  0  0  0  0  0  0  0  0  0  # atno 17342 bound_to 10162
  139.4783  144.5418  151.8516 LP  0  0  0  0  0  0  0  0  0  0  0  0  # atno 17343 bound_to 10162
  156.0379  130.5465  150.8700 LP  0  0  0  0  0  0  0  0  0  0  0  0  # atno 17370 bound_to 10713
  157.5748  131.0946  150.9363 LP  0  0  0  0  0  0  0  0  0  0  0  0  # atno 17371 bound_to 10713
  141.2160  133.7534  156.9501 LP  0  0  0  0  0  0  0  0  0  0  0  0  # atno 17394 bound_to 11000
  140.1271  134.9380  157.2285 LP  0  0  0  0  0  0  0  0  0  0  0  0  # atno 17395 bound_to 11000

$$$$
