#       Name:                AV-unprocessed.smi:72
#       Creating user name   scv26
#       Creation time:       Thu Mar 26 16:57:25 2020


#       File generated by GOLD software.
#

@<TRIPOS>MOLECULE
AV-unprocessed.smi:72
    41    42     1
SMALL
NO_CHARGES


@<TRIPOS>ATOM
      1 ****        -2.3834   4.4701   0.9824 N.2            1 S1                 0.0000
      2 ****        -1.8537   3.3475   0.6486 C.2            1 S1                 0.0000
      3 ****        -0.5112   2.9925   0.8512 N.2            1 S1                 0.0000
      4 ****        -0.1112   1.8226   0.4582 C.2            1 S1                 0.0000
      5 ****        -1.0058   0.8745  -0.1880 N.am           1 S1                 0.0000
      6 ****        -0.5061  -0.4831  -0.6360 C.3            1 S1                 0.0000
      7 ****         0.7848  -0.3340  -1.1415 O.3            1 S1                 0.0000
      8 ****         1.5518  -1.4802  -0.8032 C.3            1 S1                 0.0000
      9 ****         3.0491  -1.1375  -0.8416 C.3            1 S1                 0.0000
     10 ****         3.5330  -1.2199  -2.1652 O.3            1 S1                 0.0000
     11 ****         1.0385  -1.8266   0.5980 C.3            1 S1                 0.0000
     12 ****         1.2550  -3.1938   0.8828 O.3            1 S1                 0.0000
     13 ****        -0.4526  -1.5281   0.5020 C.3            1 S1                 0.0000
     14 ****        -0.9556  -1.0771   1.7472 O.3            1 S1                 0.0000
     15 ****        -2.3678   1.2082  -0.3822 C.2            1 S1                 0.0000
     16 ****        -3.1753   0.4309  -0.8905 O.2            1 S1                 0.0000
     17 ****        -2.7308   2.4391   0.0395 N.am           1 S1                 0.0000
     18 ****        -1.1470  -0.7997  -1.4601 H              1 S1                 0.0000
     19 ****         1.3105  -2.2885  -1.4972 H              1 S1                 0.0000
     20 ****         1.5179  -1.1921   1.3456 H              1 S1                 0.0000
     21 ****        -1.0128  -2.4049   0.1728 H              1 S1                 0.0000
     22 ****        -3.3621   4.4883   0.7359 H              1 S1                 0.0000
     23 ****         0.9135   1.4718   0.5901 H              1 S1                 0.0000
     24 ****         3.2407  -0.1476  -0.4261 H              1 S1                 0.0000
     25 ****         3.6129  -1.8542  -0.2439 H              1 S1                 0.0000
     26 ****         4.4581  -1.0266  -2.1598 H              1 S1                 0.0000
     27 ****         0.8779  -3.3842   1.7284 H              1 S1                 0.0000
     28 ****        -1.8733  -0.8760   1.6439 H              1 S1                 0.0000
     29 ****        -3.6950   2.7086  -0.0889 H              1 S1                 0.0000
     30 ****        -1.8938   5.2213   1.4249 LP             1 S1                 0.0000
     31 ****         0.1241   3.6283   1.2895 LP             1 S1                 0.0000
     32 ****         1.2076   0.4808  -0.7449 LP             1 S1                 0.0000
     33 ****         0.7459  -0.2388  -2.1362 LP             1 S1                 0.0000
     34 ****         3.0536  -0.5578  -2.7412 LP             1 S1                 0.0000
     35 ****         3.3834  -2.1420  -2.5220 LP             1 S1                 0.0000
     36 ****         2.2365  -3.3844   0.8996 LP             1 S1                 0.0000
     37 ****         0.8178  -3.7584   0.1827 LP             1 S1                 0.0000
     38 ****        -0.4606  -0.2570   2.0341 LP             1 S1                 0.0000
     39 ****        -0.8424  -1.7930   2.4362 LP             1 S1                 0.0000
     40 ****        -2.8778  -0.4773  -1.1849 LP             1 S1                 0.0000
     41 ****        -4.1289   0.7075  -1.0092 LP             1 S1                 0.0000
@<TRIPOS>BOND
    1    1    2 2     
    2    1   22 1     
    3    2   17 1     
    4    2    3 1     
    5    3    4 2     
    6    4    5 1     
    7    4   23 1     
    8    5    6 1     
    9    5   15 am    
   10    6   18 1     
   11    6   13 1     
   12    6    7 1     
   13    7    8 1     
   14    8   19 1     
   15    8    9 1     
   16    8   11 1     
   17    9   10 1     
   18    9   24 1     
   19    9   25 1     
   20   10   26 1     
   21   11   20 1     
   22   11   12 1     
   23   11   13 1     
   24   12   27 1     
   25   13   21 1     
   26   13   14 1     
   27   14   28 1     
   28   15   16 2     
   29   15   17 am    
   30   17   29 1     
   31    1   30 1     
   32    3   31 1     
   33    7   32 1     
   34    7   33 1     
   35   10   34 1     
   36   10   35 1     
   37   12   36 1     
   38   12   37 1     
   39   14   38 1     
   40   14   39 1     
   41   16   40 1     
   42   16   41 1     
@<TRIPOS>SUBSTRUCTURE
      1 S1             1
@<TRIPOS>SET
LONE_PAIRS      STATIC     ATOMS    <user>   **** ""
12 30 31 32 33 34 35 36 37 38 39 40 41
DONOR_HYDROGENS      STATIC     ATOMS    <user>   **** ""
5 22 26 27 28 29
ATOM$BLUE        STATIC     ATOMS    COLORGROUP SYSTEM
12 30 31 32 33 34 35 36 37 38 39 40 41
ATOM$RED        STATIC     ATOMS    COLORGROUP SYSTEM
5 22 26 27 28 29
