AV-unprocessed.smi:1231|AV-procd|sdf|5166|dock10
  -GOLD-   22720 4243D 1   1.00000     0.00000
 Structure written by MMmdl.
 43 44  0  0  0  0  0  0  0  0  2 V2000
  151.6516  137.7698  155.5555 C   0  0  0  0  0  0  0  0  0  0  0  0
  151.2047  138.7885  154.4919 C   0  0  1  0  0  0  0  0  0  0  0  0
  149.7319  138.6286  154.0656 C   0  0  0  0  0  0  0  0  0  0  0  0
  148.8110  139.1189  155.1184 N   0  3  2  0  0  0  0  0  0  0  0  0
  147.3850  138.9233  154.7580 C   0  0  0  0  0  0  0  0  0  0  0  0
  146.9090  137.4805  155.0145 C   0  0  0  0  0  0  0  0  0  0  0  0
  147.0200  136.6583  153.8151 N   0  0  0  0  0  0  0  0  0  0  0  0
  146.0670  135.8276  153.3677 C   0  0  0  0  0  0  0  0  0  0  0  0
  144.9824  135.6793  153.9319 O   0  0  0  0  0  0  0  0  0  0  0  0
  146.4553  135.1973  152.2453 N   0  0  0  0  0  0  0  0  0  0  0  0
  145.7240  134.2601  151.4678 C   0  0  0  0  0  0  0  0  0  0  0  0
  146.5131  133.3361  150.7459 C   0  0  0  0  0  0  0  0  0  0  0  0
  145.8829  132.3643  149.9446 C   0  0  0  0  0  0  0  0  0  0  0  0
  144.4782  132.3431  149.8841 C   0  0  0  0  0  0  0  0  0  0  0  0
  143.7674  133.2999  150.6322 C   0  0  0  0  0  0  0  0  0  0  0  0
  144.3694  134.2315  151.4017 N   0  0  0  0  0  0  0  0  0  0  0  0
  149.1425  140.5184  155.4790 C   0  0  0  0  0  0  0  0  0  0  0  0
  150.6112  140.6241  155.9269 C   0  0  2  0  0  0  0  0  0  0  0  0
  151.0182  142.0713  156.2251 C   0  0  0  0  0  0  0  0  0  0  0  0
  151.4594  140.1351  154.8911 O   0  0  0  0  0  0  0  0  0  0  0  0
  151.5680  136.7518  155.1739 H   0  0  0  0  0  0  0  0  0  0  0  0
  151.0500  137.8251  156.4622 H   0  0  0  0  0  0  0  0  0  0  0  0
  152.6933  137.9306  155.8341 H   0  0  0  0  0  0  0  0  0  0  0  0
  151.8239  138.6139  153.6115 H   0  0  0  0  0  0  0  0  0  0  0  0
  149.5530  139.1921  153.1482 H   0  0  0  0  0  0  0  0  0  0  0  0
  149.5232  137.5822  153.8383 H   0  0  0  0  0  0  0  0  0  0  0  0
  146.7704  139.6459  155.2972 H   0  0  0  0  0  0  0  0  0  0  0  0
  147.2510  139.1382  153.6965 H   0  0  0  0  0  0  0  0  0  0  0  0
  147.5158  137.0230  155.7962 H   0  0  0  0  0  0  0  0  0  0  0  0
  145.8778  137.4552  155.3679 H   0  0  0  0  0  0  0  0  0  0  0  0
  147.8832  136.7204  153.2948 H   0  0  0  0  0  0  0  0  0  0  0  0
  147.3810  135.4124  151.9057 H   0  0  0  0  0  0  0  0  0  0  0  0
  147.5917  133.3660  150.8039 H   0  0  0  0  0  0  0  0  0  0  0  0
  146.4680  131.6481  149.3868 H   0  0  0  0  0  0  0  0  0  0  0  0
  143.9588  131.6132  149.2811 H   0  0  0  0  0  0  0  0  0  0  0  0
  142.6879  133.3186  150.6123 H   0  0  0  0  0  0  0  0  0  0  0  0
  148.9612  141.1685  154.6212 H   0  0  0  0  0  0  0  0  0  0  0  0
  148.4964  140.8678  156.2837 H   0  0  0  0  0  0  0  0  0  0  0  0
  150.7606  140.0381  156.8340 H   0  0  0  0  0  0  0  0  0  0  0  0
  150.4116  142.4931  157.0268 H   0  0  0  0  0  0  0  0  0  0  0  0
  150.8979  142.7052  155.3458 H   0  0  0  0  0  0  0  0  0  0  0  0
  152.0624  142.1263  156.5347 H   0  0  0  0  0  0  0  0  0  0  0  0
  148.9839  138.5506  155.9352 H   0  0  0  0  0  0  0  0  0  0  0  0
  1  2  1  0  0  0  0
  1 21  1  0  0  0  0
  1 22  1  0  0  0  0
  1 23  1  0  0  0  0
  2 20  1  0  0  0  0
  2  3  1  0  0  0  0
  2 24  1  0  0  0  0
  3  4  1  0  0  0  0
  3 25  1  0  0  0  0
  3 26  1  0  0  0  0
  4  5  1  0  0  0  0
  4 17  1  0  0  0  0
  4 43  1  0  0  0  0
  5  6  1  0  0  0  0
  5 27  1  0  0  0  0
  5 28  1  0  0  0  0
  6  7  1  0  0  0  0
  6 29  1  0  0  0  0
  6 30  1  0  0  0  0
  7  8  1  0  0  0  0
  7 31  1  0  0  0  0
  8  9  2  0  0  0  0
  8 10  1  0  0  0  0
 10 11  1  0  0  0  0
 10 32  1  0  0  0  0
 11 16  1  0  0  0  0
 11 12  2  0  0  0  0
 12 13  1  0  0  0  0
 12 33  1  0  0  0  0
 13 14  2  0  0  0  0
 13 34  1  0  0  0  0
 14 15  1  0  0  0  0
 14 35  1  0  0  0  0
 15 16  2  0  0  0  0
 15 36  1  0  0  0  0
 17 18  1  0  0  0  0
 17 37  1  0  0  0  0
 17 38  1  0  0  0  0
 18 19  1  0  0  0  0
 18 20  1  0  0  0  0
 18 39  1  0  0  0  0
 19 40  1  0  0  0  0
 19 41  1  0  0  0  0
 19 42  1  0  0  0  0
M  CHG  1   4   1
M  END
> <s_m_source_file>
AV-unprocessed.smi

> <i_m_source_file_index>
1231

> <i_lp_mmshare_version>
43012

> <i_f3d_flags>
0

> <s_epik_input>
W0NIM11bQ0BASF0xW0NIMl1OKFtDSDJdW0NASF0oTzEpW0NIM10pW0NIMl1bQ0gyXVtOSF1DKD1PKVtOSF1jMltjSF1bY0hdW2NIXVtjSF1uMg==

> <s_epik_cmdline>
J2VwaWtfcHl0aG9uJywgJy1waCcsICc3LjAnLCAnLXRuJywgJzgnLCAnLW1hJywgJzIwMCcsICctbWV0YWxfYmluZGluZycsICctaW1hZScsICc8aW5maWxlLm1hZT4nLCAnLW9tYWUnLCAnPG91dGZpbGUubWFlPic=

> <r_epik_Ionization_Penalty>
0.602565

> <r_epik_Ionization_Penalty_Charging>
0.602531

> <r_epik_Ionization_Penalty_Neutral>
3.43186e-05

> <r_epik_State_Penalty>
0.617039

> <r_epik_Charging_Adjusted_Penalty>
1.21957

> <i_epik_Tot_Q>
1

> <i_epik_Tot_abs_Q>
1

> <r_epik_Metal_State_Penalty>
0.617041

> <b_epik_Metal_Only>
0

> <s_lp_Force_Field>
OPLS_2005

> <r_lp_Energy>
18.3102

> <b_lp_Chiralities_Consistent>
1

> <s_lp_Variant>
AV-unprocessed.smi:1231-7

> <Gold.Version>
5.8.1

> <Gold.Id.Protein>
6NUR|6NUR_protein|mol2

> <Gold.PLP.Fitness>
43.3416

> <Gold.PLP.PLP>
-32.7783

> <Gold.PLP.part.hbond>
-3.0000

> <Gold.PLP.part.metal>
0.0000

> <Gold.PLP.part.buried>
-5.1780

> <Gold.PLP.part.nonpolar>
-24.3312

> <Gold.PLP.part.repulsive>
0.2570

> <Gold.PLP.ligand.clash>
0.0000

> <Gold.PLP.ligand.torsion>
0.7234

> <Gold.PLP.Chemscore.Hbond>
3.0000

> <Gold.PLP.Chemscore.CHOScore>
1.0000

> <Gold.PLP.Chemscore.Metal>
0.0000

> <Gold.Chemscore.Hbonds>
donor molecule, donor type, donor heavy atom, donor atom, acceptor molecule, acceptor atom, score
      L1  H     7    31       P1  7948  1.00
      L1  H    10    32       P1  7948  1.00
      P1  H  7989  7998       L1    20  1.00
      L1  C    15    36       P1 10186  1.00

> <Gold.PLP.Chemscore.Internal.Correction>
0.0100

> <Gold.Rescore>
     Score         DG    S(hbond)    S(metal)    S(lipo)     H(rot)  DE(clash)    DE(int)     intcor
     18.18     -20.27       2.65        0.00      84.82       1.55       0.40       1.69       ----

> <Gold.Chemscore.Fitness>
18.1776

> <Gold.Chemscore.DG>
-20.2671

> <Gold.Chemscore.ZeroCoef>
-5.4800

> <Gold.Chemscore.Hbond>
2.6475

> <Gold.Chemscore.Metal>
0.0000

> <Gold.Chemscore.Lipo>
84.8223

> <Gold.Chemscore.Internal_Hbond>
0.0000

> <Gold.Chemscore.DEClash>
0.3955

> <Gold.Chemscore.DEInternal>
1.6939

> <Gold.Chemscore.Rot>
1.5546

> <Gold.Chemscore.Internal.Correction>
   9.000000E+99

> <Gold.Chemscore.Hbonds>
donor molecule, donor type, donor heavy atom, donor atom, acceptor molecule, acceptor atom, score
      L1  H     7    31       P1  7948  0.95
      L1  H    10    32       P1  7948  0.99
      P1  H  7989  7998       L1    20  0.38

> <Gold.Chemscore.Hbond.Weighted>
-8.8425

> <Gold.Chemscore.Metal.Weighted>
-0.0000

> <Gold.Chemscore.Lipo.Weighted>
-9.9242

> <Gold.Chemscore.Internal_Hbond.Weighted>
0.0000

> <Gold.Chemscore.DEClash.Weighted>
0.3955

> <Gold.Chemscore.DEInternal.Weighted>
1.6939

> <Gold.Chemscore.Rot.Weighted>
3.9797

> <Gold.Chemscore.Internal.Correction.Weighted>
   9.000000E+99

> <Gold.Protein.RotatedTorsions>
[ 6907 6896 6895 6894 ] final  128.43 input  -60.11 | X-H torsion
[ 7974 7965 7964 7962 ] final  173.49 input  175.53 | X-H torsion
[ 8008 7997 7996 7995 ] final   71.00 input   59.86 | X-H torsion
[ 10167 10162 10161 10158 ] final -132.76 input  -65.29 | X-H torsion
[ 10718 10713 10712 10709 ] final   18.69 input   66.30 | X-H torsion
[ 10763 10752 10751 10750 ] final -151.55 input  -60.55 | X-H torsion
[ 11005 11000 10999 10996 ] final  -44.39 input  -57.11 | X-H torsion

> <Gold.Protein.ActiveResidues>
 VAL166  LYS551  ARG553  GLY616  TRP617  ASP618  TYR619  PRO620  LYS621  CYS622 
 ASP623  PHE694  ASN695  SER759  ASP760  ASP761  ALA762  ILE779  LEU786  VAL792 
 PHE793  MET794  SER795  GLU796  ALA797  LYS798  CYS799  TRP800  GLU811  SER814 

> <Gold.Protein.RotatedAtoms>
  152.3720  133.6431  159.6093 H   0  0  0  0  0  0  0  0  0  0  0  0  # atno 6907 bound_to 6896
  150.7675  133.9255  159.3420 H   0  0  0  0  0  0  0  0  0  0  0  0  # atno 6908 bound_to 6896
  151.7076  135.0920  160.0313 H   0  0  0  0  0  0  0  0  0  0  0  0  # atno 6909 bound_to 6896
  144.7242  139.9655  143.6436 H   0  0  0  0  0  0  0  0  0  0  0  0  # atno 7974 bound_to 7965
  155.7473  140.3489  155.5133 H   0  0  0  0  0  0  0  0  0  0  0  0  # atno 8008 bound_to 7997
  155.9037  140.1038  157.1352 H   0  0  0  0  0  0  0  0  0  0  0  0  # atno 8009 bound_to 7997
  154.4047  140.1281  156.4456 H   0  0  0  0  0  0  0  0  0  0  0  0  # atno 8010 bound_to 7997
  139.9052  143.6559  152.2587 H   0  0  0  0  0  0  0  0  0  0  0  0  # atno 10167 bound_to 10162
  157.0999  130.6463  149.5870 H   0  0  0  0  0  0  0  0  0  0  0  0  # atno 10718 bound_to 10713
  154.8051  135.3257  154.7452 H   0  0  0  0  0  0  0  0  0  0  0  0  # atno 10763 bound_to 10752
  153.8112  135.6895  153.4845 H   0  0  0  0  0  0  0  0  0  0  0  0  # atno 10764 bound_to 10752
  153.1791  135.4593  154.9949 H   0  0  0  0  0  0  0  0  0  0  0  0  # atno 10765 bound_to 10752
  141.0447  133.6766  156.2866 H   0  0  0  0  0  0  0  0  0  0  0  0  # atno 11005 bound_to 11000
  146.0604  139.3598  143.0585 LP  0  0  0  0  0  0  0  0  0  0  0  0  # atno 17320 bound_to 7965
  145.8100  140.9730  143.0954 LP  0  0  0  0  0  0  0  0  0  0  0  0  # atno 17321 bound_to 7965
  139.6990  144.7637  151.1306 LP  0  0  0  0  0  0  0  0  0  0  0  0  # atno 17342 bound_to 10162
  140.7698  143.5484  150.9233 LP  0  0  0  0  0  0  0  0  0  0  0  0  # atno 17343 bound_to 10162
  155.9876  130.4916  150.7134 LP  0  0  0  0  0  0  0  0  0  0  0  0  # atno 17370 bound_to 10713
  157.4650  131.0887  151.0705 LP  0  0  0  0  0  0  0  0  0  0  0  0  # atno 17371 bound_to 10713
  140.6168  134.5402  157.5542 LP  0  0  0  0  0  0  0  0  0  0  0  0  # atno 17394 bound_to 11000
  139.9303  134.7977  156.0951 LP  0  0  0  0  0  0  0  0  0  0  0  0  # atno 17395 bound_to 11000

$$$$
