AV-unprocessed.smi:1974|AV-procd|sdf|7980|dock2
  -GOLD-   2272010163D 1   1.00000     0.00000
 Structure written by MMmdl.
 34 35  0  0  0  0  0  0  0  0  1 V2000
  151.2907  139.3315  154.9551 C   0  0  0  0  0  0  0  0  0  0  0  0
  150.5952  140.1846  156.0275 C   0  0  2  0  0  0  0  0  0  0  0  0
  149.9347  141.4332  155.4114 C   0  0  0  0  0  0  0  0  0  0  0  0
  148.7174  141.1173  154.6852 N   0  0  0  0  0  0  0  0  0  0  0  0
  147.7348  141.9780  154.2426 C   0  0  0  0  0  0  0  0  0  0  0  0
  146.7874  141.2229  153.6124 C   0  0  0  0  0  0  0  0  0  0  0  0
  147.2871  139.8950  153.7204 C   0  0  0  0  0  0  0  0  0  0  0  0
  148.4427  139.8351  154.3621 N   0  0  0  0  0  0  0  0  0  0  0  0
  151.5615  140.5816  157.0499 N   0  0  0  0  0  0  0  0  0  0  0  0
  151.2604  141.1575  158.2235 C   0  0  0  0  0  0  0  0  0  0  0  0
  150.1105  141.4362  158.5655 O   0  0  0  0  0  0  0  0  0  0  0  0
  152.4476  141.4842  159.1371 C   0  0  0  0  0  0  0  0  0  0  0  0
  152.4599  142.8836  159.5643 N   0  0  0  0  0  0  0  0  0  0  0  0
  152.7478  143.9241  158.5860 C   0  0  0  0  0  0  0  0  0  0  0  0
  152.3115  145.2624  159.1854 C   0  0  0  0  0  0  0  0  0  0  0  0
  152.3131  145.0830  160.9804 S   0  0  0  0  0  0  0  0  0  0  0  0
  152.2674  143.2909  160.8779 C   0  0  0  0  0  0  0  0  0  0  0  0
  152.0861  142.5801  161.8650 O   0  0  0  0  0  0  0  0  0  0  0  0
  150.5833  139.0128  154.1893 H   0  0  0  0  0  0  0  0  0  0  0  0
  151.7302  138.4319  155.3875 H   0  0  0  0  0  0  0  0  0  0  0  0
  152.0883  139.8875  154.4611 H   0  0  0  0  0  0  0  0  0  0  0  0
  149.8125  139.5773  156.4868 H   0  0  0  0  0  0  0  0  0  0  0  0
  149.7015  142.1661  156.1852 H   0  0  0  0  0  0  0  0  0  0  0  0
  150.6232  141.9210  154.7199 H   0  0  0  0  0  0  0  0  0  0  0  0
  147.7902  143.0431  154.4130 H   0  0  0  0  0  0  0  0  0  0  0  0
  145.8765  141.5664  153.1448 H   0  0  0  0  0  0  0  0  0  0  0  0
  146.8476  138.9790  153.3538 H   0  0  0  0  0  0  0  0  0  0  0  0
  152.5340  140.3966  156.8513 H   0  0  0  0  0  0  0  0  0  0  0  0
  152.4291  140.8382  160.0169 H   0  0  0  0  0  0  0  0  0  0  0  0
  153.3699  141.2510  158.6035 H   0  0  0  0  0  0  0  0  0  0  0  0
  153.8212  143.9273  158.3923 H   0  0  0  0  0  0  0  0  0  0  0  0
  152.2402  143.7321  157.6399 H   0  0  0  0  0  0  0  0  0  0  0  0
  152.9536  146.0853  158.8702 H   0  0  0  0  0  0  0  0  0  0  0  0
  151.2932  145.4956  158.8726 H   0  0  0  0  0  0  0  0  0  0  0  0
  1  2  1  0  0  0  0
  1 19  1  0  0  0  0
  1 20  1  0  0  0  0
  1 21  1  0  0  0  0
  2  3  1  0  0  0  0
  2  9  1  0  0  0  0
  2 22  1  0  0  0  0
  3  4  1  0  0  0  0
  3 23  1  0  0  0  0
  3 24  1  0  0  0  0
  4  8  1  0  0  0  0
  4  5  1  0  0  0  0
  5  6  2  0  0  0  0
  5 25  1  0  0  0  0
  6  7  1  0  0  0  0
  6 26  1  0  0  0  0
  7  8  2  0  0  0  0
  7 27  1  0  0  0  0
  9 10  1  0  0  0  0
  9 28  1  0  0  0  0
 10 11  2  0  0  0  0
 10 12  1  0  0  0  0
 12 13  1  0  0  0  0
 12 29  1  0  0  0  0
 12 30  1  0  0  0  0
 13 17  1  0  0  0  0
 13 14  1  0  0  0  0
 14 15  1  0  0  0  0
 14 31  1  0  0  0  0
 14 32  1  0  0  0  0
 15 16  1  0  0  0  0
 15 33  1  0  0  0  0
 15 34  1  0  0  0  0
 16 17  1  0  0  0  0
 17 18  2  0  0  0  0
M  END
> <s_m_source_file>
AV-unprocessed.smi

> <i_m_source_file_index>
1974

> <i_lp_mmshare_version>
43012

> <i_f3d_flags>
0

> <s_epik_input>
bjFbY0hdW2NIXVtjSF1uMVtDSDJdW0NAQEhdKFtDSDNdKVtOSF1DKD1PKVtDSDJdTjJbQ0gyXVtDSDJdU0MyPU8=

> <s_epik_cmdline>
J2VwaWtfcHl0aG9uJywgJy1waCcsICc3LjAnLCAnLXRuJywgJzgnLCAnLW1hJywgJzIwMCcsICctbWV0YWxfYmluZGluZycsICctaW1hZScsICc8aW5maWxlLm1hZT4nLCAnLW9tYWUnLCAnPG91dGZpbGUubWFlPic=

> <r_lp_tautomer_probability>
1

> <r_epik_Ionization_Penalty>
0.000283364

> <r_epik_Ionization_Penalty_Charging>
0

> <r_epik_Ionization_Penalty_Neutral>
0.000283364

> <r_epik_State_Penalty>
-0

> <r_epik_Charging_Adjusted_Penalty>
0

> <i_epik_Tot_Q>
0

> <i_epik_Tot_abs_Q>
0

> <r_epik_Metal_State_Penalty>
-0

> <b_epik_Metal_Only>
0

> <s_lp_Force_Field>
OPLS_2005

> <r_lp_Energy>
2.8686

> <b_lp_Chiralities_Consistent>
1

> <s_lp_Variant>
AV-unprocessed.smi:1974-1

> <Gold.Version>
5.8.1

> <Gold.Id.Protein>
6NUR|6NUR_protein|mol2

> <Gold.PLP.Fitness>
46.6449

> <Gold.PLP.PLP>
-42.5038

> <Gold.PLP.part.hbond>
-1.0000

> <Gold.PLP.part.metal>
0.0000

> <Gold.PLP.part.buried>
-3.6463

> <Gold.PLP.part.nonpolar>
-38.3721

> <Gold.PLP.part.repulsive>
0.3864

> <Gold.PLP.ligand.clash>
0.0000

> <Gold.PLP.ligand.torsion>
0.4849

> <Gold.PLP.Chemscore.Hbond>
0.6890

> <Gold.PLP.Chemscore.CHOScore>
1.0000

> <Gold.PLP.Chemscore.Metal>
0.0000

> <Gold.Chemscore.Hbonds>
donor molecule, donor type, donor heavy atom, donor atom, acceptor molecule, acceptor atom, score
      P1  H  6933  6945       L1    18  0.43
      L1  C     5    25       P1  8028  1.00

> <Gold.PLP.Chemscore.Internal.Correction>
0.0439

> <Gold.Rescore>
     Score         DG    S(hbond)    S(metal)    S(lipo)     H(rot)  DE(clash)    DE(int)     intcor
     12.55     -13.28       0.75        0.00      89.84       2.04       0.12       0.61       ----

> <Gold.Chemscore.Fitness>
12.5482

> <Gold.Chemscore.DG>
-13.2843

> <Gold.Chemscore.ZeroCoef>
-5.4800

> <Gold.Chemscore.Hbond>
0.7535

> <Gold.Chemscore.Metal>
0.0000

> <Gold.Chemscore.Lipo>
89.8410

> <Gold.Chemscore.Internal_Hbond>
0.0000

> <Gold.Chemscore.DEClash>
0.1239

> <Gold.Chemscore.DEInternal>
0.6122

> <Gold.Chemscore.Rot>
2.0405

> <Gold.Chemscore.Internal.Correction>
   9.000000E+99

> <Gold.Chemscore.Hbonds>
donor molecule, donor type, donor heavy atom, donor atom, acceptor molecule, acceptor atom, score
      P1  H  6933  6945       L1    18  0.40

> <Gold.Chemscore.Hbond.Weighted>
-2.5166

> <Gold.Chemscore.Metal.Weighted>
-0.0000

> <Gold.Chemscore.Lipo.Weighted>
-10.5114

> <Gold.Chemscore.Internal_Hbond.Weighted>
0.0000

> <Gold.Chemscore.DEClash.Weighted>
0.1239

> <Gold.Chemscore.DEInternal.Weighted>
0.6122

> <Gold.Chemscore.Rot.Weighted>
5.2237

> <Gold.Chemscore.Internal.Correction.Weighted>
   9.000000E+99

> <Gold.Protein.RotatedTorsions>
[ 6907 6896 6895 6894 ] final   51.23 input  -60.11 | X-H torsion
[ 7974 7965 7964 7962 ] final  -86.76 input  175.53 | X-H torsion
[ 8008 7997 7996 7995 ] final  -56.31 input   59.86 | X-H torsion
[ 10167 10162 10161 10158 ] final   88.64 input  -65.29 | X-H torsion
[ 10718 10713 10712 10709 ] final  102.47 input   66.30 | X-H torsion
[ 10763 10752 10751 10750 ] final -141.57 input  -60.55 | X-H torsion
[ 11005 11000 10999 10996 ] final -175.14 input  -57.11 | X-H torsion

> <Gold.Protein.ActiveResidues>
 VAL166  LYS551  ARG553  GLY616  TRP617  ASP618  TYR619  PRO620  LYS621  CYS622 
 ASP623  PHE694  ASN695  SER759  ASP760  ASP761  ALA762  ILE779  LEU786  VAL792 
 PHE793  MET794  SER795  GLU796  ALA797  LYS798  CYS799  TRP800  GLU811  SER814 

> <Gold.Protein.RotatedAtoms>
  152.3104  134.7504  160.0337 H   0  0  0  0  0  0  0  0  0  0  0  0  # atno 6907 bound_to 6896
  151.7986  133.3362  159.3528 H   0  0  0  0  0  0  0  0  0  0  0  0  # atno 6908 bound_to 6896
  150.7317  134.5705  159.5932 H   0  0  0  0  0  0  0  0  0  0  0  0  # atno 6909 bound_to 6896
  145.4756  140.9558  143.1893 H   0  0  0  0  0  0  0  0  0  0  0  0  # atno 7974 bound_to 7965
  154.4226  140.1132  156.5618 H   0  0  0  0  0  0  0  0  0  0  0  0  # atno 8008 bound_to 7997
  155.6304  140.3495  155.4662 H   0  0  0  0  0  0  0  0  0  0  0  0  # atno 8009 bound_to 7997
  155.9953  140.1188  157.0589 H   0  0  0  0  0  0  0  0  0  0  0  0  # atno 8010 bound_to 7997
  139.8652  144.6522  150.9012 H   0  0  0  0  0  0  0  0  0  0  0  0  # atno 10167 bound_to 10162
  157.6801  131.0754  150.5408 H   0  0  0  0  0  0  0  0  0  0  0  0  # atno 10718 bound_to 10713
  154.8540  135.3520  154.5889 H   0  0  0  0  0  0  0  0  0  0  0  0  # atno 10763 bound_to 10752
  153.6499  135.6994  153.5217 H   0  0  0  0  0  0  0  0  0  0  0  0  # atno 10764 bound_to 10752
  153.2903  135.4237  155.1118 H   0  0  0  0  0  0  0  0  0  0  0  0  # atno 10765 bound_to 10752
  140.4666  134.6204  157.4865 H   0  0  0  0  0  0  0  0  0  0  0  0  # atno 11005 bound_to 11000
  144.7919  139.6311  143.7109 LP  0  0  0  0  0  0  0  0  0  0  0  0  # atno 17320 bound_to 7965
  146.2371  139.5927  142.9516 LP  0  0  0  0  0  0  0  0  0  0  0  0  # atno 17321 bound_to 7965
  140.7769  143.3710  151.1650 LP  0  0  0  0  0  0  0  0  0  0  0  0  # atno 17342 bound_to 10162
  139.7335  143.9035  152.3027 LP  0  0  0  0  0  0  0  0  0  0  0  0  # atno 17343 bound_to 10162
  156.5715  130.4281  149.6017 LP  0  0  0  0  0  0  0  0  0  0  0  0  # atno 17370 bound_to 10713
  156.2736  130.7031  151.1835 LP  0  0  0  0  0  0  0  0  0  0  0  0  # atno 17371 bound_to 10713
  139.9911  134.6983  155.9688 LP  0  0  0  0  0  0  0  0  0  0  0  0  # atno 17394 bound_to 11000
  141.1596  133.6540  156.4276 LP  0  0  0  0  0  0  0  0  0  0  0  0  # atno 17395 bound_to 11000

$$$$
