AV-unprocessed.smi:1543|AV-procd|sdf|6206|dock10
  -GOLD-   22720 6373D 1   1.00000     0.00000
 Structure written by MMmdl.
 48 49  0  0  0  0  0  0  0  0  1 V2000
  152.0420  145.0232  158.6846 C   0  0  0  0  0  0  0  0  0  0  0  0
  151.8579  143.5627  159.1098 C   0  0  1  0  0  0  0  0  0  0  0  0
  151.3941  142.6710  157.9432 C   0  0  0  0  0  0  0  0  0  0  0  0
  151.2808  141.2624  158.3366 N   0  0  0  0  0  0  0  0  0  0  0  0
  150.7132  140.3635  157.2917 C   0  0  0  0  0  0  0  0  0  0  0  0
  149.3794  140.8849  156.7043 C   0  0  0  0  0  0  0  0  0  0  0  0
  151.6984  140.1967  156.1067 C   0  0  0  0  0  0  0  0  0  0  0  0
  150.4406  138.9335  157.8459 C   0  0  0  0  0  0  0  0  0  0  0  0
  150.1639  137.9570  156.7923 N   0  0  0  0  0  0  0  0  0  0  0  0
  150.2742  136.6261  156.9057 C   0  0  0  0  0  0  0  0  0  0  0  0
  150.6346  136.0576  157.9359 O   0  0  0  0  0  0  0  0  0  0  0  0
  149.9197  136.0153  155.7621 N   0  0  0  0  0  0  0  0  0  0  0  0
  149.9090  134.6264  155.4602 C   0  0  0  0  0  0  0  0  0  0  0  0
  150.7239  133.6606  156.1001 C   0  0  0  0  0  0  0  0  0  0  0  0
  150.6301  132.3156  155.6930 C   0  0  0  0  0  0  0  0  0  0  0  0
  149.7322  131.9861  154.6592 C   0  0  0  0  0  0  0  0  0  0  0  0
  148.9586  132.8973  154.0328 N   0  0  0  0  0  0  0  0  0  0  0  0
  149.0541  134.1847  154.4280 C   0  0  0  0  0  0  0  0  0  0  0  0
  152.5680  140.8287  158.8911 C   0  0  0  0  0  0  0  0  0  0  0  0
  153.0370  141.7287  160.0500 C   0  0  1  0  0  0  0  0  0  0  0  0
  154.4213  141.3272  160.5705 C   0  0  0  0  0  0  0  0  0  0  0  0
  153.1032  143.0776  159.5997 O   0  0  0  0  0  0  0  0  0  0  0  0
  151.1072  145.4441  158.3136 H   0  0  0  0  0  0  0  0  0  0  0  0
  152.7872  145.1131  157.8938 H   0  0  0  0  0  0  0  0  0  0  0  0
  152.3716  145.6349  159.5247 H   0  0  0  0  0  0  0  0  0  0  0  0
  151.1211  143.5239  159.9141 H   0  0  0  0  0  0  0  0  0  0  0  0
  150.4372  143.0543  157.5942 H   0  0  0  0  0  0  0  0  0  0  0  0
  152.0969  142.7747  157.1164 H   0  0  0  0  0  0  0  0  0  0  0  0
  148.9975  140.2061  155.9408 H   0  0  0  0  0  0  0  0  0  0  0  0
  149.4899  141.8590  156.2284 H   0  0  0  0  0  0  0  0  0  0  0  0
  148.6016  140.9726  157.4626 H   0  0  0  0  0  0  0  0  0  0  0  0
  151.3769  139.4065  155.4273 H   0  0  0  0  0  0  0  0  0  0  0  0
  152.7019  139.9417  156.4489 H   0  0  0  0  0  0  0  0  0  0  0  0
  151.7773  141.1009  155.5034 H   0  0  0  0  0  0  0  0  0  0  0  0
  151.2929  138.5687  158.4186 H   0  0  0  0  0  0  0  0  0  0  0  0
  149.6233  138.9588  158.5691 H   0  0  0  0  0  0  0  0  0  0  0  0
  149.8458  138.3300  155.9100 H   0  0  0  0  0  0  0  0  0  0  0  0
  149.5700  136.6171  155.0308 H   0  0  0  0  0  0  0  0  0  0  0  0
  151.4236  133.9204  156.8787 H   0  0  0  0  0  0  0  0  0  0  0  0
  151.2363  131.5538  156.1603 H   0  0  0  0  0  0  0  0  0  0  0  0
  149.6371  130.9643  154.3228 H   0  0  0  0  0  0  0  0  0  0  0  0
  148.4218  134.8859  153.9028 H   0  0  0  0  0  0  0  0  0  0  0  0
  152.5028  139.8101  159.2693 H   0  0  0  0  0  0  0  0  0  0  0  0
  153.3311  140.8291  158.1124 H   0  0  0  0  0  0  0  0  0  0  0  0
  152.3225  141.6654  160.8726 H   0  0  0  0  0  0  0  0  0  0  0  0
  154.4197  140.3016  160.9402 H   0  0  0  0  0  0  0  0  0  0  0  0
  154.7321  141.9754  161.3902 H   0  0  0  0  0  0  0  0  0  0  0  0
  155.1745  141.3988  159.7851 H   0  0  0  0  0  0  0  0  0  0  0  0
  1  2  1  0  0  0  0
  1 23  1  0  0  0  0
  1 24  1  0  0  0  0
  1 25  1  0  0  0  0
  2 22  1  0  0  0  0
  2  3  1  0  0  0  0
  2 26  1  0  0  0  0
  3  4  1  0  0  0  0
  3 27  1  0  0  0  0
  3 28  1  0  0  0  0
  4  5  1  0  0  0  0
  4 19  1  0  0  0  0
  5  6  1  0  0  0  0
  5  7  1  0  0  0  0
  5  8  1  0  0  0  0
  6 29  1  0  0  0  0
  6 30  1  0  0  0  0
  6 31  1  0  0  0  0
  7 32  1  0  0  0  0
  7 33  1  0  0  0  0
  7 34  1  0  0  0  0
  8  9  1  0  0  0  0
  8 35  1  0  0  0  0
  8 36  1  0  0  0  0
  9 10  1  0  0  0  0
  9 37  1  0  0  0  0
 10 11  2  0  0  0  0
 10 12  1  0  0  0  0
 12 13  1  0  0  0  0
 12 38  1  0  0  0  0
 13 18  1  0  0  0  0
 13 14  2  0  0  0  0
 14 15  1  0  0  0  0
 14 39  1  0  0  0  0
 15 16  2  0  0  0  0
 15 40  1  0  0  0  0
 16 17  1  0  0  0  0
 16 41  1  0  0  0  0
 17 18  2  0  0  0  0
 18 42  1  0  0  0  0
 19 20  1  0  0  0  0
 19 43  1  0  0  0  0
 19 44  1  0  0  0  0
 20 21  1  0  0  0  0
 20 22  1  0  0  0  0
 20 45  1  0  0  0  0
 21 46  1  0  0  0  0
 21 47  1  0  0  0  0
 21 48  1  0  0  0  0
M  END
> <s_m_source_file>
AV-unprocessed.smi

> <i_m_source_file_index>
1543

> <i_lp_mmshare_version>
43012

> <i_f3d_flags>
0

> <s_epik_input>
W0NIM11bQ0BASF0xW0NIMl1OKFtDSDJdW0NASF0oTzEpW0NIM10pQyhbQ0gzXSkoW0NIM10pW0NIMl1bTkhdQyg9TylbTkhdYzJbY0hdW2NIXVtjSF1uW2NIXTI=

> <s_epik_cmdline>
J2VwaWtfcHl0aG9uJywgJy1waCcsICc3LjAnLCAnLXRuJywgJzgnLCAnLW1hJywgJzIwMCcsICctbWV0YWxfYmluZGluZycsICctaW1hZScsICc8aW5maWxlLm1hZT4nLCAnLW9tYWUnLCAnPG91dGZpbGUubWFlPic=

> <r_epik_Ionization_Penalty>
0.270794

> <r_epik_Ionization_Penalty_Charging>
0

> <r_epik_Ionization_Penalty_Neutral>
0.270794

> <r_epik_State_Penalty>
0.268291

> <r_epik_Charging_Adjusted_Penalty>
0.268291

> <i_epik_Tot_Q>
0

> <i_epik_Tot_abs_Q>
0

> <r_epik_Metal_State_Penalty>
0.264827

> <b_epik_Metal_Only>
0

> <s_lp_Force_Field>
OPLS_2005

> <r_lp_Energy>
43.3582

> <b_lp_Chiralities_Consistent>
1

> <s_lp_Variant>
AV-unprocessed.smi:1543-2

> <Gold.Version>
5.8.1

> <Gold.Id.Protein>
6NUR|6NUR_protein|mol2

> <Gold.PLP.Fitness>
43.2257

> <Gold.PLP.PLP>
-39.2818

> <Gold.PLP.part.hbond>
-1.0000

> <Gold.PLP.part.metal>
0.0000

> <Gold.PLP.part.buried>
-6.4822

> <Gold.PLP.part.nonpolar>
-32.6084

> <Gold.PLP.part.repulsive>
0.1704

> <Gold.PLP.ligand.clash>
0.0000

> <Gold.PLP.ligand.torsion>
0.4361

> <Gold.PLP.Chemscore.Hbond>
0.5863

> <Gold.PLP.Chemscore.CHOScore>
1.0000

> <Gold.PLP.Chemscore.Metal>
0.0000

> <Gold.Chemscore.Hbonds>
donor molecule, donor type, donor heavy atom, donor atom, acceptor molecule, acceptor atom, score
      P1  H  6896  6908       L1    11  0.47
      L1  C    18    42       P1  7948  0.95

> <Gold.PLP.Chemscore.Internal.Correction>
0.0571

> <Gold.Rescore>
     Score         DG    S(hbond)    S(metal)    S(lipo)     H(rot)  DE(clash)    DE(int)     intcor
     15.68     -17.14       0.92        0.00     104.59       1.43       0.00       1.46       ----

> <Gold.Chemscore.Fitness>
15.6793

> <Gold.Chemscore.DG>
-17.1441

> <Gold.Chemscore.ZeroCoef>
-5.4800

> <Gold.Chemscore.Hbond>
0.9238

> <Gold.Chemscore.Metal>
0.0000

> <Gold.Chemscore.Lipo>
104.5926

> <Gold.Chemscore.Internal_Hbond>
0.0000

> <Gold.Chemscore.DEClash>
0.0048

> <Gold.Chemscore.DEInternal>
1.4601

> <Gold.Chemscore.Rot>
1.4291

> <Gold.Chemscore.Internal.Correction>
   9.000000E+99

> <Gold.Chemscore.Hbonds>
donor molecule, donor type, donor heavy atom, donor atom, acceptor molecule, acceptor atom, score
      P1  H  6896  6908       L1    11  0.46

> <Gold.Chemscore.Hbond.Weighted>
-3.0854

> <Gold.Chemscore.Metal.Weighted>
-0.0000

> <Gold.Chemscore.Lipo.Weighted>
-12.2373

> <Gold.Chemscore.Internal_Hbond.Weighted>
0.0000

> <Gold.Chemscore.DEClash.Weighted>
0.0048

> <Gold.Chemscore.DEInternal.Weighted>
1.4601

> <Gold.Chemscore.Rot.Weighted>
3.6586

> <Gold.Chemscore.Internal.Correction.Weighted>
   9.000000E+99

> <Gold.Protein.RotatedTorsions>
[ 6907 6896 6895 6894 ] final  178.61 input  -60.11 | X-H torsion
[ 7974 7965 7964 7962 ] final  -82.02 input  175.53 | X-H torsion
[ 8008 7997 7996 7995 ] final   47.06 input   59.86 | X-H torsion
[ 10167 10162 10161 10158 ] final   97.65 input  -65.29 | X-H torsion
[ 10718 10713 10712 10709 ] final  176.80 input   66.30 | X-H torsion
[ 10763 10752 10751 10750 ] final  -65.88 input  -60.55 | X-H torsion
[ 11005 11000 10999 10996 ] final  -57.62 input  -57.11 | X-H torsion

> <Gold.Protein.ActiveResidues>
 VAL166  LYS551  ARG553  GLY616  TRP617  ASP618  TYR619  PRO620  LYS621  CYS622 
 ASP623  PHE694  ASN695  SER759  ASP760  ASP761  ALA762  ILE779  LEU786  VAL792 
 PHE793  MET794  SER795  GLU796  ALA797  LYS798  CYS799  TRP800  GLU811  SER814 

> <Gold.Protein.RotatedAtoms>
  151.6850  133.3311  159.3228 H   0  0  0  0  0  0  0  0  0  0  0  0  # atno 6907 bound_to 6896
  150.7805  134.6748  159.6420 H   0  0  0  0  0  0  0  0  0  0  0  0  # atno 6908 bound_to 6896
  152.3861  134.6518  160.0177 H   0  0  0  0  0  0  0  0  0  0  0  0  # atno 6909 bound_to 6896
  145.5388  140.9512  143.1562 H   0  0  0  0  0  0  0  0  0  0  0  0  # atno 7974 bound_to 7965
  155.3629  140.3419  155.4241 H   0  0  0  0  0  0  0  0  0  0  0  0  # atno 8008 bound_to 7997
  156.1704  140.1630  156.8492 H   0  0  0  0  0  0  0  0  0  0  0  0  # atno 8009 bound_to 7997
  154.5227  140.0763  156.8184 H   0  0  0  0  0  0  0  0  0  0  0  0  # atno 8010 bound_to 7997
  139.7781  144.6898  151.0060 H   0  0  0  0  0  0  0  0  0  0  0  0  # atno 10167 bound_to 10162
  156.9147  130.9921  151.3015 H   0  0  0  0  0  0  0  0  0  0  0  0  # atno 10718 bound_to 10713
  154.3516  135.6135  153.5646 H   0  0  0  0  0  0  0  0  0  0  0  0  # atno 10763 bound_to 10752
  152.9798  135.5794  154.4736 H   0  0  0  0  0  0  0  0  0  0  0  0  # atno 10764 bound_to 10752
  154.4458  135.2851  155.1793 H   0  0  0  0  0  0  0  0  0  0  0  0  # atno 10765 bound_to 10752
  141.1172  133.6610  156.4797 H   0  0  0  0  0  0  0  0  0  0  0  0  # atno 11005 bound_to 11000
  144.7587  139.7009  143.7243 LP  0  0  0  0  0  0  0  0  0  0  0  0  # atno 17320 bound_to 7965
  146.1995  139.5281  142.9753 LP  0  0  0  0  0  0  0  0  0  0  0  0  # atno 17321 bound_to 7965
  140.7817  143.4513  151.0409 LP  0  0  0  0  0  0  0  0  0  0  0  0  # atno 17342 bound_to 10162
  139.8194  143.7840  152.3176 LP  0  0  0  0  0  0  0  0  0  0  0  0  # atno 17343 bound_to 10162
  157.5945  130.8468  149.8709 LP  0  0  0  0  0  0  0  0  0  0  0  0  # atno 17370 bound_to 10713
  156.0519  130.3716  150.1181 LP  0  0  0  0  0  0  0  0  0  0  0  0  # atno 17371 bound_to 10713
  140.4611  134.6841  157.5085 LP  0  0  0  0  0  0  0  0  0  0  0  0  # atno 17394 bound_to 11000
  140.0103  134.6700  155.9391 LP  0  0  0  0  0  0  0  0  0  0  0  0  # atno 17395 bound_to 11000

$$$$
