AV-unprocessed.smi:197|AV-procd|sdf|1545|dock1
  -GOLD-   2262019403D 1   1.00000     0.00000
 Structure written by MMmdl.
 54 57  0  0  0  0  0  0  0  0  1 V2000
  151.9792  143.2332  160.0959 C   0  0  0  0  0  0  0  0  0  0  0  0
  151.3144  142.1057  159.5472 O   0  0  0  0  0  0  0  0  0  0  0  0
  152.1822  141.0545  159.1456 C   0  0  0  0  0  0  0  0  0  0  0  0
  151.4239  139.9499  158.3865 C   0  0  0  0  0  0  0  0  0  0  0  0
  150.6817  140.4554  157.1248 C   0  0  1  0  0  0  0  0  0  0  0  0
  151.6267  141.0843  156.0772 C   0  0  0  0  0  0  0  0  0  0  0  0
  152.4547  140.0803  155.4986 O   0  0  0  0  0  0  0  0  0  0  0  0
  151.6941  139.1015  154.7988 C   0  0  0  0  0  0  0  0  0  0  0  0
  150.7306  138.3982  155.7683 C   0  0  0  0  0  0  0  0  0  0  0  0
  149.9164  139.3874  156.4736 N   0  0  0  0  0  0  0  0  0  0  0  0
  148.8008  138.9563  157.1197 C   0  0  0  0  0  0  0  0  0  0  0  0
  147.5975  139.5227  156.8337 N   0  0  0  0  0  0  0  0  0  0  0  0
  146.4873  139.0986  157.4437 C   0  0  0  0  0  0  0  0  0  0  0  0
  146.3540  138.1376  158.3591 N   0  0  0  0  0  0  0  0  0  0  0  0
  147.5566  137.5686  158.6574 C   0  0  0  0  0  0  0  0  0  0  0  0
  148.8174  137.9174  158.0943 C   0  0  0  0  0  0  0  0  0  0  0  0
  149.8178  137.1373  158.6633 N   0  0  0  0  0  0  0  0  0  0  0  0
  149.1845  136.3664  159.5038 C   0  0  0  0  0  0  0  0  0  0  0  0
  147.8214  136.5481  159.5544 N   0  0  0  0  0  0  0  0  0  0  0  0
  146.8789  135.8282  160.3969 C   0  0  0  0  0  0  0  0  0  0  0  0
  146.8041  136.3539  161.8574 C   0  0  1  0  0  0  0  0  0  0  0  0
  148.0135  137.0084  162.1905 O   0  0  0  0  0  0  0  0  0  0  0  0
  145.6420  137.3059  162.1142 C   0  0  0  0  0  0  0  0  0  0  0  0
  144.4792  136.3507  162.3652 C   0  0  0  0  0  0  0  0  0  0  0  0
  145.0582  135.1812  162.9367 O   0  0  0  0  0  0  0  0  0  0  0  0
  146.4807  135.2660  162.8996 C   0  0  1  0  0  0  0  0  0  0  0  0
  147.1026  133.8804  162.6693 C   0  0  0  0  0  0  0  0  0  0  0  0
  151.2399  143.9688  160.4126 H   0  0  0  0  0  0  0  0  0  0  0  0
  152.6336  143.7169  159.3713 H   0  0  0  0  0  0  0  0  0  0  0  0
  152.5693  142.9570  160.9705 H   0  0  0  0  0  0  0  0  0  0  0  0
  153.0138  141.4417  158.5547 H   0  0  0  0  0  0  0  0  0  0  0  0
  152.6152  140.6430  160.0563 H   0  0  0  0  0  0  0  0  0  0  0  0
  152.1177  139.1510  158.1232 H   0  0  0  0  0  0  0  0  0  0  0  0
  150.6966  139.5030  159.0631 H   0  0  0  0  0  0  0  0  0  0  0  0
  149.9972  141.2394  157.4428 H   0  0  0  0  0  0  0  0  0  0  0  0
  151.0487  141.5770  155.2935 H   0  0  0  0  0  0  0  0  0  0  0  0
  152.2547  141.8561  156.5192 H   0  0  0  0  0  0  0  0  0  0  0  0
  151.1454  139.5714  153.9810 H   0  0  0  0  0  0  0  0  0  0  0  0
  152.3726  138.3757  154.3506 H   0  0  0  0  0  0  0  0  0  0  0  0
  150.0925  137.7128  155.2089 H   0  0  0  0  0  0  0  0  0  0  0  0
  151.2912  137.8015  156.4887 H   0  0  0  0  0  0  0  0  0  0  0  0
  145.5751  139.6000  157.1555 H   0  0  0  0  0  0  0  0  0  0  0  0
  149.6970  135.6332  160.1096 H   0  0  0  0  0  0  0  0  0  0  0  0
  145.8977  135.8832  159.9239 H   0  0  0  0  0  0  0  0  0  0  0  0
  147.1604  134.7746  160.3861 H   0  0  0  0  0  0  0  0  0  0  0  0
  148.4691  136.4879  162.8342 H   0  0  0  0  0  0  0  0  0  0  0  0
  145.8224  137.8841  163.0224 H   0  0  0  0  0  0  0  0  0  0  0  0
  145.4481  138.0199  161.3152 H   0  0  0  0  0  0  0  0  0  0  0  0
  143.7239  136.7824  163.0223 H   0  0  0  0  0  0  0  0  0  0  0  0
  143.9956  136.0786  161.4263 H   0  0  0  0  0  0  0  0  0  0  0  0
  146.7870  135.6223  163.8852 H   0  0  0  0  0  0  0  0  0  0  0  0
  148.1891  133.9452  162.6065 H   0  0  0  0  0  0  0  0  0  0  0  0
  146.7365  133.4199  161.7518 H   0  0  0  0  0  0  0  0  0  0  0  0
  146.8579  133.2075  163.4910 H   0  0  0  0  0  0  0  0  0  0  0  0
  1  2  1  0  0  0  0
  1 28  1  0  0  0  0
  1 29  1  0  0  0  0
  1 30  1  0  0  0  0
  2  3  1  0  0  0  0
  3  4  1  0  0  0  0
  3 31  1  0  0  0  0
  3 32  1  0  0  0  0
  4  5  1  0  0  0  0
  4 33  1  0  0  0  0
  4 34  1  0  0  0  0
  5 10  1  0  0  0  0
  5  6  1  0  0  0  0
  5 35  1  0  0  0  0
  6  7  1  0  0  0  0
  6 36  1  0  0  0  0
  6 37  1  0  0  0  0
  7  8  1  0  0  0  0
  8  9  1  0  0  0  0
  8 38  1  0  0  0  0
  8 39  1  0  0  0  0
  9 10  1  0  0  0  0
  9 40  1  0  0  0  0
  9 41  1  0  0  0  0
 10 11  1  0  0  0  0
 11 16  1  0  0  0  0
 11 12  2  0  0  0  0
 12 13  1  0  0  0  0
 13 14  2  0  0  0  0
 13 42  1  0  0  0  0
 14 15  1  0  0  0  0
 15 19  1  0  0  0  0
 15 16  2  0  0  0  0
 16 17  1  0  0  0  0
 17 18  2  0  0  0  0
 18 19  1  0  0  0  0
 18 43  1  0  0  0  0
 19 20  1  0  0  0  0
 20 21  1  0  0  0  0
 20 44  1  0  0  0  0
 20 45  1  0  0  0  0
 21 26  1  0  0  0  0
 21 22  1  0  0  0  0
 21 23  1  0  0  0  0
 22 46  1  0  0  0  0
 23 24  1  0  0  0  0
 23 47  1  0  0  0  0
 23 48  1  0  0  0  0
 24 25  1  0  0  0  0
 24 49  1  0  0  0  0
 24 50  1  0  0  0  0
 25 26  1  0  0  0  0
 26 27  1  0  0  0  0
 26 51  1  0  0  0  0
 27 52  1  0  0  0  0
 27 53  1  0  0  0  0
 27 54  1  0  0  0  0
M  END
> <s_m_source_file>
AV-unprocessed.smi

> <i_m_source_file_index>
197

> <i_lp_mmshare_version>
43012

> <i_f3d_flags>
0

> <s_epik_input>
W0NIM11PW0NIMl1bQ0gyXVtDQEBIXTFbQ0gyXU9bQ0gyXVtDSDJdTjFjKG5bY0hdbjIpYyhjMjMpbltjSF1uM1tDSDJdW0NAQF00KFtPSF0pW0NIMl1bQ0gyXU9bQ0BIXTRbQ0gzXQ==

> <s_epik_cmdline>
J2VwaWtfcHl0aG9uJywgJy1waCcsICc3LjAnLCAnLXRuJywgJzgnLCAnLW1hJywgJzIwMCcsICctbWV0YWxfYmluZGluZycsICctaW1hZScsICc8aW5maWxlLm1hZT4nLCAnLW9tYWUnLCAnPG91dGZpbGUubWFlPic=

> <r_lp_tautomer_probability>
1

> <r_epik_Ionization_Penalty>
0.000106218

> <r_epik_Ionization_Penalty_Charging>
0

> <r_epik_Ionization_Penalty_Neutral>
0.000106218

> <r_epik_State_Penalty>
-0

> <r_epik_Charging_Adjusted_Penalty>
0

> <i_epik_Tot_Q>
0

> <i_epik_Tot_abs_Q>
0

> <r_epik_Metal_State_Penalty>
-0

> <b_epik_Metal_Only>
0

> <s_lp_Force_Field>
OPLS_2005

> <r_lp_Energy>
43.0465

> <b_lp_Chiralities_Consistent>
1

> <s_lp_Variant>
AV-unprocessed.smi:197-2

> <Gold.Version>
5.8.1

> <Gold.Id.Protein>
6NUR|6NUR_protein|mol2

> <Gold.PLP.Fitness>
42.2166

> <Gold.PLP.PLP>
-38.4931

> <Gold.PLP.part.hbond>
-3.1371

> <Gold.PLP.part.metal>
0.0000

> <Gold.PLP.part.buried>
-6.3318

> <Gold.PLP.part.nonpolar>
-28.8498

> <Gold.PLP.part.repulsive>
0.0287

> <Gold.PLP.ligand.clash>
0.0000

> <Gold.PLP.ligand.torsion>
1.4281

> <Gold.PLP.Chemscore.Hbond>
1.9913

> <Gold.PLP.Chemscore.CHOScore>
0.0000

> <Gold.PLP.Chemscore.Metal>
0.0000

> <Gold.Chemscore.Hbonds>
donor molecule, donor type, donor heavy atom, donor atom, acceptor molecule, acceptor atom, score
      P1  H  6931  6943       L1    22  1.00
      P1  H  7997  8009       L1     7  0.84

> <Gold.PLP.Chemscore.Internal.Correction>
0.6060

> <Gold.Rescore>
     Score         DG    S(hbond)    S(metal)    S(lipo)     H(rot)  DE(clash)    DE(int)     intcor
     13.44     -14.80       1.82        0.00      89.64       2.84       0.10       1.26       ----

> <Gold.Chemscore.Fitness>
13.4425

> <Gold.Chemscore.DG>
-14.8028

> <Gold.Chemscore.ZeroCoef>
-5.4800

> <Gold.Chemscore.Hbond>
1.8248

> <Gold.Chemscore.Metal>
0.0000

> <Gold.Chemscore.Lipo>
89.6384

> <Gold.Chemscore.Internal_Hbond>
0.0000

> <Gold.Chemscore.DEClash>
0.0997

> <Gold.Chemscore.DEInternal>
1.2607

> <Gold.Chemscore.Rot>
2.8358

> <Gold.Chemscore.Internal.Correction>
   9.000000E+99

> <Gold.Chemscore.Hbonds>
donor molecule, donor type, donor heavy atom, donor atom, acceptor molecule, acceptor atom, score
      P1  H  6931  6943       L1    22  0.39
      P1  H  7997  8009       L1     7  0.59

> <Gold.Chemscore.Hbond.Weighted>
-6.0947

> <Gold.Chemscore.Metal.Weighted>
-0.0000

> <Gold.Chemscore.Lipo.Weighted>
-10.4877

> <Gold.Chemscore.Internal_Hbond.Weighted>
0.0000

> <Gold.Chemscore.DEClash.Weighted>
0.0997

> <Gold.Chemscore.DEInternal.Weighted>
1.2607

> <Gold.Chemscore.Rot.Weighted>
7.2596

> <Gold.Chemscore.Internal.Correction.Weighted>
   9.000000E+99

> <Gold.Protein.RotatedTorsions>
[ 6907 6896 6895 6894 ] final  -56.14 input  -60.11 | X-H torsion
[ 7974 7965 7964 7962 ] final -150.53 input  175.53 | X-H torsion
[ 8008 7997 7996 7995 ] final -166.78 input   59.86 | X-H torsion
[ 10167 10162 10161 10158 ] final -103.57 input  -65.29 | X-H torsion
[ 10718 10713 10712 10709 ] final  107.73 input   66.30 | X-H torsion
[ 10763 10752 10751 10750 ] final  124.13 input  -60.55 | X-H torsion
[ 11005 11000 10999 10996 ] final  -37.80 input  -57.11 | X-H torsion

> <Gold.Protein.ActiveResidues>
 VAL166  LYS551  ARG553  GLY616  TRP617  ASP618  TYR619  PRO620  LYS621  CYS622 
 ASP623  PHE694  ASN695  SER759  ASP760  ASP761  ALA762  ILE779  LEU786  VAL792 
 PHE793  MET794  SER795  GLU796  ALA797  LYS798  CYS799  TRP800  GLU811  SER814 

> <Gold.Protein.RotatedAtoms>
  150.8192  134.7391  159.6757 H   0  0  0  0  0  0  0  0  0  0  0  0  # atno 6907 bound_to 6896
  152.4309  134.5776  159.9948 H   0  0  0  0  0  0  0  0  0  0  0  0  # atno 6908 bound_to 6896
  151.5964  133.3323  159.3074 H   0  0  0  0  0  0  0  0  0  0  0  0  # atno 6909 bound_to 6896
  144.7902  140.4920  143.5778 H   0  0  0  0  0  0  0  0  0  0  0  0  # atno 7974 bound_to 7965
  155.8686  140.0989  157.1565 H   0  0  0  0  0  0  0  0  0  0  0  0  # atno 8008 bound_to 7997
  154.3995  140.1351  156.4113 H   0  0  0  0  0  0  0  0  0  0  0  0  # atno 8009 bound_to 7997
  155.7776  140.3459  155.5282 H   0  0  0  0  0  0  0  0  0  0  0  0  # atno 8010 bound_to 7997
  140.2186  143.3693  152.0989 H   0  0  0  0  0  0  0  0  0  0  0  0  # atno 10167 bound_to 10162
  157.6616  131.0879  150.6200 H   0  0  0  0  0  0  0  0  0  0  0  0  # atno 10718 bound_to 10713
  153.6565  135.3354  155.3115 H   0  0  0  0  0  0  0  0  0  0  0  0  # atno 10763 bound_to 10752
  154.8525  135.4353  154.1849 H   0  0  0  0  0  0  0  0  0  0  0  0  # atno 10764 bound_to 10752
  153.2805  135.7008  153.7465 H   0  0  0  0  0  0  0  0  0  0  0  0  # atno 10765 bound_to 10752
  140.9979  133.6970  156.1969 H   0  0  0  0  0  0  0  0  0  0  0  0  # atno 11005 bound_to 11000
  145.5814  139.1489  143.3233 LP  0  0  0  0  0  0  0  0  0  0  0  0  # atno 17320 bound_to 7965
  146.2151  140.5943  142.9042 LP  0  0  0  0  0  0  0  0  0  0  0  0  # atno 17321 bound_to 7965
  139.5153  144.6960  151.5628 LP  0  0  0  0  0  0  0  0  0  0  0  0  # atno 17342 bound_to 10162
  140.6272  143.9146  150.6574 LP  0  0  0  0  0  0  0  0  0  0  0  0  # atno 17343 bound_to 10162
  156.6502  130.4483  149.5722 LP  0  0  0  0  0  0  0  0  0  0  0  0  # atno 17370 bound_to 10713
  156.2143  130.6698  151.1302 LP  0  0  0  0  0  0  0  0  0  0  0  0  # atno 17371 bound_to 10713
  140.6936  134.4640  157.5588 LP  0  0  0  0  0  0  0  0  0  0  0  0  # atno 17394 bound_to 11000
  139.9024  134.8526  156.1841 LP  0  0  0  0  0  0  0  0  0  0  0  0  # atno 17395 bound_to 11000

$$$$
