#       Name:                AV-unprocessed.smi:37
#       Creating user name   scv26
#       Creation time:       Thu Mar 26 16:16:34 2020


#       File generated by GOLD software.
#

@<TRIPOS>MOLECULE
AV-unprocessed.smi:37
    54    55     1
SMALL
NO_CHARGES


@<TRIPOS>ATOM
      1 ****        -5.2781   2.1009   0.5099 C.3            1 S1                 0.0000
      2 ****        -3.7859   1.9987   0.8585 C.3            1 S1                 0.0000
      3 ****        -3.2643   0.5610   0.9069 C.2            1 S1                 0.0000
      4 ****        -3.9940  -0.4147   0.7219 O.2            1 S1                 0.0000
      5 ****        -1.9505   0.5160   1.1682 O.3            1 S1                 0.0000
      6 ****        -1.2837  -0.7344   1.2316 C.3            1 S1                 0.0000
      7 ****         0.2249  -0.4910   1.3598 C.3            1 S1                 0.0000
      8 ****         0.9173  -1.7011   1.6681 O.3            1 S1                 0.0000
      9 ****         2.1264  -1.7708   0.9633 C.3            1 S1                 0.0000
     10 ****         2.0552  -2.8850  -0.0628 N.am           1 S1                 0.0000
     11 ****         0.8446  -3.4288  -0.4613 C.2            1 S1                 0.0000
     12 ****         0.7885  -4.4189  -1.3754 C.2            1 S1                 0.0000
     13 ****        -0.4018  -4.9250  -1.7414 F              1 S1                 0.0000
     14 ****         2.0244  -4.9347  -1.9607 C.2            1 S1                 0.0000
     15 ****         1.9674  -5.8403  -2.7912 O.2            1 S1                 0.0000
     16 ****         3.2022  -4.3794  -1.5534 N.pl3          1 S1                -1.0000
     17 ****         3.2638  -3.3749  -0.6310 C.2            1 S1                 0.0000
     18 ****         4.3216  -2.8616  -0.2660 O.2            1 S1                 0.0000
     19 ****         2.3196  -0.4212   0.2643 C.3            1 S1                 0.0000
     20 ****         3.3113   0.8079   1.4854 Br             1 S1                 0.0000
     21 ****         0.8813   0.0343   0.0837 C.3            1 S1                 0.0000
     22 ****         0.7613   1.4460  -0.0283 O.3            1 S1                 0.0000
     23 ****         0.8632   2.0416  -1.2286 C.2            1 S1                 0.0000
     24 ****         1.0580   1.4742  -2.3035 O.2            1 S1                 0.0000
     25 ****         0.7040   3.5576  -1.1461 C.3            1 S1                 0.0000
     26 ****         1.8436   4.2168  -0.3577 C.3            1 S1                 0.0000
     27 ****        -5.5943   3.1438   0.4832 H              1 S1                 0.0000
     28 ****        -5.8955   1.5881   1.2483 H              1 S1                 0.0000
     29 ****        -5.4893   1.6679  -0.4685 H              1 S1                 0.0000
     30 ****        -3.2000   2.5541   0.1256 H              1 S1                 0.0000
     31 ****        -3.6026   2.4656   1.8266 H              1 S1                 0.0000
     32 ****        -1.6479  -1.2874   2.0983 H              1 S1                 0.0000
     33 ****        -1.5013  -1.3308   0.3447 H              1 S1                 0.0000
     34 ****         0.4187   0.1956   2.1858 H              1 S1                 0.0000
     35 ****         2.9391  -2.0491   1.6361 H              1 S1                 0.0000
     36 ****        -0.0811  -3.0658  -0.0444 H              1 S1                 0.0000
     37 ****         2.8792  -0.5027  -0.6681 H              1 S1                 0.0000
     38 ****         0.4387  -0.4743  -0.7746 H              1 S1                 0.0000
     39 ****         0.6687   3.9640  -2.1572 H              1 S1                 0.0000
     40 ****        -0.2546   3.7857  -0.6797 H              1 S1                 0.0000
     41 ****         1.7267   5.3005  -0.3484 H              1 S1                 0.0000
     42 ****         2.8145   3.9927  -0.8007 H              1 S1                 0.0000
     43 ****         1.8607   3.8788   0.6790 H              1 S1                 0.0000
     44 ****        -4.9668  -0.2826   0.5315 LP             1 S1                 0.0000
     45 ****        -3.6133  -1.3385   0.7621 LP             1 S1                 0.0000
     46 ****         0.3444  -2.4809   1.4158 LP             1 S1                 0.0000
     47 ****         1.1068  -1.7304   2.6495 LP             1 S1                 0.0000
     48 ****         1.0810  -6.2169  -3.0602 LP             1 S1                 0.0000
     49 ****         2.8075  -6.1999  -3.1973 LP             1 S1                 0.0000
     50 ****         4.0553  -4.7223  -1.9467 LP             1 S1                 0.0000
     51 ****         4.3127  -2.1244   0.4096 LP             1 S1                 0.0000
     52 ****         5.1897  -3.1818  -0.6452 LP             1 S1                 0.0000
     53 ****         1.1555   0.4794  -2.3333 LP             1 S1                 0.0000
     54 ****         1.1187   2.0081  -3.1469 LP             1 S1                 0.0000
@<TRIPOS>BOND
    1    1    2 1     
    2    1   27 1     
    3    1   28 1     
    4    1   29 1     
    5    2    3 1     
    6    2   30 1     
    7    2   31 1     
    8    3    4 2     
    9    3    5 1     
   10    5    6 1     
   11    6    7 1     
   12    6   32 1     
   13    6   33 1     
   14    7   21 1     
   15    7    8 1     
   16    7   34 1     
   17    8    9 1     
   18    9   10 1     
   19    9   19 1     
   20    9   35 1     
   21   10   17 am    
   22   10   11 1     
   23   11   12 2     
   24   11   36 1     
   25   12   13 1     
   26   12   14 1     
   27   14   15 2     
   28   14   16 1     
   29   16   17 1     
   30   17   18 2     
   31   19   20 1     
   32   19   21 1     
   33   19   37 1     
   34   21   22 1     
   35   21   38 1     
   36   22   23 1     
   37   23   24 2     
   38   23   25 1     
   39   25   26 1     
   40   25   39 1     
   41   25   40 1     
   42   26   41 1     
   43   26   42 1     
   44   26   43 1     
   45    4   44 1     
   46    4   45 1     
   47    8   46 1     
   48    8   47 1     
   49   15   48 1     
   50   15   49 1     
   51   16   50 1     
   52   18   51 1     
   53   18   52 1     
   54   24   53 1     
   55   24   54 1     
@<TRIPOS>SUBSTRUCTURE
      1 S1             1
@<TRIPOS>SET
LONE_PAIRS      STATIC     ATOMS    <user>   **** ""
11 44 45 46 47 48 49 50 51 52 53 54
ATOM$BLUE        STATIC     ATOMS    COLORGROUP SYSTEM
11 44 45 46 47 48 49 50 51 52 53 54
