AV-unprocessed.smi:1050|AV-procd|sdf|4613|dock8
  -GOLD-   22720 3113D 1   1.00000     0.00000
 Structure written by MMmdl.
 48 49  0  0  0  0  0  0  0  0  1 V2000
  147.4150  136.5554  162.7588 C   0  0  0  0  0  0  0  0  0  0  0  0
  147.5368  137.1099  161.4533 O   0  0  0  0  0  0  0  0  0  0  0  0
  147.9106  136.2744  160.4211 C   0  0  0  0  0  0  0  0  0  0  0  0
  147.8589  134.8836  160.6239 C   0  0  0  0  0  0  0  0  0  0  0  0
  148.2390  134.0314  159.5717 C   0  0  0  0  0  0  0  0  0  0  0  0
  148.6724  134.5939  158.3467 C   0  0  0  0  0  0  0  0  0  0  0  0
  149.0345  133.8050  157.2170 N   0  0  0  0  0  0  0  0  0  0  0  0
  149.7002  132.6366  157.1764 C   0  0  0  0  0  0  0  0  0  0  0  0
  150.1100  132.0296  158.1656 O   0  0  0  0  0  0  0  0  0  0  0  0
  149.9511  132.0663  155.7699 C   0  0  1  0  0  0  0  0  0  0  0  0
  150.6627  130.7063  155.8302 C   0  0  0  0  0  0  0  0  0  0  0  0
  148.7179  131.8793  155.0803 O   0  0  0  0  0  0  0  0  0  0  0  0
  148.8373  131.5015  153.7146 C   0  0  0  0  0  0  0  0  0  0  0  0
  148.6791  136.0091  158.2299 C   0  0  0  0  0  0  0  0  0  0  0  0
  149.0970  136.6262  157.0346 N   0  0  0  0  0  0  0  0  0  0  0  0
  150.4989  136.3718  156.7021 C   0  0  0  0  0  0  0  0  0  0  0  0
  150.8200  136.8664  155.2782 C   0  0  0  0  0  0  0  0  0  0  0  0
  150.4290  138.2775  155.1620 N   0  0  0  0  0  0  0  0  0  0  0  0
  151.3263  139.2794  155.0049 C   0  0  0  0  0  0  0  0  0  0  0  0
  152.8106  138.9377  154.8583 C   0  0  0  0  0  0  0  0  0  0  0  0
  150.9996  140.4659  154.9717 O   0  0  0  0  0  0  0  0  0  0  0  0
  148.9853  138.4492  155.3748 C   0  0  0  0  0  0  0  0  0  0  0  0
  148.6395  137.9980  156.8057 C   0  0  0  0  0  0  0  0  0  0  0  0
  148.3088  136.8215  159.2481 N   0  0  0  0  0  0  0  0  0  0  0  0
  147.1152  137.3374  163.4561 H   0  0  0  0  0  0  0  0  0  0  0  0
  148.3635  136.1456  163.1090 H   0  0  0  0  0  0  0  0  0  0  0  0
  146.6540  135.7742  162.7910 H   0  0  0  0  0  0  0  0  0  0  0  0
  147.5263  134.4766  161.5675 H   0  0  0  0  0  0  0  0  0  0  0  0
  148.1717  132.9652  159.7208 H   0  0  0  0  0  0  0  0  0  0  0  0
  148.8303  134.2234  156.3209 H   0  0  0  0  0  0  0  0  0  0  0  0
  150.5831  132.7523  155.2021 H   0  0  0  0  0  0  0  0  0  0  0  0
  151.6099  130.7786  156.3659 H   0  0  0  0  0  0  0  0  0  0  0  0
  150.8797  130.3400  154.8267 H   0  0  0  0  0  0  0  0  0  0  0  0
  150.0511  129.9532  156.3286 H   0  0  0  0  0  0  0  0  0  0  0  0
  147.8456  131.3117  153.3045 H   0  0  0  0  0  0  0  0  0  0  0  0
  149.4224  130.5871  153.6090 H   0  0  0  0  0  0  0  0  0  0  0  0
  149.2978  132.2833  153.1102 H   0  0  0  0  0  0  0  0  0  0  0  0
  151.1325  136.8853  157.4268 H   0  0  0  0  0  0  0  0  0  0  0  0
  150.7272  135.3087  156.7818 H   0  0  0  0  0  0  0  0  0  0  0  0
  151.8749  136.6977  155.0590 H   0  0  0  0  0  0  0  0  0  0  0  0
  150.2656  136.2797  154.5444 H   0  0  0  0  0  0  0  0  0  0  0  0
  152.9754  138.2818  154.0028 H   0  0  0  0  0  0  0  0  0  0  0  0
  153.1840  138.4489  155.7586 H   0  0  0  0  0  0  0  0  0  0  0  0
  153.3999  139.8420  154.7013 H   0  0  0  0  0  0  0  0  0  0  0  0
  148.6345  139.4674  155.2149 H   0  0  0  0  0  0  0  0  0  0  0  0
  148.4450  137.8374  154.6509 H   0  0  0  0  0  0  0  0  0  0  0  0
  147.5619  138.0562  156.9640 H   0  0  0  0  0  0  0  0  0  0  0  0
  149.1100  138.6689  157.5259 H   0  0  0  0  0  0  0  0  0  0  0  0
  1  2  1  0  0  0  0
  1 25  1  0  0  0  0
  1 26  1  0  0  0  0
  1 27  1  0  0  0  0
  2  3  1  0  0  0  0
  3 24  1  0  0  0  0
  3  4  2  0  0  0  0
  4  5  1  0  0  0  0
  4 28  1  0  0  0  0
  5  6  2  0  0  0  0
  5 29  1  0  0  0  0
  6  7  1  0  0  0  0
  6 14  1  0  0  0  0
  7  8  1  0  0  0  0
  7 30  1  0  0  0  0
  8  9  2  0  0  0  0
  8 10  1  0  0  0  0
 10 11  1  0  0  0  0
 10 12  1  0  0  0  0
 10 31  1  0  0  0  0
 11 32  1  0  0  0  0
 11 33  1  0  0  0  0
 11 34  1  0  0  0  0
 12 13  1  0  0  0  0
 13 35  1  0  0  0  0
 13 36  1  0  0  0  0
 13 37  1  0  0  0  0
 14 15  1  0  0  0  0
 14 24  2  0  0  0  0
 15 23  1  0  0  0  0
 15 16  1  0  0  0  0
 16 17  1  0  0  0  0
 16 38  1  0  0  0  0
 16 39  1  0  0  0  0
 17 18  1  0  0  0  0
 17 40  1  0  0  0  0
 17 41  1  0  0  0  0
 18 19  1  0  0  0  0
 18 22  1  0  0  0  0
 19 20  1  0  0  0  0
 19 21  2  0  0  0  0
 20 42  1  0  0  0  0
 20 43  1  0  0  0  0
 20 44  1  0  0  0  0
 22 23  1  0  0  0  0
 22 45  1  0  0  0  0
 22 46  1  0  0  0  0
 23 47  1  0  0  0  0
 23 48  1  0  0  0  0
M  END
> <s_m_source_file>
AV-unprocessed.smi

> <i_m_source_file_index>
1050

> <i_lp_mmshare_version>
43012

> <i_f3d_flags>
0

> <s_epik_input>
W0NIM11PYzFbY0hdW2NIXWMoW05IXUMoPU8pW0NASF0oW0NIM10pT1tDSDNdKWMobjEpTjJbQ0gyXVtDSDJdTihDKD1PKVtDSDNdKVtDSDJdW0NIMl0y

> <s_epik_cmdline>
J2VwaWtfcHl0aG9uJywgJy1waCcsICc3LjAnLCAnLXRuJywgJzgnLCAnLW1hJywgJzIwMCcsICctbWV0YWxfYmluZGluZycsICctaW1hZScsICc8aW5maWxlLm1hZT4nLCAnLW9tYWUnLCAnPG91dGZpbGUubWFlPic=

> <r_lp_tautomer_probability>
1

> <r_epik_Ionization_Penalty>
0.000150604

> <r_epik_Ionization_Penalty_Charging>
0

> <r_epik_Ionization_Penalty_Neutral>
0.000150604

> <r_epik_State_Penalty>
-0

> <r_epik_Charging_Adjusted_Penalty>
0

> <i_epik_Tot_Q>
0

> <i_epik_Tot_abs_Q>
0

> <r_epik_Metal_State_Penalty>
-0

> <b_epik_Metal_Only>
0

> <s_lp_Force_Field>
OPLS_2005

> <r_lp_Energy>
41.0836

> <b_lp_Chiralities_Consistent>
1

> <s_lp_Variant>
AV-unprocessed.smi:1050-2

> <Gold.Version>
5.8.1

> <Gold.Id.Protein>
6NUR|6NUR_protein|mol2

> <Gold.PLP.Fitness>
41.5982

> <Gold.PLP.PLP>
-32.0781

> <Gold.PLP.part.hbond>
-4.0000

> <Gold.PLP.part.metal>
0.0000

> <Gold.PLP.part.buried>
-2.8011

> <Gold.PLP.part.nonpolar>
-25.8813

> <Gold.PLP.part.repulsive>
0.1358

> <Gold.PLP.ligand.clash>
0.0951

> <Gold.PLP.ligand.torsion>
0.8008

> <Gold.PLP.Chemscore.Hbond>
3.6240

> <Gold.PLP.Chemscore.CHOScore>
0.0000

> <Gold.PLP.Chemscore.Metal>
0.0000

> <Gold.Chemscore.Hbonds>
donor molecule, donor type, donor heavy atom, donor atom, acceptor molecule, acceptor atom, score
      P1  H  6896  6908       L1     9  0.99
      P1  H  6931  6943       L1     2  0.74
      P1  H  6934  6947       L1     2  0.86
      P1  H  7989  7998       L1    21  1.00

> <Gold.PLP.Chemscore.Internal.Correction>
0.3449

> <Gold.Rescore>
     Score         DG    S(hbond)    S(metal)    S(lipo)     H(rot)  DE(clash)    DE(int)     intcor
     13.14     -15.69       2.31        0.00      58.69       1.71       0.03       2.53       ----

> <Gold.Chemscore.Fitness>
13.1351

> <Gold.Chemscore.DG>
-15.6939

> <Gold.Chemscore.ZeroCoef>
-5.4800

> <Gold.Chemscore.Hbond>
2.3132

> <Gold.Chemscore.Metal>
0.0000

> <Gold.Chemscore.Lipo>
58.6896

> <Gold.Chemscore.Internal_Hbond>
0.0000

> <Gold.Chemscore.DEClash>
0.0256

> <Gold.Chemscore.DEInternal>
2.5332

> <Gold.Chemscore.Rot>
1.7106

> <Gold.Chemscore.Internal.Correction>
   9.000000E+99

> <Gold.Chemscore.Hbonds>
donor molecule, donor type, donor heavy atom, donor atom, acceptor molecule, acceptor atom, score
      P1  H  6896  6908       L1     9  0.37
      P1  H  6931  6943       L1     2  0.06
      P1  H  6934  6947       L1     2  0.75
      P1  H  7989  7998       L1    21  0.25

> <Gold.Chemscore.Hbond.Weighted>
-7.7262

> <Gold.Chemscore.Metal.Weighted>
-0.0000

> <Gold.Chemscore.Lipo.Weighted>
-6.8667

> <Gold.Chemscore.Internal_Hbond.Weighted>
0.0000

> <Gold.Chemscore.DEClash.Weighted>
0.0256

> <Gold.Chemscore.DEInternal.Weighted>
2.5332

> <Gold.Chemscore.Rot.Weighted>
4.3790

> <Gold.Chemscore.Internal.Correction.Weighted>
   9.000000E+99

> <Gold.Protein.RotatedTorsions>
[ 6907 6896 6895 6894 ] final   96.10 input  -60.11 | X-H torsion
[ 7974 7965 7964 7962 ] final   46.56 input  175.53 | X-H torsion
[ 8008 7997 7996 7995 ] final   89.85 input   59.86 | X-H torsion
[ 10167 10162 10161 10158 ] final   17.32 input  -65.29 | X-H torsion
[ 10718 10713 10712 10709 ] final  -78.95 input   66.30 | X-H torsion
[ 10763 10752 10751 10750 ] final  103.65 input  -60.55 | X-H torsion
[ 11005 11000 10999 10996 ] final -125.27 input  -57.11 | X-H torsion

> <Gold.Protein.ActiveResidues>
 VAL166  LYS551  ARG553  GLY616  TRP617  ASP618  TYR619  PRO620  LYS621  CYS622 
 ASP623  PHE694  ASN695  SER759  ASP760  ASP761  ALA762  ILE779  LEU786  VAL792 
 PHE793  MET794  SER795  GLU796  ALA797  LYS798  CYS799  TRP800  GLU811  SER814 

> <Gold.Protein.RotatedAtoms>
  152.5438  134.0937  159.8287 H   0  0  0  0  0  0  0  0  0  0  0  0  # atno 6907 bound_to 6896
  151.1024  133.5226  159.2616 H   0  0  0  0  0  0  0  0  0  0  0  0  # atno 6908 bound_to 6896
  151.1976  135.0438  159.8913 H   0  0  0  0  0  0  0  0  0  0  0  0  # atno 6909 bound_to 6896
  146.0378  139.4842  142.9797 H   0  0  0  0  0  0  0  0  0  0  0  0  # atno 7974 bound_to 7965
  156.0050  140.3356  155.6883 H   0  0  0  0  0  0  0  0  0  0  0  0  # atno 8008 bound_to 7997
  155.6238  140.0678  157.2688 H   0  0  0  0  0  0  0  0  0  0  0  0  # atno 8009 bound_to 7997
  154.4262  140.1772  156.1387 H   0  0  0  0  0  0  0  0  0  0  0  0  # atno 8010 bound_to 7997
  140.5734  143.9118  150.6731 H   0  0  0  0  0  0  0  0  0  0  0  0  # atno 10167 bound_to 10162
  156.0104  130.4532  150.3574 H   0  0  0  0  0  0  0  0  0  0  0  0  # atno 10718 bound_to 10713
  153.3555  135.3969  155.1679 H   0  0  0  0  0  0  0  0  0  0  0  0  # atno 10763 bound_to 10752
  154.8670  135.3667  154.5167 H   0  0  0  0  0  0  0  0  0  0  0  0  # atno 10764 bound_to 10752
  153.5622  135.7081  153.5602 H   0  0  0  0  0  0  0  0  0  0  0  0  # atno 10765 bound_to 10752
  140.9775  134.0720  157.3802 H   0  0  0  0  0  0  0  0  0  0  0  0  # atno 11005 bound_to 11000
  145.6935  141.0157  143.1543 LP  0  0  0  0  0  0  0  0  0  0  0  0  # atno 17320 bound_to 7965
  144.7060  139.8560  143.7430 LP  0  0  0  0  0  0  0  0  0  0  0  0  # atno 17321 bound_to 7965
  140.2599  143.3531  152.1332 LP  0  0  0  0  0  0  0  0  0  0  0  0  # atno 17342 bound_to 10162
  139.5130  144.6925  151.5721 LP  0  0  0  0  0  0  0  0  0  0  0  0  # atno 17343 bound_to 10162
  157.1664  131.0358  151.2816 LP  0  0  0  0  0  0  0  0  0  0  0  0  # atno 17370 bound_to 10713
  157.4267  130.7467  149.6957 LP  0  0  0  0  0  0  0  0  0  0  0  0  # atno 17371 bound_to 10713
  139.8936  135.0131  156.6909 LP  0  0  0  0  0  0  0  0  0  0  0  0  # atno 17394 bound_to 11000
  140.7237  133.9119  155.8164 LP  0  0  0  0  0  0  0  0  0  0  0  0  # atno 17395 bound_to 11000

$$$$
