AV-unprocessed.smi:1040|AV-procd|sdf|4525|dock4
  -GOLD-   22720 2543D 1   1.00000     0.00000
 Structure written by MMmdl.
 54 55  0  0  0  0  0  0  0  0  1 V2000
  150.5859  136.6345  156.3464 C   0  0  0  0  0  0  0  0  0  0  0  0
  150.6365  137.2990  154.9603 C   0  0  1  0  0  0  0  0  0  0  0  0
  149.3628  137.0429  154.2908 N   0  0  0  0  0  0  0  0  0  0  0  0
  148.1515  137.2003  154.8440 C   0  0  0  0  0  0  0  0  0  0  0  0
  147.9769  137.6200  155.9879 O   0  0  0  0  0  0  0  0  0  0  0  0
  147.1818  136.8509  153.9826 N   0  0  0  0  0  0  0  0  0  0  0  0
  145.7684  136.9530  154.1329 C   0  0  0  0  0  0  0  0  0  0  0  0
  145.1503  137.9072  154.9780 C   0  0  0  0  0  0  0  0  0  0  0  0
  143.7491  137.9137  155.0973 C   0  0  0  0  0  0  0  0  0  0  0  0
  143.0124  136.9578  154.3768 C   0  0  0  0  0  0  0  0  0  0  0  0
  143.5848  136.0339  153.5791 N   0  0  0  0  0  0  0  0  0  0  0  0
  144.9344  136.0226  153.4550 C   0  0  0  0  0  0  0  0  0  0  0  0
  145.4953  135.0529  152.6000 N   0  0  0  0  0  0  0  0  0  0  0  0
  146.3669  134.0524  153.2155 C   0  0  0  0  0  0  0  0  0  0  0  0
  147.1573  133.2874  152.1402 C   0  0  0  0  0  0  0  0  0  0  0  0
  146.2123  132.6806  151.0901 C   0  0  0  0  0  0  0  0  0  0  0  0
  145.2983  133.7682  150.5021 C   0  0  0  0  0  0  0  0  0  0  0  0
  144.5531  134.5221  151.6168 C   0  0  0  0  0  0  0  0  0  0  0  0
  150.8371  138.8084  155.1680 C   0  0  0  0  0  0  0  0  0  0  0  0
  151.8223  139.3766  154.6941 O   0  0  0  0  0  0  0  0  0  0  0  0
  149.8735  139.4366  155.8650 N   0  0  0  0  0  0  0  0  0  0  0  0
  149.7759  140.8599  156.2098 C   0  0  0  0  0  0  0  0  0  0  0  0
  151.1334  141.2702  156.8074 C   0  0  0  0  0  0  0  0  0  0  0  0
  148.6751  141.0882  157.2667 C   0  0  0  0  0  0  0  0  0  0  0  0
  149.5056  141.7099  154.9502 C   0  0  0  0  0  0  0  0  0  0  0  0
  151.5160  136.7902  156.8948 H   0  0  0  0  0  0  0  0  0  0  0  0
  150.4411  135.5575  156.2547 H   0  0  0  0  0  0  0  0  0  0  0  0
  149.7699  137.0248  156.9570 H   0  0  0  0  0  0  0  0  0  0  0  0
  151.4618  136.8797  154.3811 H   0  0  0  0  0  0  0  0  0  0  0  0
  149.4116  136.6911  153.3462 H   0  0  0  0  0  0  0  0  0  0  0  0
  147.4916  136.5737  153.0624 H   0  0  0  0  0  0  0  0  0  0  0  0
  145.7199  138.6222  155.5503 H   0  0  0  0  0  0  0  0  0  0  0  0
  143.2517  138.6305  155.7337 H   0  0  0  0  0  0  0  0  0  0  0  0
  141.9352  136.9297  154.4467 H   0  0  0  0  0  0  0  0  0  0  0  0
  147.0572  134.5367  153.9075 H   0  0  0  0  0  0  0  0  0  0  0  0
  145.7635  133.3539  153.7970 H   0  0  0  0  0  0  0  0  0  0  0  0
  147.8576  133.9662  151.6514 H   0  0  0  0  0  0  0  0  0  0  0  0
  147.7570  132.5039  152.6039 H   0  0  0  0  0  0  0  0  0  0  0  0
  146.7869  132.2012  150.2971 H   0  0  0  0  0  0  0  0  0  0  0  0
  145.6044  131.9013  151.5513 H   0  0  0  0  0  0  0  0  0  0  0  0
  145.8955  134.4732  149.9221 H   0  0  0  0  0  0  0  0  0  0  0  0
  144.5836  133.3237  149.8090 H   0  0  0  0  0  0  0  0  0  0  0  0
  143.8594  133.8490  152.1221 H   0  0  0  0  0  0  0  0  0  0  0  0
  143.9527  135.3214  151.1819 H   0  0  0  0  0  0  0  0  0  0  0  0
  149.1157  138.8588  156.1989 H   0  0  0  0  0  0  0  0  0  0  0  0
  151.1409  142.3235  157.0904 H   0  0  0  0  0  0  0  0  0  0  0  0
  151.9448  141.1174  156.0947 H   0  0  0  0  0  0  0  0  0  0  0  0
  151.3663  140.6899  157.7012 H   0  0  0  0  0  0  0  0  0  0  0  0
  148.8352  140.4646  158.1469 H   0  0  0  0  0  0  0  0  0  0  0  0
  147.6813  140.8630  156.8799 H   0  0  0  0  0  0  0  0  0  0  0  0
  148.6600  142.1267  157.5995 H   0  0  0  0  0  0  0  0  0  0  0  0
  149.5273  142.7749  155.1840 H   0  0  0  0  0  0  0  0  0  0  0  0
  148.5290  141.5001  154.5141 H   0  0  0  0  0  0  0  0  0  0  0  0
  150.2563  141.5283  154.1799 H   0  0  0  0  0  0  0  0  0  0  0  0
  1  2  1  0  0  0  0
  1 26  1  0  0  0  0
  1 27  1  0  0  0  0
  1 28  1  0  0  0  0
  2  3  1  0  0  0  0
  2 19  1  0  0  0  0
  2 29  1  0  0  0  0
  3  4  1  0  0  0  0
  3 30  1  0  0  0  0
  4  5  2  0  0  0  0
  4  6  1  0  0  0  0
  6  7  1  0  0  0  0
  6 31  1  0  0  0  0
  7 12  1  0  0  0  0
  7  8  2  0  0  0  0
  8  9  1  0  0  0  0
  8 32  1  0  0  0  0
  9 10  2  0  0  0  0
  9 33  1  0  0  0  0
 10 11  1  0  0  0  0
 10 34  1  0  0  0  0
 11 12  2  0  0  0  0
 12 13  1  0  0  0  0
 13 18  1  0  0  0  0
 13 14  1  0  0  0  0
 14 15  1  0  0  0  0
 14 35  1  0  0  0  0
 14 36  1  0  0  0  0
 15 16  1  0  0  0  0
 15 37  1  0  0  0  0
 15 38  1  0  0  0  0
 16 17  1  0  0  0  0
 16 39  1  0  0  0  0
 16 40  1  0  0  0  0
 17 18  1  0  0  0  0
 17 41  1  0  0  0  0
 17 42  1  0  0  0  0
 18 43  1  0  0  0  0
 18 44  1  0  0  0  0
 19 20  2  0  0  0  0
 19 21  1  0  0  0  0
 21 22  1  0  0  0  0
 21 45  1  0  0  0  0
 22 23  1  0  0  0  0
 22 24  1  0  0  0  0
 22 25  1  0  0  0  0
 23 46  1  0  0  0  0
 23 47  1  0  0  0  0
 23 48  1  0  0  0  0
 24 49  1  0  0  0  0
 24 50  1  0  0  0  0
 24 51  1  0  0  0  0
 25 52  1  0  0  0  0
 25 53  1  0  0  0  0
 25 54  1  0  0  0  0
M  END
> <s_m_source_file>
AV-unprocessed.smi

> <i_m_source_file_index>
1040

> <i_lp_mmshare_version>
43012

> <i_f3d_flags>
0

> <s_epik_input>
W0NIM11DKFtDSDNdKShbQ0gzXSlbTkhdQyg9TylbQ0BIXShbQ0gzXSlbTkhdQyg9TylbTkhdYzFbY0hdW2NIXVtjSF1uYzFOMltDSDJdW0NIMl1bQ0gyXVtDSDJdW0NIMl0y

> <s_epik_cmdline>
J2VwaWtfcHl0aG9uJywgJy1waCcsICc3LjAnLCAnLXRuJywgJzgnLCAnLW1hJywgJzIwMCcsICctbWV0YWxfYmluZGluZycsICctaW1hZScsICc8aW5maWxlLm1hZT4nLCAnLW9tYWUnLCAnPG91dGZpbGUubWFlPic=

> <r_lp_tautomer_probability>
1

> <r_epik_Ionization_Penalty>
0.0878593

> <r_epik_Ionization_Penalty_Charging>
0

> <r_epik_Ionization_Penalty_Neutral>
0.0878593

> <r_epik_State_Penalty>
0.07381

> <r_epik_Charging_Adjusted_Penalty>
0.07381

> <i_epik_Tot_Q>
0

> <i_epik_Tot_abs_Q>
0

> <r_epik_Metal_State_Penalty>
0.0646628

> <b_epik_Metal_Only>
0

> <s_lp_Force_Field>
OPLS_2005

> <r_lp_Energy>
20.3339

> <b_lp_Chiralities_Consistent>
1

> <s_lp_Variant>
AV-unprocessed.smi:1040-2

> <Gold.Version>
5.8.1

> <Gold.Id.Protein>
6NUR|6NUR_protein|mol2

> <Gold.PLP.Fitness>
35.0608

> <Gold.PLP.PLP>
-27.3484

> <Gold.PLP.part.hbond>
-3.0000

> <Gold.PLP.part.metal>
0.0000

> <Gold.PLP.part.buried>
-4.2042

> <Gold.PLP.part.nonpolar>
-20.9561

> <Gold.PLP.part.repulsive>
0.2781

> <Gold.PLP.ligand.clash>
0.0000

> <Gold.PLP.ligand.torsion>
0.7657

> <Gold.PLP.Chemscore.Hbond>
2.9760

> <Gold.PLP.Chemscore.CHOScore>
0.0000

> <Gold.PLP.Chemscore.Metal>
0.0000

> <Gold.Chemscore.Hbonds>
donor molecule, donor type, donor heavy atom, donor atom, acceptor molecule, acceptor atom, score
      L1  H     3    30       P1  7948  1.00
      L1  H     6    31       P1  7948  0.98
      P1  H  7989  7998       L1    20  1.00

> <Gold.PLP.Chemscore.Internal.Correction>
0.3159

> <Gold.Rescore>
     Score         DG    S(hbond)    S(metal)    S(lipo)     H(rot)  DE(clash)    DE(int)     intcor
     12.39     -17.82       2.71        0.00      63.37       1.61       0.04       5.39       ----

> <Gold.Chemscore.Fitness>
12.3930

> <Gold.Chemscore.DG>
-17.8237

> <Gold.Chemscore.ZeroCoef>
-5.4800

> <Gold.Chemscore.Hbond>
2.7131

> <Gold.Chemscore.Metal>
0.0000

> <Gold.Chemscore.Lipo>
63.3708

> <Gold.Chemscore.Internal_Hbond>
0.0000

> <Gold.Chemscore.DEClash>
0.0360

> <Gold.Chemscore.DEInternal>
5.3947

> <Gold.Chemscore.Rot>
1.6143

> <Gold.Chemscore.Internal.Correction>
   9.000000E+99

> <Gold.Chemscore.Hbonds>
donor molecule, donor type, donor heavy atom, donor atom, acceptor molecule, acceptor atom, score
      L1  H     3    30       P1  7948  0.84
      L1  H     6    31       P1  7948  0.93
      P1  H  7989  7998       L1    20  0.94

> <Gold.Chemscore.Hbond.Weighted>
-9.0619

> <Gold.Chemscore.Metal.Weighted>
-0.0000

> <Gold.Chemscore.Lipo.Weighted>
-7.4144

> <Gold.Chemscore.Internal_Hbond.Weighted>
0.0000

> <Gold.Chemscore.DEClash.Weighted>
0.0360

> <Gold.Chemscore.DEInternal.Weighted>
5.3947

> <Gold.Chemscore.Rot.Weighted>
4.1326

> <Gold.Chemscore.Internal.Correction.Weighted>
   9.000000E+99

> <Gold.Protein.RotatedTorsions>
[ 6907 6896 6895 6894 ] final  -56.48 input  -60.11 | X-H torsion
[ 7974 7965 7964 7962 ] final  -43.44 input  175.53 | X-H torsion
[ 8008 7997 7996 7995 ] final   78.71 input   59.86 | X-H torsion
[ 10167 10162 10161 10158 ] final   57.03 input  -65.29 | X-H torsion
[ 10718 10713 10712 10709 ] final  -57.51 input   66.30 | X-H torsion
[ 10763 10752 10751 10750 ] final  -25.22 input  -60.55 | X-H torsion
[ 11005 11000 10999 10996 ] final  -26.29 input  -57.11 | X-H torsion

> <Gold.Protein.ActiveResidues>
 VAL166  LYS551  ARG553  GLY616  TRP617  ASP618  TYR619  PRO620  LYS621  CYS622 
 ASP623  PHE694  ASN695  SER759  ASP760  ASP761  ALA762  ILE779  LEU786  VAL792 
 PHE793  MET794  SER795  GLU796  ALA797  LYS798  CYS799  TRP800  GLU811  SER814 

> <Gold.Protein.RotatedAtoms>
  150.8164  134.7348  159.6733 H   0  0  0  0  0  0  0  0  0  0  0  0  # atno 6907 bound_to 6896
  152.4282  134.5825  159.9961 H   0  0  0  0  0  0  0  0  0  0  0  0  # atno 6908 bound_to 6896
  151.6020  133.3318  159.3085 H   0  0  0  0  0  0  0  0  0  0  0  0  # atno 6909 bound_to 6896
  146.0018  140.7065  142.9266 H   0  0  0  0  0  0  0  0  0  0  0  0  # atno 7974 bound_to 7965
  155.8596  140.3454  155.5747 H   0  0  0  0  0  0  0  0  0  0  0  0  # atno 8008 bound_to 7997
  155.7948  140.0877  157.2008 H   0  0  0  0  0  0  0  0  0  0  0  0  # atno 8009 bound_to 7997
  154.4011  140.1476  156.3193 H   0  0  0  0  0  0  0  0  0  0  0  0  # atno 8010 bound_to 7997
  140.2024  144.3974  150.6523 H   0  0  0  0  0  0  0  0  0  0  0  0  # atno 10167 bound_to 10162
  156.1205  130.4166  150.0450 H   0  0  0  0  0  0  0  0  0  0  0  0  # atno 10718 bound_to 10713
  153.6964  135.6959  153.5075 H   0  0  0  0  0  0  0  0  0  0  0  0  # atno 10763 bound_to 10752
  153.2375  135.4317  155.0661 H   0  0  0  0  0  0  0  0  0  0  0  0  # atno 10764 bound_to 10752
  154.8357  135.3499  154.6504 H   0  0  0  0  0  0  0  0  0  0  0  0  # atno 10765 bound_to 10752
  140.9016  133.7520  156.0551 H   0  0  0  0  0  0  0  0  0  0  0  0  # atno 11005 bound_to 11000
  144.6922  140.3247  143.7226 LP  0  0  0  0  0  0  0  0  0  0  0  0  # atno 17320 bound_to 7965
  145.7475  139.1783  143.2340 LP  0  0  0  0  0  0  0  0  0  0  0  0  # atno 17321 bound_to 7965
  140.6381  143.2198  151.6350 LP  0  0  0  0  0  0  0  0  0  0  0  0  # atno 17342 bound_to 10162
  139.5212  144.3200  152.0919 LP  0  0  0  0  0  0  0  0  0  0  0  0  # atno 17343 bound_to 10162
  156.8389  130.9419  151.3633 LP  0  0  0  0  0  0  0  0  0  0  0  0  # atno 17370 bound_to 10713
  157.6389  130.8789  149.9410 LP  0  0  0  0  0  0  0  0  0  0  0  0  # atno 17371 bound_to 10713
  140.8223  134.3275  157.5377 LP  0  0  0  0  0  0  0  0  0  0  0  0  # atno 17394 bound_to 11000
  139.8743  134.9316  156.3533 LP  0  0  0  0  0  0  0  0  0  0  0  0  # atno 17395 bound_to 11000

$$$$
