AV-unprocessed.smi:447|AV-procd|sdf|2597|dock10
  -GOLD-   2262022593D 1   1.00000     0.00000
 Structure written by MMmdl.
 45 47  0  0  0  0  0  0  0  0  1 V2000
  147.7497  136.1838  160.9383 C   0  0  0  0  0  0  0  0  0  0  0  0
  148.1934  137.0335  159.7526 C   0  0  0  0  0  0  0  0  0  0  0  0
  147.4987  137.9763  159.3759 O   0  0  0  0  0  0  0  0  0  0  0  0
  149.3550  136.6864  159.1774 N   0  0  0  0  0  0  0  0  0  0  0  0
  149.9827  137.3658  158.0435 C   0  0  2  0  0  0  0  0  0  0  0  0
  150.7421  136.3426  157.1883 C   0  0  0  0  0  0  0  0  0  0  0  0
  150.8947  138.4571  158.5526 C   0  0  0  0  0  0  0  0  0  0  0  0
  151.8706  138.2239  159.4364 N   0  0  0  0  0  0  0  0  0  0  0  0
  152.4451  139.4678  159.5998 C   0  0  0  0  0  0  0  0  0  0  0  0
  153.5194  139.8831  160.4188 C   0  0  0  0  0  0  0  0  0  0  0  0
  153.9403  141.2291  160.4151 C   0  0  0  0  0  0  0  0  0  0  0  0
  153.2957  142.1761  159.5930 C   0  0  0  0  0  0  0  0  0  0  0  0
  152.2246  141.7819  158.7682 C   0  0  0  0  0  0  0  0  0  0  0  0
  151.8067  140.4375  158.7782 C   0  0  0  0  0  0  0  0  0  0  0  0
  150.8128  139.7373  158.1023 N   0  0  0  0  0  0  0  0  0  0  0  0
  149.9034  140.3050  157.1142 C   0  0  0  0  0  0  0  0  0  0  0  0
  150.2497  139.8862  155.6717 C   0  0  2  0  0  0  0  0  0  0  0  0
  151.4530  140.5038  155.2609 O   0  0  0  0  0  0  0  0  0  0  0  0
  149.0996  140.1827  154.7223 C   0  0  0  0  0  0  0  0  0  0  0  0
  148.6835  141.5151  154.5117 C   0  0  0  0  0  0  0  0  0  0  0  0
  147.6238  141.7963  153.6272 C   0  0  0  0  0  0  0  0  0  0  0  0
  146.9757  140.7474  152.9471 C   0  0  0  0  0  0  0  0  0  0  0  0
  147.3891  139.4167  153.1499 C   0  0  0  0  0  0  0  0  0  0  0  0
  148.4488  139.1350  154.0337 C   0  0  0  0  0  0  0  0  0  0  0  0
  148.5594  136.0821  161.6617 H   0  0  0  0  0  0  0  0  0  0  0  0
  147.4569  135.1884  160.6028 H   0  0  0  0  0  0  0  0  0  0  0  0
  146.8973  136.6391  161.4438 H   0  0  0  0  0  0  0  0  0  0  0  0
  149.8567  135.9015  159.5667 H   0  0  0  0  0  0  0  0  0  0  0  0
  149.1908  137.8034  157.4353 H   0  0  0  0  0  0  0  0  0  0  0  0
  151.2016  136.8201  156.3225 H   0  0  0  0  0  0  0  0  0  0  0  0
  150.0723  135.5657  156.8188 H   0  0  0  0  0  0  0  0  0  0  0  0
  151.5349  135.8575  157.7590 H   0  0  0  0  0  0  0  0  0  0  0  0
  154.0200  139.1647  161.0508 H   0  0  0  0  0  0  0  0  0  0  0  0
  154.7622  141.5359  161.0453 H   0  0  0  0  0  0  0  0  0  0  0  0
  153.6247  143.2050  159.5954 H   0  0  0  0  0  0  0  0  0  0  0  0
  151.7290  142.5042  158.1367 H   0  0  0  0  0  0  0  0  0  0  0  0
  148.8947  139.9698  157.3590 H   0  0  0  0  0  0  0  0  0  0  0  0
  149.8821  141.3898  157.2107 H   0  0  0  0  0  0  0  0  0  0  0  0
  150.4359  138.8114  155.6551 H   0  0  0  0  0  0  0  0  0  0  0  0
  151.6632  141.1910  155.8745 H   0  0  0  0  0  0  0  0  0  0  0  0
  149.1761  142.3267  155.0269 H   0  0  0  0  0  0  0  0  0  0  0  0
  147.3085  142.8174  153.4697 H   0  0  0  0  0  0  0  0  0  0  0  0
  146.1633  140.9631  152.2687 H   0  0  0  0  0  0  0  0  0  0  0  0
  146.8942  138.6117  152.6266 H   0  0  0  0  0  0  0  0  0  0  0  0
  148.7621  138.1113  154.1798 H   0  0  0  0  0  0  0  0  0  0  0  0
  1  2  1  0  0  0  0
  1 25  1  0  0  0  0
  1 26  1  0  0  0  0
  1 27  1  0  0  0  0
  2  3  2  0  0  0  0
  2  4  1  0  0  0  0
  4  5  1  0  0  0  0
  4 28  1  0  0  0  0
  5  6  1  0  0  0  0
  5  7  1  0  0  0  0
  5 29  1  0  0  0  0
  6 30  1  0  0  0  0
  6 31  1  0  0  0  0
  6 32  1  0  0  0  0
  7 15  1  0  0  0  0
  7  8  2  0  0  0  0
  8  9  1  0  0  0  0
  9 14  2  0  0  0  0
  9 10  1  0  0  0  0
 10 11  2  0  0  0  0
 10 33  1  0  0  0  0
 11 12  1  0  0  0  0
 11 34  1  0  0  0  0
 12 13  2  0  0  0  0
 12 35  1  0  0  0  0
 13 14  1  0  0  0  0
 13 36  1  0  0  0  0
 14 15  1  0  0  0  0
 15 16  1  0  0  0  0
 16 17  1  0  0  0  0
 16 37  1  0  0  0  0
 16 38  1  0  0  0  0
 17 18  1  0  0  0  0
 17 19  1  0  0  0  0
 17 39  1  0  0  0  0
 18 40  1  0  0  0  0
 19 24  1  0  0  0  0
 19 20  2  0  0  0  0
 20 21  1  0  0  0  0
 20 41  1  0  0  0  0
 21 22  2  0  0  0  0
 21 42  1  0  0  0  0
 22 23  1  0  0  0  0
 22 43  1  0  0  0  0
 23 24  2  0  0  0  0
 23 44  1  0  0  0  0
 24 45  1  0  0  0  0
M  END
> <s_m_source_file>
AV-unprocessed.smi

> <i_m_source_file_index>
447

> <i_lp_mmshare_version>
43012

> <i_f3d_flags>
0

> <s_epik_input>
W0NIM11DKD1PKVtOSF1bQ0BIXShbQ0gzXSljKG4xKW4oYyhjMTIpW2NIXVtjSF1bY0hdW2NIXTIpW0NIMl1bQ0BIXShbT0hdKWMzW2NIXVtjSF1bY0hdW2NIXVtjSF0z

> <s_epik_cmdline>
J2VwaWtfcHl0aG9uJywgJy1waCcsICc3LjAnLCAnLXRuJywgJzgnLCAnLW1hJywgJzIwMCcsICctbWV0YWxfYmluZGluZycsICctaW1hZScsICc8aW5maWxlLm1hZT4nLCAnLW9tYWUnLCAnPG91dGZpbGUubWFlPic=

> <r_epik_Ionization_Penalty>
0.13301

> <r_epik_Ionization_Penalty_Charging>
0

> <r_epik_Ionization_Penalty_Neutral>
0.13301

> <r_epik_State_Penalty>
0.122384

> <r_epik_Charging_Adjusted_Penalty>
0.122384

> <i_epik_Tot_Q>
0

> <i_epik_Tot_abs_Q>
0

> <r_epik_Metal_State_Penalty>
0.0997374

> <b_epik_Metal_Only>
0

> <s_lp_Force_Field>
OPLS_2005

> <r_lp_Energy>
7.61604

> <b_lp_Chiralities_Consistent>
1

> <s_lp_Variant>
AV-unprocessed.smi:447-1

> <Gold.Version>
5.8.1

> <Gold.Id.Protein>
6NUR|6NUR_protein|mol2

> <Gold.PLP.Fitness>
44.8085

> <Gold.PLP.PLP>
-41.9951

> <Gold.PLP.part.hbond>
-2.0000

> <Gold.PLP.part.metal>
0.0000

> <Gold.PLP.part.buried>
-5.1375

> <Gold.PLP.part.nonpolar>
-35.6251

> <Gold.PLP.part.repulsive>
0.1879

> <Gold.PLP.ligand.clash>
0.0000

> <Gold.PLP.ligand.torsion>
0.7312

> <Gold.PLP.Chemscore.Hbond>
1.4080

> <Gold.PLP.Chemscore.CHOScore>
0.0000

> <Gold.PLP.Chemscore.Metal>
0.0000

> <Gold.Chemscore.Hbonds>
donor molecule, donor type, donor heavy atom, donor atom, acceptor molecule, acceptor atom, score
      P1  H  6934  6947       L1     3  0.53
      P1  H  7989  7998       L1    18  0.86

> <Gold.PLP.Chemscore.Internal.Correction>
0.0519

> <Gold.Rescore>
     Score         DG    S(hbond)    S(metal)    S(lipo)     H(rot)  DE(clash)    DE(int)     intcor
     16.13     -17.01       1.48        0.00     107.64       2.35       0.09       0.79       ----

> <Gold.Chemscore.Fitness>
16.1287

> <Gold.Chemscore.DG>
-17.0076

> <Gold.Chemscore.ZeroCoef>
-5.4800

> <Gold.Chemscore.Hbond>
1.4840

> <Gold.Chemscore.Metal>
0.0000

> <Gold.Chemscore.Lipo>
107.6418

> <Gold.Chemscore.Internal_Hbond>
0.0000

> <Gold.Chemscore.DEClash>
0.0923

> <Gold.Chemscore.DEInternal>
0.7866

> <Gold.Chemscore.Rot>
2.3528

> <Gold.Chemscore.Internal.Correction>
   9.000000E+99

> <Gold.Chemscore.Hbonds>
donor molecule, donor type, donor heavy atom, donor atom, acceptor molecule, acceptor atom, score
      P1  H  6934  6947       L1     3  0.31
      P1  H  7989  7998       L1    18  0.77

> <Gold.Chemscore.Hbond.Weighted>
-4.9566

> <Gold.Chemscore.Metal.Weighted>
-0.0000

> <Gold.Chemscore.Lipo.Weighted>
-12.5941

> <Gold.Chemscore.Internal_Hbond.Weighted>
0.0000

> <Gold.Chemscore.DEClash.Weighted>
0.0923

> <Gold.Chemscore.DEInternal.Weighted>
0.7866

> <Gold.Chemscore.Rot.Weighted>
6.0231

> <Gold.Chemscore.Internal.Correction.Weighted>
   9.000000E+99

> <Gold.Protein.RotatedTorsions>
[ 6907 6896 6895 6894 ] final   20.79 input  -60.11 | X-H torsion
[ 7974 7965 7964 7962 ] final   59.78 input  175.53 | X-H torsion
[ 8008 7997 7996 7995 ] final  119.67 input   59.86 | X-H torsion
[ 10167 10162 10161 10158 ] final -170.46 input  -65.29 | X-H torsion
[ 10718 10713 10712 10709 ] final   38.38 input   66.30 | X-H torsion
[ 10763 10752 10751 10750 ] final   34.79 input  -60.55 | X-H torsion
[ 11005 11000 10999 10996 ] final   30.29 input  -57.11 | X-H torsion

> <Gold.Protein.ActiveResidues>
 VAL166  LYS551  ARG553  GLY616  TRP617  ASP618  TYR619  PRO620  LYS621  CYS622 
 ASP623  PHE694  ASN695  SER759  ASP760  ASP761  ALA762  ILE779  LEU786  VAL792 
 PHE793  MET794  SER795  GLU796  ALA797  LYS798  CYS799  TRP800  GLU811  SER814 

> <Gold.Protein.RotatedAtoms>
  151.9018  135.0375  160.0506 H   0  0  0  0  0  0  0  0  0  0  0  0  # atno 6907 bound_to 6896
  152.2352  133.5086  159.5247 H   0  0  0  0  0  0  0  0  0  0  0  0  # atno 6908 bound_to 6896
  150.7037  134.1080  159.4032 H   0  0  0  0  0  0  0  0  0  0  0  0  # atno 6909 bound_to 6896
  145.9033  139.3598  143.0579 H   0  0  0  0  0  0  0  0  0  0  0  0  # atno 7974 bound_to 7965
  156.2607  140.2847  156.1029 H   0  0  0  0  0  0  0  0  0  0  0  0  # atno 8008 bound_to 7997
  155.1340  140.0394  157.2799 H   0  0  0  0  0  0  0  0  0  0  0  0  # atno 8009 bound_to 7997
  154.6578  140.2559  155.7148 H   0  0  0  0  0  0  0  0  0  0  0  0  # atno 8010 bound_to 7997
  139.5860  144.1316  152.1576 H   0  0  0  0  0  0  0  0  0  0  0  0  # atno 10167 bound_to 10162
  157.3581  130.7634  149.7027 H   0  0  0  0  0  0  0  0  0  0  0  0  # atno 10718 bound_to 10713
  153.0148  135.6351  154.1724 H   0  0  0  0  0  0  0  0  0  0  0  0  # atno 10763 bound_to 10752
  154.1463  135.2831  155.3149 H   0  0  0  0  0  0  0  0  0  0  0  0  # atno 10764 bound_to 10752
  154.6086  135.5563  153.7511 H   0  0  0  0  0  0  0  0  0  0  0  0  # atno 10765 bound_to 10752
  140.2959  134.2811  155.7765 H   0  0  0  0  0  0  0  0  0  0  0  0  # atno 11005 bound_to 11000
  145.8763  140.9390  143.0624 LP  0  0  0  0  0  0  0  0  0  0  0  0  # atno 17320 bound_to 7965
  144.6737  140.0721  143.7472 LP  0  0  0  0  0  0  0  0  0  0  0  0  # atno 17321 bound_to 7965
  140.0880  144.5645  150.7075 LP  0  0  0  0  0  0  0  0  0  0  0  0  # atno 17342 bound_to 10162
  140.7132  143.2522  151.4516 LP  0  0  0  0  0  0  0  0  0  0  0  0  # atno 17343 bound_to 10162
  155.9732  130.4121  150.4017 LP  0  0  0  0  0  0  0  0  0  0  0  0  # atno 17370 bound_to 10713
  157.2090  131.0456  151.2609 LP  0  0  0  0  0  0  0  0  0  0  0  0  # atno 17371 bound_to 10713
  141.2137  133.7615  156.9694 LP  0  0  0  0  0  0  0  0  0  0  0  0  # atno 17394 bound_to 11000
  140.1153  134.9451  157.2125 LP  0  0  0  0  0  0  0  0  0  0  0  0  # atno 17395 bound_to 11000

$$$$
