AV-unprocessed.smi:1703|AV-procd|sdf|6857|dock3
  -GOLD-   22720 8 43D 1   1.00000     0.00000
 Structure written by MMmdl.
 48 50  0  0  0  0  0  0  0  0  1 V2000
  147.1903  135.0766  162.2701 C   0  0  0  0  0  0  0  0  0  0  0  0
  147.2516  135.5665  160.8195 C   0  0  1  0  0  0  0  0  0  0  0  0
  148.6005  136.2294  160.4878 C   0  0  0  0  0  0  0  0  0  0  0  0
  148.6834  136.6219  159.0871 N   0  0  0  0  0  0  0  0  0  0  0  0
  149.9504  137.2938  158.8001 C   0  0  0  0  0  0  0  0  0  0  0  0
  149.8301  138.5789  157.9532 C   0  0  2  0  0  0  0  0  0  0  0  0
  148.8848  138.3660  156.9221 O   0  0  0  0  0  0  0  0  0  0  0  0
  151.1788  138.9797  157.3208 C   0  0  0  0  0  0  0  0  0  0  0  0
  151.3563  140.4236  157.2324 N   0  0  0  0  0  0  0  0  0  0  0  0
  150.9832  141.2497  156.2223 C   0  0  0  0  0  0  0  0  0  0  0  0
  150.2886  140.7237  154.9976 C   0  0  0  0  0  0  0  0  0  0  0  0
  149.8200  141.7314  154.1241 O   0  0  0  0  0  0  0  0  0  0  0  0
  151.2652  142.5425  156.4014 N   0  0  0  0  0  0  0  0  0  0  0  0
  151.8754  142.5550  157.6399 C   0  0  0  0  0  0  0  0  0  0  0  0
  152.4043  143.6283  158.3919 C   0  0  0  0  0  0  0  0  0  0  0  0
  152.9882  143.3958  159.6545 C   0  0  0  0  0  0  0  0  0  0  0  0
  153.0501  142.0900  160.1824 C   0  0  0  0  0  0  0  0  0  0  0  0
  152.5282  141.0066  159.4496 C   0  0  0  0  0  0  0  0  0  0  0  0
  151.9472  141.2437  158.1892 C   0  0  0  0  0  0  0  0  0  0  0  0
  148.4710  135.4439  158.2491 C   0  0  0  0  0  0  0  0  0  0  0  0
  147.1471  134.7196  158.5645 C   0  0  2  0  0  0  0  0  0  0  0  0
  145.9067  135.4672  158.0457 C   0  0  0  0  0  0  0  0  0  0  0  0
  147.0534  134.4433  159.9630 O   0  0  0  0  0  0  0  0  0  0  0  0
  147.3179  135.9037  162.9689 H   0  0  0  0  0  0  0  0  0  0  0  0
  147.9709  134.3426  162.4733 H   0  0  0  0  0  0  0  0  0  0  0  0
  146.2290  134.6084  162.4822 H   0  0  0  0  0  0  0  0  0  0  0  0
  146.4458  136.2850  160.6669 H   0  0  0  0  0  0  0  0  0  0  0  0
  148.7337  137.1051  161.1242 H   0  0  0  0  0  0  0  0  0  0  0  0
  149.4145  135.5431  160.7279 H   0  0  0  0  0  0  0  0  0  0  0  0
  150.3943  137.5732  159.7566 H   0  0  0  0  0  0  0  0  0  0  0  0
  150.6600  136.5987  158.3478 H   0  0  0  0  0  0  0  0  0  0  0  0
  149.4762  139.3986  158.5790 H   0  0  0  0  0  0  0  0  0  0  0  0
  148.4887  137.5175  157.0471 H   0  0  0  0  0  0  0  0  0  0  0  0
  152.0050  138.5633  157.8972 H   0  0  0  0  0  0  0  0  0  0  0  0
  151.2688  138.5554  156.3199 H   0  0  0  0  0  0  0  0  0  0  0  0
  150.9703  140.0820  154.4404 H   0  0  0  0  0  0  0  0  0  0  0  0
  149.4410  140.1110  155.3061 H   0  0  0  0  0  0  0  0  0  0  0  0
  149.6892  142.5237  154.6219 H   0  0  0  0  0  0  0  0  0  0  0  0
  152.3613  144.6322  157.9960 H   0  0  0  0  0  0  0  0  0  0  0  0
  153.3902  144.2235  160.2204 H   0  0  0  0  0  0  0  0  0  0  0  0
  153.4991  141.9201  161.1502 H   0  0  0  0  0  0  0  0  0  0  0  0
  152.5762  140.0057  159.8514 H   0  0  0  0  0  0  0  0  0  0  0  0
  148.4799  135.7196  157.1947 H   0  0  0  0  0  0  0  0  0  0  0  0
  149.2977  134.7462  158.3911 H   0  0  0  0  0  0  0  0  0  0  0  0
  147.1675  133.7522  158.0620 H   0  0  0  0  0  0  0  0  0  0  0  0
  145.9420  135.5689  156.9610 H   0  0  0  0  0  0  0  0  0  0  0  0
  145.8277  136.4707  158.4633 H   0  0  0  0  0  0  0  0  0  0  0  0
  144.9936  134.9275  158.2970 H   0  0  0  0  0  0  0  0  0  0  0  0
  1  2  1  0  0  0  0
  1 24  1  0  0  0  0
  1 25  1  0  0  0  0
  1 26  1  0  0  0  0
  2 23  1  0  0  0  0
  2  3  1  0  0  0  0
  2 27  1  0  0  0  0
  3  4  1  0  0  0  0
  3 28  1  0  0  0  0
  3 29  1  0  0  0  0
  4  5  1  0  0  0  0
  4 20  1  0  0  0  0
  5  6  1  0  0  0  0
  5 30  1  0  0  0  0
  5 31  1  0  0  0  0
  6  7  1  0  0  0  0
  6  8  1  0  0  0  0
  6 32  1  0  0  0  0
  7 33  1  0  0  0  0
  8  9  1  0  0  0  0
  8 34  1  0  0  0  0
  8 35  1  0  0  0  0
  9 19  1  0  0  0  0
  9 10  1  0  0  0  0
 10 11  1  0  0  0  0
 10 13  2  0  0  0  0
 11 12  1  0  0  0  0
 11 36  1  0  0  0  0
 11 37  1  0  0  0  0
 12 38  1  0  0  0  0
 13 14  1  0  0  0  0
 14 19  2  0  0  0  0
 14 15  1  0  0  0  0
 15 16  2  0  0  0  0
 15 39  1  0  0  0  0
 16 17  1  0  0  0  0
 16 40  1  0  0  0  0
 17 18  2  0  0  0  0
 17 41  1  0  0  0  0
 18 19  1  0  0  0  0
 18 42  1  0  0  0  0
 20 21  1  0  0  0  0
 20 43  1  0  0  0  0
 20 44  1  0  0  0  0
 21 22  1  0  0  0  0
 21 23  1  0  0  0  0
 21 45  1  0  0  0  0
 22 46  1  0  0  0  0
 22 47  1  0  0  0  0
 22 48  1  0  0  0  0
M  END
> <s_m_source_file>
AV-unprocessed.smi

> <i_m_source_file_index>
1703

> <i_lp_mmshare_version>
43012

> <i_f3d_flags>
0

> <s_epik_input>
W0NIM11bQ0BASF0xW0NIMl1OKFtDSDJdW0NASF0oTzEpW0NIM10pW0NIMl1bQ0BIXShbT0hdKVtDSDJdbihjKG4yKVtDSDJdW09IXSljKGMyMylbY0hdW2NIXVtjSF1bY0hdMw==

> <s_epik_cmdline>
J2VwaWtfcHl0aG9uJywgJy1waCcsICc3LjAnLCAnLXRuJywgJzgnLCAnLW1hJywgJzIwMCcsICctbWV0YWxfYmluZGluZycsICctaW1hZScsICc8aW5maWxlLm1hZT4nLCAnLW9tYWUnLCAnPG91dGZpbGUubWFlPic=

> <r_epik_Ionization_Penalty>
0.307685

> <r_epik_Ionization_Penalty_Charging>
0

> <r_epik_Ionization_Penalty_Neutral>
0.307685

> <r_epik_State_Penalty>
0.277856

> <r_epik_Charging_Adjusted_Penalty>
0.277856

> <i_epik_Tot_Q>
0

> <i_epik_Tot_abs_Q>
0

> <r_epik_Metal_State_Penalty>
0.238959

> <b_epik_Metal_Only>
0

> <s_lp_Force_Field>
OPLS_2005

> <r_lp_Energy>
32.6891

> <b_lp_Chiralities_Consistent>
1

> <s_lp_Variant>
AV-unprocessed.smi:1703-5

> <Gold.Version>
5.8.1

> <Gold.Id.Protein>
6NUR|6NUR_protein|mol2

> <Gold.PLP.Fitness>
42.0203

> <Gold.PLP.PLP>
-41.4544

> <Gold.PLP.part.hbond>
-2.4039

> <Gold.PLP.part.metal>
0.0000

> <Gold.PLP.part.buried>
-4.7457

> <Gold.PLP.part.nonpolar>
-35.3984

> <Gold.PLP.part.repulsive>
1.7597

> <Gold.PLP.ligand.clash>
0.0000

> <Gold.PLP.ligand.torsion>
1.6707

> <Gold.PLP.Chemscore.Hbond>
1.2293

> <Gold.PLP.Chemscore.CHOScore>
0.0000

> <Gold.PLP.Chemscore.Metal>
0.0000

> <Gold.Chemscore.Hbonds>
donor molecule, donor type, donor heavy atom, donor atom, acceptor molecule, acceptor atom, score
      P1  H  8011  8017       L1    12  0.48

> <Gold.PLP.Chemscore.Internal.Correction>
0.2194

> <Gold.Rescore>
     Score         DG    S(hbond)    S(metal)    S(lipo)     H(rot)  DE(clash)    DE(int)     intcor
     12.43     -14.25       0.96        0.00     110.49       2.88       0.04       1.78       ----

> <Gold.Chemscore.Fitness>
12.4306

> <Gold.Chemscore.DG>
-14.2537

> <Gold.Chemscore.ZeroCoef>
-5.4800

> <Gold.Chemscore.Hbond>
0.9621

> <Gold.Chemscore.Metal>
0.0000

> <Gold.Chemscore.Lipo>
110.4891

> <Gold.Chemscore.Internal_Hbond>
0.0000

> <Gold.Chemscore.DEClash>
0.0383

> <Gold.Chemscore.DEInternal>
1.7848

> <Gold.Chemscore.Rot>
2.8778

> <Gold.Chemscore.Internal.Correction>
   9.000000E+99

> <Gold.Chemscore.Hbonds>
donor molecule, donor type, donor heavy atom, donor atom, acceptor molecule, acceptor atom, score
      P1  H  8011  8017       L1    12  0.12

> <Gold.Chemscore.Hbond.Weighted>
-3.2135

> <Gold.Chemscore.Metal.Weighted>
-0.0000

> <Gold.Chemscore.Lipo.Weighted>
-12.9272

> <Gold.Chemscore.Internal_Hbond.Weighted>
0.0000

> <Gold.Chemscore.DEClash.Weighted>
0.0383

> <Gold.Chemscore.DEInternal.Weighted>
1.7848

> <Gold.Chemscore.Rot.Weighted>
7.3671

> <Gold.Chemscore.Internal.Correction.Weighted>
   9.000000E+99

> <Gold.Protein.RotatedTorsions>
[ 6907 6896 6895 6894 ] final   61.55 input  -60.11 | X-H torsion
[ 7974 7965 7964 7962 ] final -170.58 input  175.53 | X-H torsion
[ 8008 7997 7996 7995 ] final   27.49 input   59.86 | X-H torsion
[ 10167 10162 10161 10158 ] final -127.25 input  -65.29 | X-H torsion
[ 10718 10713 10712 10709 ] final  143.32 input   66.30 | X-H torsion
[ 10763 10752 10751 10750 ] final -129.62 input  -60.55 | X-H torsion
[ 11005 11000 10999 10996 ] final  -45.99 input  -57.11 | X-H torsion

> <Gold.Protein.ActiveResidues>
 VAL166  LYS551  ARG553  GLY616  TRP617  ASP618  TYR619  PRO620  LYS621  CYS622 
 ASP623  PHE694  ASN695  SER759  ASP760  ASP761  ALA762  ILE779  LEU786  VAL792 
 PHE793  MET794  SER795  GLU796  ALA797  LYS798  CYS799  TRP800  GLU811  SER814 

> <Gold.Protein.RotatedAtoms>
  152.4098  134.6143  160.0033 H   0  0  0  0  0  0  0  0  0  0  0  0  # atno 6907 bound_to 6896
  151.6324  133.3325  159.3120 H   0  0  0  0  0  0  0  0  0  0  0  0  # atno 6908 bound_to 6896
  150.7990  134.7111  159.6649 H   0  0  0  0  0  0  0  0  0  0  0  0  # atno 6909 bound_to 6896
  144.7168  140.2050  143.6334 H   0  0  0  0  0  0  0  0  0  0  0  0  # atno 7974 bound_to 7965
  155.0438  140.3172  155.4715 H   0  0  0  0  0  0  0  0  0  0  0  0  # atno 8008 bound_to 7997
  156.2849  140.2158  156.5506 H   0  0  0  0  0  0  0  0  0  0  0  0  # atno 8009 bound_to 7997
  154.7267  140.0485  157.0677 H   0  0  0  0  0  0  0  0  0  0  0  0  # atno 8010 bound_to 7997
  139.9628  143.5931  152.2439 H   0  0  0  0  0  0  0  0  0  0  0  0  # atno 10167 bound_to 10162
  157.3703  131.0978  151.0834 H   0  0  0  0  0  0  0  0  0  0  0  0  # atno 10718 bound_to 10713
  154.8757  135.3889  154.3950 H   0  0  0  0  0  0  0  0  0  0  0  0  # atno 10763 bound_to 10752
  153.4681  135.7029  153.6015 H   0  0  0  0  0  0  0  0  0  0  0  0  # atno 10764 bound_to 10752
  153.4484  135.3839  155.2237 H   0  0  0  0  0  0  0  0  0  0  0  0  # atno 10765 bound_to 10752
  141.0551  133.6729  156.3091 H   0  0  0  0  0  0  0  0  0  0  0  0  # atno 11005 bound_to 11000
  145.8644  139.2239  143.1697 LP  0  0  0  0  0  0  0  0  0  0  0  0  # atno 17320 bound_to 7965
  146.0143  140.8407  142.9955 LP  0  0  0  0  0  0  0  0  0  0  0  0  # atno 17321 bound_to 7965
  139.6541  144.7661  151.2091 LP  0  0  0  0  0  0  0  0  0  0  0  0  # atno 17342 bound_to 10162
  140.7547  143.6114  150.8601 LP  0  0  0  0  0  0  0  0  0  0  0  0  # atno 17343 bound_to 10162
  157.1941  130.6365  149.5715 LP  0  0  0  0  0  0  0  0  0  0  0  0  # atno 17370 bound_to 10713
  155.9754  130.4712  150.6458 LP  0  0  0  0  0  0  0  0  0  0  0  0  # atno 17371 bound_to 10713
  140.5980  134.5583  157.5512 LP  0  0  0  0  0  0  0  0  0  0  0  0  # atno 17394 bound_to 11000
  139.9383  134.7834  156.0745 LP  0  0  0  0  0  0  0  0  0  0  0  0  # atno 17395 bound_to 11000

$$$$
