AV-unprocessed.smi:1738|AV-procd|sdf|7000|dock2
  -GOLD-   22720 8213D 1   1.00000     0.00000
 Structure written by MMmdl.
 46 48  0  0  0  0  0  0  0  0  2 V2000
  152.9437  139.1667  158.3222 C   0  0  0  0  0  0  0  0  0  0  0  0
  152.9361  137.3282  158.2746 S   0  0  0  0  0  0  0  0  0  0  0  0
  154.1705  136.8785  157.6125 O   0  0  0  0  0  0  0  0  0  0  0  0
  152.6192  136.8432  159.6271 O   0  0  0  0  0  0  0  0  0  0  0  0
  151.5605  136.9366  157.1997 C   0  0  0  0  0  0  0  0  0  0  0  0
  150.2506  136.8636  157.7138 C   0  0  0  0  0  0  0  0  0  0  0  0
  149.1987  136.5952  156.8172 C   0  0  0  0  0  0  0  0  0  0  0  0
  149.4962  136.4248  155.4417 C   0  0  0  0  0  0  0  0  0  0  0  0
  148.5377  136.1506  154.4266 N   0  0  0  0  0  0  0  0  0  0  0  0
  147.3222  135.5855  154.5279 C   0  0  0  0  0  0  0  0  0  0  0  0
  146.8138  135.1539  155.5613 O   0  0  0  0  0  0  0  0  0  0  0  0
  146.7109  135.5424  153.3351 N   0  0  0  0  0  0  0  0  0  0  0  0
  145.3693  135.0130  153.0947 C   0  0  1  0  0  0  0  0  0  0  0  0
  144.6405  135.7152  151.9335 C   0  0  0  0  0  0  0  0  0  0  0  0
  143.8980  134.5880  151.2088 C   0  0  0  0  0  0  0  0  0  0  0  0
  144.8061  133.4463  151.3679 N   0  3  2  0  0  0  0  0  0  0  0  0
  144.3250  132.0993  151.0010 C   0  0  0  0  0  0  0  0  0  0  0  0
  145.5185  131.1220  151.0709 C   0  0  0  0  0  0  0  0  0  0  0  0
  146.2578  131.1938  152.4267 C   0  0  0  0  0  0  0  0  0  0  0  0
  146.6122  132.6461  152.8146 C   0  0  0  0  0  0  0  0  0  0  0  0
  145.3388  133.5074  152.7397 C   0  0  1  0  0  0  0  0  0  0  0  0
  150.8472  136.5260  155.0447 C   0  0  0  0  0  0  0  0  0  0  0  0
  151.8635  136.7839  155.8936 N   0  0  0  0  0  0  0  0  0  0  0  0
  153.7523  139.5096  158.9672 H   0  0  0  0  0  0  0  0  0  0  0  0
  151.9910  139.5246  158.7120 H   0  0  0  0  0  0  0  0  0  0  0  0
  153.0933  139.5562  157.3154 H   0  0  0  0  0  0  0  0  0  0  0  0
  150.0509  137.0057  158.7655 H   0  0  0  0  0  0  0  0  0  0  0  0
  148.1973  136.5262  157.2100 H   0  0  0  0  0  0  0  0  0  0  0  0
  148.7981  136.4649  153.5031 H   0  0  0  0  0  0  0  0  0  0  0  0
  147.2032  135.9174  152.5374 H   0  0  0  0  0  0  0  0  0  0  0  0
  144.7675  135.1604  153.9940 H   0  0  0  0  0  0  0  0  0  0  0  0
  143.9705  136.5056  152.2734 H   0  0  0  0  0  0  0  0  0  0  0  0
  145.3620  136.1665  151.2506 H   0  0  0  0  0  0  0  0  0  0  0  0
  142.9471  134.3747  151.6997 H   0  0  0  0  0  0  0  0  0  0  0  0
  143.7052  134.8157  150.1602 H   0  0  0  0  0  0  0  0  0  0  0  0
  143.5250  131.7888  151.6745 H   0  0  0  0  0  0  0  0  0  0  0  0
  143.9117  132.1168  149.9921 H   0  0  0  0  0  0  0  0  0  0  0  0
  145.1794  130.1028  150.8833 H   0  0  0  0  0  0  0  0  0  0  0  0
  146.2214  131.3613  150.2719 H   0  0  0  0  0  0  0  0  0  0  0  0
  145.6250  130.7598  153.2019 H   0  0  0  0  0  0  0  0  0  0  0  0
  147.1615  130.5847  152.3928 H   0  0  0  0  0  0  0  0  0  0  0  0
  147.0315  132.6662  153.8207 H   0  0  0  0  0  0  0  0  0  0  0  0
  147.3763  133.0372  152.1418 H   0  0  0  0  0  0  0  0  0  0  0  0
  144.5949  133.0563  153.4003 H   0  0  0  0  0  0  0  0  0  0  0  0
  151.1230  136.4018  154.0077 H   0  0  0  0  0  0  0  0  0  0  0  0
  145.5881  133.6433  150.7599 H   0  0  0  0  0  0  0  0  0  0  0  0
  1  2  1  0  0  0  0
  1 24  1  0  0  0  0
  1 25  1  0  0  0  0
  1 26  1  0  0  0  0
  2  3  2  0  0  0  0
  2  4  2  0  0  0  0
  2  5  1  0  0  0  0
  5 23  1  0  0  0  0
  5  6  2  0  0  0  0
  6  7  1  0  0  0  0
  6 27  1  0  0  0  0
  7  8  2  0  0  0  0
  7 28  1  0  0  0  0
  8  9  1  0  0  0  0
  8 22  1  0  0  0  0
  9 10  1  0  0  0  0
  9 29  1  0  0  0  0
 10 11  2  0  0  0  0
 10 12  1  0  0  0  0
 12 13  1  0  0  0  0
 12 30  1  0  0  0  0
 13 21  1  0  0  0  0
 13 14  1  0  0  0  0
 13 31  1  0  0  0  0
 14 15  1  0  0  0  0
 14 32  1  0  0  0  0
 14 33  1  0  0  0  0
 15 16  1  0  0  0  0
 15 34  1  0  0  0  0
 15 35  1  0  0  0  0
 16 21  1  0  0  0  0
 16 17  1  0  0  0  0
 16 46  1  0  0  0  0
 17 18  1  0  0  0  0
 17 36  1  0  0  0  0
 17 37  1  0  0  0  0
 18 19  1  0  0  0  0
 18 38  1  0  0  0  0
 18 39  1  0  0  0  0
 19 20  1  0  0  0  0
 19 40  1  0  0  0  0
 19 41  1  0  0  0  0
 20 21  1  0  0  0  0
 20 42  1  0  0  0  0
 20 43  1  0  0  0  0
 21 44  1  0  0  0  0
 22 23  2  0  0  0  0
 22 45  1  0  0  0  0
M  CHG  1  16   1
M  END
> <s_m_source_file>
AV-unprocessed.smi

> <i_m_source_file_index>
1738

> <i_lp_mmshare_version>
43012

> <i_f3d_flags>
0

> <s_epik_input>
W0NIM11TKD1PKSg9TyljMVtjSF1bY0hdYyhbY0hdbjEpW05IXUMoPU8pW05IXVtDQEhdKFtDSDJdW0NIMl0yKVtDQEBIXShOMjMpW0NIMl1bQ0gyXVtDSDJdW0NIMl0z

> <s_epik_cmdline>
J2VwaWtfcHl0aG9uJywgJy1waCcsICc3LjAnLCAnLXRuJywgJzgnLCAnLW1hJywgJzIwMCcsICctbWV0YWxfYmluZGluZycsICctaW1hZScsICc8aW5maWxlLm1hZT4nLCAnLW9tYWUnLCAnPG91dGZpbGUubWFlPic=

> <r_epik_Ionization_Penalty>
0.00100042

> <r_epik_Ionization_Penalty_Charging>
0.000974069

> <r_epik_Ionization_Penalty_Neutral>
2.63543e-05

> <r_epik_State_Penalty>
0.000633842

> <r_epik_Charging_Adjusted_Penalty>
0.00160791

> <i_epik_Tot_Q>
1

> <i_epik_Tot_abs_Q>
1

> <r_epik_Metal_State_Penalty>
-0

> <b_epik_Metal_Only>
0

> <s_lp_Force_Field>
OPLS_2005

> <r_lp_Energy>
43.1339

> <b_lp_Chiralities_Consistent>
1

> <s_lp_Variant>
AV-unprocessed.smi:1738-4

> <Gold.Version>
5.8.1

> <Gold.Id.Protein>
6NUR|6NUR_protein|mol2

> <Gold.PLP.Fitness>
39.1045

> <Gold.PLP.PLP>
-25.5816

> <Gold.PLP.part.hbond>
-4.0000

> <Gold.PLP.part.metal>
0.0000

> <Gold.PLP.part.buried>
-4.1590

> <Gold.PLP.part.nonpolar>
-17.2681

> <Gold.PLP.part.repulsive>
0.0561

> <Gold.PLP.ligand.clash>
0.0000

> <Gold.PLP.ligand.torsion>
1.5090

> <Gold.PLP.Chemscore.Hbond>
3.8400

> <Gold.PLP.Chemscore.CHOScore>
1.0000

> <Gold.PLP.Chemscore.Metal>
0.0000

> <Gold.Chemscore.Hbonds>
donor molecule, donor type, donor heavy atom, donor atom, acceptor molecule, acceptor atom, score
      L1  H     9    29       P1  7948  1.00
      L1  H    12    30       P1  7948  0.86
      P1  H  6896  6907       L1     4  1.00
      P1  H 10752 10763       L1    23  0.86
      L1  C    22    45       P1  7949  0.96

> <Gold.PLP.Chemscore.Internal.Correction>
2.0207

> <Gold.Rescore>
     Score         DG    S(hbond)    S(metal)    S(lipo)     H(rot)  DE(clash)    DE(int)     intcor
     19.50     -21.37       3.37        0.00      61.41       1.00       0.29       1.59       ----

> <Gold.Chemscore.Fitness>
19.4992

> <Gold.Chemscore.DG>
-21.3749

> <Gold.Chemscore.ZeroCoef>
-5.4800

> <Gold.Chemscore.Hbond>
3.3741

> <Gold.Chemscore.Metal>
0.0000

> <Gold.Chemscore.Lipo>
61.4136

> <Gold.Chemscore.Internal_Hbond>
0.0000

> <Gold.Chemscore.DEClash>
0.2890

> <Gold.Chemscore.DEInternal>
1.5867

> <Gold.Chemscore.Rot>
1.0000

> <Gold.Chemscore.Internal.Correction>
   9.000000E+99

> <Gold.Chemscore.Hbonds>
donor molecule, donor type, donor heavy atom, donor atom, acceptor molecule, acceptor atom, score
      L1  H     9    29       P1  7948  0.96
      L1  H    12    30       P1  7948  0.85
      P1  H  6896  6907       L1     4  0.94
      P1  H 10752 10763       L1    23  0.15

> <Gold.Chemscore.Hbond.Weighted>
-11.2695

> <Gold.Chemscore.Metal.Weighted>
-0.0000

> <Gold.Chemscore.Lipo.Weighted>
-7.1854

> <Gold.Chemscore.Internal_Hbond.Weighted>
0.0000

> <Gold.Chemscore.DEClash.Weighted>
0.2890

> <Gold.Chemscore.DEInternal.Weighted>
1.5867

> <Gold.Chemscore.Rot.Weighted>
2.5600

> <Gold.Chemscore.Internal.Correction.Weighted>
   9.000000E+99

> <Gold.Protein.RotatedTorsions>
[ 6907 6896 6895 6894 ] final   36.59 input  -60.11 | X-H torsion
[ 7974 7965 7964 7962 ] final  -89.06 input  175.53 | X-H torsion
[ 8008 7997 7996 7995 ] final   16.66 input   59.86 | X-H torsion
[ 10167 10162 10161 10158 ] final  166.55 input  -65.29 | X-H torsion
[ 10718 10713 10712 10709 ] final -103.10 input   66.30 | X-H torsion
[ 10763 10752 10751 10750 ] final   96.44 input  -60.55 | X-H torsion
[ 11005 11000 10999 10996 ] final  143.73 input  -57.11 | X-H torsion

> <Gold.Protein.ActiveResidues>
 VAL166  LYS551  ARG553  GLY616  TRP617  ASP618  TYR619  PRO620  LYS621  CYS622 
 ASP623  PHE694  ASN695  SER759  ASP760  ASP761  ALA762  ILE779  LEU786  VAL792 
 PHE793  MET794  SER795  GLU796  ALA797  LYS798  CYS799  TRP800  GLU811  SER814 

> <Gold.Protein.RotatedAtoms>
  152.1317  134.9129  160.0558 H   0  0  0  0  0  0  0  0  0  0  0  0  # atno 6907 bound_to 6896
  152.0231  133.3902  159.4274 H   0  0  0  0  0  0  0  0  0  0  0  0  # atno 6908 bound_to 6896
  150.6857  134.3525  159.4959 H   0  0  0  0  0  0  0  0  0  0  0  0  # atno 6909 bound_to 6896
  145.4449  140.9560  143.2055 H   0  0  0  0  0  0  0  0  0  0  0  0  # atno 7974 bound_to 7965
  154.8802  140.2972  155.5430 H   0  0  0  0  0  0  0  0  0  0  0  0  # atno 8008 bound_to 7997
  156.3022  140.2444  156.3737 H   0  0  0  0  0  0  0  0  0  0  0  0  # atno 8009 bound_to 7997
  154.8725  140.0401  157.1722 H   0  0  0  0  0  0  0  0  0  0  0  0  # atno 8010 bound_to 7997
  139.4927  144.4015  151.9404 H   0  0  0  0  0  0  0  0  0  0  0  0  # atno 10167 bound_to 10162
  156.0252  130.5451  150.7203 H   0  0  0  0  0  0  0  0  0  0  0  0  # atno 10718 bound_to 10713
  153.2650  135.4218  155.0932 H   0  0  0  0  0  0  0  0  0  0  0  0  # atno 10763 bound_to 10752
  154.8435  135.3458  154.6324 H   0  0  0  0  0  0  0  0  0  0  0  0  # atno 10764 bound_to 10752
  153.6744  135.7042  153.5194 H   0  0  0  0  0  0  0  0  0  0  0  0  # atno 10765 bound_to 10752
  140.0577  134.9221  157.1129 H   0  0  0  0  0  0  0  0  0  0  0  0  # atno 11005 bound_to 11000
  144.8098  139.5983  143.7034 LP  0  0  0  0  0  0  0  0  0  0  0  0  # atno 17320 bound_to 7965
  146.2536  139.6254  142.9410 LP  0  0  0  0  0  0  0  0  0  0  0  0  # atno 17321 bound_to 7965
  140.3454  144.3153  150.5959 LP  0  0  0  0  0  0  0  0  0  0  0  0  # atno 17342 bound_to 10162
  140.5530  143.2203  151.7895 LP  0  0  0  0  0  0  0  0  0  0  0  0  # atno 17343 bound_to 10162
  157.4821  131.0903  151.0525 LP  0  0  0  0  0  0  0  0  0  0  0  0  # atno 17370 bound_to 10713
  157.0955  130.5960  149.5449 LP  0  0  0  0  0  0  0  0  0  0  0  0  # atno 17371 bound_to 10713
  140.3818  134.2278  155.7170 LP  0  0  0  0  0  0  0  0  0  0  0  0  # atno 17394 bound_to 11000
  141.1959  133.8094  157.0694 LP  0  0  0  0  0  0  0  0  0  0  0  0  # atno 17395 bound_to 11000

$$$$
