AV-unprocessed.smi:3247|AV-procd|sdf|12412|dock8
  -GOLD-   2272018293D 1   1.00000     0.00000
 Structure written by MMmdl.
 35 36  0  0  0  0  0  0  0  0  1 V2000
  150.5288  140.1708  155.0431 O   0  0  0  0  0  0  0  0  0  0  0  0
  150.2616  141.1898  155.6796 C   0  0  0  0  0  0  0  0  0  0  0  0
  151.1821  141.6528  156.8064 C   0  0  0  0  0  0  0  0  0  0  0  0
  150.7112  142.8993  157.2984 O   0  0  0  0  0  0  0  0  0  0  0  0
  151.5824  143.5087  158.2398 C   0  0  0  0  0  0  0  0  0  0  0  0
  151.7731  142.6019  159.4540 C   0  0  0  0  0  0  0  0  0  0  0  0
  152.2534  143.5407  160.5648 C   0  0  0  0  0  0  0  0  0  0  0  0
  151.7112  144.9345  160.2094 C   0  0  0  0  0  0  0  0  0  0  0  0
  151.0155  144.7947  158.8494 C   0  0  0  0  0  0  0  0  0  0  0  0
  149.1730  141.9408  155.4522 N   0  0  0  0  0  0  0  0  0  0  0  0
  148.1657  141.6750  154.4317 C   0  0  0  0  0  0  0  0  0  0  0  0
  147.1028  140.6788  154.9250 C   0  0  0  0  0  0  0  0  0  0  0  0
  146.7844  139.6358  153.8970 C   0  0  0  0  0  0  0  0  0  0  0  0
  147.2210  139.6042  152.5942 C   0  0  0  0  0  0  0  0  0  0  0  0
  146.6113  138.2163  151.7323 S   0  0  0  0  0  0  0  0  0  0  0  0
  145.7763  137.7326  153.1987 C   0  0  0  0  0  0  0  0  0  0  0  0
  145.9554  138.5586  154.2301 N   0  0  0  0  0  0  0  0  0  0  0  0
  151.1831  140.9022  157.5983 H   0  0  0  0  0  0  0  0  0  0  0  0
  152.2021  141.7437  156.4304 H   0  0  0  0  0  0  0  0  0  0  0  0
  152.5574  143.7051  157.7897 H   0  0  0  0  0  0  0  0  0  0  0  0
  150.8156  142.1635  159.7396 H   0  0  0  0  0  0  0  0  0  0  0  0
  152.4680  141.7838  159.2634 H   0  0  0  0  0  0  0  0  0  0  0  0
  151.9179  143.2068  161.5471 H   0  0  0  0  0  0  0  0  0  0  0  0
  153.3436  143.5659  160.5836 H   0  0  0  0  0  0  0  0  0  0  0  0
  151.0183  145.3036  160.9662 H   0  0  0  0  0  0  0  0  0  0  0  0
  152.5342  145.6477  160.1456 H   0  0  0  0  0  0  0  0  0  0  0  0
  151.1690  145.6663  158.2125 H   0  0  0  0  0  0  0  0  0  0  0  0
  149.9412  144.6837  159.0036 H   0  0  0  0  0  0  0  0  0  0  0  0
  149.0387  142.7620  156.0243 H   0  0  0  0  0  0  0  0  0  0  0  0
  147.6945  142.6235  154.1725 H   0  0  0  0  0  0  0  0  0  0  0  0
  148.6429  141.3058  153.5223 H   0  0  0  0  0  0  0  0  0  0  0  0
  147.4469  140.1979  155.8413 H   0  0  0  0  0  0  0  0  0  0  0  0
  146.1952  141.2198  155.1964 H   0  0  0  0  0  0  0  0  0  0  0  0
  147.8616  140.3130  152.0905 H   0  0  0  0  0  0  0  0  0  0  0  0
  145.1606  136.8509  153.2993 H   0  0  0  0  0  0  0  0  0  0  0  0
  1  2  2  0  0  0  0
  2  3  1  0  0  0  0
  2 10  1  0  0  0  0
  3  4  1  0  0  0  0
  3 18  1  0  0  0  0
  3 19  1  0  0  0  0
  4  5  1  0  0  0  0
  5  9  1  0  0  0  0
  5  6  1  0  0  0  0
  5 20  1  0  0  0  0
  6  7  1  0  0  0  0
  6 21  1  0  0  0  0
  6 22  1  0  0  0  0
  7  8  1  0  0  0  0
  7 23  1  0  0  0  0
  7 24  1  0  0  0  0
  8  9  1  0  0  0  0
  8 25  1  0  0  0  0
  8 26  1  0  0  0  0
  9 27  1  0  0  0  0
  9 28  1  0  0  0  0
 10 11  1  0  0  0  0
 10 29  1  0  0  0  0
 11 12  1  0  0  0  0
 11 30  1  0  0  0  0
 11 31  1  0  0  0  0
 12 13  1  0  0  0  0
 12 32  1  0  0  0  0
 12 33  1  0  0  0  0
 13 17  1  0  0  0  0
 13 14  2  0  0  0  0
 14 15  1  0  0  0  0
 14 34  1  0  0  0  0
 15 16  1  0  0  0  0
 16 17  2  0  0  0  0
 16 35  1  0  0  0  0
M  END
> <s_m_source_file>
AV-unprocessed.smi

> <i_m_source_file_index>
3247

> <i_lp_mmshare_version>
43012

> <i_f3d_flags>
0

> <s_epik_input>
W0NIMl0xW0NIMl1bQ0gyXVtDSDJdW0NIXTFPW0NIMl1DKD1PKVtOSF1bQ0gyXVtDSDJdYzJbY0hdc1tjSF1uMg==

> <s_epik_cmdline>
J2VwaWtfcHl0aG9uJywgJy1waCcsICc3LjAnLCAnLXRuJywgJzgnLCAnLW1hJywgJzIwMCcsICctbWV0YWxfYmluZGluZycsICctaW1hZScsICc8aW5maWxlLm1hZT4nLCAnLW9tYWUnLCAnPG91dGZpbGUubWFlPic=

> <r_lp_tautomer_probability>
1

> <r_epik_Ionization_Penalty>
0.00018119

> <r_epik_Ionization_Penalty_Charging>
0

> <r_epik_Ionization_Penalty_Neutral>
0.00018119

> <r_epik_State_Penalty>
-0

> <r_epik_Charging_Adjusted_Penalty>
0

> <i_epik_Tot_Q>
0

> <i_epik_Tot_abs_Q>
0

> <r_epik_Metal_State_Penalty>
-0

> <b_epik_Metal_Only>
0

> <s_lp_Force_Field>
OPLS_2005

> <r_lp_Energy>
17.1434

> <b_lp_Chiralities_Consistent>
1

> <s_lp_Variant>
AV-unprocessed.smi:3247-1

> <Gold.Version>
5.8.1

> <Gold.Id.Protein>
6NUR|6NUR_protein|mol2

> <Gold.PLP.Fitness>
43.3997

> <Gold.PLP.PLP>
-36.3845

> <Gold.PLP.part.hbond>
-2.0000

> <Gold.PLP.part.metal>
0.0000

> <Gold.PLP.part.buried>
-3.0588

> <Gold.PLP.part.nonpolar>
-32.8979

> <Gold.PLP.part.repulsive>
0.8843

> <Gold.PLP.ligand.clash>
0.0000

> <Gold.PLP.ligand.torsion>
0.5920

> <Gold.PLP.Chemscore.Hbond>
1.7200

> <Gold.PLP.Chemscore.CHOScore>
1.0000

> <Gold.PLP.Chemscore.Metal>
0.0000

> <Gold.Chemscore.Hbonds>
donor molecule, donor type, donor heavy atom, donor atom, acceptor molecule, acceptor atom, score
      L1  H    10    29       P1  8028  0.69
      P1  H  7989  7998       L1     1  1.00
      L1  C    14    34       P1  7957  0.86

> <Gold.PLP.Chemscore.Internal.Correction>
0.0391

> <Gold.Rescore>
     Score         DG    S(hbond)    S(metal)    S(lipo)     H(rot)  DE(clash)    DE(int)     intcor
     15.19     -16.02       1.10        0.00      97.63       1.78       0.24       0.59       ----

> <Gold.Chemscore.Fitness>
15.1898

> <Gold.Chemscore.DG>
-16.0235

> <Gold.Chemscore.ZeroCoef>
-5.4800

> <Gold.Chemscore.Hbond>
1.1030

> <Gold.Chemscore.Metal>
0.0000

> <Gold.Chemscore.Lipo>
97.6279

> <Gold.Chemscore.Internal_Hbond>
0.0000

> <Gold.Chemscore.DEClash>
0.2418

> <Gold.Chemscore.DEInternal>
0.5918

> <Gold.Chemscore.Rot>
1.7824

> <Gold.Chemscore.Internal.Correction>
   9.000000E+99

> <Gold.Chemscore.Hbonds>
donor molecule, donor type, donor heavy atom, donor atom, acceptor molecule, acceptor atom, score
      L1  H    10    29       P1  8028  0.68
      P1  H  7989  7998       L1     1  0.37

> <Gold.Chemscore.Hbond.Weighted>
-3.6839

> <Gold.Chemscore.Metal.Weighted>
-0.0000

> <Gold.Chemscore.Lipo.Weighted>
-11.4225

> <Gold.Chemscore.Internal_Hbond.Weighted>
0.0000

> <Gold.Chemscore.DEClash.Weighted>
0.2418

> <Gold.Chemscore.DEInternal.Weighted>
0.5918

> <Gold.Chemscore.Rot.Weighted>
4.5629

> <Gold.Chemscore.Internal.Correction.Weighted>
   9.000000E+99

> <Gold.Protein.RotatedTorsions>
[ 6907 6896 6895 6894 ] final  -82.18 input  -60.11 | X-H torsion
[ 7974 7965 7964 7962 ] final  122.45 input  175.53 | X-H torsion
[ 8008 7997 7996 7995 ] final -108.21 input   59.86 | X-H torsion
[ 10167 10162 10161 10158 ] final   74.54 input  -65.29 | X-H torsion
[ 10718 10713 10712 10709 ] final  163.25 input   66.30 | X-H torsion
[ 10763 10752 10751 10750 ] final  -29.25 input  -60.55 | X-H torsion
[ 11005 11000 10999 10996 ] final -120.25 input  -57.11 | X-H torsion

> <Gold.Protein.ActiveResidues>
 VAL166  LYS551  ARG553  GLY616  TRP617  ASP618  TYR619  PRO620  LYS621  CYS622 
 ASP623  PHE694  ASN695  SER759  ASP760  ASP761  ALA762  ILE779  LEU786  VAL792 
 PHE793  MET794  SER795  GLU796  ALA797  LYS798  CYS799  TRP800  GLU811  SER814 

> <Gold.Protein.RotatedAtoms>
  150.6901  134.3705  159.4989 H   0  0  0  0  0  0  0  0  0  0  0  0  # atno 6907 bound_to 6896
  152.1521  134.8977  160.0556 H   0  0  0  0  0  0  0  0  0  0  0  0  # atno 6908 bound_to 6896
  152.0071  133.3812  159.4241 H   0  0  0  0  0  0  0  0  0  0  0  0  # atno 6909 bound_to 6896
  145.1074  139.3476  143.4781 H   0  0  0  0  0  0  0  0  0  0  0  0  # atno 7974 bound_to 7965
  154.9409  140.0403  157.2096 H   0  0  0  0  0  0  0  0  0  0  0  0  # atno 8008 bound_to 7997
  154.8070  140.2861  155.5858 H   0  0  0  0  0  0  0  0  0  0  0  0  # atno 8009 bound_to 7997
  156.2967  140.2544  156.2950 H   0  0  0  0  0  0  0  0  0  0  0  0  # atno 8010 bound_to 7997
  140.0126  144.5602  150.7646 H   0  0  0  0  0  0  0  0  0  0  0  0  # atno 10167 bound_to 10162
  157.1111  131.0468  151.2456 H   0  0  0  0  0  0  0  0  0  0  0  0  # atno 10718 bound_to 10713
  153.7616  135.6919  153.4924 H   0  0  0  0  0  0  0  0  0  0  0  0  # atno 10763 bound_to 10752
  153.1934  135.4462  155.0177 H   0  0  0  0  0  0  0  0  0  0  0  0  # atno 10764 bound_to 10752
  154.8151  135.3395  154.7131 H   0  0  0  0  0  0  0  0  0  0  0  0  # atno 10765 bound_to 10752
  141.0157  134.0199  157.3353 H   0  0  0  0  0  0  0  0  0  0  0  0  # atno 11005 bound_to 11000
  146.3527  140.0978  142.8609 LP  0  0  0  0  0  0  0  0  0  0  0  0  # atno 17320 bound_to 7965
  145.0886  140.9269  143.4782 LP  0  0  0  0  0  0  0  0  0  0  0  0  # atno 17321 bound_to 7965
  140.7375  143.2766  151.3722 LP  0  0  0  0  0  0  0  0  0  0  0  0  # atno 17342 bound_to 10162
  139.6194  144.0936  152.2377 LP  0  0  0  0  0  0  0  0  0  0  0  0  # atno 17343 bound_to 10162
  157.4558  130.7624  149.7191 LP  0  0  0  0  0  0  0  0  0  0  0  0  # atno 17370 bound_to 10713
  155.9850  130.3986  150.3283 LP  0  0  0  0  0  0  0  0  0  0  0  0  # atno 17371 bound_to 10713
  139.9115  135.0191  156.7713 LP  0  0  0  0  0  0  0  0  0  0  0  0  # atno 17394 bound_to 11000
  140.6659  133.9603  155.7830 LP  0  0  0  0  0  0  0  0  0  0  0  0  # atno 17395 bound_to 11000

$$$$
