AV-unprocessed.smi:49|AV-procd|sdf|490|dock6
  -GOLD-   2262016353D 1   1.00000     0.00000
 Structure written by MMmdl.
 26 27  0  0  0  0  0  0  0  0  2 V2000
  152.0620  141.2405  159.1073 C   0  0  0  0  0  0  0  0  0  0  0  0
  152.4654  139.9690  158.3540 C   0  0  0  0  0  0  0  0  0  0  0  0
  151.8743  139.9193  156.9621 C   0  0  0  0  0  0  0  0  0  0  0  0
  150.5828  140.0103  156.6610 N   0  0  0  0  0  0  0  0  0  0  0  0
  150.5127  139.9462  155.3238 C   0  0  0  0  0  0  0  0  0  0  0  0
  149.2186  140.0436  154.5360 C   0  0  1  0  0  0  0  0  0  0  0  0
  147.9935  140.1603  155.4612 C   0  0  0  0  0  0  0  0  0  0  0  0
  147.5056  141.5903  155.2517 C   0  0  2  0  0  0  0  0  0  0  0  0
  146.1201  141.7390  155.4791 O   0  0  0  0  0  0  0  0  0  0  0  0
  147.8888  141.8526  153.8012 C   0  0  0  0  0  0  0  0  0  0  0  0
  149.1861  141.2102  153.6462 N   0  0  0  0  0  0  0  0  0  0  0  0
  151.7415  139.8465  154.7904 N   0  0  0  0  0  0  0  0  0  0  0  0
  152.5697  139.8310  155.8149 N   0  5  0  0  0  0  0  0  0  0  0  0
  149.1238  139.1332  153.9433 H   0  0  0  0  0  0  0  0  0  0  0  0
  148.0560  142.2681  155.9062 H   0  0  0  0  0  0  0  0  0  0  0  0
  152.4987  141.2562  160.1058 H   0  0  0  0  0  0  0  0  0  0  0  0
  150.9789  141.3048  159.2145 H   0  0  0  0  0  0  0  0  0  0  0  0
  152.4003  142.1325  158.5795 H   0  0  0  0  0  0  0  0  0  0  0  0
  153.5514  139.9096  158.2776 H   0  0  0  0  0  0  0  0  0  0  0  0
  152.1400  139.0879  158.9073 H   0  0  0  0  0  0  0  0  0  0  0  0
  147.2306  139.4561  155.1258 H   0  0  0  0  0  0  0  0  0  0  0  0
  148.2098  139.9348  156.5064 H   0  0  0  0  0  0  0  0  0  0  0  0
  145.6558  141.3353  154.7620 H   0  0  0  0  0  0  0  0  0  0  0  0
  147.1653  141.3824  153.1337 H   0  0  0  0  0  0  0  0  0  0  0  0
  147.9275  142.9151  153.5599 H   0  0  0  0  0  0  0  0  0  0  0  0
  149.2969  140.9126  152.6827 H   0  0  0  0  0  0  0  0  0  0  0  0
  1  2  1  0  0  0  0
  1 16  1  0  0  0  0
  1 17  1  0  0  0  0
  1 18  1  0  0  0  0
  2  3  1  0  0  0  0
  2 19  1  0  0  0  0
  2 20  1  0  0  0  0
  3 13  1  0  0  0  0
  3  4  2  0  0  0  0
  4  5  1  0  0  0  0
  5  6  1  0  0  0  0
  5 12  2  0  0  0  0
  6 14  1  0  0  0  0
  6 11  1  0  0  0  0
  6  7  1  0  0  0  0
  7  8  1  0  0  0  0
  7 21  1  0  0  0  0
  7 22  1  0  0  0  0
  8 15  1  0  0  0  0
  8  9  1  0  0  0  0
  8 10  1  0  0  0  0
  9 23  1  0  0  0  0
 10 11  1  0  0  0  0
 10 24  1  0  0  0  0
 10 25  1  0  0  0  0
 11 26  1  0  0  0  0
 12 13  1  0  0  0  0
M  CHG  1  13  -1
M  END
> <s_m_source_file>
AV-unprocessed.smi

> <i_m_source_file_index>
49

> <i_lp_mmshare_version>
43012

> <i_f3d_flags>
0

> <s_epik_input>
W0NIM11bQ0gyXWMxbmMobltuSF0xKVtDQEBIXTJbQ0gyXVtDQEBIXShbT0hdKVtDSDJdW05IXTI=

> <s_epik_cmdline>
J2VwaWtfcHl0aG9uJywgJy1waCcsICc3LjAnLCAnLXRuJywgJzgnLCAnLW1hJywgJzIwMCcsICctbWV0YWxfYmluZGluZycsICctaW1hZScsICc8aW5maWxlLm1hZT4nLCAnLW9tYWUnLCAnPG91dGZpbGUubWFlPic=

> <r_lp_tautomer_probability>
0.948284

> <r_epik_Ionization_Penalty>
20.726

> <r_epik_Ionization_Penalty_Charging>
17.6814

> <r_epik_Ionization_Penalty_Neutral>
3.04463

> <r_epik_State_Penalty>
7.95092

> <r_epik_Charging_Adjusted_Penalty>
25.6323

> <i_epik_Tot_Q>
-1

> <i_epik_Tot_abs_Q>
1

> <r_epik_Metal_State_Penalty>
4.146

> <b_epik_Metal_Only>
1

> <s_lp_Force_Field>
OPLS_2005

> <r_lp_Energy>
18.0563

> <b_lp_Chiralities_Consistent>
1

> <s_lp_Variant>
AV-unprocessed.smi:49-28

> <Gold.Version>
5.8.1

> <Gold.Id.Protein>
6NUR|6NUR_protein|mol2

> <Gold.PLP.Fitness>
33.7575

> <Gold.PLP.PLP>
-21.7764

> <Gold.PLP.part.hbond>
-5.0000

> <Gold.PLP.part.metal>
0.0000

> <Gold.PLP.part.buried>
-2.9478

> <Gold.PLP.part.nonpolar>
-13.0860

> <Gold.PLP.part.repulsive>
0.0619

> <Gold.PLP.ligand.clash>
0.0000

> <Gold.PLP.ligand.torsion>
0.0169

> <Gold.PLP.Chemscore.Hbond>
4.0000

> <Gold.PLP.Chemscore.CHOScore>
0.0000

> <Gold.PLP.Chemscore.Metal>
0.0000

> <Gold.Chemscore.Hbonds>
donor molecule, donor type, donor heavy atom, donor atom, acceptor molecule, acceptor atom, score
      L1  H    11    26       P1  7957  1.00
      P1  H  7989  7998       L1    12  1.00
      P1  H  7997  8008       L1    13  2.00

> <Gold.PLP.Chemscore.Internal.Correction>
0.0149

> <Gold.Rescore>
     Score         DG    S(hbond)    S(metal)    S(lipo)     H(rot)  DE(clash)    DE(int)     intcor
     13.82     -13.89       2.71        0.00      34.29       1.82       0.07       0.01       ----

> <Gold.Chemscore.Fitness>
13.8161

> <Gold.Chemscore.DG>
-13.8893

> <Gold.Chemscore.ZeroCoef>
-5.4800

> <Gold.Chemscore.Hbond>
2.7136

> <Gold.Chemscore.Metal>
0.0000

> <Gold.Chemscore.Lipo>
34.2872

> <Gold.Chemscore.Internal_Hbond>
0.0000

> <Gold.Chemscore.DEClash>
0.0650

> <Gold.Chemscore.DEInternal>
0.0081

> <Gold.Chemscore.Rot>
1.8226

> <Gold.Chemscore.Internal.Correction>
   9.000000E+99

> <Gold.Chemscore.Hbonds>
donor molecule, donor type, donor heavy atom, donor atom, acceptor molecule, acceptor atom, score
      L1  H    11    26       P1  7957  1.00
      P1  H  7989  7998       L1    12  0.38
      P1  H  7997  8008       L1    13  0.65

> <Gold.Chemscore.Hbond.Weighted>
-9.0635

> <Gold.Chemscore.Metal.Weighted>
-0.0000

> <Gold.Chemscore.Lipo.Weighted>
-4.0116

> <Gold.Chemscore.Internal_Hbond.Weighted>
0.0000

> <Gold.Chemscore.DEClash.Weighted>
0.0650

> <Gold.Chemscore.DEInternal.Weighted>
0.0081

> <Gold.Chemscore.Rot.Weighted>
4.6658

> <Gold.Chemscore.Internal.Correction.Weighted>
   9.000000E+99

> <Gold.Protein.RotatedTorsions>
[ 6907 6896 6895 6894 ] final  -15.73 input  -60.11 | X-H torsion
[ 7974 7965 7964 7962 ] final -172.12 input  175.53 | X-H torsion
[ 8008 7997 7996 7995 ] final  -34.10 input   59.86 | X-H torsion
[ 10167 10162 10161 10158 ] final   56.30 input  -65.29 | X-H torsion
[ 10718 10713 10712 10709 ] final  167.03 input   66.30 | X-H torsion
[ 10763 10752 10751 10750 ] final  116.43 input  -60.55 | X-H torsion
[ 11005 11000 10999 10996 ] final -137.98 input  -57.11 | X-H torsion

> <Gold.Protein.ActiveResidues>
 VAL166  LYS551  ARG553  GLY616  TRP617  ASP618  TYR619  PRO620  LYS621  CYS622 
 ASP623  PHE694  ASN695  SER759  ASP760  ASP761  ALA762  ILE779  LEU786  VAL792 
 PHE793  MET794  SER795  GLU796  ALA797  LYS798  CYS799  TRP800  GLU811  SER814 

> <Gold.Protein.RotatedAtoms>
  151.3195  135.0815  159.9300 H   0  0  0  0  0  0  0  0  0  0  0  0  # atno 6907 bound_to 6896
  152.5260  133.9653  159.7747 H   0  0  0  0  0  0  0  0  0  0  0  0  # atno 6908 bound_to 6896
  150.9972  133.6039  159.2730 H   0  0  0  0  0  0  0  0  0  0  0  0  # atno 6909 bound_to 6896
  144.7149  140.1820  143.6357 H   0  0  0  0  0  0  0  0  0  0  0  0  # atno 7974 bound_to 7965
  154.4130  140.1693  156.1996 H   0  0  0  0  0  0  0  0  0  0  0  0  # atno 8008 bound_to 7997
  155.9535  140.3399  155.6405 H   0  0  0  0  0  0  0  0  0  0  0  0  # atno 8009 bound_to 7997
  155.6839  140.0726  157.2465 H   0  0  0  0  0  0  0  0  0  0  0  0  # atno 8010 bound_to 7997
  140.2103  144.3896  150.6492 H   0  0  0  0  0  0  0  0  0  0  0  0  # atno 10167 bound_to 10162
  157.0573  131.0330  151.2659 H   0  0  0  0  0  0  0  0  0  0  0  0  # atno 10718 bound_to 10713
  153.5372  135.3566  155.2702 H   0  0  0  0  0  0  0  0  0  0  0  0  # atno 10763 bound_to 10752
  154.8721  135.4082  154.3085 H   0  0  0  0  0  0  0  0  0  0  0  0  # atno 10764 bound_to 10752
  153.3785  135.7067  153.6651 H   0  0  0  0  0  0  0  0  0  0  0  0  # atno 10765 bound_to 10752
  140.8659  134.2111  157.4680 H   0  0  0  0  0  0  0  0  0  0  0  0  # atno 11005 bound_to 11000
  145.8847  139.2342  143.1584 LP  0  0  0  0  0  0  0  0  0  0  0  0  # atno 17320 bound_to 7965
  145.9961  140.8561  143.0042 LP  0  0  0  0  0  0  0  0  0  0  0  0  # atno 17321 bound_to 7965
  140.6328  143.2190  151.6458 LP  0  0  0  0  0  0  0  0  0  0  0  0  # atno 17342 bound_to 10162
  139.5183  144.3290  152.0843 LP  0  0  0  0  0  0  0  0  0  0  0  0  # atno 17343 bound_to 10162
  157.4982  130.7864  149.7577 LP  0  0  0  0  0  0  0  0  0  0  0  0  # atno 17370 bound_to 10713
  155.9989  130.3892  150.2684 LP  0  0  0  0  0  0  0  0  0  0  0  0  # atno 17371 bound_to 10713
  139.8709  134.9751  156.4872 LP  0  0  0  0  0  0  0  0  0  0  0  0  # atno 17394 bound_to 11000
  140.8629  133.8046  155.9284 LP  0  0  0  0  0  0  0  0  0  0  0  0  # atno 17395 bound_to 11000

$$$$
