AV-unprocessed.smi:1385|AV-procd|sdf|5635|dock9
  -GOLD-   22720 5253D 1   1.00000     0.00000
 Structure written by MMmdl.
 38 39  0  0  0  0  0  0  0  0  3 V2000
  154.2586  137.3616  157.9813 C   0  0  0  0  0  0  0  0  0  0  0  0
  153.4243  137.6159  156.7727 C   0  0  0  0  0  0  0  0  0  0  0  0
  153.9282  138.1091  155.6347 N   0  0  0  0  0  0  0  0  0  0  0  0
  152.9595  138.2596  154.6522 N   0  0  0  0  0  0  0  0  0  0  0  0
  151.7502  137.8717  155.0794 C   0  0  0  0  0  0  0  0  0  0  0  0
  150.5771  137.9220  154.2811 N   0  0  0  0  0  0  0  0  0  0  0  0
  149.7972  138.9838  154.0124 C   0  0  0  0  0  0  0  0  0  0  0  0
  149.9875  140.1302  154.4191 O   0  0  0  0  0  0  0  0  0  0  0  0
  148.7616  138.6392  153.2329 N   0  0  0  0  0  0  0  0  0  0  0  0
  147.7233  139.5512  152.7537 C   0  0  2  0  0  0  0  0  0  0  0  0
  146.8826  140.1204  153.9132 C   0  0  0  0  0  0  0  0  0  0  0  0
  145.9795  139.0495  154.5506 C   0  0  0  0  0  0  0  0  0  0  0  0
  145.1040  138.4074  153.5328 N   0  3  2  0  0  0  0  0  0  0  0  0
  144.1312  137.4516  154.1187 C   0  0  0  0  0  0  0  0  0  0  0  0
  143.0025  137.1603  153.1238 C   0  0  0  0  0  0  0  0  0  0  0  0
  142.2221  138.2352  152.9025 N   0  5  0  0  0  0  0  0  0  0  0  0
  142.9082  136.0416  152.6225 O   0  0  0  0  0  0  0  0  0  0  0  0
  145.8962  137.7973  152.4346 C   0  0  0  0  0  0  0  0  0  0  0  0
  146.8020  138.8376  151.7501 C   0  0  0  0  0  0  0  0  0  0  0  0
  151.6972  137.2827  156.7320 S   0  0  0  0  0  0  0  0  0  0  0  0
  155.1647  137.9679  157.9559 H   0  0  0  0  0  0  0  0  0  0  0  0
  154.5413  136.3097  158.0228 H   0  0  0  0  0  0  0  0  0  0  0  0
  153.6985  137.6109  158.8828 H   0  0  0  0  0  0  0  0  0  0  0  0
  150.2946  137.0428  153.8738 H   0  0  0  0  0  0  0  0  0  0  0  0
  148.6877  137.6744  152.9451 H   0  0  0  0  0  0  0  0  0  0  0  0
  148.2125  140.3773  152.2344 H   0  0  0  0  0  0  0  0  0  0  0  0
  147.5258  140.5670  154.6724 H   0  0  0  0  0  0  0  0  0  0  0  0
  146.2576  140.9308  153.5357 H   0  0  0  0  0  0  0  0  0  0  0  0
  146.5859  138.2889  155.0447 H   0  0  0  0  0  0  0  0  0  0  0  0
  145.3740  139.5176  155.3270 H   0  0  0  0  0  0  0  0  0  0  0  0
  144.6220  136.4992  154.3233 H   0  0  0  0  0  0  0  0  0  0  0  0
  143.7644  137.8228  155.0784 H   0  0  0  0  0  0  0  0  0  0  0  0
  142.6388  139.0653  152.4642 H   0  0  0  0  0  0  0  0  0  0  0  0
  146.4928  136.9739  152.8304 H   0  0  0  0  0  0  0  0  0  0  0  0
  145.2229  137.3695  151.6910 H   0  0  0  0  0  0  0  0  0  0  0  0
  146.1763  139.5787  151.2508 H   0  0  0  0  0  0  0  0  0  0  0  0
  147.3924  138.3629  150.9654 H   0  0  0  0  0  0  0  0  0  0  0  0
  144.5508  139.1418  153.1143 H   0  0  0  0  0  0  0  0  0  0  0  0
  1  2  1  0  0  0  0
  1 21  1  0  0  0  0
  1 22  1  0  0  0  0
  1 23  1  0  0  0  0
  2 20  1  0  0  0  0
  2  3  2  0  0  0  0
  3  4  1  0  0  0  0
  4  5  2  0  0  0  0
  5  6  1  0  0  0  0
  5 20  1  0  0  0  0
  6  7  1  0  0  0  0
  6 24  1  0  0  0  0
  7  8  2  0  0  0  0
  7  9  1  0  0  0  0
  9 10  1  0  0  0  0
  9 25  1  0  0  0  0
 10 19  1  0  0  0  0
 10 11  1  0  0  0  0
 10 26  1  0  0  0  0
 11 12  1  0  0  0  0
 11 27  1  0  0  0  0
 11 28  1  0  0  0  0
 12 13  1  0  0  0  0
 12 29  1  0  0  0  0
 12 30  1  0  0  0  0
 13 14  1  0  0  0  0
 13 18  1  0  0  0  0
 13 38  1  0  0  0  0
 14 15  1  0  0  0  0
 14 31  1  0  0  0  0
 14 32  1  0  0  0  0
 15 16  1  0  0  0  0
 15 17  2  0  0  0  0
 16 33  1  0  0  0  0
 18 19  1  0  0  0  0
 18 34  1  0  0  0  0
 18 35  1  0  0  0  0
 19 36  1  0  0  0  0
 19 37  1  0  0  0  0
M  CHG  1  13   1
M  CHG  1  16  -1
M  END
> <s_m_source_file>
AV-unprocessed.smi

> <i_m_source_file_index>
1385

> <i_lp_mmshare_version>
43012

> <i_f3d_flags>
0

> <s_epik_input>
W0NIM11jMW5uYyhzMSlbTkhdQyg9TylbTkhdW0NIXTJbQ0gyXVtDSDJdTihbQ0gyXVtDSDJdMilbQ0gyXUMoPU8pW05IMl0=

> <s_epik_cmdline>
J2VwaWtfcHl0aG9uJywgJy1waCcsICc3LjAnLCAnLXRuJywgJzgnLCAnLW1hJywgJzIwMCcsICctbWV0YWxfYmluZGluZycsICctaW1hZScsICc8aW5maWxlLm1hZT4nLCAnLW9tYWUnLCAnPG91dGZpbGUubWFlPic=

> <r_lp_tautomer_probability>
1

> <r_epik_Ionization_Penalty>
5.73549

> <r_epik_Ionization_Penalty_Charging>
5.73152

> <r_epik_Ionization_Penalty_Neutral>
0.00396448

> <r_epik_State_Penalty>
6.57436

> <r_epik_Charging_Adjusted_Penalty>
12.3059

> <i_epik_Tot_Q>
0

> <i_epik_Tot_abs_Q>
2

> <r_epik_Metal_State_Penalty>
2.87628

> <b_epik_Metal_Only>
1

> <s_lp_Force_Field>
OPLS_2005

> <r_lp_Energy>
6.46457

> <b_lp_Chiralities_Consistent>
1

> <s_lp_Variant>
AV-unprocessed.smi:1385-8

> <Gold.Version>
5.8.1

> <Gold.Id.Protein>
6NUR|6NUR_protein|mol2

> <Gold.PLP.Fitness>
42.2548

> <Gold.PLP.PLP>
-27.8996

> <Gold.PLP.part.hbond>
-7.1443

> <Gold.PLP.part.metal>
0.0000

> <Gold.PLP.part.buried>
-0.6546

> <Gold.PLP.part.nonpolar>
-20.9792

> <Gold.PLP.part.repulsive>
0.4857

> <Gold.PLP.ligand.clash>
0.0000

> <Gold.PLP.ligand.torsion>
0.9188

> <Gold.PLP.Chemscore.Hbond>
5.3910

> <Gold.PLP.Chemscore.CHOScore>
0.0000

> <Gold.PLP.Chemscore.Metal>
0.0000

> <Gold.Chemscore.Hbonds>
donor molecule, donor type, donor heavy atom, donor atom, acceptor molecule, acceptor atom, score
      L1  H     9    25       P1  7948  1.00
      L1  H    13    38       P1 10175  2.00
      L1  H    16    33       P1 10175  1.00
      P1  H  7989  7998       L1     8  1.00
      P1  H  7997  8009       L1     3  0.38

> <Gold.PLP.Chemscore.Internal.Correction>
0.0196

> <Gold.Rescore>
     Score         DG    S(hbond)    S(metal)    S(lipo)     H(rot)  DE(clash)    DE(int)     intcor
     15.66     -18.73       3.87        0.00      47.32       2.04       2.06       1.01       ----

> <Gold.Chemscore.Fitness>
15.6596

> <Gold.Chemscore.DG>
-18.7287

> <Gold.Chemscore.ZeroCoef>
-5.4800

> <Gold.Chemscore.Hbond>
3.8704

> <Gold.Chemscore.Metal>
0.0000

> <Gold.Chemscore.Lipo>
47.3157

> <Gold.Chemscore.Internal_Hbond>
0.0000

> <Gold.Chemscore.DEClash>
2.0599

> <Gold.Chemscore.DEInternal>
1.0092

> <Gold.Chemscore.Rot>
2.0369

> <Gold.Chemscore.Internal.Correction>
   9.000000E+99

> <Gold.Chemscore.Hbonds>
donor molecule, donor type, donor heavy atom, donor atom, acceptor molecule, acceptor atom, score
      L1  H     9    25       P1  7948  0.98
      L1  H    13    38       P1 10175  1.00
      L1  H    16    33       P1 10175  0.96
      P1  H  7989  7998       L1     8  0.58
      P1  H  7997  8009       L1     3  0.05

> <Gold.Chemscore.Hbond.Weighted>
-12.9272

> <Gold.Chemscore.Metal.Weighted>
-0.0000

> <Gold.Chemscore.Lipo.Weighted>
-5.5359

> <Gold.Chemscore.Internal_Hbond.Weighted>
0.0000

> <Gold.Chemscore.DEClash.Weighted>
2.0599

> <Gold.Chemscore.DEInternal.Weighted>
1.0092

> <Gold.Chemscore.Rot.Weighted>
5.2144

> <Gold.Chemscore.Internal.Correction.Weighted>
   9.000000E+99

> <Gold.Protein.RotatedTorsions>
[ 6907 6896 6895 6894 ] final -118.05 input  -60.11 | X-H torsion
[ 7974 7965 7964 7962 ] final -136.95 input  175.53 | X-H torsion
[ 8008 7997 7996 7995 ] final -159.02 input   59.86 | X-H torsion
[ 10167 10162 10161 10158 ] final   -7.63 input  -65.29 | X-H torsion
[ 10718 10713 10712 10709 ] final -124.03 input   66.30 | X-H torsion
[ 10763 10752 10751 10750 ] final -107.59 input  -60.55 | X-H torsion
[ 11005 11000 10999 10996 ] final   58.05 input  -57.11 | X-H torsion

> <Gold.Protein.ActiveResidues>
 VAL166  LYS551  ARG553  GLY616  TRP617  ASP618  TYR619  PRO620  LYS621  CYS622 
 ASP623  PHE694  ASN695  SER759  ASP760  ASP761  ALA762  ILE779  LEU786  VAL792 
 PHE793  MET794  SER795  GLU796  ALA797  LYS798  CYS799  TRP800  GLU811  SER814 

> <Gold.Protein.RotatedAtoms>
  150.8187  133.8291  159.3148 H   0  0  0  0  0  0  0  0  0  0  0  0  # atno 6907 bound_to 6896
  151.6055  135.1042  160.0079 H   0  0  0  0  0  0  0  0  0  0  0  0  # atno 6908 bound_to 6896
  152.4277  133.7183  159.6575 H   0  0  0  0  0  0  0  0  0  0  0  0  # atno 6909 bound_to 6896
  144.8883  140.6607  143.5161 H   0  0  0  0  0  0  0  0  0  0  0  0  # atno 7974 bound_to 7965
  155.7563  140.0833  157.2177 H   0  0  0  0  0  0  0  0  0  0  0  0  # atno 8008 bound_to 7997
  154.4007  140.1551  156.2837 H   0  0  0  0  0  0  0  0  0  0  0  0  # atno 8009 bound_to 7997
  155.8883  140.3417  155.5940 H   0  0  0  0  0  0  0  0  0  0  0  0  # atno 8010 bound_to 7997
  140.7035  143.6059  150.8752 H   0  0  0  0  0  0  0  0  0  0  0  0  # atno 10167 bound_to 10162
  156.1553  130.6563  150.9972 H   0  0  0  0  0  0  0  0  0  0  0  0  # atno 10718 bound_to 10713
  154.8085  135.4669  154.0453 H   0  0  0  0  0  0  0  0  0  0  0  0  # atno 10763 bound_to 10752
  153.1903  135.6854  153.8368 H   0  0  0  0  0  0  0  0  0  0  0  0  # atno 10764 bound_to 10752
  153.7888  135.3246  155.3353 H   0  0  0  0  0  0  0  0  0  0  0  0  # atno 10765 bound_to 10752
  140.0406  134.5879  155.9387 H   0  0  0  0  0  0  0  0  0  0  0  0  # atno 11005 bound_to 11000
  145.3828  139.1633  143.4271 LP  0  0  0  0  0  0  0  0  0  0  0  0  # atno 17320 bound_to 7965
  146.3038  140.3910  142.8694 LP  0  0  0  0  0  0  0  0  0  0  0  0  # atno 17321 bound_to 7965
  139.9782  143.5980  152.2951 LP  0  0  0  0  0  0  0  0  0  0  0  0  # atno 17342 bound_to 10162
  139.6592  144.7662  151.1996 LP  0  0  0  0  0  0  0  0  0  0  0  0  # atno 17343 bound_to 10162
  157.6690  131.0865  150.7659 LP  0  0  0  0  0  0  0  0  0  0  0  0  # atno 17370 bound_to 10713
  156.7725  130.4833  149.5416 LP  0  0  0  0  0  0  0  0  0  0  0  0  # atno 17371 bound_to 10713
  141.1881  133.6561  156.5310 LP  0  0  0  0  0  0  0  0  0  0  0  0  # atno 17394 bound_to 11000
  140.4075  134.7302  157.4816 LP  0  0  0  0  0  0  0  0  0  0  0  0  # atno 17395 bound_to 11000

$$$$
