AV-unprocessed.smi:3332|AV-procd|sdf|12830|dock3
  -GOLD-   2272019213D 1   1.00000     0.00000
 Structure written by MMmdl.
 41 42  0  0  0  0  0  0  0  0  1 V2000
  147.0682  142.2206  154.1577 C   0  0  0  0  0  0  0  0  0  0  0  0
  148.4270  141.8946  153.5288 C   0  0  0  0  0  0  0  0  0  0  0  0
  148.9076  140.5202  153.8907 C   0  0  0  0  0  0  0  0  0  0  0  0
  150.2024  140.3587  154.3907 N   0  0  0  0  0  0  0  0  0  0  0  0
  150.4946  139.0864  154.6700 C   0  0  0  0  0  0  0  0  0  0  0  0
  151.8359  138.6367  155.1560 C   0  0  0  0  0  0  0  0  0  0  0  0
  152.2298  139.2115  156.5304 C   0  0  0  0  0  0  0  0  0  0  0  0
  151.8966  140.6301  156.6459 N   0  0  0  0  0  0  0  0  0  0  0  0
  151.3614  141.2193  157.7269 C   0  0  0  0  0  0  0  0  0  0  0  0
  150.9812  140.5967  158.7192 O   0  0  0  0  0  0  0  0  0  0  0  0
  151.2651  142.7493  157.6808 C   0  0  0  0  0  0  0  0  0  0  0  0
  152.2286  143.4808  158.6440 C   0  0  1  0  0  0  0  0  0  0  0  0
  151.9957  144.9706  158.7331 C   0  0  0  0  0  0  0  0  0  0  0  0
  151.8254  145.3927  159.9833 C   0  0  0  0  0  0  0  0  0  0  0  0
  151.9050  144.2740  160.9839 C   0  0  0  0  0  0  0  0  0  0  0  0
  152.0891  143.0093  160.1146 C   0  0  0  0  0  0  0  0  0  0  0  0
  149.1747  137.9822  154.3141 S   0  0  0  0  0  0  0  0  0  0  0  0
  148.2115  139.3385  153.7854 C   0  0  0  0  0  0  0  0  0  0  0  0
  146.8188  139.1393  153.2875 C   0  0  0  0  0  0  0  0  0  0  0  0
  146.7409  143.2218  153.8774 H   0  0  0  0  0  0  0  0  0  0  0  0
  147.1173  142.1789  155.2463 H   0  0  0  0  0  0  0  0  0  0  0  0
  146.3044  141.5153  153.8285 H   0  0  0  0  0  0  0  0  0  0  0  0
  148.3543  141.9983  152.4461 H   0  0  0  0  0  0  0  0  0  0  0  0
  149.1580  142.6391  153.8469 H   0  0  0  0  0  0  0  0  0  0  0  0
  151.8335  137.5470  155.2060 H   0  0  0  0  0  0  0  0  0  0  0  0
  152.5859  138.9062  154.4123 H   0  0  0  0  0  0  0  0  0  0  0  0
  151.7170  138.6642  157.3215 H   0  0  0  0  0  0  0  0  0  0  0  0
  153.2964  139.0508  156.6953 H   0  0  0  0  0  0  0  0  0  0  0  0
  152.1674  141.2224  155.8745 H   0  0  0  0  0  0  0  0  0  0  0  0
  151.4593  143.0796  156.6587 H   0  0  0  0  0  0  0  0  0  0  0  0
  150.2363  143.0316  157.9069 H   0  0  0  0  0  0  0  0  0  0  0  0
  153.2584  143.3308  158.3160 H   0  0  0  0  0  0  0  0  0  0  0  0
  151.9940  145.6084  157.8615 H   0  0  0  0  0  0  0  0  0  0  0  0
  151.6600  146.4191  160.2763 H   0  0  0  0  0  0  0  0  0  0  0  0
  152.7525  144.4323  161.6516 H   0  0  0  0  0  0  0  0  0  0  0  0
  150.9934  144.2279  161.5806 H   0  0  0  0  0  0  0  0  0  0  0  0
  151.2251  142.3543  160.2349 H   0  0  0  0  0  0  0  0  0  0  0  0
  152.9643  142.4391  160.4284 H   0  0  0  0  0  0  0  0  0  0  0  0
  146.1161  139.7547  153.8497 H   0  0  0  0  0  0  0  0  0  0  0  0
  146.5081  138.0989  153.3863 H   0  0  0  0  0  0  0  0  0  0  0  0
  146.7433  139.4141  152.2350 H   0  0  0  0  0  0  0  0  0  0  0  0
  1  2  1  0  0  0  0
  1 20  1  0  0  0  0
  1 21  1  0  0  0  0
  1 22  1  0  0  0  0
  2  3  1  0  0  0  0
  2 23  1  0  0  0  0
  2 24  1  0  0  0  0
  3 18  2  0  0  0  0
  3  4  1  0  0  0  0
  4  5  2  0  0  0  0
  5  6  1  0  0  0  0
  5 17  1  0  0  0  0
  6  7  1  0  0  0  0
  6 25  1  0  0  0  0
  6 26  1  0  0  0  0
  7  8  1  0  0  0  0
  7 27  1  0  0  0  0
  7 28  1  0  0  0  0
  8  9  1  0  0  0  0
  8 29  1  0  0  0  0
  9 10  2  0  0  0  0
  9 11  1  0  0  0  0
 11 12  1  0  0  0  0
 11 30  1  0  0  0  0
 11 31  1  0  0  0  0
 12 16  1  0  0  0  0
 12 13  1  0  0  0  0
 12 32  1  0  0  0  0
 13 14  2  0  0  0  0
 13 33  1  0  0  0  0
 14 15  1  0  0  0  0
 14 34  1  0  0  0  0
 15 16  1  0  0  0  0
 15 35  1  0  0  0  0
 15 36  1  0  0  0  0
 16 37  1  0  0  0  0
 16 38  1  0  0  0  0
 17 18  1  0  0  0  0
 18 19  1  0  0  0  0
 19 39  1  0  0  0  0
 19 40  1  0  0  0  0
 19 41  1  0  0  0  0
M  END
> <s_m_source_file>
AV-unprocessed.smi

> <i_m_source_file_index>
3332

> <i_lp_mmshare_version>
43012

> <i_f3d_flags>
0

> <s_epik_input>
W0NIM11bQ0gyXWMxbmMoc2MxW0NIM10pW0NIMl1bQ0gyXVtOSF1DKD1PKVtDSDJdW0NAQEhdMltDSF09W0NIXVtDSDJdW0NIMl0y

> <s_epik_cmdline>
J2VwaWtfcHl0aG9uJywgJy1waCcsICc3LjAnLCAnLXRuJywgJzgnLCAnLW1hJywgJzIwMCcsICctbWV0YWxfYmluZGluZycsICctaW1hZScsICc8aW5maWxlLm1hZT4nLCAnLW9tYWUnLCAnPG91dGZpbGUubWFlPic=

> <r_epik_Ionization_Penalty>
0.00221844

> <r_epik_Ionization_Penalty_Charging>
0

> <r_epik_Ionization_Penalty_Neutral>
0.00221844

> <r_epik_State_Penalty>
0.00152607

> <r_epik_Charging_Adjusted_Penalty>
0.00152607

> <i_epik_Tot_Q>
0

> <i_epik_Tot_abs_Q>
0

> <r_epik_Metal_State_Penalty>
-0

> <b_epik_Metal_Only>
0

> <s_lp_Force_Field>
OPLS_2005

> <r_lp_Energy>
6.79719

> <b_lp_Chiralities_Consistent>
1

> <s_lp_Variant>
AV-unprocessed.smi:3332-2

> <Gold.Version>
5.8.1

> <Gold.Id.Protein>
6NUR|6NUR_protein|mol2

> <Gold.PLP.Fitness>
46.1116

> <Gold.PLP.PLP>
-43.8039

> <Gold.PLP.part.hbond>
-1.0000

> <Gold.PLP.part.metal>
0.0000

> <Gold.PLP.part.buried>
-2.4787

> <Gold.PLP.part.nonpolar>
-40.5540

> <Gold.PLP.part.repulsive>
0.2402

> <Gold.PLP.ligand.clash>
0.0000

> <Gold.PLP.ligand.torsion>
0.3943

> <Gold.PLP.Chemscore.Hbond>
0.9920

> <Gold.PLP.Chemscore.CHOScore>
0.0000

> <Gold.PLP.Chemscore.Metal>
0.0000

> <Gold.Chemscore.Hbonds>
donor molecule, donor type, donor heavy atom, donor atom, acceptor molecule, acceptor atom, score
      P1  H  7989  7998       L1     4  0.96

> <Gold.PLP.Chemscore.Internal.Correction>
0.1203

> <Gold.Rescore>
     Score         DG    S(hbond)    S(metal)    S(lipo)     H(rot)  DE(clash)    DE(int)     intcor
     14.69     -17.12       0.03        0.00     131.68       1.51       1.13       1.30       ----

> <Gold.Chemscore.Fitness>
14.6930

> <Gold.Chemscore.DG>
-17.1168

> <Gold.Chemscore.ZeroCoef>
-5.4800

> <Gold.Chemscore.Hbond>
0.0290

> <Gold.Chemscore.Metal>
0.0000

> <Gold.Chemscore.Lipo>
131.6770

> <Gold.Chemscore.Internal_Hbond>
0.0000

> <Gold.Chemscore.DEClash>
1.1285

> <Gold.Chemscore.DEInternal>
1.2953

> <Gold.Chemscore.Rot>
1.5103

> <Gold.Chemscore.Internal.Correction>
   9.000000E+99

> <Gold.Chemscore.Hbonds>
donor molecule, donor type, donor heavy atom, donor atom, acceptor molecule, acceptor atom, score
      P1  H  7989  7998       L1     4  0.36

> <Gold.Chemscore.Hbond.Weighted>
-0.0969

> <Gold.Chemscore.Metal.Weighted>
-0.0000

> <Gold.Chemscore.Lipo.Weighted>
-15.4062

> <Gold.Chemscore.Internal_Hbond.Weighted>
0.0000

> <Gold.Chemscore.DEClash.Weighted>
1.1285

> <Gold.Chemscore.DEInternal.Weighted>
1.2953

> <Gold.Chemscore.Rot.Weighted>
3.8664

> <Gold.Chemscore.Internal.Correction.Weighted>
   9.000000E+99

> <Gold.Protein.RotatedTorsions>
[ 6907 6896 6895 6894 ] final -161.33 input  -60.11 | X-H torsion
[ 7974 7965 7964 7962 ] final  -39.13 input  175.53 | X-H torsion
[ 8008 7997 7996 7995 ] final   45.72 input   59.86 | X-H torsion
[ 10167 10162 10161 10158 ] final  -97.84 input  -65.29 | X-H torsion
[ 10718 10713 10712 10709 ] final  124.05 input   66.30 | X-H torsion
[ 10763 10752 10751 10750 ] final  104.96 input  -60.55 | X-H torsion
[ 11005 11000 10999 10996 ] final -132.18 input  -57.11 | X-H torsion

> <Gold.Protein.ActiveResidues>
 VAL166  LYS551  ARG553  GLY616  TRP617  ASP618  TYR619  PRO620  LYS621  CYS622 
 ASP623  PHE694  ASN695  SER759  ASP760  ASP761  ALA762  ILE779  LEU786  VAL792 
 PHE793  MET794  SER795  GLU796  ALA797  LYS798  CYS799  TRP800  GLU811  SER814 

> <Gold.Protein.RotatedAtoms>
  151.3630  133.3882  159.2691 H   0  0  0  0  0  0  0  0  0  0  0  0  # atno 6907 bound_to 6896
  150.9711  134.9084  159.7799 H   0  0  0  0  0  0  0  0  0  0  0  0  # atno 6908 bound_to 6896
  152.5185  134.3591  159.9331 H   0  0  0  0  0  0  0  0  0  0  0  0  # atno 6909 bound_to 6896
  146.0424  140.6590  142.9080 H   0  0  0  0  0  0  0  0  0  0  0  0  # atno 7974 bound_to 7965
  155.3406  140.3408  155.4239 H   0  0  0  0  0  0  0  0  0  0  0  0  # atno 8008 bound_to 7997
  156.1815  140.1666  156.8301 H   0  0  0  0  0  0  0  0  0  0  0  0  # atno 8009 bound_to 7997
  154.5339  140.0739  156.8376 H   0  0  0  0  0  0  0  0  0  0  0  0  # atno 8010 bound_to 7997
  140.2792  143.3293  152.0458 H   0  0  0  0  0  0  0  0  0  0  0  0  # atno 10167 bound_to 10162
  157.5616  131.1089  150.8528 H   0  0  0  0  0  0  0  0  0  0  0  0  # atno 10718 bound_to 10713
  153.3730  135.3925  155.1802 H   0  0  0  0  0  0  0  0  0  0  0  0  # atno 10763 bound_to 10752
  154.8697  135.3707  154.4954 H   0  0  0  0  0  0  0  0  0  0  0  0  # atno 10764 bound_to 10752
  153.5423  135.7084  153.5691 H   0  0  0  0  0  0  0  0  0  0  0  0  # atno 10765 bound_to 10752
  140.9193  134.1466  157.4327 H   0  0  0  0  0  0  0  0  0  0  0  0  # atno 11005 bound_to 11000
  144.7081  140.3933  143.7102 LP  0  0  0  0  0  0  0  0  0  0  0  0  # atno 17320 bound_to 7965
  145.6861  139.1629  143.2673 LP  0  0  0  0  0  0  0  0  0  0  0  0  # atno 17321 bound_to 7965
  139.4967  144.6603  151.6479 LP  0  0  0  0  0  0  0  0  0  0  0  0  # atno 17342 bound_to 10162
  140.5826  143.9920  150.6277 LP  0  0  0  0  0  0  0  0  0  0  0  0  # atno 17343 bound_to 10162
  156.9024  130.5251  149.5282 LP  0  0  0  0  0  0  0  0  0  0  0  0  # atno 17370 bound_to 10713
  156.0668  130.5709  150.9304 LP  0  0  0  0  0  0  0  0  0  0  0  0  # atno 17371 bound_to 10713
  139.8772  134.9965  156.5799 LP  0  0  0  0  0  0  0  0  0  0  0  0  # atno 17394 bound_to 11000
  140.8009  133.8506  155.8726 LP  0  0  0  0  0  0  0  0  0  0  0  0  # atno 17395 bound_to 11000

$$$$
