#       Name:                AV-unprocessed.smi:1931
#       Creating user name   scv26
#       Creation time:       Fri Mar 27 09:55:35 2020


#       File generated by GOLD software.
#

@<TRIPOS>MOLECULE
AV-unprocessed.smi:1931
    58    59     1
SMALL
NO_CHARGES


@<TRIPOS>ATOM
      1 ****        -6.0633   4.9683   2.6433 C.3            1 S1                 0.0000
      2 ****        -4.6686   5.1703   2.4983 O.3            1 S1                 0.0000
      3 ****        -4.2907   5.4147   1.1536 C.3            1 S1                 0.0000
      4 ****        -2.7762   5.6354   1.0918 C.3            1 S1                 0.0000
      5 ****        -2.1166   4.3884   1.2358 O.3            1 S1                 0.0000
      6 ****        -0.7053   4.5201   1.2752 C.3            1 S1                 0.0000
      7 ****        -0.0893   3.1278   1.3884 C.2            1 S1                 0.0000
      8 ****         0.3149   2.7338   2.4815 O.2            1 S1                 0.0000
      9 ****        -0.0519   2.4161   0.2467 N.am           1 S1                 0.0000
     10 ****         0.4683   1.1130   0.0145 C.ar           1 S1                 0.0000
     11 ****         1.3298   0.4187   0.8979 C.ar           1 S1                 0.0000
     12 ****         1.7870  -0.8631   0.5365 C.ar           1 S1                 0.0000
     13 ****         1.3763  -1.4103  -0.7002 C.ar           1 S1                 0.0000
     14 ****         1.7934  -2.6815  -1.1167 N.3            1 S1                 0.0000
     15 ****         3.2373  -2.8128  -1.2640 C.3            1 S1                 0.0000
     16 ****         3.6015  -4.1887  -1.8566 C.3            1 S1                 0.0000
     17 ****         3.2957  -4.3116  -3.3599 C.3            1 S1                 0.0000
     18 ****         2.9845  -5.2301  -1.0940 O.3            1 S1                 0.0000
     19 ****         1.5664  -5.1195  -0.9624 C.3            1 S1                 0.0000
     20 ****         1.0761  -6.2921  -0.1069 C.3            1 S1                 0.0000
     21 ****         1.2140  -3.7604  -0.3305 C.3            1 S1                 0.0000
     22 ****         0.5605  -0.7505  -1.5500 N.ar           1 S1                 0.0000
     23 ****         0.1258   0.4777  -1.1973 C.ar           1 S1                 0.0000
     24 ****        -6.2989   4.7831   3.6910 H              1 S1                 0.0000
     25 ****        -6.3996   4.1067   2.0652 H              1 S1                 0.0000
     26 ****        -6.6249   5.8467   2.3225 H              1 S1                 0.0000
     27 ****        -4.5848   4.5872   0.5059 H              1 S1                 0.0000
     28 ****        -4.8018   6.3099   0.7955 H              1 S1                 0.0000
     29 ****        -2.5090   6.0673   0.1263 H              1 S1                 0.0000
     30 ****        -2.4633   6.3401   1.8639 H              1 S1                 0.0000
     31 ****        -0.3379   5.0120   0.3729 H              1 S1                 0.0000
     32 ****        -0.4037   5.1267   2.1307 H              1 S1                 0.0000
     33 ****        -0.4856   2.8540  -0.5533 H              1 S1                 0.0000
     34 ****         1.6600   0.8390   1.8341 H              1 S1                 0.0000
     35 ****         2.4405  -1.4100   1.2003 H              1 S1                 0.0000
     36 ****         3.6243  -2.0119  -1.8953 H              1 S1                 0.0000
     37 ****         3.7112  -2.7063  -0.2874 H              1 S1                 0.0000
     38 ****         4.6772  -4.3244  -1.7421 H              1 S1                 0.0000
     39 ****         3.8748  -3.5859  -3.9312 H              1 S1                 0.0000
     40 ****         2.2445  -4.1337  -3.5851 H              1 S1                 0.0000
     41 ****         3.5544  -5.3042  -3.7292 H              1 S1                 0.0000
     42 ****         1.0991  -5.1984  -1.9443 H              1 S1                 0.0000
     43 ****        -0.0055  -6.2565   0.0243 H              1 S1                 0.0000
     44 ****         1.5339  -6.2774   0.8827 H              1 S1                 0.0000
     45 ****         1.3229  -7.2454  -0.5750 H              1 S1                 0.0000
     46 ****         1.5935  -3.7123   0.6913 H              1 S1                 0.0000
     47 ****         0.1311  -3.6388  -0.2789 H              1 S1                 0.0000
     48 ****        -0.5206   0.9700  -1.9094 H              1 S1                 0.0000
     49 ****        -4.1912   4.3534   2.8218 LP             1 S1                 0.0000
     50 ****        -4.3991   5.9562   3.0547 LP             1 S1                 0.0000
     51 ****        -2.3625   3.8046   0.4621 LP             1 S1                 0.0000
     52 ****        -2.4223   3.9606   2.0865 LP             1 S1                 0.0000
     53 ****         0.2383   3.3238   3.2853 LP             1 S1                 0.0000
     54 ****         0.7200   1.8234   2.5664 LP             1 S1                 0.0000
     55 ****         1.4232  -2.7766  -2.0408 LP             1 S1                 0.0000
     56 ****         3.3832  -5.2217  -0.1770 LP             1 S1                 0.0000
     57 ****         3.1881  -6.1027  -1.5381 LP             1 S1                 0.0000
     58 ****         0.2851  -1.1616  -2.4190 LP             1 S1                 0.0000
@<TRIPOS>BOND
    1    1    2 1     
    2    1   24 1     
    3    1   25 1     
    4    1   26 1     
    5    2    3 1     
    6    3    4 1     
    7    3   27 1     
    8    3   28 1     
    9    4    5 1     
   10    4   29 1     
   11    4   30 1     
   12    5    6 1     
   13    6    7 1     
   14    6   31 1     
   15    6   32 1     
   16    7    8 2     
   17    7    9 am    
   18    9   10 1     
   19    9   33 1     
   20   10   23 ar    
   21   10   11 ar    
   22   11   12 ar    
   23   11   34 1     
   24   12   13 ar    
   25   12   35 1     
   26   13   14 1     
   27   13   22 ar    
   28   14   21 1     
   29   14   15 1     
   30   15   16 1     
   31   15   36 1     
   32   15   37 1     
   33   16   17 1     
   34   16   18 1     
   35   16   38 1     
   36   17   39 1     
   37   17   40 1     
   38   17   41 1     
   39   18   19 1     
   40   19   20 1     
   41   19   21 1     
   42   19   42 1     
   43   20   43 1     
   44   20   44 1     
   45   20   45 1     
   46   21   46 1     
   47   21   47 1     
   48   22   23 ar    
   49   23   48 1     
   50    2   49 1     
   51    2   50 1     
   52    5   51 1     
   53    5   52 1     
   54    8   53 1     
   55    8   54 1     
   56   14   55 1     
   57   18   56 1     
   58   18   57 1     
   59   22   58 1     
@<TRIPOS>SUBSTRUCTURE
      1 S1             1
@<TRIPOS>SET
LONE_PAIRS      STATIC     ATOMS    <user>   **** ""
10 49 50 51 52 53 54 55 56 57 58
DONOR_HYDROGENS      STATIC     ATOMS    <user>   **** ""
1 33
ATOM$BLUE        STATIC     ATOMS    COLORGROUP SYSTEM
10 49 50 51 52 53 54 55 56 57 58
ATOM$RED        STATIC     ATOMS    COLORGROUP SYSTEM
1 33
