AV-unprocessed.smi:1047|AV-procd|sdf|4595|dock8
  -GOLD-   22720 3 83D 1   1.00000     0.00000
 Structure written by MMmdl.
 55 57  0  0  0  0  0  0  0  0  1 V2000
  144.6519  134.2837  150.6183 C   0  0  0  0  0  0  0  0  0  0  0  0
  144.9968  135.7309  150.9982 C   0  0  0  0  0  0  0  0  0  0  0  0
  145.0896  135.9859  152.4347 N   0  0  0  0  0  0  0  0  0  0  0  0
  143.8535  135.6117  153.1126 C   0  0  0  0  0  0  0  0  0  0  0  0
  143.9239  135.8780  154.6254 C   0  0  0  0  0  0  0  0  0  0  0  0
  144.2390  137.2478  154.8503 O   0  0  0  0  0  0  0  0  0  0  0  0
  145.4763  137.6376  154.2586 C   0  0  2  0  0  0  0  0  0  0  0  0
  145.7173  139.1195  154.5783 C   0  0  0  0  0  0  0  0  0  0  0  0
  147.0576  139.5284  154.1723 N   0  0  0  0  0  0  0  0  0  0  0  0
  147.6708  140.5032  155.0687 C   0  0  0  0  0  0  0  0  0  0  0  0
  149.1494  140.7335  154.7126 C   0  0  1  0  0  0  0  0  0  0  0  0
  149.2273  141.1706  153.3691 O   0  0  0  0  0  0  0  0  0  0  0  0
  149.7989  141.7956  155.6204 C   0  0  0  0  0  0  0  0  0  0  0  0
  150.8102  141.2301  156.4957 N   0  0  0  0  0  0  0  0  0  0  0  0
  151.5088  140.0938  156.3082 C   0  0  0  0  0  0  0  0  0  0  0  0
  152.3882  139.7575  157.2476 N   0  0  0  0  0  0  0  0  0  0  0  0
  152.2430  140.7973  158.1503 C   0  0  0  0  0  0  0  0  0  0  0  0
  152.8927  141.0419  159.3799 C   0  0  0  0  0  0  0  0  0  0  0  0
  152.5830  142.1868  160.1484 C   0  0  0  0  0  0  0  0  0  0  0  0
  153.3060  142.4106  161.4649 C   0  0  0  0  0  0  0  0  0  0  0  0
  151.6094  143.1095  159.6880 C   0  0  0  0  0  0  0  0  0  0  0  0
  151.2633  144.3490  160.4939 C   0  0  0  0  0  0  0  0  0  0  0  0
  150.9491  142.8791  158.4628 C   0  0  0  0  0  0  0  0  0  0  0  0
  151.2658  141.7361  157.7078 C   0  0  0  0  0  0  0  0  0  0  0  0
  145.3937  137.3825  152.7401 C   0  0  0  0  0  0  0  0  0  0  0  0
  144.4886  134.1992  149.5438 H   0  0  0  0  0  0  0  0  0  0  0  0
  143.7412  133.9524  151.1182 H   0  0  0  0  0  0  0  0  0  0  0  0
  145.4526  133.5916  150.8782 H   0  0  0  0  0  0  0  0  0  0  0  0
  145.9259  136.0250  150.5074 H   0  0  0  0  0  0  0  0  0  0  0  0
  144.2202  136.3713  150.5779 H   0  0  0  0  0  0  0  0  0  0  0  0
  143.0163  136.1686  152.6886 H   0  0  0  0  0  0  0  0  0  0  0  0
  143.6431  134.5551  152.9432 H   0  0  0  0  0  0  0  0  0  0  0  0
  142.9674  135.6497  155.0956 H   0  0  0  0  0  0  0  0  0  0  0  0
  144.6740  135.2415  155.0975 H   0  0  0  0  0  0  0  0  0  0  0  0
  146.2877  137.0380  154.6768 H   0  0  0  0  0  0  0  0  0  0  0  0
  144.9816  139.7283  154.0511 H   0  0  0  0  0  0  0  0  0  0  0  0
  145.5660  139.2983  155.6436 H   0  0  0  0  0  0  0  0  0  0  0  0
  147.6541  138.7108  154.0919 H   0  0  0  0  0  0  0  0  0  0  0  0
  147.1200  141.4447  155.0564 H   0  0  0  0  0  0  0  0  0  0  0  0
  147.6099  140.1245  156.0900 H   0  0  0  0  0  0  0  0  0  0  0  0
  149.7049  139.7995  154.8107 H   0  0  0  0  0  0  0  0  0  0  0  0
  149.0955  140.4262  152.8025 H   0  0  0  0  0  0  0  0  0  0  0  0
  150.2539  142.5869  155.0226 H   0  0  0  0  0  0  0  0  0  0  0  0
  149.0416  142.2725  156.2440 H   0  0  0  0  0  0  0  0  0  0  0  0
  151.3601  139.4762  155.4343 H   0  0  0  0  0  0  0  0  0  0  0  0
  153.6342  140.3386  159.7297 H   0  0  0  0  0  0  0  0  0  0  0  0
  153.8766  143.3392  161.4337 H   0  0  0  0  0  0  0  0  0  0  0  0
  153.9998  141.5977  161.6818 H   0  0  0  0  0  0  0  0  0  0  0  0
  152.5932  142.4692  162.2877 H   0  0  0  0  0  0  0  0  0  0  0  0
  150.4954  144.9437  159.9986 H   0  0  0  0  0  0  0  0  0  0  0  0
  152.1439  144.9791  160.6221 H   0  0  0  0  0  0  0  0  0  0  0  0
  150.8878  144.0727  161.4794 H   0  0  0  0  0  0  0  0  0  0  0  0
  150.2039  143.5718  158.1006 H   0  0  0  0  0  0  0  0  0  0  0  0
  146.3436  137.6666  152.2881 H   0  0  0  0  0  0  0  0  0  0  0  0
  144.6326  138.0308  152.3027 H   0  0  0  0  0  0  0  0  0  0  0  0
  1  2  1  0  0  0  0
  1 26  1  0  0  0  0
  1 27  1  0  0  0  0
  1 28  1  0  0  0  0
  2  3  1  0  0  0  0
  2 29  1  0  0  0  0
  2 30  1  0  0  0  0
  3 25  1  0  0  0  0
  3  4  1  0  0  0  0
  4  5  1  0  0  0  0
  4 31  1  0  0  0  0
  4 32  1  0  0  0  0
  5  6  1  0  0  0  0
  5 33  1  0  0  0  0
  5 34  1  0  0  0  0
  6  7  1  0  0  0  0
  7  8  1  0  0  0  0
  7 25  1  0  0  0  0
  7 35  1  0  0  0  0
  8  9  1  0  0  0  0
  8 36  1  0  0  0  0
  8 37  1  0  0  0  0
  9 10  1  0  0  0  0
  9 38  1  0  0  0  0
 10 11  1  0  0  0  0
 10 39  1  0  0  0  0
 10 40  1  0  0  0  0
 11 12  1  0  0  0  0
 11 13  1  0  0  0  0
 11 41  1  0  0  0  0
 12 42  1  0  0  0  0
 13 14  1  0  0  0  0
 13 43  1  0  0  0  0
 13 44  1  0  0  0  0
 14 24  1  0  0  0  0
 14 15  1  0  0  0  0
 15 16  2  0  0  0  0
 15 45  1  0  0  0  0
 16 17  1  0  0  0  0
 17 24  2  0  0  0  0
 17 18  1  0  0  0  0
 18 19  2  0  0  0  0
 18 46  1  0  0  0  0
 19 20  1  0  0  0  0
 19 21  1  0  0  0  0
 20 47  1  0  0  0  0
 20 48  1  0  0  0  0
 20 49  1  0  0  0  0
 21 22  1  0  0  0  0
 21 23  2  0  0  0  0
 22 50  1  0  0  0  0
 22 51  1  0  0  0  0
 22 52  1  0  0  0  0
 23 24  1  0  0  0  0
 23 53  1  0  0  0  0
 25 54  1  0  0  0  0
 25 55  1  0  0  0  0
M  END
> <s_m_source_file>
AV-unprocessed.smi

> <i_m_source_file_index>
1047

> <i_lp_mmshare_version>
43012

> <i_f3d_flags>
0

> <s_epik_input>
W0NIM11bQ0gyXU4xW0NIMl1bQ0gyXU9bQ0BIXShbQ0gyXTEpW0NIMl1bTkhdW0NIMl1bQ0BIXShbT0hdKVtDSDJdbihbY0hdbjIpYyhjMjMpW2NIXWMoW0NIM10pYyhbY0hdMylbQ0gzXQ==

> <s_epik_cmdline>
J2VwaWtfcHl0aG9uJywgJy1waCcsICc3LjAnLCAnLXRuJywgJzgnLCAnLW1hJywgJzIwMCcsICctbWV0YWxfYmluZGluZycsICctaW1hZScsICc8aW5maWxlLm1hZT4nLCAnLW9tYWUnLCAnPG91dGZpbGUubWFlPic=

> <r_epik_Ionization_Penalty>
2.74124

> <r_epik_Ionization_Penalty_Charging>
0

> <r_epik_Ionization_Penalty_Neutral>
2.74124

> <r_epik_State_Penalty>
2.37482

> <r_epik_Charging_Adjusted_Penalty>
2.37482

> <i_epik_Tot_Q>
0

> <i_epik_Tot_abs_Q>
0

> <r_epik_Metal_State_Penalty>
2.25944

> <b_epik_Metal_Only>
0

> <s_lp_Force_Field>
OPLS_2005

> <r_lp_Energy>
34.1371

> <b_lp_Chiralities_Consistent>
1

> <s_lp_Variant>
AV-unprocessed.smi:1047-36

> <Gold.Version>
5.8.1

> <Gold.Id.Protein>
6NUR|6NUR_protein|mol2

> <Gold.PLP.Fitness>
51.5001

> <Gold.PLP.PLP>
-45.8381

> <Gold.PLP.part.hbond>
-3.5053

> <Gold.PLP.part.metal>
0.0000

> <Gold.PLP.part.buried>
-5.1780

> <Gold.PLP.part.nonpolar>
-37.3338

> <Gold.PLP.part.repulsive>
0.1976

> <Gold.PLP.ligand.clash>
0.0000

> <Gold.PLP.ligand.torsion>
1.3585

> <Gold.PLP.Chemscore.Hbond>
2.7410

> <Gold.PLP.Chemscore.CHOScore>
0.0000

> <Gold.PLP.Chemscore.Metal>
0.0000

> <Gold.Chemscore.Hbonds>
donor molecule, donor type, donor heavy atom, donor atom, acceptor molecule, acceptor atom, score
      L1  H    12    42       P1  7957  0.67
      P1  H  7989  7998       L1    12  0.01
      P1  H  7997  8009       L1    16  0.76
      P1  H  8011  8017       L1    12  1.00

> <Gold.PLP.Chemscore.Internal.Correction>
0.1560

> <Gold.Rescore>
     Score         DG    S(hbond)    S(metal)    S(lipo)     H(rot)  DE(clash)    DE(int)     intcor
     18.93     -20.61       2.18        0.00     122.36       2.52       0.18       1.50       ----

> <Gold.Chemscore.Fitness>
18.9285

> <Gold.Chemscore.DG>
-20.6085

> <Gold.Chemscore.ZeroCoef>
-5.4800

> <Gold.Chemscore.Hbond>
2.1775

> <Gold.Chemscore.Metal>
0.0000

> <Gold.Chemscore.Lipo>
122.3615

> <Gold.Chemscore.Internal_Hbond>
0.0000

> <Gold.Chemscore.DEClash>
0.1849

> <Gold.Chemscore.DEInternal>
1.4951

> <Gold.Chemscore.Rot>
2.5237

> <Gold.Chemscore.Internal.Correction>
   9.000000E+99

> <Gold.Chemscore.Hbonds>
donor molecule, donor type, donor heavy atom, donor atom, acceptor molecule, acceptor atom, score
      L1  H    12    42       P1  7957  0.66
      P1  H  7997  8009       L1    16  0.17
      P1  H  8011  8017       L1    12  0.49

> <Gold.Chemscore.Hbond.Weighted>
-7.2728

> <Gold.Chemscore.Metal.Weighted>
-0.0000

> <Gold.Chemscore.Lipo.Weighted>
-14.3163

> <Gold.Chemscore.Internal_Hbond.Weighted>
0.0000

> <Gold.Chemscore.DEClash.Weighted>
0.1849

> <Gold.Chemscore.DEInternal.Weighted>
1.4951

> <Gold.Chemscore.Rot.Weighted>
6.4607

> <Gold.Chemscore.Internal.Correction.Weighted>
   9.000000E+99

> <Gold.Protein.RotatedTorsions>
[ 6907 6896 6895 6894 ] final -128.13 input  -60.11 | X-H torsion
[ 7974 7965 7964 7962 ] final  168.29 input  175.53 | X-H torsion
[ 8008 7997 7996 7995 ] final -170.62 input   59.86 | X-H torsion
[ 10167 10162 10161 10158 ] final -160.78 input  -65.29 | X-H torsion
[ 10718 10713 10712 10709 ] final  162.70 input   66.30 | X-H torsion
[ 10763 10752 10751 10750 ] final  -87.88 input  -60.55 | X-H torsion
[ 11005 11000 10999 10996 ] final  134.45 input  -57.11 | X-H torsion

> <Gold.Protein.ActiveResidues>
 VAL166  LYS551  ARG553  GLY616  TRP617  ASP618  TYR619  PRO620  LYS621  CYS622 
 ASP623  PHE694  ASN695  SER759  ASP760  ASP761  ALA762  ILE779  LEU786  VAL792 
 PHE793  MET794  SER795  GLU796  ALA797  LYS798  CYS799  TRP800  GLU811  SER814 

> <Gold.Protein.RotatedAtoms>
  150.9147  133.6954  159.2846 H   0  0  0  0  0  0  0  0  0  0  0  0  # atno 6907 bound_to 6896
  151.4429  135.1021  159.9685 H   0  0  0  0  0  0  0  0  0  0  0  0  # atno 6908 bound_to 6896
  152.4948  133.8550  159.7276 H   0  0  0  0  0  0  0  0  0  0  0  0  # atno 6909 bound_to 6896
  144.7394  139.8885  143.6401 H   0  0  0  0  0  0  0  0  0  0  0  0  # atno 7974 bound_to 7965
  155.9207  140.1073  157.1209 H   0  0  0  0  0  0  0  0  0  0  0  0  # atno 8008 bound_to 7997
  154.4054  140.1256  156.4741 H   0  0  0  0  0  0  0  0  0  0  0  0  # atno 8009 bound_to 7997
  155.7199  140.3470  155.5014 H   0  0  0  0  0  0  0  0  0  0  0  0  # atno 8010 bound_to 7997
  139.6514  144.0077  152.2164 H   0  0  0  0  0  0  0  0  0  0  0  0  # atno 10167 bound_to 10162
  157.1189  131.0487  151.2424 H   0  0  0  0  0  0  0  0  0  0  0  0  # atno 10718 bound_to 10713
  154.6385  135.5397  153.7762 H   0  0  0  0  0  0  0  0  0  0  0  0  # atno 10763 bound_to 10752
  153.0321  135.6453  154.1195 H   0  0  0  0  0  0  0  0  0  0  0  0  # atno 10764 bound_to 10752
  154.1121  135.2926  155.3208 H   0  0  0  0  0  0  0  0  0  0  0  0  # atno 10765 bound_to 10752
  139.9916  134.9513  156.9868 H   0  0  0  0  0  0  0  0  0  0  0  0  # atno 11005 bound_to 11000
  146.1159  139.4170  143.0258 LP  0  0  0  0  0  0  0  0  0  0  0  0  # atno 17320 bound_to 7965
  145.7375  141.0020  143.1318 LP  0  0  0  0  0  0  0  0  0  0  0  0  # atno 17321 bound_to 7965
  139.9792  144.6440  150.7916 LP  0  0  0  0  0  0  0  0  0  0  0  0  # atno 17342 bound_to 10162
  140.7539  143.3017  151.3063 LP  0  0  0  0  0  0  0  0  0  0  0  0  # atno 17343 bound_to 10162
  157.4494  130.7590  149.7138 LP  0  0  0  0  0  0  0  0  0  0  0  0  # atno 17370 bound_to 10713
  155.9833  130.4001  150.3370 LP  0  0  0  0  0  0  0  0  0  0  0  0  # atno 17371 bound_to 10713
  140.4898  134.1205  155.7231 LP  0  0  0  0  0  0  0  0  0  0  0  0  # atno 17394 bound_to 11000
  141.1570  133.8864  157.1950 LP  0  0  0  0  0  0  0  0  0  0  0  0  # atno 17395 bound_to 11000

$$$$
