AV-unprocessed.smi:2167|AV-procd|sdf|8816|dock8
  -GOLD-   2272012 03D 1   1.00000     0.00000
 Structure written by MMmdl.
 41 42  0  0  0  0  0  0  0  0  1 V2000
  147.1970  139.4301  151.6746 C   0  0  0  0  0  0  0  0  0  0  0  0
  147.5922  139.9030  153.0810 C   0  0  0  0  0  0  0  0  0  0  0  0
  148.2923  141.2695  153.0838 C   0  0  0  0  0  0  0  0  0  0  0  0
  148.3783  138.8677  153.8219 C   0  0  0  0  0  0  0  0  0  0  0  0
  149.6757  138.9928  154.1173 N   0  0  0  0  0  0  0  0  0  0  0  0
  150.1793  137.8942  154.8218 C   0  0  0  0  0  0  0  0  0  0  0  0
  151.6197  137.8685  155.2424 C   0  0  0  0  0  0  0  0  0  0  0  0
  152.0844  139.2759  155.6179 C   0  0  0  0  0  0  0  0  0  0  0  0
  152.9290  139.8500  154.9306 O   0  0  0  0  0  0  0  0  0  0  0  0
  151.5232  139.8203  156.7103 N   0  0  0  0  0  0  0  0  0  0  0  0
  151.8152  141.1524  157.2441 C   0  0  2  0  0  0  0  0  0  0  0  0
  151.8026  141.0491  158.7867 C   0  0  0  0  0  0  0  0  0  0  0  0
  152.5948  142.1654  159.4896 C   0  0  0  0  0  0  0  0  0  0  0  0
  152.0273  143.5810  159.3035 C   0  0  0  0  0  0  0  0  0  0  0  0
  152.0167  144.0572  157.8407 C   0  0  0  0  0  0  0  0  0  0  0  0
  150.9210  143.4708  157.0800 N   0  0  0  0  0  0  0  0  0  0  0  0
  150.7424  142.1721  156.7945 C   0  0  0  0  0  0  0  0  0  0  0  0
  149.7372  141.8022  156.1879 O   0  0  0  0  0  0  0  0  0  0  0  0
  149.2377  136.9215  155.0491 C   0  0  0  0  0  0  0  0  0  0  0  0
  147.6825  137.3561  154.3959 S   0  0  0  0  0  0  0  0  0  0  0  0
  146.6230  138.5039  151.7196 H   0  0  0  0  0  0  0  0  0  0  0  0
  148.0760  139.2477  151.0555 H   0  0  0  0  0  0  0  0  0  0  0  0
  146.5828  140.1748  151.1679 H   0  0  0  0  0  0  0  0  0  0  0  0
  146.6609  140.0343  153.6337 H   0  0  0  0  0  0  0  0  0  0  0  0
  148.4810  141.6112  154.1019 H   0  0  0  0  0  0  0  0  0  0  0  0
  147.6811  142.0252  152.5897 H   0  0  0  0  0  0  0  0  0  0  0  0
  149.2501  141.2254  152.5642 H   0  0  0  0  0  0  0  0  0  0  0  0
  151.7576  137.2046  156.0969 H   0  0  0  0  0  0  0  0  0  0  0  0
  152.2534  137.4778  154.4450 H   0  0  0  0  0  0  0  0  0  0  0  0
  150.8368  139.2727  157.2090 H   0  0  0  0  0  0  0  0  0  0  0  0
  152.8008  141.4661  156.8959 H   0  0  0  0  0  0  0  0  0  0  0  0
  150.7808  141.0133  159.1688 H   0  0  0  0  0  0  0  0  0  0  0  0
  152.2565  140.1017  159.0830 H   0  0  0  0  0  0  0  0  0  0  0  0
  152.6296  141.9455  160.5571 H   0  0  0  0  0  0  0  0  0  0  0  0
  153.6308  142.1427  159.1492 H   0  0  0  0  0  0  0  0  0  0  0  0
  151.0243  143.6445  159.7275 H   0  0  0  0  0  0  0  0  0  0  0  0
  152.6409  144.2697  159.8849 H   0  0  0  0  0  0  0  0  0  0  0  0
  151.8789  145.1383  157.8175 H   0  0  0  0  0  0  0  0  0  0  0  0
  152.9719  143.8594  157.3524 H   0  0  0  0  0  0  0  0  0  0  0  0
  150.2085  144.1111  156.7608 H   0  0  0  0  0  0  0  0  0  0  0  0
  149.3642  135.9807  155.5644 H   0  0  0  0  0  0  0  0  0  0  0  0
  1  2  1  0  0  0  0
  1 21  1  0  0  0  0
  1 22  1  0  0  0  0
  1 23  1  0  0  0  0
  2  3  1  0  0  0  0
  2  4  1  0  0  0  0
  2 24  1  0  0  0  0
  3 25  1  0  0  0  0
  3 26  1  0  0  0  0
  3 27  1  0  0  0  0
  4 20  1  0  0  0  0
  4  5  2  0  0  0  0
  5  6  1  0  0  0  0
  6  7  1  0  0  0  0
  6 19  2  0  0  0  0
  7  8  1  0  0  0  0
  7 28  1  0  0  0  0
  7 29  1  0  0  0  0
  8  9  2  0  0  0  0
  8 10  1  0  0  0  0
 10 11  1  0  0  0  0
 10 30  1  0  0  0  0
 11 17  1  0  0  0  0
 11 12  1  0  0  0  0
 11 31  1  0  0  0  0
 12 13  1  0  0  0  0
 12 32  1  0  0  0  0
 12 33  1  0  0  0  0
 13 14  1  0  0  0  0
 13 34  1  0  0  0  0
 13 35  1  0  0  0  0
 14 15  1  0  0  0  0
 14 36  1  0  0  0  0
 14 37  1  0  0  0  0
 15 16  1  0  0  0  0
 15 38  1  0  0  0  0
 15 39  1  0  0  0  0
 16 17  1  0  0  0  0
 16 40  1  0  0  0  0
 17 18  2  0  0  0  0
 19 20  1  0  0  0  0
 19 41  1  0  0  0  0
M  END
> <s_m_source_file>
AV-unprocessed.smi

> <i_m_source_file_index>
2167

> <i_lp_mmshare_version>
43012

> <i_f3d_flags>
0

> <s_epik_input>
W0NIM11bQ0hdKFtDSDNdKWMxbmMoW2NIXXMxKVtDSDJdQyg9TylbTkhdW0NAQEhdMltDSDJdW0NIMl1bQ0gyXVtDSDJdW05IXUMyPU8=

> <s_epik_cmdline>
J2VwaWtfcHl0aG9uJywgJy1waCcsICc3LjAnLCAnLXRuJywgJzgnLCAnLW1hJywgJzIwMCcsICctbWV0YWxfYmluZGluZycsICctaW1hZScsICc8aW5maWxlLm1hZT4nLCAnLW9tYWUnLCAnPG91dGZpbGUubWFlPic=

> <r_lp_tautomer_probability>
1

> <r_epik_Ionization_Penalty>
3.1619e-05

> <r_epik_Ionization_Penalty_Charging>
0

> <r_epik_Ionization_Penalty_Neutral>
3.1619e-05

> <r_epik_State_Penalty>
-0

> <r_epik_Charging_Adjusted_Penalty>
0

> <i_epik_Tot_Q>
0

> <i_epik_Tot_abs_Q>
0

> <r_epik_Metal_State_Penalty>
-0

> <b_epik_Metal_Only>
0

> <s_lp_Force_Field>
OPLS_2005

> <r_lp_Energy>
2.42102

> <b_lp_Chiralities_Consistent>
1

> <s_lp_Variant>
AV-unprocessed.smi:2167-1

> <Gold.Version>
5.8.1

> <Gold.Id.Protein>
6NUR|6NUR_protein|mol2

> <Gold.PLP.Fitness>
43.2113

> <Gold.PLP.PLP>
-37.8575

> <Gold.PLP.part.hbond>
-3.0000

> <Gold.PLP.part.metal>
0.0000

> <Gold.PLP.part.buried>
-2.7892

> <Gold.PLP.part.nonpolar>
-31.5916

> <Gold.PLP.part.repulsive>
0.4199

> <Gold.PLP.ligand.clash>
0.0000

> <Gold.PLP.ligand.torsion>
1.0215

> <Gold.PLP.Chemscore.Hbond>
2.4400

> <Gold.PLP.Chemscore.CHOScore>
0.0000

> <Gold.PLP.Chemscore.Metal>
0.0000

> <Gold.Chemscore.Hbonds>
donor molecule, donor type, donor heavy atom, donor atom, acceptor molecule, acceptor atom, score
      L1  H    16    40       P1  8028  1.00
      P1  H  7989  7998       L1     9  0.29
      P1  H  7997  8009       L1     9  1.00

> <Gold.PLP.Chemscore.Internal.Correction>
0.0769

> <Gold.Rescore>
     Score         DG    S(hbond)    S(metal)    S(lipo)     H(rot)  DE(clash)    DE(int)     intcor
     18.48     -19.61       2.14        0.00      94.02       1.57       0.19       0.95       ----

> <Gold.Chemscore.Fitness>
18.4780

> <Gold.Chemscore.DG>
-19.6112

> <Gold.Chemscore.ZeroCoef>
-5.4800

> <Gold.Chemscore.Hbond>
2.1434

> <Gold.Chemscore.Metal>
0.0000

> <Gold.Chemscore.Lipo>
94.0155

> <Gold.Chemscore.Internal_Hbond>
0.0000

> <Gold.Chemscore.DEClash>
0.1867

> <Gold.Chemscore.DEInternal>
0.9465

> <Gold.Chemscore.Rot>
1.5733

> <Gold.Chemscore.Internal.Correction>
   9.000000E+99

> <Gold.Chemscore.Hbonds>
donor molecule, donor type, donor heavy atom, donor atom, acceptor molecule, acceptor atom, score
      L1  H    16    40       P1  8028  0.98
      P1  H  7989  7998       L1     9  0.10
      P1  H  7997  8009       L1     9  0.95

> <Gold.Chemscore.Hbond.Weighted>
-7.1590

> <Gold.Chemscore.Metal.Weighted>
-0.0000

> <Gold.Chemscore.Lipo.Weighted>
-10.9998

> <Gold.Chemscore.Internal_Hbond.Weighted>
0.0000

> <Gold.Chemscore.DEClash.Weighted>
0.1867

> <Gold.Chemscore.DEInternal.Weighted>
0.9465

> <Gold.Chemscore.Rot.Weighted>
4.0276

> <Gold.Chemscore.Internal.Correction.Weighted>
   9.000000E+99

> <Gold.Protein.RotatedTorsions>
[ 6907 6896 6895 6894 ] final  -40.43 input  -60.11 | X-H torsion
[ 7974 7965 7964 7962 ] final   81.72 input  175.53 | X-H torsion
[ 8008 7997 7996 7995 ] final -121.30 input   59.86 | X-H torsion
[ 10167 10162 10161 10158 ] final -102.01 input  -65.29 | X-H torsion
[ 10718 10713 10712 10709 ] final  128.70 input   66.30 | X-H torsion
[ 10763 10752 10751 10750 ] final  134.70 input  -60.55 | X-H torsion
[ 11005 11000 10999 10996 ] final -153.14 input  -57.11 | X-H torsion

> <Gold.Protein.ActiveResidues>
 VAL166  LYS551  ARG553  GLY616  TRP617  ASP618  TYR619  PRO620  LYS621  CYS622 
 ASP623  PHE694  ASN695  SER759  ASP760  ASP761  ALA762  ILE779  LEU786  VAL792 
 PHE793  MET794  SER795  GLU796  ALA797  LYS798  CYS799  TRP800  GLU811  SER814 

> <Gold.Protein.RotatedAtoms>
  150.9786  134.9145  159.7830 H   0  0  0  0  0  0  0  0  0  0  0  0  # atno 6907 bound_to 6896
  152.5214  134.3442  159.9238 H   0  0  0  0  0  0  0  0  0  0  0  0  # atno 6908 bound_to 6896
  151.3450  133.3906  159.2709 H   0  0  0  0  0  0  0  0  0  0  0  0  # atno 6909 bound_to 6896
  145.6344  139.2412  143.2066 H   0  0  0  0  0  0  0  0  0  0  0  0  # atno 7974 bound_to 7965
  155.1458  140.0403  157.2809 H   0  0  0  0  0  0  0  0  0  0  0  0  # atno 8008 bound_to 7997
  154.6440  140.2553  155.7263 H   0  0  0  0  0  0  0  0  0  0  0  0  # atno 8009 bound_to 7997
  156.2546  140.2850  156.0845 H   0  0  0  0  0  0  0  0  0  0  0  0  # atno 8010 bound_to 7997
  140.2352  143.3578  152.0851 H   0  0  0  0  0  0  0  0  0  0  0  0  # atno 10167 bound_to 10162
  157.5221  131.1098  150.9138 H   0  0  0  0  0  0  0  0  0  0  0  0  # atno 10718 bound_to 10713
  153.8279  135.3107  155.3416 H   0  0  0  0  0  0  0  0  0  0  0  0  # atno 10763 bound_to 10752
  154.7985  135.4741  154.0222 H   0  0  0  0  0  0  0  0  0  0  0  0  # atno 10764 bound_to 10752
  153.1652  135.6868  153.8776 H   0  0  0  0  0  0  0  0  0  0  0  0  # atno 10765 bound_to 10752
  140.7114  134.3828  157.5197 H   0  0  0  0  0  0  0  0  0  0  0  0  # atno 11005 bound_to 11000
  146.1331  140.7159  142.9403 LP  0  0  0  0  0  0  0  0  0  0  0  0  # atno 17320 bound_to 7965
  144.7181  140.4280  143.7029 LP  0  0  0  0  0  0  0  0  0  0  0  0  # atno 17321 bound_to 7965
  139.5096  144.6870  151.5860 LP  0  0  0  0  0  0  0  0  0  0  0  0  # atno 17342 bound_to 10162
  140.6155  143.9356  150.6485 LP  0  0  0  0  0  0  0  0  0  0  0  0  # atno 17343 bound_to 10162
  156.9745  130.5503  149.5292 LP  0  0  0  0  0  0  0  0  0  0  0  0  # atno 17370 bound_to 10713
  156.0361  130.5448  150.8656 LP  0  0  0  0  0  0  0  0  0  0  0  0  # atno 17371 bound_to 10713
  139.8871  134.8892  156.2549 LP  0  0  0  0  0  0  0  0  0  0  0  0  # atno 17394 bound_to 11000
  141.0081  133.7111  156.1067 LP  0  0  0  0  0  0  0  0  0  0  0  0  # atno 17395 bound_to 11000

$$$$
