#       Name:                AV-unprocessed.smi:234
#       Creating user name   scv26
#       Creation time:       Thu Mar 26 20:37:07 2020


#       File generated by GOLD software.
#

@<TRIPOS>MOLECULE
AV-unprocessed.smi:234
    68    71     1
SMALL
NO_CHARGES


@<TRIPOS>ATOM
      1 ****        -5.3010  -2.8462   3.1746 C.3            1 S1                 0.0000
      2 ****        -3.9355  -2.1561   3.1564 C.3            1 S1                 0.0000
      3 ****        -3.9476  -1.1415   2.1660 O.3            1 S1                 0.0000
      4 ****        -2.7250  -0.4247   2.0918 C.3            1 S1                 0.0000
      5 ****        -2.7033   0.5593   0.9234 C.3            1 S1                 0.0000
      6 ****        -2.0089   1.5639   1.8634 C.3            1 S1                 0.0000
      7 ****        -0.5371   1.6181   1.7965 N.pl3          1 S1                 0.0000
      8 ****         0.2011   2.5293   2.6596 C.3            1 S1                 0.0000
      9 ****         0.2105   0.7102   1.1309 C.ar           1 S1                 0.0000
     10 ****         0.8406  -0.2645   1.8341 N.ar           1 S1                 0.0000
     11 ****         1.5922  -1.1669   1.1961 C.ar           1 S1                 0.0000
     12 ****         1.8520  -1.2639  -0.1099 N.ar           1 S1                 0.0000
     13 ****         1.2346  -0.2722  -0.8142 C.ar           1 S1                 0.0000
     14 ****         0.4036   0.7488  -0.2759 C.ar           1 S1                 0.0000
     15 ****        -0.0466   1.5834  -1.2908 N.2            1 S1                 0.0000
     16 ****         0.4839   1.0791  -2.3716 C.2            1 S1                 0.0000
     17 ****         1.2774  -0.0298  -2.1761 N.pl3          1 S1                 0.0000
     18 ****         1.9933  -0.7808  -3.1967 C.3            1 S1                 0.0000
     19 ****         3.4375  -0.2685  -3.4398 C.3            1 S1                 0.0000
     20 ****         4.1668  -0.4130  -2.2328 O.3            1 S1                 0.0000
     21 ****         3.4982   1.2025  -3.8494 C.3            1 S1                 0.0000
     22 ****         4.7260   1.2653  -4.7449 C.3            1 S1                 0.0000
     23 ****         4.6317   0.0512  -5.4674 O.3            1 S1                 0.0000
     24 ****         4.2429  -0.9796  -4.5646 C.3            1 S1                 0.0000
     25 ****         3.5120  -2.0683  -5.3659 C.3            1 S1                 0.0000
     26 ****        -2.5941   0.7690   3.0720 C.3            1 S1                 0.0000
     27 ****        -3.9159   1.3470   3.5981 C.3            1 S1                 0.0000
     28 ****        -1.7147   0.5354   4.3067 C.3            1 S1                 0.0000
     29 ****        -5.3268  -3.6382   3.9232 H              1 S1                 0.0000
     30 ****        -5.5268  -3.2932   2.2064 H              1 S1                 0.0000
     31 ****        -6.0938  -2.1359   3.4101 H              1 S1                 0.0000
     32 ****        -3.7241  -1.7308   4.1375 H              1 S1                 0.0000
     33 ****        -3.1531  -2.8839   2.9372 H              1 S1                 0.0000
     34 ****        -1.8478  -1.0743   2.0776 H              1 S1                 0.0000
     35 ****        -2.1592   0.2131   0.0475 H              1 S1                 0.0000
     36 ****        -3.7039   0.8881   0.6394 H              1 S1                 0.0000
     37 ****        -2.4517   2.5566   1.7748 H              1 S1                 0.0000
     38 ****         0.9501   3.0750   2.0849 H              1 S1                 0.0000
     39 ****         0.7083   1.9880   3.4586 H              1 S1                 0.0000
     40 ****        -0.4699   3.2572   3.1162 H              1 S1                 0.0000
     41 ****         2.0522  -1.9179   1.8215 H              1 S1                 0.0000
     42 ****         0.3145   1.5096  -3.3479 H              1 S1                 0.0000
     43 ****         2.0037  -1.8314  -2.9028 H              1 S1                 0.0000
     44 ****         1.4095  -0.7225  -4.1155 H              1 S1                 0.0000
     45 ****         3.6992   0.0344  -1.5441 H              1 S1                 0.0000
     46 ****         2.6229   1.4625  -4.4459 H              1 S1                 0.0000
     47 ****         3.5440   1.8960  -3.0082 H              1 S1                 0.0000
     48 ****         4.7230   2.1309  -5.4076 H              1 S1                 0.0000
     49 ****         5.6450   1.2784  -4.1567 H              1 S1                 0.0000
     50 ****         5.1585  -1.4129  -4.1571 H              1 S1                 0.0000
     51 ****         3.1967  -2.8907  -4.7237 H              1 S1                 0.0000
     52 ****         4.1678  -2.4856  -6.1302 H              1 S1                 0.0000
     53 ****         2.6327  -1.6721  -5.8738 H              1 S1                 0.0000
     54 ****        -3.7578   2.2936   4.1156 H              1 S1                 0.0000
     55 ****        -4.4040   0.6694   4.2991 H              1 S1                 0.0000
     56 ****        -4.6260   1.5381   2.7934 H              1 S1                 0.0000
     57 ****        -1.4500   1.4742   4.7936 H              1 S1                 0.0000
     58 ****        -0.7875   0.0213   4.0571 H              1 S1                 0.0000
     59 ****        -2.2202  -0.0816   5.0499 H              1 S1                 0.0000
     60 ****        -4.6823  -0.4973   2.3786 LP             1 S1                 0.0000
     61 ****        -4.1229  -1.5656   1.2775 LP             1 S1                 0.0000
     62 ****         0.7427  -0.3075   2.8284 LP             1 S1                 0.0000
     63 ****         2.4259  -1.9731  -0.5195 LP             1 S1                 0.0000
     64 ****        -0.6396   2.3847  -1.2118 LP             1 S1                 0.0000
     65 ****         5.0767  -0.0118  -2.3384 LP             1 S1                 0.0000
     66 ****         4.2545  -1.3830  -2.0059 LP             1 S1                 0.0000
     67 ****         5.5188  -0.1710  -5.8720 LP             1 S1                 0.0000
     68 ****         3.9482   0.1413  -6.1918 LP             1 S1                 0.0000
@<TRIPOS>BOND
    1    1    2 1     
    2    1   29 1     
    3    1   30 1     
    4    1   31 1     
    5    2    3 1     
    6    2   32 1     
    7    2   33 1     
    8    3    4 1     
    9    4   26 1     
   10    4    5 1     
   11    4   34 1     
   12    5    6 1     
   13    5   35 1     
   14    5   36 1     
   15    6    7 1     
   16    6   26 1     
   17    6   37 1     
   18    7    8 1     
   19    7    9 1     
   20    8   38 1     
   21    8   39 1     
   22    8   40 1     
   23    9   14 ar    
   24    9   10 ar    
   25   10   11 ar    
   26   11   12 ar    
   27   11   41 1     
   28   12   13 ar    
   29   13   17 1     
   30   13   14 ar    
   31   14   15 1     
   32   15   16 2     
   33   16   17 1     
   34   16   42 1     
   35   17   18 1     
   36   18   19 1     
   37   18   43 1     
   38   18   44 1     
   39   19   24 1     
   40   19   20 1     
   41   19   21 1     
   42   20   45 1     
   43   21   22 1     
   44   21   46 1     
   45   21   47 1     
   46   22   23 1     
   47   22   48 1     
   48   22   49 1     
   49   23   24 1     
   50   24   25 1     
   51   24   50 1     
   52   25   51 1     
   53   25   52 1     
   54   25   53 1     
   55   26   27 1     
   56   26   28 1     
   57   27   54 1     
   58   27   55 1     
   59   27   56 1     
   60   28   57 1     
   61   28   58 1     
   62   28   59 1     
   63    3   60 1     
   64    3   61 1     
   65   10   62 1     
   66   12   63 1     
   67   15   64 1     
   68   20   65 1     
   69   20   66 1     
   70   23   67 1     
   71   23   68 1     
@<TRIPOS>SUBSTRUCTURE
      1 S1             1
@<TRIPOS>SET
LONE_PAIRS      STATIC     ATOMS    <user>   **** ""
9 60 61 62 63 64 65 66 67 68
DONOR_HYDROGENS      STATIC     ATOMS    <user>   **** ""
1 45
ATOM$BLUE        STATIC     ATOMS    COLORGROUP SYSTEM
9 60 61 62 63 64 65 66 67 68
ATOM$RED        STATIC     ATOMS    COLORGROUP SYSTEM
1 45
