AV-unprocessed.smi:2706|AV-procd|sdf|10445|dock7
  -GOLD-   2272014483D 1   1.00000     0.00000
 Structure written by MMmdl.
 43 46  0  0  0  0  0  0  0  0  1 V2000
  145.1699  131.6268  151.5528 C   0  0  0  0  0  0  0  0  0  0  0  0
  145.9237  130.5734  152.2258 N   0  0  0  0  0  0  0  0  0  0  0  0
  145.5415  129.1784  152.0468 C   0  0  0  0  0  0  0  0  0  0  0  0
  147.0733  130.9052  152.9780 C   0  0  0  0  0  0  0  0  0  0  0  0
  147.8106  129.9218  153.6802 C   0  0  0  0  0  0  0  0  0  0  0  0
  148.9483  130.3149  154.4074 C   0  0  0  0  0  0  0  0  0  0  0  0
  149.3179  131.6718  154.4162 C   0  0  0  0  0  0  0  0  0  0  0  0
  148.5374  132.6020  153.6983 C   0  0  0  0  0  0  0  0  0  0  0  0
  148.9853  133.9484  153.7632 N   0  0  0  0  0  0  0  0  0  0  0  0
  149.7453  134.5248  154.7116 C   0  0  0  0  0  0  0  0  0  0  0  0
  150.2083  133.9512  155.6984 O   0  0  0  0  0  0  0  0  0  0  0  0
  149.9451  135.8235  154.4481 N   0  0  0  0  0  0  0  0  0  0  0  0
  150.7140  136.7216  155.2472 C   0  0  2  0  0  0  0  0  0  0  0  0
  149.9699  137.8655  155.9183 C   0  0  1  0  0  0  0  0  0  0  0  0
  150.5272  138.7702  157.0135 C   0  0  2  0  0  0  0  0  0  0  0  0
  150.1517  140.2245  156.6618 C   0  0  0  0  0  0  0  0  0  0  0  0
  151.0624  140.5196  155.4445 C   0  0  0  0  0  0  0  0  0  0  0  0
  151.8322  139.1934  155.2741 C   0  0  1  0  0  0  0  0  0  0  0  0
  152.0317  138.8109  156.7414 C   0  0  0  0  0  0  0  0  0  0  0  0
  150.8541  138.1499  154.7420 C   0  0  1  0  0  0  0  0  0  0  0  0
  147.4443  132.2083  153.0012 N   0  0  0  0  0  0  0  0  0  0  0  0
  144.8050  132.3587  152.2740 H   0  0  0  0  0  0  0  0  0  0  0  0
  144.3067  131.2236  151.0232 H   0  0  0  0  0  0  0  0  0  0  0  0
  145.7985  132.1414  150.8256 H   0  0  0  0  0  0  0  0  0  0  0  0
  145.2936  128.7242  153.0066 H   0  0  0  0  0  0  0  0  0  0  0  0
  146.3538  128.6122  151.5899 H   0  0  0  0  0  0  0  0  0  0  0  0
  144.6691  129.0864  151.3998 H   0  0  0  0  0  0  0  0  0  0  0  0
  147.5284  128.8800  153.6752 H   0  0  0  0  0  0  0  0  0  0  0  0
  149.5301  129.5852  154.9512 H   0  0  0  0  0  0  0  0  0  0  0  0
  150.1894  131.9896  154.9700 H   0  0  0  0  0  0  0  0  0  0  0  0
  148.6888  134.5416  153.0027 H   0  0  0  0  0  0  0  0  0  0  0  0
  149.5245  136.2081  153.6150 H   0  0  0  0  0  0  0  0  0  0  0  0
  151.5628  136.2928  155.7755 H   0  0  0  0  0  0  0  0  0  0  0  0
  148.8930  137.9170  155.7663 H   0  0  0  0  0  0  0  0  0  0  0  0
  150.2390  138.4500  158.0148 H   0  0  0  0  0  0  0  0  0  0  0  0
  149.0923  140.3328  156.4256 H   0  0  0  0  0  0  0  0  0  0  0  0
  150.3819  140.8987  157.4878 H   0  0  0  0  0  0  0  0  0  0  0  0
  150.4922  140.7843  154.5530 H   0  0  0  0  0  0  0  0  0  0  0  0
  151.7438  141.3429  155.6631 H   0  0  0  0  0  0  0  0  0  0  0  0
  152.7422  139.2636  154.6781 H   0  0  0  0  0  0  0  0  0  0  0  0
  152.5586  139.5713  157.3215 H   0  0  0  0  0  0  0  0  0  0  0  0
  152.5420  137.8603  156.8924 H   0  0  0  0  0  0  0  0  0  0  0  0
  150.3746  138.3931  153.7953 H   0  0  0  0  0  0  0  0  0  0  0  0
  1  2  1  0  0  0  0
  1 22  1  0  0  0  0
  1 23  1  0  0  0  0
  1 24  1  0  0  0  0
  2  3  1  0  0  0  0
  2  4  1  0  0  0  0
  3 25  1  0  0  0  0
  3 26  1  0  0  0  0
  3 27  1  0  0  0  0
  4 21  1  0  0  0  0
  4  5  2  0  0  0  0
  5  6  1  0  0  0  0
  5 28  1  0  0  0  0
  6  7  2  0  0  0  0
  6 29  1  0  0  0  0
  7  8  1  0  0  0  0
  7 30  1  0  0  0  0
  8  9  1  0  0  0  0
  8 21  2  0  0  0  0
  9 10  1  0  0  0  0
  9 31  1  0  0  0  0
 10 11  2  0  0  0  0
 10 12  1  0  0  0  0
 12 13  1  0  0  0  0
 12 32  1  0  0  0  0
 13 20  1  0  0  0  0
 13 14  1  0  0  0  0
 13 33  1  0  0  0  0
 14 20  1  0  0  0  0
 14 15  1  0  0  0  0
 14 34  1  0  0  0  0
 15 19  1  0  0  0  0
 15 16  1  0  0  0  0
 15 35  1  0  0  0  0
 16 17  1  0  0  0  0
 16 36  1  0  0  0  0
 16 37  1  0  0  0  0
 17 18  1  0  0  0  0
 17 38  1  0  0  0  0
 17 39  1  0  0  0  0
 18 19  1  0  0  0  0
 18 20  1  0  0  0  0
 18 40  1  0  0  0  0
 19 41  1  0  0  0  0
 19 42  1  0  0  0  0
 20 43  1  0  0  0  0
M  END
> <s_m_source_file>
AV-unprocessed.smi

> <i_m_source_file_index>
2706

> <i_lp_mmshare_version>
43012

> <i_f3d_flags>
0

> <s_epik_input>
W0NIM11OKFtDSDNdKWMxW2NIXVtjSF1bY0hdYyhuMSlbTkhdQyg9TylbTkhdW0NASF0yW0NAQEhdM1tDQEBIXShbQ0gyXTQpW0NIMl1bQ0gyXVtDQEBIXTRbQ0BIXTIz

> <s_epik_cmdline>
J2VwaWtfcHl0aG9uJywgJy1waCcsICc3LjAnLCAnLXRuJywgJzgnLCAnLW1hJywgJzIwMCcsICctbWV0YWxfYmluZGluZycsICctaW1hZScsICc8aW5maWxlLm1hZT4nLCAnLW9tYWUnLCAnPG91dGZpbGUubWFlPic=

> <r_lp_tautomer_probability>
1

> <r_epik_Ionization_Penalty>
0.0296788

> <r_epik_Ionization_Penalty_Charging>
0

> <r_epik_Ionization_Penalty_Neutral>
0.0296788

> <r_epik_State_Penalty>
0.0248512

> <r_epik_Charging_Adjusted_Penalty>
0.0248512

> <i_epik_Tot_Q>
0

> <i_epik_Tot_abs_Q>
0

> <r_epik_Metal_State_Penalty>
0.0237882

> <b_epik_Metal_Only>
0

> <s_lp_Force_Field>
OPLS_2005

> <r_lp_Energy>
77.4142

> <b_lp_Chiralities_Consistent>
1

> <s_lp_Variant>
AV-unprocessed.smi:2706-2

> <Gold.Version>
5.8.1

> <Gold.Id.Protein>
6NUR|6NUR_protein|mol2

> <Gold.PLP.Fitness>
41.9386

> <Gold.PLP.PLP>
-36.5731

> <Gold.PLP.part.hbond>
-2.5521

> <Gold.PLP.part.metal>
0.0000

> <Gold.PLP.part.buried>
-3.3136

> <Gold.PLP.part.nonpolar>
-30.6437

> <Gold.PLP.part.repulsive>
0.2146

> <Gold.PLP.ligand.clash>
0.0000

> <Gold.PLP.ligand.torsion>
0.1431

> <Gold.PLP.Chemscore.Hbond>
1.8736

> <Gold.PLP.Chemscore.CHOScore>
0.0000

> <Gold.PLP.Chemscore.Metal>
0.0000

> <Gold.Chemscore.Hbonds>
donor molecule, donor type, donor heavy atom, donor atom, acceptor molecule, acceptor atom, score
      L1  H     9    31       P1  7948  0.84
      L1  H    12    32       P1  7948  1.00

> <Gold.PLP.Chemscore.Internal.Correction>
0.0309

> <Gold.Rescore>
     Score         DG    S(hbond)    S(metal)    S(lipo)     H(rot)  DE(clash)    DE(int)     intcor
     14.33     -15.92       1.34        0.00      72.94       1.00       0.00       1.59       ----

> <Gold.Chemscore.Fitness>
14.3260

> <Gold.Chemscore.DG>
-15.9223

> <Gold.Chemscore.ZeroCoef>
-5.4800

> <Gold.Chemscore.Hbond>
1.3379

> <Gold.Chemscore.Metal>
0.0000

> <Gold.Chemscore.Lipo>
72.9384

> <Gold.Chemscore.Internal_Hbond>
0.0000

> <Gold.Chemscore.DEClash>
0.0029

> <Gold.Chemscore.DEInternal>
1.5934

> <Gold.Chemscore.Rot>
1.0000

> <Gold.Chemscore.Internal.Correction>
   9.000000E+99

> <Gold.Chemscore.Hbonds>
donor molecule, donor type, donor heavy atom, donor atom, acceptor molecule, acceptor atom, score
      L1  H     9    31       P1  7948  0.13
      L1  H    12    32       P1  7948  0.54

> <Gold.Chemscore.Hbond.Weighted>
-4.4685

> <Gold.Chemscore.Metal.Weighted>
-0.0000

> <Gold.Chemscore.Lipo.Weighted>
-8.5338

> <Gold.Chemscore.Internal_Hbond.Weighted>
0.0000

> <Gold.Chemscore.DEClash.Weighted>
0.0029

> <Gold.Chemscore.DEInternal.Weighted>
1.5934

> <Gold.Chemscore.Rot.Weighted>
2.5600

> <Gold.Chemscore.Internal.Correction.Weighted>
   9.000000E+99

> <Gold.Protein.RotatedTorsions>
[ 6907 6896 6895 6894 ] final   73.95 input  -60.11 | X-H torsion
[ 7974 7965 7964 7962 ] final  152.00 input  175.53 | X-H torsion
[ 8008 7997 7996 7995 ] final  121.42 input   59.86 | X-H torsion
[ 10167 10162 10161 10158 ] final  -73.69 input  -65.29 | X-H torsion
[ 10718 10713 10712 10709 ] final  156.44 input   66.30 | X-H torsion
[ 10763 10752 10751 10750 ] final -105.57 input  -60.55 | X-H torsion
[ 11005 11000 10999 10996 ] final  -95.53 input  -57.11 | X-H torsion

> <Gold.Protein.ActiveResidues>
 VAL166  LYS551  ARG553  GLY616  TRP617  ASP618  TYR619  PRO620  LYS621  CYS622 
 ASP623  PHE694  ASN695  SER759  ASP760  ASP761  ALA762  ILE779  LEU786  VAL792 
 PHE793  MET794  SER795  GLU796  ALA797  LYS798  CYS799  TRP800  GLU811  SER814 

> <Gold.Protein.RotatedAtoms>
  152.4950  134.4344  159.9522 H   0  0  0  0  0  0  0  0  0  0  0  0  # atno 6907 bound_to 6896
  151.4325  133.3660  159.2778 H   0  0  0  0  0  0  0  0  0  0  0  0  # atno 6908 bound_to 6896
  150.9145  134.8585  159.7507 H   0  0  0  0  0  0  0  0  0  0  0  0  # atno 6909 bound_to 6896
  144.8253  139.6611  143.6082 H   0  0  0  0  0  0  0  0  0  0  0  0  # atno 7974 bound_to 7965
  156.2686  140.2809  156.1306 H   0  0  0  0  0  0  0  0  0  0  0  0  # atno 8008 bound_to 7997
  155.1058  140.0390  157.2727 H   0  0  0  0  0  0  0  0  0  0  0  0  # atno 8009 bound_to 7997
  154.6780  140.2602  155.6944 H   0  0  0  0  0  0  0  0  0  0  0  0  # atno 8010 bound_to 7997
  140.5089  143.2348  151.7627 H   0  0  0  0  0  0  0  0  0  0  0  0  # atno 10167 bound_to 10162
  157.2050  131.0685  151.2003 H   0  0  0  0  0  0  0  0  0  0  0  0  # atno 10718 bound_to 10713
  154.7955  135.4744  154.0152 H   0  0  0  0  0  0  0  0  0  0  0  0  # atno 10763 bound_to 10752
  153.1697  135.6823  153.8632 H   0  0  0  0  0  0  0  0  0  0  0  0  # atno 10764 bound_to 10752
  153.8218  135.3203  155.3389 H   0  0  0  0  0  0  0  0  0  0  0  0  # atno 10765 bound_to 10752
  141.1439  133.8033  157.0448 H   0  0  0  0  0  0  0  0  0  0  0  0  # atno 11005 bound_to 11000
  146.2558  139.6300  142.9396 LP  0  0  0  0  0  0  0  0  0  0  0  0  # atno 17320 bound_to 7965
  145.5014  141.0437  143.2538 LP  0  0  0  0  0  0  0  0  0  0  0  0  # atno 17321 bound_to 7965
  139.4891  144.4419  151.9755 LP  0  0  0  0  0  0  0  0  0  0  0  0  # atno 17342 bound_to 10162
  140.3510  144.3089  150.5949 LP  0  0  0  0  0  0  0  0  0  0  0  0  # atno 17343 bound_to 10162
  157.3729  130.7191  149.6577 LP  0  0  0  0  0  0  0  0  0  0  0  0  # atno 17370 bound_to 10713
  155.9696  130.4194  150.4372 LP  0  0  0  0  0  0  0  0  0  0  0  0  # atno 17371 bound_to 10713
  140.0669  134.9724  157.1402 LP  0  0  0  0  0  0  0  0  0  0  0  0  # atno 17394 bound_to 11000
  140.3766  134.2332  155.7174 LP  0  0  0  0  0  0  0  0  0  0  0  0  # atno 17395 bound_to 11000

$$$$
