AV-unprocessed.smi:801|AV-procd|sdf|3789|dock4
  -GOLD-   22720 1223D 1   1.00000     0.00000
 Structure written by MMmdl.
 44 45  0  0  0  0  0  0  0  0  1 V2000
  148.5299  135.8883  160.0234 C   0  0  0  0  0  0  0  0  0  0  0  0
  149.7118  135.8911  159.2377 O   0  0  0  0  0  0  0  0  0  0  0  0
  149.5255  135.4185  157.9116 C   0  0  0  0  0  0  0  0  0  0  0  0
  150.1000  136.3994  156.8734 C   0  0  0  0  0  0  0  0  0  0  0  0
  151.2322  137.1447  157.3864 N   0  0  0  0  0  0  0  0  0  0  0  0
  151.1876  138.5115  157.6756 C   0  0  0  0  0  0  0  0  0  0  0  0
  149.9928  139.1985  157.4094 N   0  0  0  0  0  0  0  0  0  0  0  0
  149.8224  140.0735  156.4028 C   0  0  0  0  0  0  0  0  0  0  0  0
  148.4784  140.7920  156.3584 C   0  0  0  0  0  0  0  0  0  0  0  0
  150.6772  140.3139  155.5506 O   0  0  0  0  0  0  0  0  0  0  0  0
  152.2709  139.1963  158.1602 C   0  0  0  0  0  0  0  0  0  0  0  0
  152.2113  140.5706  158.3989 N   0  0  0  0  0  0  0  0  0  0  0  0
  153.2093  141.5029  158.9020 C   0  0  0  0  0  0  0  0  0  0  0  0
  152.6286  142.8481  159.3000 C   0  0  0  0  0  0  0  0  0  0  0  0
  152.5817  143.2337  160.6578 C   0  0  0  0  0  0  0  0  0  0  0  0
  152.0375  144.4803  161.0230 C   0  0  0  0  0  0  0  0  0  0  0  0
  151.5334  145.3461  160.0335 C   0  0  0  0  0  0  0  0  0  0  0  0
  151.5726  144.9640  158.6787 C   0  0  0  0  0  0  0  0  0  0  0  0
  152.1174  143.7175  158.3129 C   0  0  0  0  0  0  0  0  0  0  0  0
  153.5349  138.4778  158.4026 C   0  0  0  0  0  0  0  0  0  0  0  0
  154.5761  138.9522  158.8536 O   0  0  0  0  0  0  0  0  0  0  0  0
  153.5200  137.1256  158.0686 N   0  0  0  0  0  0  0  0  0  0  0  0
  152.4358  136.4251  157.5566 C   0  0  0  0  0  0  0  0  0  0  0  0
  152.5635  135.2328  157.2765 O   0  0  0  0  0  0  0  0  0  0  0  0
  154.3770  136.6098  158.2056 H   0  0  0  0  0  0  0  0  0  0  0  0
  148.7666  136.2198  161.0342 H   0  0  0  0  0  0  0  0  0  0  0  0
  148.1042  134.8864  160.0926 H   0  0  0  0  0  0  0  0  0  0  0  0
  147.7730  136.5629  159.6238 H   0  0  0  0  0  0  0  0  0  0  0  0
  150.0455  134.4637  157.8296 H   0  0  0  0  0  0  0  0  0  0  0  0
  148.4708  135.2118  157.7219 H   0  0  0  0  0  0  0  0  0  0  0  0
  150.4474  135.8948  155.9734 H   0  0  0  0  0  0  0  0  0  0  0  0
  149.3472  137.1074  156.5228 H   0  0  0  0  0  0  0  0  0  0  0  0
  149.2695  139.1336  158.1107 H   0  0  0  0  0  0  0  0  0  0  0  0
  147.7196  140.1446  155.9188 H   0  0  0  0  0  0  0  0  0  0  0  0
  148.5456  141.6995  155.7575 H   0  0  0  0  0  0  0  0  0  0  0  0
  148.1556  141.0727  157.3616 H   0  0  0  0  0  0  0  0  0  0  0  0
  151.3079  140.9961  158.2484 H   0  0  0  0  0  0  0  0  0  0  0  0
  153.7123  141.0543  159.7596 H   0  0  0  0  0  0  0  0  0  0  0  0
  153.9632  141.6758  158.1335 H   0  0  0  0  0  0  0  0  0  0  0  0
  152.9614  142.5743  161.4245 H   0  0  0  0  0  0  0  0  0  0  0  0
  152.0054  144.7712  162.0625 H   0  0  0  0  0  0  0  0  0  0  0  0
  151.1152  146.3016  160.3140 H   0  0  0  0  0  0  0  0  0  0  0  0
  151.1846  145.6267  157.9192 H   0  0  0  0  0  0  0  0  0  0  0  0
  152.1419  143.4328  157.2710 H   0  0  0  0  0  0  0  0  0  0  0  0
  1  2  1  0  0  0  0
  1 26  1  0  0  0  0
  1 27  1  0  0  0  0
  1 28  1  0  0  0  0
  2  3  1  0  0  0  0
  3  4  1  0  0  0  0
  3 29  1  0  0  0  0
  3 30  1  0  0  0  0
  4  5  1  0  0  0  0
  4 31  1  0  0  0  0
  4 32  1  0  0  0  0
  5 23  1  0  0  0  0
  5  6  1  0  0  0  0
  6  7  1  0  0  0  0
  6 11  2  0  0  0  0
  7  8  1  0  0  0  0
  7 33  1  0  0  0  0
  8  9  1  0  0  0  0
  8 10  2  0  0  0  0
  9 34  1  0  0  0  0
  9 35  1  0  0  0  0
  9 36  1  0  0  0  0
 11 12  1  0  0  0  0
 11 20  1  0  0  0  0
 12 13  1  0  0  0  0
 12 37  1  0  0  0  0
 13 14  1  0  0  0  0
 13 38  1  0  0  0  0
 13 39  1  0  0  0  0
 14 19  1  0  0  0  0
 14 15  2  0  0  0  0
 15 16  1  0  0  0  0
 15 40  1  0  0  0  0
 16 17  2  0  0  0  0
 16 41  1  0  0  0  0
 17 18  1  0  0  0  0
 17 42  1  0  0  0  0
 18 19  2  0  0  0  0
 18 43  1  0  0  0  0
 19 44  1  0  0  0  0
 20 21  2  0  0  0  0
 20 22  1  0  0  0  0
 22 25  1  0  0  0  0
 22 23  1  0  0  0  0
 23 24  2  0  0  0  0
M  END
> <s_m_source_file>
AV-unprocessed.smi

> <i_m_source_file_index>
801

> <i_lp_mmshare_version>
43012

> <i_f3d_flags>
0

> <s_epik_input>
W0NIM11PW0NIMl1bQ0gyXW4xYyhbTkhdQyg9TylbQ0gzXSljKGMoPU8pW25IXWMxPU8pW05IXVtDSDJdYzJbY0hdW2NIXVtjSF1bY0hdW2NIXTI=

> <s_epik_cmdline>
J2VwaWtfcHl0aG9uJywgJy1waCcsICc3LjAnLCAnLXRuJywgJzgnLCAnLW1hJywgJzIwMCcsICctbWV0YWxfYmluZGluZycsICctaW1hZScsICc8aW5maWxlLm1hZT4nLCAnLW9tYWUnLCAnPG91dGZpbGUubWFlPic=

> <r_lp_tautomer_probability>
0.999901

> <r_epik_Ionization_Penalty>
0.000786563

> <r_epik_Ionization_Penalty_Charging>
0.000779429

> <r_epik_Ionization_Penalty_Neutral>
7.13436e-06

> <r_epik_State_Penalty>
0.00049961

> <r_epik_Charging_Adjusted_Penalty>
0.00127904

> <i_epik_Tot_Q>
0

> <i_epik_Tot_abs_Q>
0

> <r_epik_Metal_State_Penalty>
0.266924

> <b_epik_Metal_Only>
0

> <s_lp_Force_Field>
OPLS_2005

> <r_lp_Energy>
22.7844

> <b_lp_Chiralities_Consistent>
1

> <s_lp_Variant>
AV-unprocessed.smi:801-1

> <Gold.Version>
5.8.1

> <Gold.Id.Protein>
6NUR|6NUR_protein|mol2

> <Gold.PLP.Fitness>
49.8915

> <Gold.PLP.PLP>
-39.8785

> <Gold.PLP.part.hbond>
-4.1417

> <Gold.PLP.part.metal>
0.0000

> <Gold.PLP.part.buried>
-6.6546

> <Gold.PLP.part.nonpolar>
-29.5354

> <Gold.PLP.part.repulsive>
0.2914

> <Gold.PLP.ligand.clash>
0.0000

> <Gold.PLP.ligand.torsion>
1.4726

> <Gold.PLP.Chemscore.Hbond>
3.9260

> <Gold.PLP.Chemscore.CHOScore>
0.0000

> <Gold.PLP.Chemscore.Metal>
0.0000

> <Gold.Chemscore.Hbonds>
donor molecule, donor type, donor heavy atom, donor atom, acceptor molecule, acceptor atom, score
      P1  H  6896  6908       L1     2  0.85
      P1  H  7989  7998       L1    10  0.26
      P1  H  7997  8008       L1    21  1.00
      P1  H 10752 10763       L1    24  0.59

> <Gold.PLP.Chemscore.Internal.Correction>
1.1801

> <Gold.Rescore>
     Score         DG    S(hbond)    S(metal)    S(lipo)     H(rot)  DE(clash)    DE(int)     intcor
     18.73     -21.45       2.83        0.00      99.73       2.02       0.02       2.71       ----

> <Gold.Chemscore.Fitness>
18.7281

> <Gold.Chemscore.DG>
-21.4492

> <Gold.Chemscore.ZeroCoef>
-5.4800

> <Gold.Chemscore.Hbond>
2.8337

> <Gold.Chemscore.Metal>
0.0000

> <Gold.Chemscore.Lipo>
99.7290

> <Gold.Chemscore.Internal_Hbond>
0.0000

> <Gold.Chemscore.DEClash>
0.0154

> <Gold.Chemscore.DEInternal>
2.7056

> <Gold.Chemscore.Rot>
2.0170

> <Gold.Chemscore.Internal.Correction>
   9.000000E+99

> <Gold.Chemscore.Hbonds>
donor molecule, donor type, donor heavy atom, donor atom, acceptor molecule, acceptor atom, score
      P1  H  6896  6908       L1     2  0.13
      P1  H  7989  7998       L1    10  0.26
      P1  H  7997  8008       L1    21  0.39
      P1  H 10752 10763       L1    24  0.20

> <Gold.Chemscore.Hbond.Weighted>
-9.4645

> <Gold.Chemscore.Metal.Weighted>
-0.0000

> <Gold.Chemscore.Lipo.Weighted>
-11.6683

> <Gold.Chemscore.Internal_Hbond.Weighted>
0.0000

> <Gold.Chemscore.DEClash.Weighted>
0.0154

> <Gold.Chemscore.DEInternal.Weighted>
2.7056

> <Gold.Chemscore.Rot.Weighted>
5.1636

> <Gold.Chemscore.Internal.Correction.Weighted>
   9.000000E+99

> <Gold.Protein.RotatedTorsions>
[ 6907 6896 6895 6894 ] final -173.68 input  -60.11 | X-H torsion
[ 7974 7965 7964 7962 ] final   48.40 input  175.53 | X-H torsion
[ 8008 7997 7996 7995 ] final -130.39 input   59.86 | X-H torsion
[ 10167 10162 10161 10158 ] final  145.35 input  -65.29 | X-H torsion
[ 10718 10713 10712 10709 ] final  157.83 input   66.30 | X-H torsion
[ 10763 10752 10751 10750 ] final  128.13 input  -60.55 | X-H torsion
[ 11005 11000 10999 10996 ] final  140.29 input  -57.11 | X-H torsion

> <Gold.Protein.ActiveResidues>
 VAL166  LYS551  ARG553  GLY616  TRP617  ASP618  TYR619  PRO620  LYS621  CYS622 
 ASP623  PHE694  ASN695  SER759  ASP760  ASP761  ALA762  ILE779  LEU786  VAL792 
 PHE793  MET794  SER795  GLU796  ALA797  LYS798  CYS799  TRP800  GLU811  SER814 

> <Gold.Protein.RotatedAtoms>
  151.5602  133.3404  159.2969 H   0  0  0  0  0  0  0  0  0  0  0  0  # atno 6907 bound_to 6896
  150.8427  134.7728  159.6957 H   0  0  0  0  0  0  0  0  0  0  0  0  # atno 6908 bound_to 6896
  152.4491  134.5438  159.9898 H   0  0  0  0  0  0  0  0  0  0  0  0  # atno 6909 bound_to 6896
  146.0208  139.4648  142.9898 H   0  0  0  0  0  0  0  0  0  0  0  0  # atno 7974 bound_to 7965
  155.2949  140.0450  157.3025 H   0  0  0  0  0  0  0  0  0  0  0  0  # atno 8008 bound_to 7997
  154.5520  140.2320  155.8438 H   0  0  0  0  0  0  0  0  0  0  0  0  # atno 8009 bound_to 7997
  156.1975  140.3034  155.9463 H   0  0  0  0  0  0  0  0  0  0  0  0  # atno 8010 bound_to 7997
  139.4928  144.5907  151.6686 H   0  0  0  0  0  0  0  0  0  0  0  0  # atno 10167 bound_to 10162
  157.1862  131.0644  151.2105 H   0  0  0  0  0  0  0  0  0  0  0  0  # atno 10718 bound_to 10713
  153.7206  135.3254  155.3265 H   0  0  0  0  0  0  0  0  0  0  0  0  # atno 10763 bound_to 10752
  154.8357  135.4498  154.1222 H   0  0  0  0  0  0  0  0  0  0  0  0  # atno 10764 bound_to 10752
  153.2341  135.6963  153.7937 H   0  0  0  0  0  0  0  0  0  0  0  0  # atno 10765 bound_to 10752
  140.0317  134.9349  157.0675 H   0  0  0  0  0  0  0  0  0  0  0  0  # atno 11005 bound_to 11000
  145.7197  141.0079  143.1409 LP  0  0  0  0  0  0  0  0  0  0  0  0  # atno 17320 bound_to 7965
  144.6989  139.8855  143.7450 LP  0  0  0  0  0  0  0  0  0  0  0  0  # atno 17321 bound_to 7965
  140.5534  144.0388  150.6137 LP  0  0  0  0  0  0  0  0  0  0  0  0  # atno 17342 bound_to 10162
  140.3450  143.2997  152.0548 LP  0  0  0  0  0  0  0  0  0  0  0  0  # atno 17343 bound_to 10162
  157.3905  130.7279  149.6694 LP  0  0  0  0  0  0  0  0  0  0  0  0  # atno 17370 bound_to 10713
  155.9717  130.4148  150.4149 LP  0  0  0  0  0  0  0  0  0  0  0  0  # atno 17371 bound_to 10713
  140.4215  134.1876  155.7164 LP  0  0  0  0  0  0  0  0  0  0  0  0  # atno 17394 bound_to 11000
  141.1834  133.8364  157.1174 LP  0  0  0  0  0  0  0  0  0  0  0  0  # atno 17395 bound_to 11000

$$$$
