AV-unprocessed.smi:2824|AV-procd|sdf|10886|dock1
  -GOLD-   2272015323D 1   1.00000     0.00000
 Structure written by MMmdl.
 38 39  0  0  0  0  0  0  0  0  1 V2000
  153.9006  139.0615  160.2529 C   0  0  0  0  0  0  0  0  0  0  0  0
  153.0163  140.1232  159.6262 C   0  0  0  0  0  0  0  0  0  0  0  0
  153.4052  141.4780  159.6862 C   0  0  0  0  0  0  0  0  0  0  0  0
  152.5970  142.4740  159.1090 C   0  0  0  0  0  0  0  0  0  0  0  0
  151.3959  142.1172  158.4708 C   0  0  0  0  0  0  0  0  0  0  0  0
  151.0035  140.7666  158.4077 C   0  0  0  0  0  0  0  0  0  0  0  0
  151.8110  139.7529  158.9846 C   0  0  0  0  0  0  0  0  0  0  0  0
  151.4898  138.4110  158.9602 O   0  0  0  0  0  0  0  0  0  0  0  0
  150.3097  138.0076  158.2782 C   0  0  0  0  0  0  0  0  0  0  0  0
  149.7132  136.7853  158.9959 C   0  0  2  0  0  0  0  0  0  0  0  0
  149.5519  135.7665  158.0277 O   0  0  0  0  0  0  0  0  0  0  0  0
  148.3226  137.0967  159.5932 C   0  0  0  0  0  0  0  0  0  0  0  0
  147.8419  136.0230  160.4712 N   0  0  0  0  0  0  0  0  0  0  0  0
  147.8351  134.7726  159.8781 N   0  0  0  0  0  0  0  0  0  0  0  0
  147.4437  133.7227  160.5256 C   0  0  0  0  0  0  0  0  0  0  0  0
  147.4755  132.4032  159.7944 C   0  0  0  0  0  0  0  0  0  0  0  0
  146.2515  131.8861  159.6832 F   0  0  0  0  0  0  0  0  0  0  0  0
  147.9771  132.5697  158.5701 F   0  0  0  0  0  0  0  0  0  0  0  0
  148.2444  131.5340  160.4510 F   0  0  0  0  0  0  0  0  0  0  0  0
  146.9996  133.8674  161.9021 C   0  0  0  0  0  0  0  0  0  0  0  0
  147.0050  135.0888  162.4777 C   0  0  0  0  0  0  0  0  0  0  0  0
  147.4479  136.2775  161.7533 C   0  0  0  0  0  0  0  0  0  0  0  0
  147.4671  137.4032  162.2504 O   0  0  0  0  0  0  0  0  0  0  0  0
  154.7957  139.4973  160.6979 H   0  0  0  0  0  0  0  0  0  0  0  0
  154.2149  138.3384  159.5000 H   0  0  0  0  0  0  0  0  0  0  0  0
  153.3576  138.5300  161.0350 H   0  0  0  0  0  0  0  0  0  0  0  0
  154.3264  141.7591  160.1752 H   0  0  0  0  0  0  0  0  0  0  0  0
  152.8975  143.5102  159.1563 H   0  0  0  0  0  0  0  0  0  0  0  0
  150.7734  142.8809  158.0284 H   0  0  0  0  0  0  0  0  0  0  0  0
  150.0741  140.5352  157.9103 H   0  0  0  0  0  0  0  0  0  0  0  0
  149.5969  138.8329  158.3170 H   0  0  0  0  0  0  0  0  0  0  0  0
  150.5064  137.7840  157.2281 H   0  0  0  0  0  0  0  0  0  0  0  0
  150.3992  136.4522  159.7758 H   0  0  0  0  0  0  0  0  0  0  0  0
  148.6907  135.8462  157.6472 H   0  0  0  0  0  0  0  0  0  0  0  0
  148.3659  138.0202  160.1737 H   0  0  0  0  0  0  0  0  0  0  0  0
  147.6031  137.3020  158.7979 H   0  0  0  0  0  0  0  0  0  0  0  0
  146.6687  133.0026  162.4576 H   0  0  0  0  0  0  0  0  0  0  0  0
  146.6745  135.1916  163.5009 H   0  0  0  0  0  0  0  0  0  0  0  0
  1  2  1  0  0  0  0
  1 24  1  0  0  0  0
  1 25  1  0  0  0  0
  1 26  1  0  0  0  0
  2  7  1  0  0  0  0
  2  3  2  0  0  0  0
  3  4  1  0  0  0  0
  3 27  1  0  0  0  0
  4  5  2  0  0  0  0
  4 28  1  0  0  0  0
  5  6  1  0  0  0  0
  5 29  1  0  0  0  0
  6  7  2  0  0  0  0
  6 30  1  0  0  0  0
  7  8  1  0  0  0  0
  8  9  1  0  0  0  0
  9 10  1  0  0  0  0
  9 31  1  0  0  0  0
  9 32  1  0  0  0  0
 10 11  1  0  0  0  0
 10 12  1  0  0  0  0
 10 33  1  0  0  0  0
 11 34  1  0  0  0  0
 12 13  1  0  0  0  0
 12 35  1  0  0  0  0
 12 36  1  0  0  0  0
 13 22  1  0  0  0  0
 13 14  1  0  0  0  0
 14 15  2  0  0  0  0
 15 16  1  0  0  0  0
 15 20  1  0  0  0  0
 16 17  1  0  0  0  0
 16 18  1  0  0  0  0
 16 19  1  0  0  0  0
 20 21  2  0  0  0  0
 20 37  1  0  0  0  0
 21 22  1  0  0  0  0
 21 38  1  0  0  0  0
 22 23  2  0  0  0  0
M  END
> <s_m_source_file>
AV-unprocessed.smi

> <i_m_source_file_index>
2824

> <i_lp_mmshare_version>
43012

> <i_f3d_flags>
0

> <s_epik_input>
W0NIM11jMVtjSF1bY0hdW2NIXVtjSF1jMU9bQ0gyXVtDQEhdKFtPSF0pW0NIMl1uMm5jKEMoRikoRilGKVtjSF1bY0hdYzI9Tw==

> <s_epik_cmdline>
J2VwaWtfcHl0aG9uJywgJy1waCcsICc3LjAnLCAnLXRuJywgJzgnLCAnLW1hJywgJzIwMCcsICctbWV0YWxfYmluZGluZycsICctaW1hZScsICc8aW5maWxlLm1hZT4nLCAnLW9tYWUnLCAnPG91dGZpbGUubWFlPic=

> <r_lp_tautomer_probability>
1

> <r_epik_Ionization_Penalty>
1.2156e-07

> <r_epik_Ionization_Penalty_Charging>
4.38548e-09

> <r_epik_Ionization_Penalty_Neutral>
1.17174e-07

> <r_epik_State_Penalty>
-0

> <r_epik_Charging_Adjusted_Penalty>
4.38548e-09

> <i_epik_Tot_Q>
0

> <i_epik_Tot_abs_Q>
0

> <r_epik_Metal_State_Penalty>
-0

> <b_epik_Metal_Only>
0

> <s_lp_Force_Field>
OPLS_2005

> <r_lp_Energy>
34.0835

> <b_lp_Chiralities_Consistent>
1

> <s_lp_Variant>
AV-unprocessed.smi:2824-1

> <Gold.Version>
5.8.1

> <Gold.Id.Protein>
6NUR|6NUR_protein|mol2

> <Gold.PLP.Fitness>
46.4237

> <Gold.PLP.PLP>
-42.2146

> <Gold.PLP.part.hbond>
-3.0000

> <Gold.PLP.part.metal>
0.0000

> <Gold.PLP.part.buried>
-2.8521

> <Gold.PLP.part.nonpolar>
-35.9304

> <Gold.PLP.part.repulsive>
0.0000

> <Gold.PLP.ligand.clash>
0.0000

> <Gold.PLP.ligand.torsion>
1.0657

> <Gold.PLP.Chemscore.Hbond>
2.0400

> <Gold.PLP.Chemscore.CHOScore>
0.0000

> <Gold.PLP.Chemscore.Metal>
0.0000

> <Gold.Chemscore.Hbonds>
donor molecule, donor type, donor heavy atom, donor atom, acceptor molecule, acceptor atom, score
      P1  H  6896  6907       L1    11  0.14
      P1  H  6931  6943       L1    23  0.77
      P1  H  6934  6947       L1    23  0.46

> <Gold.PLP.Chemscore.Internal.Correction>
0.2205

> <Gold.Rescore>
     Score         DG    S(hbond)    S(metal)    S(lipo)     H(rot)  DE(clash)    DE(int)     intcor
     12.73     -15.39       1.75        0.00      91.61       2.60       0.16       2.49       ----

> <Gold.Chemscore.Fitness>
12.7340

> <Gold.Chemscore.DG>
-15.3854

> <Gold.Chemscore.ZeroCoef>
-5.4800

> <Gold.Chemscore.Hbond>
1.7478

> <Gold.Chemscore.Metal>
0.0000

> <Gold.Chemscore.Lipo>
91.6087

> <Gold.Chemscore.Internal_Hbond>
0.0000

> <Gold.Chemscore.DEClash>
0.1596

> <Gold.Chemscore.DEInternal>
2.4917

> <Gold.Chemscore.Rot>
2.5978

> <Gold.Chemscore.Internal.Correction>
   9.000000E+99

> <Gold.Chemscore.Hbonds>
donor molecule, donor type, donor heavy atom, donor atom, acceptor molecule, acceptor atom, score
      P1  H  6931  6943       L1    23  0.64
      P1  H  6934  6947       L1    23  0.43

> <Gold.Chemscore.Hbond.Weighted>
-5.8375

> <Gold.Chemscore.Metal.Weighted>
-0.0000

> <Gold.Chemscore.Lipo.Weighted>
-10.7182

> <Gold.Chemscore.Internal_Hbond.Weighted>
0.0000

> <Gold.Chemscore.DEClash.Weighted>
0.1596

> <Gold.Chemscore.DEInternal.Weighted>
2.4917

> <Gold.Chemscore.Rot.Weighted>
6.6504

> <Gold.Chemscore.Internal.Correction.Weighted>
   9.000000E+99

> <Gold.Protein.RotatedTorsions>
[ 6907 6896 6895 6894 ] final  -88.65 input  -60.11 | X-H torsion
[ 7974 7965 7964 7962 ] final  132.15 input  175.53 | X-H torsion
[ 8008 7997 7996 7995 ] final -126.92 input   59.86 | X-H torsion
[ 10167 10162 10161 10158 ] final -166.34 input  -65.29 | X-H torsion
[ 10718 10713 10712 10709 ] final -136.00 input   66.30 | X-H torsion
[ 10763 10752 10751 10750 ] final  -31.71 input  -60.55 | X-H torsion
[ 11005 11000 10999 10996 ] final  125.83 input  -57.11 | X-H torsion

> <Gold.Protein.ActiveResidues>
 VAL166  LYS551  ARG553  GLY616  TRP617  ASP618  TYR619  PRO620  LYS621  CYS622 
 ASP623  PHE694  ASN695  SER759  ASP760  ASP761  ALA762  ILE779  LEU786  VAL792 
 PHE793  MET794  SER795  GLU796  ALA797  LYS798  CYS799  TRP800  GLU811  SER814 

> <Gold.Protein.RotatedAtoms>
  150.6869  134.2709  159.4587 H   0  0  0  0  0  0  0  0  0  0  0  0  # atno 6907 bound_to 6896
  152.0632  134.9579  160.0584 H   0  0  0  0  0  0  0  0  0  0  0  0  # atno 6908 bound_to 6896
  152.0997  133.4209  159.4618 H   0  0  0  0  0  0  0  0  0  0  0  0  # atno 6909 bound_to 6896
  144.9998  139.4323  143.5298 H   0  0  0  0  0  0  0  0  0  0  0  0  # atno 7974 bound_to 7965
  155.2377  140.0427  157.2971 H   0  0  0  0  0  0  0  0  0  0  0  0  # atno 8008 bound_to 7997
  154.5848  140.2410  155.7973 H   0  0  0  0  0  0  0  0  0  0  0  0  # atno 8009 bound_to 7997
  156.2218  140.2967  155.9980 H   0  0  0  0  0  0  0  0  0  0  0  0  # atno 8010 bound_to 7997
  139.6121  144.0793  152.1852 H   0  0  0  0  0  0  0  0  0  0  0  0  # atno 10167 bound_to 10162
  156.2722  130.7272  151.1243 H   0  0  0  0  0  0  0  0  0  0  0  0  # atno 10718 bound_to 10713
  153.8018  135.6889  153.4854 H   0  0  0  0  0  0  0  0  0  0  0  0  # atno 10763 bound_to 10752
  153.1683  135.4552  154.9866 H   0  0  0  0  0  0  0  0  0  0  0  0  # atno 10764 bound_to 10752
  154.8003  135.3335  154.7506 H   0  0  0  0  0  0  0  0  0  0  0  0  # atno 10765 bound_to 10752
  139.9426  134.9634  156.8617 H   0  0  0  0  0  0  0  0  0  0  0  0  # atno 11005 bound_to 11000
  146.3449  139.9380  142.8745 LP  0  0  0  0  0  0  0  0  0  0  0  0  # atno 17320 bound_to 7965
  145.2169  140.9919  143.4068 LP  0  0  0  0  0  0  0  0  0  0  0  0  # atno 17321 bound_to 7965
  140.0414  144.6004  150.7408 LP  0  0  0  0  0  0  0  0  0  0  0  0  # atno 17342 bound_to 10162
  140.7326  143.2708  151.3895 LP  0  0  0  0  0  0  0  0  0  0  0  0  # atno 17343 bound_to 10162
  157.7287  131.0629  150.5805 LP  0  0  0  0  0  0  0  0  0  0  0  0  # atno 17370 bound_to 10713
  156.5903  130.4327  149.5939 LP  0  0  0  0  0  0  0  0  0  0  0  0  # atno 17371 bound_to 10713
  140.5914  134.0258  155.7501 LP  0  0  0  0  0  0  0  0  0  0  0  0  # atno 17394 bound_to 11000
  141.1066  133.9684  157.2986 LP  0  0  0  0  0  0  0  0  0  0  0  0  # atno 17395 bound_to 11000

$$$$
