AV-unprocessed.smi:2834|AV-procd|sdf|10917|dock4
  -GOLD-   2272015363D 1   1.00000     0.00000
 Structure written by MMmdl.
 35 36  0  0  0  0  0  0  0  0  1 V2000
  146.2699  142.7896  154.1211 C   0  0  0  0  0  0  0  0  0  0  0  0
  146.8441  141.3757  154.3578 C   0  0  2  0  0  0  0  0  0  0  0  0
  145.9524  140.3591  153.7875 N   0  0  0  0  0  0  0  0  0  0  0  0
  146.1813  139.0392  153.6902 C   0  0  0  0  0  0  0  0  0  0  0  0
  147.2032  138.4877  154.0988 O   0  0  0  0  0  0  0  0  0  0  0  0
  145.1542  138.4118  153.0945 N   0  0  0  0  0  0  0  0  0  0  0  0
  145.0481  137.0305  152.7930 C   0  0  0  0  0  0  0  0  0  0  0  0
  143.9828  136.1904  153.2092 C   0  0  0  0  0  0  0  0  0  0  0  0
  144.1516  134.9512  152.7733 N   0  0  0  0  0  0  0  0  0  0  0  0
  145.3156  134.9782  152.0779 N   0  0  0  0  0  0  0  0  0  0  0  0
  145.8046  133.7657  151.4470 C   0  0  0  0  0  0  0  0  0  0  0  0
  144.7738  133.1477  150.4882 C   0  0  0  0  0  0  0  0  0  0  0  0
  144.3800  134.0730  149.6138 F   0  0  0  0  0  0  0  0  0  0  0  0
  145.3082  132.1273  149.8170 F   0  0  0  0  0  0  0  0  0  0  0  0
  143.7073  132.7190  151.1637 F   0  0  0  0  0  0  0  0  0  0  0  0
  145.8905  136.2336  152.0707 C   0  0  0  0  0  0  0  0  0  0  0  0
  147.0220  141.1097  155.8600 C   0  0  0  0  0  0  0  0  0  0  0  0
  148.4891  140.7193  156.0142 C   0  0  0  0  0  0  0  0  0  0  0  0
  149.1177  141.4129  154.9533 O   0  0  0  0  0  0  0  0  0  0  0  0
  148.2852  141.2422  153.8188 C   0  0  0  0  0  0  0  0  0  0  0  0
  146.9027  143.5527  154.5754 H   0  0  0  0  0  0  0  0  0  0  0  0
  145.2729  142.8876  154.5517 H   0  0  0  0  0  0  0  0  0  0  0  0
  146.1955  143.0272  153.0599 H   0  0  0  0  0  0  0  0  0  0  0  0
  145.0759  140.7010  153.4221 H   0  0  0  0  0  0  0  0  0  0  0  0
  144.3715  138.9843  152.8142 H   0  0  0  0  0  0  0  0  0  0  0  0
  143.1106  136.4325  153.7984 H   0  0  0  0  0  0  0  0  0  0  0  0
  146.7219  134.0066  150.9082 H   0  0  0  0  0  0  0  0  0  0  0  0
  146.0775  133.0489  152.2232 H   0  0  0  0  0  0  0  0  0  0  0  0
  146.8210  136.4345  151.5606 H   0  0  0  0  0  0  0  0  0  0  0  0
  146.8313  142.0146  156.4388 H   0  0  0  0  0  0  0  0  0  0  0  0
  146.3588  140.3370  156.2521 H   0  0  0  0  0  0  0  0  0  0  0  0
  148.9015  141.0020  156.9831 H   0  0  0  0  0  0  0  0  0  0  0  0
  148.6236  139.6443  155.8811 H   0  0  0  0  0  0  0  0  0  0  0  0
  148.4729  140.2486  153.4073 H   0  0  0  0  0  0  0  0  0  0  0  0
  148.5217  141.9711  153.0427 H   0  0  0  0  0  0  0  0  0  0  0  0
  1  2  1  0  0  0  0
  1 21  1  0  0  0  0
  1 22  1  0  0  0  0
  1 23  1  0  0  0  0
  2 20  1  0  0  0  0
  2  3  1  0  0  0  0
  2 17  1  0  0  0  0
  3  4  1  0  0  0  0
  3 24  1  0  0  0  0
  4  5  2  0  0  0  0
  4  6  1  0  0  0  0
  6  7  1  0  0  0  0
  6 25  1  0  0  0  0
  7 16  2  0  0  0  0
  7  8  1  0  0  0  0
  8  9  2  0  0  0  0
  8 26  1  0  0  0  0
  9 10  1  0  0  0  0
 10 11  1  0  0  0  0
 10 16  1  0  0  0  0
 11 12  1  0  0  0  0
 11 27  1  0  0  0  0
 11 28  1  0  0  0  0
 12 13  1  0  0  0  0
 12 14  1  0  0  0  0
 12 15  1  0  0  0  0
 16 29  1  0  0  0  0
 17 18  1  0  0  0  0
 17 30  1  0  0  0  0
 17 31  1  0  0  0  0
 18 19  1  0  0  0  0
 18 32  1  0  0  0  0
 18 33  1  0  0  0  0
 19 20  1  0  0  0  0
 20 34  1  0  0  0  0
 20 35  1  0  0  0  0
M  END
> <s_m_source_file>
AV-unprocessed.smi

> <i_m_source_file_index>
2834

> <i_lp_mmshare_version>
43012

> <i_f3d_flags>
0

> <s_epik_input>
W0NIMl0xT1tDSDJdW0NIMl1bQ0BAXTEoW0NIM10pW05IXUMoPU8pW05IXWMyW2NIXW5uKFtjSF0yKVtDSDJdQyhGKShGKUY=

> <s_epik_cmdline>
J2VwaWtfcHl0aG9uJywgJy1waCcsICc3LjAnLCAnLXRuJywgJzgnLCAnLW1hJywgJzIwMCcsICctbWV0YWxfYmluZGluZycsICctaW1hZScsICc8aW5maWxlLm1hZT4nLCAnLW9tYWUnLCAnPG91dGZpbGUubWFlPic=

> <r_lp_tautomer_probability>
1

> <r_epik_Ionization_Penalty>
3.3002e-05

> <r_epik_Ionization_Penalty_Charging>
0

> <r_epik_Ionization_Penalty_Neutral>
3.3002e-05

> <r_epik_State_Penalty>
-0

> <r_epik_Charging_Adjusted_Penalty>
0

> <i_epik_Tot_Q>
0

> <i_epik_Tot_abs_Q>
0

> <r_epik_Metal_State_Penalty>
-0

> <b_epik_Metal_Only>
0

> <s_lp_Force_Field>
OPLS_2005

> <r_lp_Energy>
22.3443

> <b_lp_Chiralities_Consistent>
1

> <s_lp_Variant>
AV-unprocessed.smi:2834-2

> <Gold.Version>
5.8.1

> <Gold.Id.Protein>
6NUR|6NUR_protein|mol2

> <Gold.PLP.Fitness>
37.1219

> <Gold.PLP.PLP>
-29.3956

> <Gold.PLP.part.hbond>
-2.0000

> <Gold.PLP.part.metal>
0.0000

> <Gold.PLP.part.buried>
-0.6890

> <Gold.PLP.part.nonpolar>
-26.3322

> <Gold.PLP.part.repulsive>
0.3691

> <Gold.PLP.ligand.clash>
0.0000

> <Gold.PLP.ligand.torsion>
0.6537

> <Gold.PLP.Chemscore.Hbond>
2.0000

> <Gold.PLP.Chemscore.CHOScore>
1.0000

> <Gold.PLP.Chemscore.Metal>
0.0000

> <Gold.Chemscore.Hbonds>
donor molecule, donor type, donor heavy atom, donor atom, acceptor molecule, acceptor atom, score
      L1  H     3    24       P1 10175  1.00
      L1  H     6    25       P1 10175  1.00
      L1  C    16    29       P1  7948  1.00

> <Gold.PLP.Chemscore.Internal.Correction>
0.0337

> <Gold.Rescore>
     Score         DG    S(hbond)    S(metal)    S(lipo)     H(rot)  DE(clash)    DE(int)     intcor
     10.83     -14.42       1.89        0.00      51.75       1.34       0.29       3.30       ----

> <Gold.Chemscore.Fitness>
10.8325

> <Gold.Chemscore.DG>
-14.4235

> <Gold.Chemscore.ZeroCoef>
-5.4800

> <Gold.Chemscore.Hbond>
1.8932

> <Gold.Chemscore.Metal>
0.0000

> <Gold.Chemscore.Lipo>
51.7522

> <Gold.Chemscore.Internal_Hbond>
0.0000

> <Gold.Chemscore.DEClash>
0.2869

> <Gold.Chemscore.DEInternal>
3.3041

> <Gold.Chemscore.Rot>
1.3417

> <Gold.Chemscore.Internal.Correction>
   9.000000E+99

> <Gold.Chemscore.Hbonds>
donor molecule, donor type, donor heavy atom, donor atom, acceptor molecule, acceptor atom, score
      L1  H     3    24       P1 10175  0.88
      L1  H     6    25       P1 10175  0.97

> <Gold.Chemscore.Hbond.Weighted>
-6.3231

> <Gold.Chemscore.Metal.Weighted>
-0.0000

> <Gold.Chemscore.Lipo.Weighted>
-6.0550

> <Gold.Chemscore.Internal_Hbond.Weighted>
0.0000

> <Gold.Chemscore.DEClash.Weighted>
0.2869

> <Gold.Chemscore.DEInternal.Weighted>
3.3041

> <Gold.Chemscore.Rot.Weighted>
3.4347

> <Gold.Chemscore.Internal.Correction.Weighted>
   9.000000E+99

> <Gold.Protein.RotatedTorsions>
[ 6907 6896 6895 6894 ] final -118.18 input  -60.11 | X-H torsion
[ 7974 7965 7964 7962 ] final -119.70 input  175.53 | X-H torsion
[ 8008 7997 7996 7995 ] final  140.26 input   59.86 | X-H torsion
[ 10167 10162 10161 10158 ] final  -41.74 input  -65.29 | X-H torsion
[ 10718 10713 10712 10709 ] final -134.46 input   66.30 | X-H torsion
[ 10763 10752 10751 10750 ] final  -12.11 input  -60.55 | X-H torsion
[ 11005 11000 10999 10996 ] final  159.66 input  -57.11 | X-H torsion

> <Gold.Protein.ActiveResidues>
 VAL166  LYS551  ARG553  GLY616  TRP617  ASP618  TYR619  PRO620  LYS621  CYS622 
 ASP623  PHE694  ASN695  SER759  ASP760  ASP761  ALA762  ILE779  LEU786  VAL792 
 PHE793  MET794  SER795  GLU796  ALA797  LYS798  CYS799  TRP800  GLU811  SER814 

> <Gold.Protein.RotatedAtoms>
  150.8198  133.8272  159.3143 H   0  0  0  0  0  0  0  0  0  0  0  0  # atno 6907 bound_to 6896
  151.6033  135.1044  160.0074 H   0  0  0  0  0  0  0  0  0  0  0  0  # atno 6908 bound_to 6896
  152.4288  133.7200  159.6585 H   0  0  0  0  0  0  0  0  0  0  0  0  # atno 6909 bound_to 6896
  145.0596  140.8280  143.4160 H   0  0  0  0  0  0  0  0  0  0  0  0  # atno 7974 bound_to 7965
  156.2981  140.2346  156.4372 H   0  0  0  0  0  0  0  0  0  0  0  0  # atno 8008 bound_to 7997
  154.8218  140.0437  157.1436 H   0  0  0  0  0  0  0  0  0  0  0  0  # atno 8009 bound_to 7997
  154.9306  140.3016  155.5173 H   0  0  0  0  0  0  0  0  0  0  0  0  # atno 8010 bound_to 7997
  140.6993  143.3077  151.3109 H   0  0  0  0  0  0  0  0  0  0  0  0  # atno 10167 bound_to 10162
  156.2556  130.7179  151.1095 H   0  0  0  0  0  0  0  0  0  0  0  0  # atno 10718 bound_to 10713
  153.4936  135.7017  153.5870 H   0  0  0  0  0  0  0  0  0  0  0  0  # atno 10763 bound_to 10752
  153.4032  135.3867  155.2002 H   0  0  0  0  0  0  0  0  0  0  0  0  # atno 10764 bound_to 10752
  154.8715  135.3886  154.4399 H   0  0  0  0  0  0  0  0  0  0  0  0  # atno 10765 bound_to 10752
  140.1984  134.8356  157.2990 H   0  0  0  0  0  0  0  0  0  0  0  0  # atno 11005 bound_to 11000
  145.1425  139.2563  143.5482 LP  0  0  0  0  0  0  0  0  0  0  0  0  # atno 17320 bound_to 7965
  146.3523  140.1106  142.8604 LP  0  0  0  0  0  0  0  0  0  0  0  0  # atno 17321 bound_to 7965
  139.6489  144.0399  152.2611 LP  0  0  0  0  0  0  0  0  0  0  0  0  # atno 17342 bound_to 10162
  139.9929  144.6348  150.7798 LP  0  0  0  0  0  0  0  0  0  0  0  0  # atno 17343 bound_to 10162
  157.7231  131.0668  150.6049 LP  0  0  0  0  0  0  0  0  0  0  0  0  # atno 17370 bound_to 10713
  156.6132  130.4386  149.5851 LP  0  0  0  0  0  0  0  0  0  0  0  0  # atno 17371 bound_to 10713
  140.2082  134.4171  155.7626 LP  0  0  0  0  0  0  0  0  0  0  0  0  # atno 17394 bound_to 11000
  141.2227  133.7105  156.8294 LP  0  0  0  0  0  0  0  0  0  0  0  0  # atno 17395 bound_to 11000

$$$$
