#       Name:                AV-unprocessed.smi:2499
#       Creating user name   scv26
#       Creation time:       Fri Mar 27 13:46:23 2020


#       File generated by GOLD software.
#

@<TRIPOS>MOLECULE
AV-unprocessed.smi:2499
    32    33     1
SMALL
NO_CHARGES


@<TRIPOS>ATOM
      1 ****        -2.3747  -1.6608  -1.5386 C.3            1 S1                 0.0000
      2 ****        -1.7835  -0.7409  -0.4618 C.3            1 S1                 0.0000
      3 ****        -0.3439  -0.6321  -0.6785 N.am           1 S1                 0.0000
      4 ****         0.4185   0.4081  -0.3089 C.2            1 S1                 0.0000
      5 ****        -0.0183   1.4093   0.2598 O.2            1 S1                 0.0000
      6 ****         1.7062   0.2190  -0.6349 N.am           1 S1                 0.0000
      7 ****         2.7606   1.1273  -0.3842 C.2            1 S1                 0.0000
      8 ****         4.0307   0.9071  -0.7195 N.pl3          1 S1                 1.0000
      9 ****         4.7826   1.9882  -0.3312 C.2            1 S1                 0.0000
     10 ****         3.9010   2.8664   0.2519 C.2            1 S1                 0.0000
     11 ****         2.6257   2.3388   0.2266 O.3            1 S1                 0.0000
     12 ****        -2.1508  -1.2304   0.9291 C.3            1 S1                 0.0000
     13 ****        -3.5342  -1.0025   1.4911 C.3            1 S1                 0.0000
     14 ****        -2.3499  -0.2689   2.0771 C.3            1 S1                 0.0000
     15 ****        -3.4590  -1.7290  -1.4442 H              1 S1                 0.0000
     16 ****        -1.9718  -2.6715  -1.4637 H              1 S1                 0.0000
     17 ****        -2.1570  -1.2873  -2.5399 H              1 S1                 0.0000
     18 ****        -2.2303   0.2457  -0.6009 H              1 S1                 0.0000
     19 ****         0.1012  -1.4117  -1.1410 H              1 S1                 0.0000
     20 ****         4.4179   0.0945  -1.1830 H              1 S1                 0.0000
     21 ****         5.8486   2.0251  -0.5047 H              1 S1                 0.0000
     22 ****         4.0077   3.8417   0.7044 H              1 S1                 0.0000
     23 ****        -1.6970  -2.1861   1.1857 H              1 S1                 0.0000
     24 ****        -4.2363  -0.4232   0.8943 H              1 S1                 0.0000
     25 ****        -3.9742  -1.8013   2.0846 H              1 S1                 0.0000
     26 ****        -1.9997  -0.5808   3.0588 H              1 S1                 0.0000
     27 ****        -2.2714   0.7968   1.8711 H              1 S1                 0.0000
     28 ****         1.9520  -0.6423  -1.0998 H              1 S1                 0.0000
     29 ****        -0.9932   1.4790   0.4712 LP             1 S1                 0.0000
     30 ****         0.6019   2.1527   0.5102 LP             1 S1                 0.0000
     31 ****         2.2723   2.2273   1.1554 LP             1 S1                 0.0000
     32 ****         2.0105   2.9296  -0.2953 LP             1 S1                 0.0000
@<TRIPOS>BOND
    1    1    2 1     
    2    1   15 1     
    3    1   16 1     
    4    1   17 1     
    5    2    3 1     
    6    2   12 1     
    7    2   18 1     
    8    3   19 1     
    9    3    4 am    
   10    4    6 am    
   11    4    5 2     
   12    6    7 1     
   13    6   28 1     
   14    7   11 1     
   15    7    8 2     
   16    8   20 1     
   17    8    9 1     
   18    9   21 1     
   19    9   10 2     
   20   10   22 1     
   21   10   11 1     
   22   12   14 1     
   23   12   13 1     
   24   12   23 1     
   25   13   14 1     
   26   13   24 1     
   27   13   25 1     
   28   14   26 1     
   29   14   27 1     
   30    5   29 1     
   31    5   30 1     
   32   11   31 1     
   33   11   32 1     
@<TRIPOS>SUBSTRUCTURE
      1 S1             1
@<TRIPOS>SET
LONE_PAIRS      STATIC     ATOMS    <user>   **** ""
4 29 30 31 32
DONOR_HYDROGENS      STATIC     ATOMS    <user>   **** ""
3 19 28 20
ATOM$BLUE        STATIC     ATOMS    COLORGROUP SYSTEM
4 29 30 31 32
ATOM$RED        STATIC     ATOMS    COLORGROUP SYSTEM
3 19 28 20
