AV-unprocessed.smi:2478|AV-procd|sdf|9766|dock10
  -GOLD-   2272013413D 1   1.00000     0.00000
 Structure written by MMmdl.
 42 43  0  0  0  0  0  0  0  0  1 V2000
  149.6661  137.6537  154.7812 C   0  0  0  0  0  0  0  0  0  0  0  0
  148.8042  138.9174  154.9358 C   0  0  1  0  0  0  0  0  0  0  0  0
  149.6855  140.1369  155.2755 C   0  0  0  0  0  0  0  0  0  0  0  0
  148.8547  141.4210  155.4203 C   0  0  0  0  0  0  0  0  0  0  0  0
  148.0272  141.6881  154.1556 C   0  0  0  0  0  0  0  0  0  0  0  0
  147.1339  140.4851  153.8220 C   0  0  0  0  0  0  0  0  0  0  0  0
  147.9594  139.1903  153.6707 C   0  0  2  0  0  0  0  0  0  0  0  0
  147.0694  138.0972  153.4860 O   0  0  0  0  0  0  0  0  0  0  0  0
  146.2981  138.1709  152.2952 C   0  0  0  0  0  0  0  0  0  0  0  0
  145.4215  136.9250  152.2041 C   0  0  0  0  0  0  0  0  0  0  0  0
  144.2405  136.9851  152.5454 O   0  0  0  0  0  0  0  0  0  0  0  0
  146.0400  135.8173  151.7559 N   0  0  0  0  0  0  0  0  0  0  0  0
  145.5039  134.5146  151.5684 C   0  0  0  0  0  0  0  0  0  0  0  0
  144.3374  134.2806  150.9166 N   0  0  0  0  0  0  0  0  0  0  0  0
  143.9001  133.0128  150.7781 C   0  0  0  0  0  0  0  0  0  0  0  0
  144.5996  131.9011  151.2777 C   0  0  0  0  0  0  0  0  0  0  0  0
  145.8093  132.1291  151.9560 C   0  0  0  0  0  0  0  0  0  0  0  0
  146.2724  133.4569  152.1168 C   0  0  0  0  0  0  0  0  0  0  0  0
  147.4570  133.7495  152.7578 O   0  0  0  0  0  0  0  0  0  0  0  0
  148.1913  132.7347  153.2862 C   0  0  0  0  0  0  0  0  0  0  0  0
  149.4108  133.1839  153.6719 F   0  0  0  0  0  0  0  0  0  0  0  0
  147.5684  132.2429  154.3841 F   0  0  0  0  0  0  0  0  0  0  0  0
  150.3629  137.7498  153.9479 H   0  0  0  0  0  0  0  0  0  0  0  0
  149.0508  136.7722  154.5995 H   0  0  0  0  0  0  0  0  0  0  0  0
  150.2500  137.4642  155.6823 H   0  0  0  0  0  0  0  0  0  0  0  0
  148.1219  138.7540  155.7716 H   0  0  0  0  0  0  0  0  0  0  0  0
  150.2347  139.9540  156.1997 H   0  0  0  0  0  0  0  0  0  0  0  0
  150.4349  140.2782  154.4954 H   0  0  0  0  0  0  0  0  0  0  0  0
  148.1904  141.3326  156.2810 H   0  0  0  0  0  0  0  0  0  0  0  0
  149.5108  142.2683  155.6216 H   0  0  0  0  0  0  0  0  0  0  0  0
  147.4148  142.5797  154.2928 H   0  0  0  0  0  0  0  0  0  0  0  0
  148.6931  141.8946  153.3169 H   0  0  0  0  0  0  0  0  0  0  0  0
  146.3930  140.3549  154.6123 H   0  0  0  0  0  0  0  0  0  0  0  0
  146.5752  140.6927  152.9096 H   0  0  0  0  0  0  0  0  0  0  0  0
  148.6350  139.2805  152.8174 H   0  0  0  0  0  0  0  0  0  0  0  0
  145.6567  139.0525  152.2905 H   0  0  0  0  0  0  0  0  0  0  0  0
  146.9544  138.2317  151.4256 H   0  0  0  0  0  0  0  0  0  0  0  0
  147.0159  135.9204  151.5178 H   0  0  0  0  0  0  0  0  0  0  0  0
  142.9668  132.8814  150.2506 H   0  0  0  0  0  0  0  0  0  0  0  0
  144.2195  130.8995  151.1410 H   0  0  0  0  0  0  0  0  0  0  0  0
  146.3695  131.2896  152.3398 H   0  0  0  0  0  0  0  0  0  0  0  0
  148.3154  131.9148  152.5781 H   0  0  0  0  0  0  0  0  0  0  0  0
  1  2  1  0  0  0  0
  1 23  1  0  0  0  0
  1 24  1  0  0  0  0
  1 25  1  0  0  0  0
  2  7  1  0  0  0  0
  2  3  1  0  0  0  0
  2 26  1  0  0  0  0
  3  4  1  0  0  0  0
  3 27  1  0  0  0  0
  3 28  1  0  0  0  0
  4  5  1  0  0  0  0
  4 29  1  0  0  0  0
  4 30  1  0  0  0  0
  5  6  1  0  0  0  0
  5 31  1  0  0  0  0
  5 32  1  0  0  0  0
  6  7  1  0  0  0  0
  6 33  1  0  0  0  0
  6 34  1  0  0  0  0
  7  8  1  0  0  0  0
  7 35  1  0  0  0  0
  8  9  1  0  0  0  0
  9 10  1  0  0  0  0
  9 36  1  0  0  0  0
  9 37  1  0  0  0  0
 10 11  2  0  0  0  0
 10 12  1  0  0  0  0
 12 13  1  0  0  0  0
 12 38  1  0  0  0  0
 13 18  1  0  0  0  0
 13 14  2  0  0  0  0
 14 15  1  0  0  0  0
 15 16  2  0  0  0  0
 15 39  1  0  0  0  0
 16 17  1  0  0  0  0
 16 40  1  0  0  0  0
 17 18  2  0  0  0  0
 17 41  1  0  0  0  0
 18 19  1  0  0  0  0
 19 20  1  0  0  0  0
 20 21  1  0  0  0  0
 20 22  1  0  0  0  0
 20 42  1  0  0  0  0
M  END
> <s_m_source_file>
AV-unprocessed.smi

> <i_m_source_file_index>
2478

> <i_lp_mmshare_version>
43012

> <i_f3d_flags>
0

> <s_epik_input>
W0NIM11bQ0BASF0xW0NIMl1bQ0gyXVtDSDJdW0NIMl1bQ0BIXTFPW0NIMl1DKD1PKVtOSF1jMm5bY0hdW2NIXVtjSF1jMk9bQ0hdKEYpRg==

> <s_epik_cmdline>
J2VwaWtfcHl0aG9uJywgJy1waCcsICc3LjAnLCAnLXRuJywgJzgnLCAnLW1hJywgJzIwMCcsICctbWV0YWxfYmluZGluZycsICctaW1hZScsICc8aW5maWxlLm1hZT4nLCAnLW9tYWUnLCAnPG91dGZpbGUubWFlPic=

> <r_lp_tautomer_probability>
1

> <r_epik_Ionization_Penalty>
6.06012e-05

> <r_epik_Ionization_Penalty_Charging>
0

> <r_epik_Ionization_Penalty_Neutral>
6.06012e-05

> <r_epik_State_Penalty>
-0

> <r_epik_Charging_Adjusted_Penalty>
0

> <i_epik_Tot_Q>
0

> <i_epik_Tot_abs_Q>
0

> <r_epik_Metal_State_Penalty>
-0

> <b_epik_Metal_Only>
0

> <s_lp_Force_Field>
OPLS_2005

> <r_lp_Energy>
13.1013

> <b_lp_Chiralities_Consistent>
1

> <s_lp_Variant>
AV-unprocessed.smi:2478-4

> <Gold.Version>
5.8.1

> <Gold.Id.Protein>
6NUR|6NUR_protein|mol2

> <Gold.PLP.Fitness>
40.2242

> <Gold.PLP.PLP>
-35.7023

> <Gold.PLP.part.hbond>
-1.0000

> <Gold.PLP.part.metal>
0.0000

> <Gold.PLP.part.buried>
-5.2921

> <Gold.PLP.part.nonpolar>
-32.7478

> <Gold.PLP.part.repulsive>
2.2551

> <Gold.PLP.ligand.clash>
0.0000

> <Gold.PLP.ligand.torsion>
0.7776

> <Gold.PLP.Chemscore.Hbond>
1.0000

> <Gold.PLP.Chemscore.CHOScore>
1.0000

> <Gold.PLP.Chemscore.Metal>
0.0000

> <Gold.Chemscore.Hbonds>
donor molecule, donor type, donor heavy atom, donor atom, acceptor molecule, acceptor atom, score
      L1  H    12    38       P1  7948  1.00
      L1  C    15    39       P1 10186  0.86

> <Gold.PLP.Chemscore.Internal.Correction>
0.0772

> <Gold.Rescore>
     Score         DG    S(hbond)    S(metal)    S(lipo)     H(rot)  DE(clash)    DE(int)     intcor
     12.50     -13.45       1.00        0.00      80.12       1.85       0.18       0.78       ----

> <Gold.Chemscore.Fitness>
12.4979

> <Gold.Chemscore.DG>
-13.4504

> <Gold.Chemscore.ZeroCoef>
-5.4800

> <Gold.Chemscore.Hbond>
0.9964

> <Gold.Chemscore.Metal>
0.0000

> <Gold.Chemscore.Lipo>
80.1155

> <Gold.Chemscore.Internal_Hbond>
0.0000

> <Gold.Chemscore.DEClash>
0.1766

> <Gold.Chemscore.DEInternal>
0.7760

> <Gold.Chemscore.Rot>
1.8481

> <Gold.Chemscore.Internal.Correction>
   9.000000E+99

> <Gold.Chemscore.Hbonds>
donor molecule, donor type, donor heavy atom, donor atom, acceptor molecule, acceptor atom, score
      L1  H    12    38       P1  7948  0.98

> <Gold.Chemscore.Hbond.Weighted>
-3.3280

> <Gold.Chemscore.Metal.Weighted>
-0.0000

> <Gold.Chemscore.Lipo.Weighted>
-9.3735

> <Gold.Chemscore.Internal_Hbond.Weighted>
0.0000

> <Gold.Chemscore.DEClash.Weighted>
0.1766

> <Gold.Chemscore.DEInternal.Weighted>
0.7760

> <Gold.Chemscore.Rot.Weighted>
4.7311

> <Gold.Chemscore.Internal.Correction.Weighted>
   9.000000E+99

> <Gold.Protein.RotatedTorsions>
[ 6907 6896 6895 6894 ] final -111.27 input  -60.11 | X-H torsion
[ 7974 7965 7964 7962 ] final  151.71 input  175.53 | X-H torsion
[ 8008 7997 7996 7995 ] final -156.07 input   59.86 | X-H torsion
[ 10167 10162 10161 10158 ] final -161.82 input  -65.29 | X-H torsion
[ 10718 10713 10712 10709 ] final -145.76 input   66.30 | X-H torsion
[ 10763 10752 10751 10750 ] final   44.30 input  -60.55 | X-H torsion
[ 11005 11000 10999 10996 ] final  130.70 input  -57.11 | X-H torsion

> <Gold.Protein.ActiveResidues>
 VAL166  LYS551  ARG553  GLY616  TRP617  ASP618  TYR619  PRO620  LYS621  CYS622 
 ASP623  PHE694  ASN695  SER759  ASP760  ASP761  ALA762  ILE779  LEU786  VAL792 
 PHE793  MET794  SER795  GLU796  ALA797  LYS798  CYS799  TRP800  GLU811  SER814 

> <Gold.Protein.RotatedAtoms>
  150.7679  133.9259  159.3411 H   0  0  0  0  0  0  0  0  0  0  0  0  # atno 6907 bound_to 6896
  151.7152  135.0903  160.0284 H   0  0  0  0  0  0  0  0  0  0  0  0  # atno 6908 bound_to 6896
  152.3684  133.6349  159.6104 H   0  0  0  0  0  0  0  0  0  0  0  0  # atno 6909 bound_to 6896
  144.8273  139.6573  143.6074 H   0  0  0  0  0  0  0  0  0  0  0  0  # atno 7974 bound_to 7965
  155.7116  140.0779  157.2369 H   0  0  0  0  0  0  0  0  0  0  0  0  # atno 8008 bound_to 7997
  154.4058  140.1629  156.2356 H   0  0  0  0  0  0  0  0  0  0  0  0  # atno 8009 bound_to 7997
  155.9277  140.3393  155.6227 H   0  0  0  0  0  0  0  0  0  0  0  0  # atno 8010 bound_to 7997
  139.6437  144.0212  152.2111 H   0  0  0  0  0  0  0  0  0  0  0  0  # atno 10167 bound_to 10162
  156.3864  130.7863  151.2061 H   0  0  0  0  0  0  0  0  0  0  0  0  # atno 10718 bound_to 10713
  152.9844  135.6075  154.3251 H   0  0  0  0  0  0  0  0  0  0  0  0  # atno 10763 bound_to 10752
  154.2959  135.2774  155.2635 H   0  0  0  0  0  0  0  0  0  0  0  0  # atno 10764 bound_to 10752
  154.4910  135.5892  153.6515 H   0  0  0  0  0  0  0  0  0  0  0  0  # atno 10765 bound_to 10752
  139.9687  134.9583  156.9332 H   0  0  0  0  0  0  0  0  0  0  0  0  # atno 11005 bound_to 11000
  146.2578  139.6341  142.9383 LP  0  0  0  0  0  0  0  0  0  0  0  0  # atno 17320 bound_to 7965
  145.4972  141.0438  143.2560 LP  0  0  0  0  0  0  0  0  0  0  0  0  # atno 17321 bound_to 7965
  139.9908  144.6363  150.7816 LP  0  0  0  0  0  0  0  0  0  0  0  0  # atno 17342 bound_to 10162
  140.7504  143.2954  151.3218 LP  0  0  0  0  0  0  0  0  0  0  0  0  # atno 17343 bound_to 10162
  157.7496  131.0328  150.4245 LP  0  0  0  0  0  0  0  0  0  0  0  0  # atno 17370 bound_to 10713
  156.4499  130.4009  149.6643 LP  0  0  0  0  0  0  0  0  0  0  0  0  # atno 17371 bound_to 10713
  140.5340  134.0785  155.7323 LP  0  0  0  0  0  0  0  0  0  0  0  0  # atno 17394 bound_to 11000
  141.1367  133.9209  157.2418 LP  0  0  0  0  0  0  0  0  0  0  0  0  # atno 17395 bound_to 11000

$$$$
