AV-unprocessed.smi:1565|AV-procd|sdf|6297|dock8
  -GOLD-   22720 6493D 1   1.00000     0.00000
 Structure written by MMmdl.
 40 41  0  0  0  0  0  0  0  0  1 V2000
  156.1690  140.1237  160.8698 C   0  0  0  0  0  0  0  0  0  0  0  0
  154.7824  139.8253  161.4677 C   0  0  2  0  0  0  0  0  0  0  0  0
  153.6892  139.6116  160.4023 C   0  0  0  0  0  0  0  0  0  0  0  0
  153.2809  140.8816  159.8085 N   0  0  0  0  0  0  0  0  0  0  0  0
  152.5124  140.7838  158.6291 C   0  0  0  0  0  0  0  0  0  0  0  0
  151.4388  141.6773  158.4056 C   0  0  0  0  0  0  0  0  0  0  0  0
  150.6870  141.5659  157.2203 C   0  0  0  0  0  0  0  0  0  0  0  0
  151.0274  140.5702  156.2810 C   0  0  0  0  0  0  0  0  0  0  0  0
  150.2357  140.4090  155.0156 C   0  0  0  0  0  0  0  0  0  0  0  0
  150.6438  139.6892  154.1041 O   0  0  0  0  0  0  0  0  0  0  0  0
  149.0540  141.0454  154.9860 N   0  0  0  0  0  0  0  0  0  0  0  0
  148.0949  140.9874  153.8878 C   0  0  0  0  0  0  0  0  0  0  0  0
  147.1400  139.7888  154.0193 C   0  0  0  0  0  0  0  0  0  0  0  0
  146.1125  140.1327  154.7944 F   0  0  0  0  0  0  0  0  0  0  0  0
  146.6689  139.4213  152.8277 F   0  0  0  0  0  0  0  0  0  0  0  0
  147.7703  138.7563  154.5799 F   0  0  0  0  0  0  0  0  0  0  0  0
  152.1036  139.7124  156.5996 C   0  0  0  0  0  0  0  0  0  0  0  0
  152.8264  139.8148  157.7345 N   0  0  0  0  0  0  0  0  0  0  0  0
  152.8962  141.8824  160.7998 C   0  0  0  0  0  0  0  0  0  0  0  0
  154.0253  142.0809  161.8263 C   0  0  1  0  0  0  0  0  0  0  0  0
  153.6088  143.0263  162.9578 C   0  0  0  0  0  0  0  0  0  0  0  0
  154.3713  140.8232  162.4051 O   0  0  0  0  0  0  0  0  0  0  0  0
  156.5173  139.2847  160.2672 H   0  0  0  0  0  0  0  0  0  0  0  0
  156.9040  140.2916  161.6571 H   0  0  0  0  0  0  0  0  0  0  0  0
  156.1616  141.0021  160.2250 H   0  0  0  0  0  0  0  0  0  0  0  0
  154.8775  138.8986  162.0342 H   0  0  0  0  0  0  0  0  0  0  0  0
  154.0460  138.9048  159.6543 H   0  0  0  0  0  0  0  0  0  0  0  0
  152.8124  139.1571  160.8655 H   0  0  0  0  0  0  0  0  0  0  0  0
  151.1756  142.4320  159.1317 H   0  0  0  0  0  0  0  0  0  0  0  0
  149.8626  142.2411  157.0413 H   0  0  0  0  0  0  0  0  0  0  0  0
  148.7889  141.5927  155.7919 H   0  0  0  0  0  0  0  0  0  0  0  0
  147.5214  141.9147  153.8987 H   0  0  0  0  0  0  0  0  0  0  0  0
  148.6120  140.9593  152.9273 H   0  0  0  0  0  0  0  0  0  0  0  0
  152.3994  138.9154  155.9331 H   0  0  0  0  0  0  0  0  0  0  0  0
  152.6814  142.8341  160.3119 H   0  0  0  0  0  0  0  0  0  0  0  0
  151.9826  141.5583  161.3004 H   0  0  0  0  0  0  0  0  0  0  0  0
  154.8969  142.5106  161.3325 H   0  0  0  0  0  0  0  0  0  0  0  0
  153.3466  144.0109  162.5698 H   0  0  0  0  0  0  0  0  0  0  0  0
  154.4197  143.1569  163.6745 H   0  0  0  0  0  0  0  0  0  0  0  0
  152.7452  142.6384  163.4989 H   0  0  0  0  0  0  0  0  0  0  0  0
  1  2  1  0  0  0  0
  1 23  1  0  0  0  0
  1 24  1  0  0  0  0
  1 25  1  0  0  0  0
  2 22  1  0  0  0  0
  2  3  1  0  0  0  0
  2 26  1  0  0  0  0
  3  4  1  0  0  0  0
  3 27  1  0  0  0  0
  3 28  1  0  0  0  0
  4  5  1  0  0  0  0
  4 19  1  0  0  0  0
  5 18  1  0  0  0  0
  5  6  2  0  0  0  0
  6  7  1  0  0  0  0
  6 29  1  0  0  0  0
  7  8  2  0  0  0  0
  7 30  1  0  0  0  0
  8  9  1  0  0  0  0
  8 17  1  0  0  0  0
  9 10  2  0  0  0  0
  9 11  1  0  0  0  0
 11 12  1  0  0  0  0
 11 31  1  0  0  0  0
 12 13  1  0  0  0  0
 12 32  1  0  0  0  0
 12 33  1  0  0  0  0
 13 14  1  0  0  0  0
 13 15  1  0  0  0  0
 13 16  1  0  0  0  0
 17 18  2  0  0  0  0
 17 34  1  0  0  0  0
 19 20  1  0  0  0  0
 19 35  1  0  0  0  0
 19 36  1  0  0  0  0
 20 21  1  0  0  0  0
 20 22  1  0  0  0  0
 20 37  1  0  0  0  0
 21 38  1  0  0  0  0
 21 39  1  0  0  0  0
 21 40  1  0  0  0  0
M  END
> <s_m_source_file>
AV-unprocessed.smi

> <i_m_source_file_index>
1565

> <i_lp_mmshare_version>
43012

> <i_f3d_flags>
0

> <s_epik_input>
W0NIM11bQ0BASF0xW0NIMl1OKFtDSDJdW0NASF0oTzEpW0NIM10pYzJbY0hdW2NIXWMoW2NIXW4yKUMoPU8pW05IXVtDSDJdQyhGKShGKUY=

> <s_epik_cmdline>
J2VwaWtfcHl0aG9uJywgJy1waCcsICc3LjAnLCAnLXRuJywgJzgnLCAnLW1hJywgJzIwMCcsICctbWV0YWxfYmluZGluZycsICctaW1hZScsICc8aW5maWxlLm1hZT4nLCAnLW9tYWUnLCAnPG91dGZpbGUubWFlPic=

> <r_lp_tautomer_probability>
1

> <r_epik_Ionization_Penalty>
1.48031e-05

> <r_epik_Ionization_Penalty_Charging>
0

> <r_epik_Ionization_Penalty_Neutral>
1.48031e-05

> <r_epik_State_Penalty>
-0

> <r_epik_Charging_Adjusted_Penalty>
0

> <i_epik_Tot_Q>
0

> <i_epik_Tot_abs_Q>
0

> <r_epik_Metal_State_Penalty>
0.00620302

> <b_epik_Metal_Only>
0

> <s_lp_Force_Field>
OPLS_2005

> <r_lp_Energy>
19.6517

> <b_lp_Chiralities_Consistent>
1

> <s_lp_Variant>
AV-unprocessed.smi:1565-1

> <Gold.Version>
5.8.1

> <Gold.Id.Protein>
6NUR|6NUR_protein|mol2

> <Gold.PLP.Fitness>
39.3266

> <Gold.PLP.PLP>
-35.2171

> <Gold.PLP.part.hbond>
-1.9441

> <Gold.PLP.part.metal>
0.0000

> <Gold.PLP.part.buried>
1.2832

> <Gold.PLP.part.nonpolar>
-33.9418

> <Gold.PLP.part.repulsive>
0.4405

> <Gold.PLP.ligand.clash>
0.0044

> <Gold.PLP.ligand.torsion>
1.0256

> <Gold.PLP.Chemscore.Hbond>
1.9420

> <Gold.PLP.Chemscore.CHOScore>
0.0000

> <Gold.PLP.Chemscore.Metal>
0.0000

> <Gold.Chemscore.Hbonds>
donor molecule, donor type, donor heavy atom, donor atom, acceptor molecule, acceptor atom, score
      P1  H  7989  7998       L1    10  0.70
      P1  H  7997  8009       L1    18  1.00

> <Gold.PLP.Chemscore.Internal.Correction>
0.3392

> <Gold.Rescore>
     Score         DG    S(hbond)    S(metal)    S(lipo)     H(rot)  DE(clash)    DE(int)     intcor
     14.77     -16.61       1.20        0.00      89.49       1.31       0.83       1.01       ----

> <Gold.Chemscore.Fitness>
14.7745

> <Gold.Chemscore.DG>
-16.6128

> <Gold.Chemscore.ZeroCoef>
-5.4800

> <Gold.Chemscore.Hbond>
1.1989

> <Gold.Chemscore.Metal>
0.0000

> <Gold.Chemscore.Lipo>
89.4866

> <Gold.Chemscore.Internal_Hbond>
0.0000

> <Gold.Chemscore.DEClash>
0.8258

> <Gold.Chemscore.DEInternal>
1.0124

> <Gold.Chemscore.Rot>
1.3052

> <Gold.Chemscore.Internal.Correction>
   9.000000E+99

> <Gold.Chemscore.Hbonds>
donor molecule, donor type, donor heavy atom, donor atom, acceptor molecule, acceptor atom, score
      P1  H  7989  7998       L1    10  0.07
      P1  H  7997  8009       L1    18  0.26

> <Gold.Chemscore.Hbond.Weighted>
-4.0043

> <Gold.Chemscore.Metal.Weighted>
-0.0000

> <Gold.Chemscore.Lipo.Weighted>
-10.4699

> <Gold.Chemscore.Internal_Hbond.Weighted>
0.0000

> <Gold.Chemscore.DEClash.Weighted>
0.8258

> <Gold.Chemscore.DEInternal.Weighted>
1.0124

> <Gold.Chemscore.Rot.Weighted>
3.3414

> <Gold.Chemscore.Internal.Correction.Weighted>
   9.000000E+99

> <Gold.Protein.RotatedTorsions>
[ 6907 6896 6895 6894 ] final -154.90 input  -60.11 | X-H torsion
[ 7974 7965 7964 7962 ] final  -41.09 input  175.53 | X-H torsion
[ 8008 7997 7996 7995 ] final  151.79 input   59.86 | X-H torsion
[ 10167 10162 10161 10158 ] final  173.20 input  -65.29 | X-H torsion
[ 10718 10713 10712 10709 ] final   58.67 input   66.30 | X-H torsion
[ 10763 10752 10751 10750 ] final -166.91 input  -60.55 | X-H torsion
[ 11005 11000 10999 10996 ] final  -35.75 input  -57.11 | X-H torsion

> <Gold.Protein.ActiveResidues>
 VAL166  LYS551  ARG553  GLY616  TRP617  ASP618  TYR619  PRO620  LYS621  CYS622 
 ASP623  PHE694  ASN695  SER759  ASP760  ASP761  ALA762  ILE779  LEU786  VAL792 
 PHE793  MET794  SER795  GLU796  ALA797  LYS798  CYS799  TRP800  GLU811  SER814 

> <Gold.Protein.RotatedAtoms>
  151.2644  133.4286  159.2617 H   0  0  0  0  0  0  0  0  0  0  0  0  # atno 6907 bound_to 6896
  151.0501  134.9667  159.8217 H   0  0  0  0  0  0  0  0  0  0  0  0  # atno 6908 bound_to 6896
  152.5381  134.2599  159.8984 H   0  0  0  0  0  0  0  0  0  0  0  0  # atno 6909 bound_to 6896
  146.0244  140.6810  142.9163 H   0  0  0  0  0  0  0  0  0  0  0  0  # atno 7974 bound_to 7965
  156.2658  140.2038  156.6231 H   0  0  0  0  0  0  0  0  0  0  0  0  # atno 8008 bound_to 7997
  154.6741  140.0547  157.0221 H   0  0  0  0  0  0  0  0  0  0  0  0  # atno 8009 bound_to 7997
  155.1094  140.3214  155.4528 H   0  0  0  0  0  0  0  0  0  0  0  0  # atno 8010 bound_to 7997
  139.5101  144.3287  152.0132 H   0  0  0  0  0  0  0  0  0  0  0  0  # atno 10167 bound_to 10162
  157.5614  130.8839  149.9118 H   0  0  0  0  0  0  0  0  0  0  0  0  # atno 10718 bound_to 10713
  154.6785  135.2950  154.9645 H   0  0  0  0  0  0  0  0  0  0  0  0  # atno 10763 bound_to 10752
  154.0648  135.6626  153.4820 H   0  0  0  0  0  0  0  0  0  0  0  0  # atno 10764 bound_to 10752
  153.0532  135.5161  154.7816 H   0  0  0  0  0  0  0  0  0  0  0  0  # atno 10765 bound_to 10752
  140.9821  133.7051  156.1701 H   0  0  0  0  0  0  0  0  0  0  0  0  # atno 11005 bound_to 11000
  144.7003  140.3623  143.7161 LP  0  0  0  0  0  0  0  0  0  0  0  0  # atno 17320 bound_to 7965
  145.7142  139.1692  143.2521 LP  0  0  0  0  0  0  0  0  0  0  0  0  # atno 17321 bound_to 7965
  140.2727  144.3946  150.6145 LP  0  0  0  0  0  0  0  0  0  0  0  0  # atno 17342 bound_to 10162
  140.6076  143.2168  151.6949 LP  0  0  0  0  0  0  0  0  0  0  0  0  # atno 17343 bound_to 10162
  156.0667  130.3691  150.0864 LP  0  0  0  0  0  0  0  0  0  0  0  0  # atno 17370 bound_to 10713
  156.9027  130.9626  151.3574 LP  0  0  0  0  0  0  0  0  0  0  0  0  # atno 17371 bound_to 10713
  140.7171  134.4399  157.5577 LP  0  0  0  0  0  0  0  0  0  0  0  0  # atno 17394 bound_to 11000
  139.8954  134.8683  156.2131 LP  0  0  0  0  0  0  0  0  0  0  0  0  # atno 17395 bound_to 11000

$$$$
