AV-unprocessed.smi:244|AV-procd|sdf|1869|dock7
  -GOLD-   2262020503D 1   1.00000     0.00000
 Structure written by MMmdl.
 57 61  0  0  0  0  0  0  0  0  2 V2000
  142.6703  134.6559  153.3137 C   0  0  0  0  0  0  0  0  0  0  0  0
  142.9228  134.7391  151.8565 N   0  3  2  0  0  0  0  0  0  0  0  0
  142.7241  133.4548  151.1394 C   0  0  0  0  0  0  0  0  0  0  0  0
  143.9082  132.4964  151.3428 C   0  0  0  0  0  0  0  0  0  0  0  0
  145.2301  133.1633  150.9133 C   0  0  2  0  0  0  0  0  0  0  0  0
  146.3550  132.2982  151.0726 O   0  0  0  0  0  0  0  0  0  0  0  0
  146.7352  132.0629  152.4252 C   0  0  0  0  0  0  0  0  0  0  0  0
  147.0392  133.3966  153.1187 C   0  0  0  0  0  0  0  0  0  0  0  0
  145.9021  134.3030  153.0125 N   0  0  0  0  0  0  0  0  0  0  0  0
  146.1036  135.3978  153.7834 C   0  0  0  0  0  0  0  0  0  0  0  0
  146.1000  135.2967  155.1390 N   0  0  0  0  0  0  0  0  0  0  0  0
  146.2926  136.3853  155.8906 C   0  0  0  0  0  0  0  0  0  0  0  0
  146.5034  137.6437  155.4984 N   0  0  0  0  0  0  0  0  0  0  0  0
  146.4988  137.7469  154.1382 C   0  0  0  0  0  0  0  0  0  0  0  0
  146.2991  136.6837  153.2151 C   0  0  0  0  0  0  0  0  0  0  0  0
  146.3524  137.1633  151.9129 N   0  0  0  0  0  0  0  0  0  0  0  0
  146.5742  138.4416  152.0576 C   0  0  0  0  0  0  0  0  0  0  0  0
  146.6908  138.8745  153.3598 N   0  0  0  0  0  0  0  0  0  0  0  0
  146.9521  140.2341  153.8056 C   0  0  0  0  0  0  0  0  0  0  0  0
  148.4353  140.5027  154.1642 C   0  0  0  0  0  0  0  0  0  0  0  0
  149.0478  141.1233  153.0469 O   0  0  0  0  0  0  0  0  0  0  0  0
  148.5928  141.4392  155.3825 C   0  0  0  0  0  0  0  0  0  0  0  0
  150.0532  141.5277  155.8605 C   0  0  0  0  0  0  0  0  0  0  0  0
  150.5586  140.2269  156.1344 O   0  0  0  0  0  0  0  0  0  0  0  0
  150.5942  139.3988  154.9786 C   0  0  0  0  0  0  0  0  0  0  0  0
  149.1667  139.1753  154.4484 C   0  0  0  0  0  0  0  0  0  0  0  0
  145.4587  134.5166  151.6288 C   0  0  2  0  0  0  0  0  0  0  0  0
  144.1961  135.4158  151.4898 C   0  0  0  0  0  0  0  0  0  0  0  0
  143.3389  133.9511  153.8055 H   0  0  0  0  0  0  0  0  0  0  0  0
  141.6471  134.3299  153.5019 H   0  0  0  0  0  0  0  0  0  0  0  0
  142.7976  135.6313  153.7846 H   0  0  0  0  0  0  0  0  0  0  0  0
  141.7933  132.9869  151.4625 H   0  0  0  0  0  0  0  0  0  0  0  0
  142.6065  133.6681  150.0763 H   0  0  0  0  0  0  0  0  0  0  0  0
  143.9418  132.1884  152.3867 H   0  0  0  0  0  0  0  0  0  0  0  0
  143.7494  131.5874  150.7620 H   0  0  0  0  0  0  0  0  0  0  0  0
  145.1567  133.3618  149.8433 H   0  0  0  0  0  0  0  0  0  0  0  0
  145.9634  131.5104  152.9604 H   0  0  0  0  0  0  0  0  0  0  0  0
  147.6239  131.4316  152.4313 H   0  0  0  0  0  0  0  0  0  0  0  0
  147.2854  133.2157  154.1663 H   0  0  0  0  0  0  0  0  0  0  0  0
  147.9139  133.8607  152.6599 H   0  0  0  0  0  0  0  0  0  0  0  0
  146.2772  136.2249  156.9585 H   0  0  0  0  0  0  0  0  0  0  0  0
  146.6719  139.1076  151.2126 H   0  0  0  0  0  0  0  0  0  0  0  0
  146.6317  140.9125  153.0135 H   0  0  0  0  0  0  0  0  0  0  0  0
  146.3092  140.4441  154.6616 H   0  0  0  0  0  0  0  0  0  0  0  0
  148.9190  140.5735  152.2889 H   0  0  0  0  0  0  0  0  0  0  0  0
  148.2246  142.4402  155.1548 H   0  0  0  0  0  0  0  0  0  0  0  0
  147.9807  141.0652  156.2044 H   0  0  0  0  0  0  0  0  0  0  0  0
  150.6797  142.0254  155.1187 H   0  0  0  0  0  0  0  0  0  0  0  0
  150.1107  142.1244  156.7710 H   0  0  0  0  0  0  0  0  0  0  0  0
  151.2337  139.8449  154.2154 H   0  0  0  0  0  0  0  0  0  0  0  0
  151.0445  138.4430  155.2473 H   0  0  0  0  0  0  0  0  0  0  0  0
  148.6087  138.6103  155.1964 H   0  0  0  0  0  0  0  0  0  0  0  0
  149.1931  138.5520  153.5537 H   0  0  0  0  0  0  0  0  0  0  0  0
  146.2803  135.0183  151.1148 H   0  0  0  0  0  0  0  0  0  0  0  0
  144.1052  135.7053  150.4422 H   0  0  0  0  0  0  0  0  0  0  0  0
  144.2897  136.3547  152.0350 H   0  0  0  0  0  0  0  0  0  0  0  0
  142.1949  135.3506  151.5149 H   0  0  0  0  0  0  0  0  0  0  0  0
  1  2  1  0  0  0  0
  1 29  1  0  0  0  0
  1 30  1  0  0  0  0
  1 31  1  0  0  0  0
  2 28  1  0  0  0  0
  2  3  1  0  0  0  0
  2 57  1  0  0  0  0
  3  4  1  0  0  0  0
  3 32  1  0  0  0  0
  3 33  1  0  0  0  0
  4  5  1  0  0  0  0
  4 34  1  0  0  0  0
  4 35  1  0  0  0  0
  5 27  1  0  0  0  0
  5  6  1  0  0  0  0
  5 36  1  0  0  0  0
  6  7  1  0  0  0  0
  7  8  1  0  0  0  0
  7 37  1  0  0  0  0
  7 38  1  0  0  0  0
  8  9  1  0  0  0  0
  8 39  1  0  0  0  0
  8 40  1  0  0  0  0
  9 10  1  0  0  0  0
  9 27  1  0  0  0  0
 10 15  1  0  0  0  0
 10 11  2  0  0  0  0
 11 12  1  0  0  0  0
 12 13  2  0  0  0  0
 12 41  1  0  0  0  0
 13 14  1  0  0  0  0
 14 18  1  0  0  0  0
 14 15  2  0  0  0  0
 15 16  1  0  0  0  0
 16 17  2  0  0  0  0
 17 18  1  0  0  0  0
 17 42  1  0  0  0  0
 18 19  1  0  0  0  0
 19 20  1  0  0  0  0
 19 43  1  0  0  0  0
 19 44  1  0  0  0  0
 20 26  1  0  0  0  0
 20 21  1  0  0  0  0
 20 22  1  0  0  0  0
 21 45  1  0  0  0  0
 22 23  1  0  0  0  0
 22 46  1  0  0  0  0
 22 47  1  0  0  0  0
 23 24  1  0  0  0  0
 23 48  1  0  0  0  0
 23 49  1  0  0  0  0
 24 25  1  0  0  0  0
 25 26  1  0  0  0  0
 25 50  1  0  0  0  0
 25 51  1  0  0  0  0
 26 52  1  0  0  0  0
 26 53  1  0  0  0  0
 27 28  1  0  0  0  0
 27 54  1  0  0  0  0
 28 55  1  0  0  0  0
 28 56  1  0  0  0  0
M  CHG  1   2   1
M  END
> <s_m_source_file>
AV-unprocessed.smi

> <i_m_source_file_index>
244

> <i_lp_mmshare_version>
43012

> <i_f3d_flags>
0

> <s_epik_input>
W0NIMl0xW0NIMl1OKFtDSDNdKVtDSDJdW0NAQEhdKFtDQEhdMTIpTihbQ0gyXVtDSDJdTzIpYyhuW2NIXW4zKWMoYzM0KW5bY0hdbjRbQ0gyXUM1KFtPSF0pW0NIMl1bQ0gyXU9bQ0gyXVtDSDJdNQ==

> <s_epik_cmdline>
J2VwaWtfcHl0aG9uJywgJy1waCcsICc3LjAnLCAnLXRuJywgJzgnLCAnLW1hJywgJzIwMCcsICctbWV0YWxfYmluZGluZycsICctaW1hZScsICc8aW5maWxlLm1hZT4nLCAnLW9tYWUnLCAnPG91dGZpbGUubWFlPic=

> <r_lp_tautomer_probability>
1

> <r_epik_Ionization_Penalty>
0.0136215

> <r_epik_Ionization_Penalty_Charging>
0.0131385

> <r_epik_Ionization_Penalty_Neutral>
0.000483022

> <r_epik_State_Penalty>
0.0104001

> <r_epik_Charging_Adjusted_Penalty>
0.0235387

> <i_epik_Tot_Q>
1

> <i_epik_Tot_abs_Q>
1

> <r_epik_Metal_State_Penalty>
0.0104469

> <b_epik_Metal_Only>
0

> <s_lp_Force_Field>
OPLS_2005

> <r_lp_Energy>
50.9375

> <b_lp_Chiralities_Consistent>
1

> <s_lp_Variant>
AV-unprocessed.smi:244-6

> <Gold.Version>
5.8.1

> <Gold.Id.Protein>
6NUR|6NUR_protein|mol2

> <Gold.PLP.Fitness>
34.0029

> <Gold.PLP.PLP>
-31.8480

> <Gold.PLP.part.hbond>
-2.7782

> <Gold.PLP.part.metal>
0.0000

> <Gold.PLP.part.buried>
0.6684

> <Gold.PLP.part.nonpolar>
-34.0743

> <Gold.PLP.part.repulsive>
2.7837

> <Gold.PLP.ligand.clash>
0.0000

> <Gold.PLP.ligand.torsion>
1.4502

> <Gold.PLP.Chemscore.Hbond>
1.6365

> <Gold.PLP.Chemscore.CHOScore>
0.0000

> <Gold.PLP.Chemscore.Metal>
0.0000

> <Gold.Chemscore.Hbonds>
donor molecule, donor type, donor heavy atom, donor atom, acceptor molecule, acceptor atom, score
      L1  H    21    45       P1  7957  0.61
      P1  H  8011  8017       L1    21  0.95

> <Gold.PLP.Chemscore.Internal.Correction>
0.1458

> <Gold.Rescore>
     Score         DG    S(hbond)    S(metal)    S(lipo)     H(rot)  DE(clash)    DE(int)     intcor
      6.65     -14.50       1.22        0.00      88.07       2.09       3.01       4.84       ----

> <Gold.Chemscore.Fitness>
6.6471

> <Gold.Chemscore.DG>
-14.5011

> <Gold.Chemscore.ZeroCoef>
-5.4800

> <Gold.Chemscore.Hbond>
1.2184

> <Gold.Chemscore.Metal>
0.0000

> <Gold.Chemscore.Lipo>
88.0747

> <Gold.Chemscore.Internal_Hbond>
0.0000

> <Gold.Chemscore.DEClash>
3.0147

> <Gold.Chemscore.DEInternal>
4.8394

> <Gold.Chemscore.Rot>
2.0911

> <Gold.Chemscore.Internal.Correction>
   9.000000E+99

> <Gold.Chemscore.Hbonds>
donor molecule, donor type, donor heavy atom, donor atom, acceptor molecule, acceptor atom, score
      L1  H    21    45       P1  7957  0.59
      P1  H  8011  8017       L1    21  0.21

> <Gold.Chemscore.Hbond.Weighted>
-4.0695

> <Gold.Chemscore.Metal.Weighted>
-0.0000

> <Gold.Chemscore.Lipo.Weighted>
-10.3047

> <Gold.Chemscore.Internal_Hbond.Weighted>
0.0000

> <Gold.Chemscore.DEClash.Weighted>
3.0147

> <Gold.Chemscore.DEInternal.Weighted>
4.8394

> <Gold.Chemscore.Rot.Weighted>
5.3531

> <Gold.Chemscore.Internal.Correction.Weighted>
   9.000000E+99

> <Gold.Protein.RotatedTorsions>
[ 6907 6896 6895 6894 ] final  -75.10 input  -60.11 | X-H torsion
[ 7974 7965 7964 7962 ] final   36.87 input  175.53 | X-H torsion
[ 8008 7997 7996 7995 ] final  -18.06 input   59.86 | X-H torsion
[ 10167 10162 10161 10158 ] final  -59.91 input  -65.29 | X-H torsion
[ 10718 10713 10712 10709 ] final   35.42 input   66.30 | X-H torsion
[ 10763 10752 10751 10750 ] final  -44.94 input  -60.55 | X-H torsion
[ 11005 11000 10999 10996 ] final  -83.83 input  -57.11 | X-H torsion

> <Gold.Protein.ActiveResidues>
 VAL166  LYS551  ARG553  GLY616  TRP617  ASP618  TYR619  PRO620  LYS621  CYS622 
 ASP623  PHE694  ASN695  SER759  ASP760  ASP761  ALA762  ILE779  LEU786  VAL792 
 PHE793  MET794  SER795  GLU796  ALA797  LYS798  CYS799  TRP800  GLU811  SER814 

> <Gold.Protein.RotatedAtoms>
  150.7070  134.4772  159.5452 H   0  0  0  0  0  0  0  0  0  0  0  0  # atno 6907 bound_to 6896
  152.2416  134.8220  160.0468 H   0  0  0  0  0  0  0  0  0  0  0  0  # atno 6908 bound_to 6896
  151.8999  133.3500  159.3864 H   0  0  0  0  0  0  0  0  0  0  0  0  # atno 6909 bound_to 6896
  146.1179  139.5964  142.9309 H   0  0  0  0  0  0  0  0  0  0  0  0  # atno 7974 bound_to 7965
  154.4933  140.2126  155.9500 H   0  0  0  0  0  0  0  0  0  0  0  0  # atno 8008 bound_to 7997
  156.1336  140.3192  155.8355 H   0  0  0  0  0  0  0  0  0  0  0  0  # atno 8009 bound_to 7997
  155.4251  140.0499  157.3013 H   0  0  0  0  0  0  0  0  0  0  0  0  # atno 8010 bound_to 7997
  140.6105  143.2386  151.5720 H   0  0  0  0  0  0  0  0  0  0  0  0  # atno 10167 bound_to 10162
  157.3224  130.7455  149.6794 H   0  0  0  0  0  0  0  0  0  0  0  0  # atno 10718 bound_to 10713
  154.0203  135.6670  153.4772 H   0  0  0  0  0  0  0  0  0  0  0  0  # atno 10763 bound_to 10752
  153.0583  135.5043  154.8029 H   0  0  0  0  0  0  0  0  0  0  0  0  # atno 10764 bound_to 10752
  154.6941  135.3067  154.9401 H   0  0  0  0  0  0  0  0  0  0  0  0  # atno 10765 bound_to 10752
  141.1655  133.7314  156.8778 H   0  0  0  0  0  0  0  0  0  0  0  0  # atno 11005 bound_to 11000
  145.5527  141.0412  143.2269 LP  0  0  0  0  0  0  0  0  0  0  0  0  # atno 17320 bound_to 7965
  144.7570  139.7050  143.7250 LP  0  0  0  0  0  0  0  0  0  0  0  0  # atno 17321 bound_to 7965
  139.5358  144.2786  152.1247 LP  0  0  0  0  0  0  0  0  0  0  0  0  # atno 17342 bound_to 10162
  140.1985  144.4682  150.6443 LP  0  0  0  0  0  0  0  0  0  0  0  0  # atno 17343 bound_to 10162
  155.9687  130.4219  150.4491 LP  0  0  0  0  0  0  0  0  0  0  0  0  # atno 17370 bound_to 10713
  157.2509  131.0546  151.2379 LP  0  0  0  0  0  0  0  0  0  0  0  0  # atno 17371 bound_to 10713
  140.1736  134.9083  157.2863 LP  0  0  0  0  0  0  0  0  0  0  0  0  # atno 17394 bound_to 11000
  140.2474  134.3723  155.7456 LP  0  0  0  0  0  0  0  0  0  0  0  0  # atno 17395 bound_to 11000

$$$$
