AV-unprocessed.smi:1908|AV-procd|sdf|7734|dock2
  -GOLD-   22720 9473D 1   1.00000     0.00000
 Structure written by MMmdl.
 27 27  0  0  0  0  0  0  0  0  2 V2000
  150.1971  144.4757  159.4486 C   0  0  0  0  0  0  0  0  0  0  0  0
  151.2724  143.7626  158.6185 C   0  0  0  0  0  0  0  0  0  0  0  0
  152.3974  144.7218  158.2005 C   0  0  0  0  0  0  0  0  0  0  0  0
  150.6559  143.1572  157.4420 N   0  0  0  0  0  0  0  0  0  0  0  0
  150.7875  141.8755  157.0667 C   0  0  0  0  0  0  0  0  0  0  0  0
  151.4787  141.0591  157.6774 O   0  0  0  0  0  0  0  0  0  0  0  0
  150.0484  141.4669  155.7856 C   0  0  0  0  0  0  0  0  0  0  0  0
  150.3768  140.0989  155.3536 N   0  0  0  0  0  0  0  0  0  0  0  0
  151.7356  139.7510  155.2547 C   0  0  0  0  0  0  0  0  0  0  0  0
  152.1279  138.5201  154.8744 C   0  0  0  0  0  0  0  0  0  0  0  0
  151.1009  137.5344  154.5612 C   0  0  0  0  0  0  0  0  0  0  0  0
  151.4410  136.4065  154.2089 O   0  0  0  0  0  0  0  0  0  0  0  0
  149.7960  137.9189  154.6760 N   0  5  0  0  0  0  0  0  0  0  0  0
  149.4117  139.1741  155.0655 C   0  0  0  0  0  0  0  0  0  0  0  0
  148.2279  139.4998  155.1647 O   0  0  0  0  0  0  0  0  0  0  0  0
  150.6251  144.9120  160.3516 H   0  0  0  0  0  0  0  0  0  0  0  0
  149.4159  143.7806  159.7582 H   0  0  0  0  0  0  0  0  0  0  0  0
  149.7242  145.2790  158.8827 H   0  0  0  0  0  0  0  0  0  0  0  0
  151.7011  142.9757  159.2414 H   0  0  0  0  0  0  0  0  0  0  0  0
  152.8703  145.1735  159.0728 H   0  0  0  0  0  0  0  0  0  0  0  0
  152.0179  145.5287  157.5728 H   0  0  0  0  0  0  0  0  0  0  0  0
  153.1746  144.2002  157.6409 H   0  0  0  0  0  0  0  0  0  0  0  0
  150.0687  143.7539  156.8776 H   0  0  0  0  0  0  0  0  0  0  0  0
  148.9704  141.5684  155.9261 H   0  0  0  0  0  0  0  0  0  0  0  0
  150.3035  142.1844  155.0049 H   0  0  0  0  0  0  0  0  0  0  0  0
  152.4314  140.5361  155.5115 H   0  0  0  0  0  0  0  0  0  0  0  0
  153.1757  138.2672  154.8066 H   0  0  0  0  0  0  0  0  0  0  0  0
  1  2  1  0  0  0  0
  1 16  1  0  0  0  0
  1 17  1  0  0  0  0
  1 18  1  0  0  0  0
  2  3  1  0  0  0  0
  2  4  1  0  0  0  0
  2 19  1  0  0  0  0
  3 20  1  0  0  0  0
  3 21  1  0  0  0  0
  3 22  1  0  0  0  0
  4  5  1  0  0  0  0
  4 23  1  0  0  0  0
  5  6  2  0  0  0  0
  5  7  1  0  0  0  0
  7  8  1  0  0  0  0
  7 24  1  0  0  0  0
  7 25  1  0  0  0  0
  8 14  1  0  0  0  0
  8  9  1  0  0  0  0
  9 10  2  0  0  0  0
  9 26  1  0  0  0  0
 10 11  1  0  0  0  0
 10 27  1  0  0  0  0
 11 12  2  0  0  0  0
 11 13  1  0  0  0  0
 13 14  1  0  0  0  0
 14 15  2  0  0  0  0
M  CHG  1  13  -1
M  END
> <s_m_source_file>
AV-unprocessed.smi

> <i_m_source_file_index>
1908

> <i_lp_mmshare_version>
43012

> <i_f3d_flags>
0

> <s_epik_input>
W0NIM11bQ0hdKFtDSDNdKVtOSF1DKD1PKVtDSDJdbjFbY0hdW2NIXWMoPU8pW25IXWMxPU8=

> <s_epik_cmdline>
J2VwaWtfcHl0aG9uJywgJy1waCcsICc3LjAnLCAnLXRuJywgJzgnLCAnLW1hJywgJzIwMCcsICctbWV0YWxfYmluZGluZycsICctaW1hZScsICc8aW5maWxlLm1hZT4nLCAnLW9tYWUnLCAnPG91dGZpbGUubWFlPic=

> <r_lp_tautomer_probability>
0.999537

> <r_epik_Ionization_Penalty>
3.07884

> <r_epik_Ionization_Penalty_Charging>
2.69291e-08

> <r_epik_Ionization_Penalty_Neutral>
3.07884

> <r_epik_State_Penalty>
3.07787

> <r_epik_Charging_Adjusted_Penalty>
3.07787

> <i_epik_Tot_Q>
-1

> <i_epik_Tot_abs_Q>
1

> <r_epik_Metal_State_Penalty>
0.459857

> <b_epik_Metal_Only>
1

> <s_lp_Force_Field>
OPLS_2005

> <r_lp_Energy>
10.6939

> <b_lp_Chiralities_Consistent>
1

> <s_lp_Variant>
AV-unprocessed.smi:1908-2

> <Gold.Version>
5.8.1

> <Gold.Id.Protein>
6NUR|6NUR_protein|mol2

> <Gold.PLP.Fitness>
37.3115

> <Gold.PLP.PLP>
-31.7395

> <Gold.PLP.part.hbond>
-2.0000

> <Gold.PLP.part.metal>
0.0000

> <Gold.PLP.part.buried>
-3.2679

> <Gold.PLP.part.nonpolar>
-27.0744

> <Gold.PLP.part.repulsive>
1.6479

> <Gold.PLP.ligand.clash>
0.0000

> <Gold.PLP.ligand.torsion>
0.2052

> <Gold.PLP.Chemscore.Hbond>
1.9913

> <Gold.PLP.Chemscore.CHOScore>
0.0000

> <Gold.PLP.Chemscore.Metal>
0.0000

> <Gold.Chemscore.Hbonds>
donor molecule, donor type, donor heavy atom, donor atom, acceptor molecule, acceptor atom, score
      L1  H     4    23       P1  8028  1.00
      P1  H 10752 10765       L1    12  1.00

> <Gold.PLP.Chemscore.Internal.Correction>
0.0087

> <Gold.Rescore>
     Score         DG    S(hbond)    S(metal)    S(lipo)     H(rot)  DE(clash)    DE(int)     intcor
     13.11     -14.55       1.99        0.00      58.58       1.72       0.03       1.42       ----

> <Gold.Chemscore.Fitness>
13.1113

> <Gold.Chemscore.DG>
-14.5545

> <Gold.Chemscore.ZeroCoef>
-5.4800

> <Gold.Chemscore.Hbond>
1.9859

> <Gold.Chemscore.Metal>
0.0000

> <Gold.Chemscore.Lipo>
58.5825

> <Gold.Chemscore.Internal_Hbond>
0.0000

> <Gold.Chemscore.DEClash>
0.0272

> <Gold.Chemscore.DEInternal>
1.4161

> <Gold.Chemscore.Rot>
1.7236

> <Gold.Chemscore.Internal.Correction>
   9.000000E+99

> <Gold.Chemscore.Hbonds>
donor molecule, donor type, donor heavy atom, donor atom, acceptor molecule, acceptor atom, score
      L1  H     4    23       P1  8028  0.99
      P1  H 10752 10765       L1    12  1.00

> <Gold.Chemscore.Hbond.Weighted>
-6.6328

> <Gold.Chemscore.Metal.Weighted>
-0.0000

> <Gold.Chemscore.Lipo.Weighted>
-6.8542

> <Gold.Chemscore.Internal_Hbond.Weighted>
0.0000

> <Gold.Chemscore.DEClash.Weighted>
0.0272

> <Gold.Chemscore.DEInternal.Weighted>
1.4161

> <Gold.Chemscore.Rot.Weighted>
4.4124

> <Gold.Chemscore.Internal.Correction.Weighted>
   9.000000E+99

> <Gold.Protein.RotatedTorsions>
[ 6907 6896 6895 6894 ] final   92.42 input  -60.11 | X-H torsion
[ 7974 7965 7964 7962 ] final  -96.82 input  175.53 | X-H torsion
[ 8008 7997 7996 7995 ] final   47.21 input   59.86 | X-H torsion
[ 10167 10162 10161 10158 ] final   -0.33 input  -65.29 | X-H torsion
[ 10718 10713 10712 10709 ] final -145.58 input   66.30 | X-H torsion
[ 10763 10752 10751 10750 ] final  151.34 input  -60.55 | X-H torsion
[ 11005 11000 10999 10996 ] final  -19.81 input  -57.11 | X-H torsion

> <Gold.Protein.ActiveResidues>
 VAL166  LYS551  ARG553  GLY616  TRP617  ASP618  TYR619  PRO620  LYS621  CYS622 
 ASP623  PHE694  ASN695  SER759  ASP760  ASP761  ALA762  ILE779  LEU786  VAL792 
 PHE793  MET794  SER795  GLU796  ALA797  LYS798  CYS799  TRP800  GLU811  SER814 

> <Gold.Protein.RotatedAtoms>
  152.5452  134.1505  159.8516 H   0  0  0  0  0  0  0  0  0  0  0  0  # atno 6907 bound_to 6896
  151.1532  133.4886  159.2602 H   0  0  0  0  0  0  0  0  0  0  0  0  # atno 6908 bound_to 6896
  151.1450  135.0209  159.8698 H   0  0  0  0  0  0  0  0  0  0  0  0  # atno 6909 bound_to 6896
  145.3419  140.9461  143.2603 H   0  0  0  0  0  0  0  0  0  0  0  0  # atno 7974 bound_to 7965
  155.3653  140.3421  155.4242 H   0  0  0  0  0  0  0  0  0  0  0  0  # atno 8008 bound_to 7997
  156.1692  140.1626  156.8512 H   0  0  0  0  0  0  0  0  0  0  0  0  # atno 8009 bound_to 7997
  154.5215  140.0766  156.8163 H   0  0  0  0  0  0  0  0  0  0  0  0  # atno 8010 bound_to 7997
  140.6762  143.6908  150.8030 H   0  0  0  0  0  0  0  0  0  0  0  0  # atno 10167 bound_to 10162
  156.3843  130.7853  151.2048 H   0  0  0  0  0  0  0  0  0  0  0  0  # atno 10718 bound_to 10713
  154.1021  135.2845  155.3249 H   0  0  0  0  0  0  0  0  0  0  0  0  # atno 10763 bound_to 10752
  154.6548  135.5356  153.7948 H   0  0  0  0  0  0  0  0  0  0  0  0  # atno 10764 bound_to 10752
  153.0375  135.6519  154.1184 H   0  0  0  0  0  0  0  0  0  0  0  0  # atno 10765 bound_to 10752
  140.8403  133.7931  155.9854 H   0  0  0  0  0  0  0  0  0  0  0  0  # atno 11005 bound_to 11000
  144.8784  139.4939  143.6735 LP  0  0  0  0  0  0  0  0  0  0  0  0  # atno 17320 bound_to 7965
  146.3004  139.7408  142.9096 LP  0  0  0  0  0  0  0  0  0  0  0  0  # atno 17321 bound_to 7965
  140.0601  143.5163  152.2632 LP  0  0  0  0  0  0  0  0  0  0  0  0  # atno 17342 bound_to 10162
  139.6057  144.7595  151.3068 LP  0  0  0  0  0  0  0  0  0  0  0  0  # atno 17343 bound_to 10162
  157.7494  131.0335  150.4273 LP  0  0  0  0  0  0  0  0  0  0  0  0  # atno 17370 bound_to 10713
  156.4523  130.4014  149.6628 LP  0  0  0  0  0  0  0  0  0  0  0  0  # atno 17371 bound_to 10713
  140.8902  134.2505  157.5098 LP  0  0  0  0  0  0  0  0  0  0  0  0  # atno 17394 bound_to 11000
  139.8703  134.9658  156.4540 LP  0  0  0  0  0  0  0  0  0  0  0  0  # atno 17395 bound_to 11000

$$$$
