#       Name:                AV-unprocessed.smi:3311
#       Creating user name   scv26
#       Creation time:       Fri Mar 27 19:06:02 2020


#       File generated by GOLD software.
#

@<TRIPOS>MOLECULE
AV-unprocessed.smi:3311
    47    48     1
SMALL
NO_CHARGES


@<TRIPOS>ATOM
      1 ****        -2.1981  -1.1673   1.4535 C.3            1 S1                 0.0000
      2 ****        -1.6460  -0.4800   0.1914 C.3            1 S1                 0.0000
      3 ****        -0.1676  -0.4966   0.2471 N.4            1 S1                 1.0000
      4 ****         0.4731   0.8363   0.2222 C.3            1 S1                 0.0000
      5 ****         2.0148   0.7462   0.2016 C.3            1 S1                 0.0000
      6 ****         2.3761   0.0423  -0.9740 O.3            1 S1                 0.0000
      7 ****         2.6218   2.1665   0.1124 C.3            1 S1                 0.0000
      8 ****         4.1595   2.1699   0.1854 C.3            1 S1                 0.0000
      9 ****         4.6595   1.4473   1.4438 C.3            1 S1                 0.0000
     10 ****         4.1071   0.0167   1.5123 C.3            1 S1                 0.0000
     11 ****         2.5693   0.0018   1.4417 C.3            1 S1                 0.0000
     12 ****        -2.1386  -1.1294  -1.1282 C.3            1 S1                 0.0000
     13 ****        -1.7042  -0.3432  -2.3793 C.3            1 S1                 0.0000
     14 ****        -3.5846  -1.3128  -1.1353 N.pl3          1 S1                 0.0000
     15 ****        -4.5785  -0.3542  -1.1635 C.2            1 S1                 0.0000
     16 ****        -5.7771  -1.0077  -1.1443 C.2            1 S1                 0.0000
     17 ****        -5.4120  -2.3818  -1.1002 C.2            1 S1                 0.0000
     18 ****        -4.1009  -2.5607  -1.0920 N.2            1 S1                 0.0000
     19 ****        -3.2836  -1.0890   1.5174 H              1 S1                 0.0000
     20 ****        -1.7923  -0.7103   2.3566 H              1 S1                 0.0000
     21 ****        -1.9394  -2.2264   1.4723 H              1 S1                 0.0000
     22 ****        -1.9943   0.5543   0.2144 H              1 S1                 0.0000
     23 ****         0.1170  -0.9693   1.0927 H              1 S1                 0.0000
     24 ****         0.1213   1.3820  -0.6549 H              1 S1                 0.0000
     25 ****         0.1427   1.3987   1.0967 H              1 S1                 0.0000
     26 ****         3.3198   0.0127  -1.0270 H              1 S1                 0.0000
     27 ****         2.2982   2.6604  -0.8050 H              1 S1                 0.0000
     28 ****         2.2356   2.7741   0.9321 H              1 S1                 0.0000
     29 ****         4.5753   1.6916  -0.7022 H              1 S1                 0.0000
     30 ****         4.5273   3.1964   0.1786 H              1 S1                 0.0000
     31 ****         5.7499   1.4258   1.4519 H              1 S1                 0.0000
     32 ****         4.3540   2.0022   2.3318 H              1 S1                 0.0000
     33 ****         4.5206  -0.5748   0.6947 H              1 S1                 0.0000
     34 ****         4.4389  -0.4625   2.4339 H              1 S1                 0.0000
     35 ****         2.1752   0.4687   2.3455 H              1 S1                 0.0000
     36 ****         2.2205  -1.0315   1.4586 H              1 S1                 0.0000
     37 ****        -1.6875  -2.1213  -1.1985 H              1 S1                 0.0000
     38 ****        -0.6186  -0.3019  -2.4689 H              1 S1                 0.0000
     39 ****        -2.0734   0.6827  -2.3574 H              1 S1                 0.0000
     40 ****        -2.0836  -0.8135  -3.2873 H              1 S1                 0.0000
     41 ****        -4.3537   0.7019  -1.1942 H              1 S1                 0.0000
     42 ****        -6.7647  -0.5708  -1.1588 H              1 S1                 0.0000
     43 ****        -6.0557  -3.2487  -1.0728 H              1 S1                 0.0000
     44 ****         0.1750  -1.0252  -0.5430 H              1 S1                 0.0000
     45 ****         2.0076   0.5128  -1.7758 LP             1 S1                 0.0000
     46 ****         2.0109  -0.8878  -0.9362 LP             1 S1                 0.0000
     47 ****        -3.6027  -3.4272  -1.0607 LP             1 S1                 0.0000
@<TRIPOS>BOND
    1    1    2 1     
    2    1   19 1     
    3    1   20 1     
    4    1   21 1     
    5    2    3 1     
    6    2   12 1     
    7    2   22 1     
    8    3    4 1     
    9    3   23 1     
   10    3   44 1     
   11    4    5 1     
   12    4   24 1     
   13    4   25 1     
   14    5   11 1     
   15    5    6 1     
   16    5    7 1     
   17    6   26 1     
   18    7    8 1     
   19    7   27 1     
   20    7   28 1     
   21    8    9 1     
   22    8   29 1     
   23    8   30 1     
   24    9   10 1     
   25    9   31 1     
   26    9   32 1     
   27   10   11 1     
   28   10   33 1     
   29   10   34 1     
   30   11   35 1     
   31   11   36 1     
   32   12   13 1     
   33   12   14 1     
   34   12   37 1     
   35   13   38 1     
   36   13   39 1     
   37   13   40 1     
   38   14   18 1     
   39   14   15 1     
   40   15   16 2     
   41   15   41 1     
   42   16   17 1     
   43   16   42 1     
   44   17   18 2     
   45   17   43 1     
   46    6   45 1     
   47    6   46 1     
   48   18   47 1     
@<TRIPOS>SUBSTRUCTURE
      1 S1             1
@<TRIPOS>SET
LONE_PAIRS      STATIC     ATOMS    <user>   **** ""
3 45 46 47
DONOR_HYDROGENS      STATIC     ATOMS    <user>   **** ""
3 23 44 26
ATOM$BLUE        STATIC     ATOMS    COLORGROUP SYSTEM
3 45 46 47
ATOM$RED        STATIC     ATOMS    COLORGROUP SYSTEM
3 23 44 26
