#       Name:                AV-unprocessed.smi:6
#       Creating user name   scv26
#       Creation time:       Thu Mar 26 15:15:37 2020


#       File generated by GOLD software.
#

@<TRIPOS>MOLECULE
AV-unprocessed.smi:6
    43    44     1
SMALL
NO_CHARGES


@<TRIPOS>ATOM
      1 ****        -3.6562   2.1870  -1.0666 C.3            1 S1                 0.0000
      2 ****        -3.9328   1.4443   0.2497 C.3            1 S1                 0.0000
      3 ****        -3.6097   2.2863   1.4934 C.3            1 S1                 0.0000
      4 ****        -3.2519   0.0837   0.2921 C.ar           1 S1                 0.0000
      5 ****        -4.0101  -1.0215   0.3787 N.pl3          1 S1                 1.0000
      6 ****        -3.4181  -2.2399   0.4271 C.ar           1 S1                 0.0000
      7 ****        -2.0158  -2.3530   0.3862 C.ar           1 S1                 0.0000
      8 ****        -1.2823  -1.1577   0.2936 C.ar           1 S1                 0.0000
      9 ****         0.1178  -1.2065   0.2507 N.pl3          1 S1                 0.0000
     10 ****         0.8822  -0.0155  -0.1013 C.3            1 S1                 0.0000
     11 ****         2.3849  -0.2137   0.0252 C.2            1 S1                 0.0000
     12 ****         3.1980  -0.2403  -1.0617 C.2            1 S1                 0.0000
     13 ****         4.5733  -0.3942  -0.9849 N.am           1 S1                 0.0000
     14 ****         5.4274  -0.4243  -2.1407 C.3            1 S1                 0.0000
     15 ****         5.1963  -0.5247   0.2737 C.2            1 S1                 0.0000
     16 ****         6.4114  -0.6668   0.4122 O.2            1 S1                 0.0000
     17 ****         4.3634  -0.4827   1.3909 N.am           1 S1                 0.0000
     18 ****         2.9738  -0.3294   1.3649 C.2            1 S1                 0.0000
     19 ****         2.3472  -0.3014   2.4228 O.2            1 S1                 0.0000
     20 ****        -1.9123   0.0371   0.2501 N.ar           1 S1                 0.0000
     21 ****         4.8022  -0.5693   2.2963 H              1 S1                 0.0000
     22 ****        -3.9709   1.5943  -1.9258 H              1 S1                 0.0000
     23 ****        -2.5948   2.4080  -1.1846 H              1 S1                 0.0000
     24 ****        -4.1959   3.1337  -1.1031 H              1 S1                 0.0000
     25 ****        -5.0084   1.2613   0.2758 H              1 S1                 0.0000
     26 ****        -3.8915   1.7612   2.4066 H              1 S1                 0.0000
     27 ****        -4.1502   3.2330   1.4771 H              1 S1                 0.0000
     28 ****        -2.5451   2.5144   1.5550 H              1 S1                 0.0000
     29 ****        -4.0869  -3.0851   0.4983 H              1 S1                 0.0000
     30 ****        -1.5301  -3.3172   0.4256 H              1 S1                 0.0000
     31 ****         0.5718  -2.1054   0.1741 H              1 S1                 0.0000
     32 ****         0.6332   0.2718  -1.1234 H              1 S1                 0.0000
     33 ****         0.5913   0.8172   0.5407 H              1 S1                 0.0000
     34 ****         2.7466  -0.1381  -2.0383 H              1 S1                 0.0000
     35 ****         5.9317  -1.3925  -2.1563 H              1 S1                 0.0000
     36 ****         6.1319   0.4055  -2.0555 H              1 S1                 0.0000
     37 ****         4.8081  -0.3050  -3.0303 H              1 S1                 0.0000
     38 ****        -5.0277  -0.9538   0.4111 H              1 S1                 0.0000
     39 ****         7.0063  -0.6941  -0.3911 LP             1 S1                 0.0000
     40 ****         6.8033  -0.7549   1.3280 LP             1 S1                 0.0000
     41 ****         1.3532  -0.1923   2.4125 LP             1 S1                 0.0000
     42 ****         2.8316  -0.3877   3.2933 LP             1 S1                 0.0000
     43 ****        -1.3821   0.8825   0.1869 LP             1 S1                 0.0000
@<TRIPOS>BOND
    1    1    2 1     
    2    1   22 1     
    3    1   23 1     
    4    1   24 1     
    5    2    3 1     
    6    2    4 1     
    7    2   25 1     
    8    3   26 1     
    9    3   27 1     
   10    3   28 1     
   11    4   20 ar    
   12    4    5 ar    
   13    5    6 ar    
   14    5   38 1     
   15    6    7 ar    
   16    6   29 1     
   17    7    8 ar    
   18    7   30 1     
   19    8    9 1     
   20    8   20 ar    
   21    9   10 1     
   22    9   31 1     
   23   10   11 1     
   24   10   32 1     
   25   10   33 1     
   26   11   18 1     
   27   11   12 2     
   28   12   13 1     
   29   12   34 1     
   30   13   14 1     
   31   13   15 1     
   32   14   35 1     
   33   14   36 1     
   34   14   37 1     
   35   15   16 2     
   36   15   17 1     
   37   17   21 1     
   38   17   18 1     
   39   18   19 2     
   40   16   39 1     
   41   16   40 1     
   42   19   41 1     
   43   19   42 1     
   44   20   43 1     
@<TRIPOS>SUBSTRUCTURE
      1 S1             1
@<TRIPOS>SET
LONE_PAIRS      STATIC     ATOMS    <user>   **** ""
5 39 40 41 42 43
DONOR_HYDROGENS      STATIC     ATOMS    <user>   **** ""
3 38 31 21
ATOM$BLUE        STATIC     ATOMS    COLORGROUP SYSTEM
5 39 40 41 42 43
ATOM$RED        STATIC     ATOMS    COLORGROUP SYSTEM
3 38 31 21
