AV-unprocessed.smi:243|AV-procd|sdf|1848|dock2
  -GOLD-   2262020473D 1   1.00000     0.00000
 Structure written by MMmdl.
 58 61  0  0  0  0  0  0  0  0  2 V2000
  145.3095  130.0945  151.6796 C   0  0  0  0  0  0  0  0  0  0  0  0
  145.5858  131.0755  150.5308 C   0  0  0  0  0  0  0  0  0  0  0  0
  145.5215  132.4933  150.9664 N   0  3  2  0  0  0  0  0  0  0  0  0
  146.4259  132.7716  152.1109 C   0  0  0  0  0  0  0  0  0  0  0  0
  146.4579  134.2716  152.4431 C   0  0  0  0  0  0  0  0  0  0  0  0
  145.0348  134.8025  152.7212 C   0  0  1  0  0  0  0  0  0  0  0  0
  144.9378  136.1902  153.2105 N   0  0  0  0  0  0  0  0  0  0  0  0
  143.7559  136.9527  152.8230 C   0  0  0  0  0  0  0  0  0  0  0  0
  146.0399  136.9187  153.5377 C   0  0  0  0  0  0  0  0  0  0  0  0
  146.2782  138.0643  152.8492 N   0  0  0  0  0  0  0  0  0  0  0  0
  147.3589  138.8045  153.1094 C   0  0  0  0  0  0  0  0  0  0  0  0
  148.3262  138.5818  153.9995 N   0  0  0  0  0  0  0  0  0  0  0  0
  148.1071  137.4253  154.6869 C   0  0  0  0  0  0  0  0  0  0  0  0
  147.0055  136.5377  154.5186 C   0  0  0  0  0  0  0  0  0  0  0  0
  147.1325  135.4681  155.3991 N   0  0  0  0  0  0  0  0  0  0  0  0
  148.2413  135.7074  156.0435 C   0  0  0  0  0  0  0  0  0  0  0  0
  148.8860  136.8691  155.6863 N   0  0  0  0  0  0  0  0  0  0  0  0
  150.1310  137.3817  156.2367 C   0  0  0  0  0  0  0  0  0  0  0  0
  151.2409  137.6000  155.1777 C   0  0  1  0  0  0  0  0  0  0  0  0
  151.2699  136.4985  154.2898 O   0  0  0  0  0  0  0  0  0  0  0  0
  151.0374  138.8833  154.3889 C   0  0  0  0  0  0  0  0  0  0  0  0
  151.7048  139.9361  155.2721 C   0  0  0  0  0  0  0  0  0  0  0  0
  152.7041  139.2495  156.0204 O   0  0  0  0  0  0  0  0  0  0  0  0
  152.6375  137.8512  155.7614 C   0  0  0  0  0  0  0  0  0  0  0  0
  144.0954  134.4789  151.5285 C   0  0  1  0  0  0  0  0  0  0  0  0
  144.3703  135.2841  150.2426 C   0  0  0  0  0  0  0  0  0  0  0  0
  144.1364  132.9632  151.2402 C   0  0  0  0  0  0  0  0  0  0  0  0
  145.2744  129.0704  151.3074 H   0  0  0  0  0  0  0  0  0  0  0  0
  144.3511  130.3044  152.1556 H   0  0  0  0  0  0  0  0  0  0  0  0
  146.0821  130.1306  152.4470 H   0  0  0  0  0  0  0  0  0  0  0  0
  146.5519  130.8679  150.0683 H   0  0  0  0  0  0  0  0  0  0  0  0
  144.8320  130.9018  149.7616 H   0  0  0  0  0  0  0  0  0  0  0  0
  146.1001  132.1989  152.9807 H   0  0  0  0  0  0  0  0  0  0  0  0
  147.4374  132.4394  151.8735 H   0  0  0  0  0  0  0  0  0  0  0  0
  147.0935  134.4303  153.3151 H   0  0  0  0  0  0  0  0  0  0  0  0
  146.9212  134.8056  151.6137 H   0  0  0  0  0  0  0  0  0  0  0  0
  144.6705  134.2068  153.5597 H   0  0  0  0  0  0  0  0  0  0  0  0
  143.6621  137.8629  153.4169 H   0  0  0  0  0  0  0  0  0  0  0  0
  142.8534  136.3624  152.9833 H   0  0  0  0  0  0  0  0  0  0  0  0
  143.7947  137.2287  151.7693 H   0  0  0  0  0  0  0  0  0  0  0  0
  147.4650  139.7022  152.5183 H   0  0  0  0  0  0  0  0  0  0  0  0
  148.6193  135.0413  156.8057 H   0  0  0  0  0  0  0  0  0  0  0  0
  149.9136  138.3191  156.7507 H   0  0  0  0  0  0  0  0  0  0  0  0
  150.4709  136.6885  157.0068 H   0  0  0  0  0  0  0  0  0  0  0  0
  151.2021  136.8250  153.4058 H   0  0  0  0  0  0  0  0  0  0  0  0
  151.5672  138.8325  153.4359 H   0  0  0  0  0  0  0  0  0  0  0  0
  149.9914  139.1057  154.1753 H   0  0  0  0  0  0  0  0  0  0  0  0
  152.1364  140.7492  154.6879 H   0  0  0  0  0  0  0  0  0  0  0  0
  150.9848  140.3675  155.9680 H   0  0  0  0  0  0  0  0  0  0  0  0
  152.8649  137.2627  156.6491 H   0  0  0  0  0  0  0  0  0  0  0  0
  153.4054  137.6235  155.0203 H   0  0  0  0  0  0  0  0  0  0  0  0
  143.0737  134.7108  151.8305 H   0  0  0  0  0  0  0  0  0  0  0  0
  145.3957  135.1665  149.8934 H   0  0  0  0  0  0  0  0  0  0  0  0
  144.1870  136.3458  150.3864 H   0  0  0  0  0  0  0  0  0  0  0  0
  143.7120  134.9625  149.4353 H   0  0  0  0  0  0  0  0  0  0  0  0
  143.4817  132.7407  150.3982 H   0  0  0  0  0  0  0  0  0  0  0  0
  143.7352  132.4123  152.0926 H   0  0  0  0  0  0  0  0  0  0  0  0
  145.8703  133.0432  150.1941 H   0  0  0  0  0  0  0  0  0  0  0  0
  1  2  1  0  0  0  0
  1 28  1  0  0  0  0
  1 29  1  0  0  0  0
  1 30  1  0  0  0  0
  2  3  1  0  0  0  0
  2 31  1  0  0  0  0
  2 32  1  0  0  0  0
  3 27  1  0  0  0  0
  3  4  1  0  0  0  0
  3 58  1  0  0  0  0
  4  5  1  0  0  0  0
  4 33  1  0  0  0  0
  4 34  1  0  0  0  0
  5  6  1  0  0  0  0
  5 35  1  0  0  0  0
  5 36  1  0  0  0  0
  6  7  1  0  0  0  0
  6 25  1  0  0  0  0
  6 37  1  0  0  0  0
  7  8  1  0  0  0  0
  7  9  1  0  0  0  0
  8 38  1  0  0  0  0
  8 39  1  0  0  0  0
  8 40  1  0  0  0  0
  9 14  1  0  0  0  0
  9 10  2  0  0  0  0
 10 11  1  0  0  0  0
 11 12  2  0  0  0  0
 11 41  1  0  0  0  0
 12 13  1  0  0  0  0
 13 17  1  0  0  0  0
 13 14  2  0  0  0  0
 14 15  1  0  0  0  0
 15 16  2  0  0  0  0
 16 17  1  0  0  0  0
 16 42  1  0  0  0  0
 17 18  1  0  0  0  0
 18 19  1  0  0  0  0
 18 43  1  0  0  0  0
 18 44  1  0  0  0  0
 19 24  1  0  0  0  0
 19 20  1  0  0  0  0
 19 21  1  0  0  0  0
 20 45  1  0  0  0  0
 21 22  1  0  0  0  0
 21 46  1  0  0  0  0
 21 47  1  0  0  0  0
 22 23  1  0  0  0  0
 22 48  1  0  0  0  0
 22 49  1  0  0  0  0
 23 24  1  0  0  0  0
 24 50  1  0  0  0  0
 24 51  1  0  0  0  0
 25 26  1  0  0  0  0
 25 27  1  0  0  0  0
 25 52  1  0  0  0  0
 26 53  1  0  0  0  0
 26 54  1  0  0  0  0
 26 55  1  0  0  0  0
 27 56  1  0  0  0  0
 27 57  1  0  0  0  0
M  CHG  1   3   1
M  END
> <s_m_source_file>
AV-unprocessed.smi

> <i_m_source_file_index>
243

> <i_lp_mmshare_version>
43012

> <i_f3d_flags>
0

> <s_epik_input>
W0NIM11bQ0gyXU4xW0NIMl1bQ0gyXVtDQEhdKFtDQEBIXShbQ0gzXSlbQ0gyXTEpTihbQ0gzXSljKG5bY0hdbjIpYyhjMjMpbltjSF1uM1tDSDJdW0NAQF00KFtPSF0pW0NIMl1bQ0gyXU9bQ0gyXTQ=

> <s_epik_cmdline>
J2VwaWtfcHl0aG9uJywgJy1waCcsICc3LjAnLCAnLXRuJywgJzgnLCAnLW1hJywgJzIwMCcsICctbWV0YWxfYmluZGluZycsICctaW1hZScsICc8aW5maWxlLm1hZT4nLCAnLW9tYWUnLCAnPG91dGZpbGUubWFlPic=

> <r_lp_tautomer_probability>
1

> <r_epik_Ionization_Penalty>
0.00253099

> <r_epik_Ionization_Penalty_Charging>
0.00137877

> <r_epik_Ionization_Penalty_Neutral>
0.00115221

> <r_epik_State_Penalty>
-0

> <r_epik_Charging_Adjusted_Penalty>
0.00137877

> <i_epik_Tot_Q>
1

> <i_epik_Tot_abs_Q>
1

> <r_epik_Metal_State_Penalty>
-0

> <b_epik_Metal_Only>
0

> <s_lp_Force_Field>
OPLS_2005

> <r_lp_Energy>
50.8982

> <b_lp_Chiralities_Consistent>
1

> <s_lp_Variant>
AV-unprocessed.smi:243-1

> <Gold.Version>
5.8.1

> <Gold.Id.Protein>
6NUR|6NUR_protein|mol2

> <Gold.PLP.Fitness>
42.2848

> <Gold.PLP.PLP>
-34.4206

> <Gold.PLP.part.hbond>
-3.0000

> <Gold.PLP.part.metal>
0.0000

> <Gold.PLP.part.buried>
-2.1328

> <Gold.PLP.part.nonpolar>
-29.3206

> <Gold.PLP.part.repulsive>
0.5396

> <Gold.PLP.ligand.clash>
0.0000

> <Gold.PLP.ligand.torsion>
1.4770

> <Gold.PLP.Chemscore.Hbond>
2.5502

> <Gold.PLP.Chemscore.CHOScore>
0.7962

> <Gold.PLP.Chemscore.Metal>
0.0000

> <Gold.Chemscore.Hbonds>
donor molecule, donor type, donor heavy atom, donor atom, acceptor molecule, acceptor atom, score
      L1  H    20    45       P1  7949  0.61
      P1  H  7997  8009       L1    23  1.00
      P1  H 10752 10764       L1    20  1.00
      L1  C    11    41       P1  7957  0.77

> <Gold.PLP.Chemscore.Internal.Correction>
0.7791

> <Gold.Rescore>
     Score         DG    S(hbond)    S(metal)    S(lipo)     H(rot)  DE(clash)    DE(int)     intcor
     12.53     -16.23       1.75        0.00      90.81       2.24       0.81       2.89       ----

> <Gold.Chemscore.Fitness>
12.5277

> <Gold.Chemscore.DG>
-16.2314

> <Gold.Chemscore.ZeroCoef>
-5.4800

> <Gold.Chemscore.Hbond>
1.7534

> <Gold.Chemscore.Metal>
0.0000

> <Gold.Chemscore.Lipo>
90.8060

> <Gold.Chemscore.Internal_Hbond>
0.0000

> <Gold.Chemscore.DEClash>
0.8147

> <Gold.Chemscore.DEInternal>
2.8890

> <Gold.Chemscore.Rot>
2.2379

> <Gold.Chemscore.Internal.Correction>
   9.000000E+99

> <Gold.Chemscore.Hbonds>
donor molecule, donor type, donor heavy atom, donor atom, acceptor molecule, acceptor atom, score
      L1  H    20    45       P1  7949  0.33
      P1  H  7997  8009       L1    23  0.93
      P1  H 10752 10764       L1    20  0.33

> <Gold.Chemscore.Hbond.Weighted>
-5.8562

> <Gold.Chemscore.Metal.Weighted>
-0.0000

> <Gold.Chemscore.Lipo.Weighted>
-10.6243

> <Gold.Chemscore.Internal_Hbond.Weighted>
0.0000

> <Gold.Chemscore.DEClash.Weighted>
0.8147

> <Gold.Chemscore.DEInternal.Weighted>
2.8890

> <Gold.Chemscore.Rot.Weighted>
5.7291

> <Gold.Chemscore.Internal.Correction.Weighted>
   9.000000E+99

> <Gold.Protein.RotatedTorsions>
[ 6907 6896 6895 6894 ] final  179.79 input  -60.11 | X-H torsion
[ 7974 7965 7964 7962 ] final    2.47 input  175.53 | X-H torsion
[ 8008 7997 7996 7995 ] final -157.18 input   59.86 | X-H torsion
[ 10167 10162 10161 10158 ] final   38.12 input  -65.29 | X-H torsion
[ 10718 10713 10712 10709 ] final    4.66 input   66.30 | X-H torsion
[ 10763 10752 10751 10750 ] final  -76.49 input  -60.55 | X-H torsion
[ 11005 11000 10999 10996 ] final  -60.10 input  -57.11 | X-H torsion

> <Gold.Protein.ActiveResidues>
 VAL166  LYS551  ARG553  GLY616  TRP617  ASP618  TYR619  PRO620  LYS621  CYS622 
 ASP623  PHE694  ASN695  SER759  ASP760  ASP761  ALA762  ILE779  LEU786  VAL792 
 PHE793  MET794  SER795  GLU796  ALA797  LYS798  CYS799  TRP800  GLU811  SER814 

> <Gold.Protein.RotatedAtoms>
  151.6660  133.3315  159.3184 H   0  0  0  0  0  0  0  0  0  0  0  0  # atno 6907 bound_to 6896
  150.7890  134.6903  159.6502 H   0  0  0  0  0  0  0  0  0  0  0  0  # atno 6908 bound_to 6896
  152.3966  134.6358  160.0139 H   0  0  0  0  0  0  0  0  0  0  0  0  # atno 6909 bound_to 6896
  146.2444  140.0832  142.8356 H   0  0  0  0  0  0  0  0  0  0  0  0  # atno 7974 bound_to 7965
  155.7286  140.0799  157.2299 H   0  0  0  0  0  0  0  0  0  0  0  0  # atno 8008 bound_to 7997
  154.4036  140.1599  156.2537 H   0  0  0  0  0  0  0  0  0  0  0  0  # atno 8009 bound_to 7997
  155.9130  140.3402  155.6116 H   0  0  0  0  0  0  0  0  0  0  0  0  # atno 8010 bound_to 7997
  140.3967  144.1779  150.6132 H   0  0  0  0  0  0  0  0  0  0  0  0  # atno 10167 bound_to 10162
  156.8959  130.5704  149.5649 H   0  0  0  0  0  0  0  0  0  0  0  0  # atno 10718 bound_to 10713
  154.5006  135.5796  153.6528 H   0  0  0  0  0  0  0  0  0  0  0  0  # atno 10763 bound_to 10752
  152.9878  135.6134  154.3008 H   0  0  0  0  0  0  0  0  0  0  0  0  # atno 10764 bound_to 10752
  154.2915  135.2848  155.2632 H   0  0  0  0  0  0  0  0  0  0  0  0  # atno 10765 bound_to 10752
  141.1274  133.6620  156.5172 H   0  0  0  0  0  0  0  0  0  0  0  0  # atno 11005 bound_to 11000
  145.0715  140.9159  143.4879 LP  0  0  0  0  0  0  0  0  0  0  0  0  # atno 17320 bound_to 7965
  145.0966  139.2852  143.5707 LP  0  0  0  0  0  0  0  0  0  0  0  0  # atno 17321 bound_to 7965
  140.4783  143.2388  151.8992 LP  0  0  0  0  0  0  0  0  0  0  0  0  # atno 17342 bound_to 10162
  139.4786  144.5297  151.8684 LP  0  0  0  0  0  0  0  0  0  0  0  0  # atno 17343 bound_to 10162
  156.0606  130.5659  150.9184 LP  0  0  0  0  0  0  0  0  0  0  0  0  # atno 17370 bound_to 10713
  157.6056  131.0939  150.8886 LP  0  0  0  0  0  0  0  0  0  0  0  0  # atno 17371 bound_to 10713
  140.4321  134.7092  157.4947 LP  0  0  0  0  0  0  0  0  0  0  0  0  # atno 17394 bound_to 11000
  140.0287  134.6439  155.9137 LP  0  0  0  0  0  0  0  0  0  0  0  0  # atno 17395 bound_to 11000

$$$$
