AV-unprocessed.smi:910|AV-procd|sdf|4125|dock3
  -GOLD-   22720 2 23D 1   1.00000     0.00000
 Structure written by MMmdl.
 46 47  0  0  0  0  0  0  0  0  1 V2000
  154.0645  131.3617  163.4269 C   0  0  0  0  0  0  0  0  0  0  0  0
  154.5527  132.7348  163.0213 C   0  0  0  0  0  0  0  0  0  0  0  0
  154.6524  133.1114  161.7111 N   0  0  0  0  0  0  0  0  0  0  0  0
  155.1225  134.4220  161.6687 C   0  0  0  0  0  0  0  0  0  0  0  0
  155.3928  135.2261  160.6866 N   0  0  0  0  0  0  0  0  0  0  0  0
  155.1843  134.7701  159.3960 C   0  0  0  0  0  0  0  0  0  0  0  0
  154.5067  133.7973  159.0493 O   0  0  0  0  0  0  0  0  0  0  0  0
  155.8964  135.4919  158.5167 N   0  0  0  0  0  0  0  0  0  0  0  0
  156.0134  135.2068  157.0899 C   0  0  0  0  0  0  0  0  0  0  0  0
  156.9054  136.2435  156.3929 C   0  0  0  0  0  0  0  0  0  0  0  0
  156.8986  135.9878  154.9962 O   0  0  0  0  0  0  0  0  0  0  0  0
  157.8961  136.6650  154.2412 C   0  0  1  0  0  0  0  0  0  0  0  0
  158.9131  135.6682  153.6414 C   0  0  0  0  0  0  0  0  0  0  0  0
  158.2453  134.7094  152.6426 C   0  0  0  0  0  0  0  0  0  0  0  0
  157.5283  135.4863  151.5288 C   0  0  0  0  0  0  0  0  0  0  0  0
  156.5168  136.4886  152.1080 C   0  0  0  0  0  0  0  0  0  0  0  0
  157.1837  137.4486  153.1152 C   0  0  1  0  0  0  0  0  0  0  0  0
  156.1851  138.4770  153.6688 C   0  0  0  0  0  0  0  0  0  0  0  0
  155.2990  134.8082  162.9734 O   0  0  0  0  0  0  0  0  0  0  0  0
  154.9440  133.7621  163.7708 C   0  0  0  0  0  0  0  0  0  0  0  0
  155.0416  133.9236  165.2708 C   0  0  0  0  0  0  0  0  0  0  0  0
  153.1824  131.4471  164.0615 H   0  0  0  0  0  0  0  0  0  0  0  0
  154.8405  130.8348  163.9826 H   0  0  0  0  0  0  0  0  0  0  0  0
  153.8022  130.7657  162.5522 H   0  0  0  0  0  0  0  0  0  0  0  0
  154.4123  132.5097  160.9362 H   0  0  0  0  0  0  0  0  0  0  0  0
  156.4370  136.2672  158.8721 H   0  0  0  0  0  0  0  0  0  0  0  0
  156.3911  134.1975  156.9183 H   0  0  0  0  0  0  0  0  0  0  0  0
  155.0127  135.2382  156.6587 H   0  0  0  0  0  0  0  0  0  0  0  0
  156.5258  137.2481  156.5835 H   0  0  0  0  0  0  0  0  0  0  0  0
  157.9131  136.1917  156.8040 H   0  0  0  0  0  0  0  0  0  0  0  0
  158.4176  137.3745  154.8861 H   0  0  0  0  0  0  0  0  0  0  0  0
  159.6976  136.2262  153.1286 H   0  0  0  0  0  0  0  0  0  0  0  0
  159.4201  135.1009  154.4205 H   0  0  0  0  0  0  0  0  0  0  0  0
  158.9923  134.0439  152.2091 H   0  0  0  0  0  0  0  0  0  0  0  0
  157.5321  134.0719  153.1663 H   0  0  0  0  0  0  0  0  0  0  0  0
  158.2638  136.0188  150.9248 H   0  0  0  0  0  0  0  0  0  0  0  0
  157.0247  134.7916  150.8571 H   0  0  0  0  0  0  0  0  0  0  0  0
  156.0624  137.0565  151.2955 H   0  0  0  0  0  0  0  0  0  0  0  0
  155.7046  135.9474  152.5945 H   0  0  0  0  0  0  0  0  0  0  0  0
  157.9476  138.0096  152.5745 H   0  0  0  0  0  0  0  0  0  0  0  0
  155.3679  137.9925  154.2041 H   0  0  0  0  0  0  0  0  0  0  0  0
  155.7479  139.0699  152.8651 H   0  0  0  0  0  0  0  0  0  0  0  0
  156.6731  139.1661  154.3585 H   0  0  0  0  0  0  0  0  0  0  0  0
  154.1072  133.6239  165.7455 H   0  0  0  0  0  0  0  0  0  0  0  0
  155.2440  134.9624  165.5316 H   0  0  0  0  0  0  0  0  0  0  0  0
  155.8464  133.3035  165.6657 H   0  0  0  0  0  0  0  0  0  0  0  0
  1 22  1  0  0  0  0
  1 23  1  0  0  0  0
  1 24  1  0  0  0  0
  1  2  1  0  0  0  0
  2  3  1  0  0  0  0
  2 20  2  0  0  0  0
  3 25  1  0  0  0  0
  3  4  1  0  0  0  0
  4 19  1  0  0  0  0
  4  5  2  0  0  0  0
  5  6  1  0  0  0  0
  6  8  1  0  0  0  0
  6  7  2  0  0  0  0
  8  9  1  0  0  0  0
  8 26  1  0  0  0  0
  9 10  1  0  0  0  0
  9 27  1  0  0  0  0
  9 28  1  0  0  0  0
 10 11  1  0  0  0  0
 10 29  1  0  0  0  0
 10 30  1  0  0  0  0
 11 12  1  0  0  0  0
 12 17  1  0  0  0  0
 12 13  1  0  0  0  0
 12 31  1  0  0  0  0
 13 14  1  0  0  0  0
 13 32  1  0  0  0  0
 13 33  1  0  0  0  0
 14 15  1  0  0  0  0
 14 34  1  0  0  0  0
 14 35  1  0  0  0  0
 15 16  1  0  0  0  0
 15 36  1  0  0  0  0
 15 37  1  0  0  0  0
 16 17  1  0  0  0  0
 16 38  1  0  0  0  0
 16 39  1  0  0  0  0
 17 18  1  0  0  0  0
 17 40  1  0  0  0  0
 18 41  1  0  0  0  0
 18 42  1  0  0  0  0
 18 43  1  0  0  0  0
 19 20  1  0  0  0  0
 20 21  1  0  0  0  0
 21 44  1  0  0  0  0
 21 45  1  0  0  0  0
 21 46  1  0  0  0  0
M  END
> <s_m_source_file>
AV-unprocessed.smi

> <i_m_source_file_index>
910

> <i_lp_mmshare_version>
43012

> <i_f3d_flags>
0

> <s_epik_input>
W0NIM11jMW5jKG9jMVtDSDNdKVtOSF1DKD1PKVtOSF1bQ0gyXVtDSDJdT1tDQEBIXTJbQ0gyXVtDSDJdW0NIMl1bQ0gyXVtDQEhdMltDSDNd

> <s_epik_cmdline>
J2VwaWtfcHl0aG9uJywgJy1waCcsICc3LjAnLCAnLXRuJywgJzgnLCAnLW1hJywgJzIwMCcsICctbWV0YWxfYmluZGluZycsICctaW1hZScsICc8aW5maWxlLm1hZT4nLCAnLW9tYWUnLCAnPG91dGZpbGUubWFlPic=

> <r_lp_tautomer_probability>
0.107061

> <r_epik_Ionization_Penalty>
0.727192

> <r_epik_Ionization_Penalty_Charging>
0.726719

> <r_epik_Ionization_Penalty_Neutral>
0.000473387

> <r_epik_State_Penalty>
2.53712

> <r_epik_Charging_Adjusted_Penalty>
3.26383

> <i_epik_Tot_Q>
0

> <i_epik_Tot_abs_Q>
0

> <r_epik_Metal_State_Penalty>
3.71015

> <b_epik_Metal_Only>
0

> <s_lp_Force_Field>
OPLS_2005

> <r_lp_Energy>
28.9635

> <b_lp_Chiralities_Consistent>
1

> <s_lp_Variant>
AV-unprocessed.smi:910-10

> <Gold.Version>
5.8.1

> <Gold.Id.Protein>
6NUR|6NUR_protein|mol2

> <Gold.PLP.Fitness>
33.5999

> <Gold.PLP.PLP>
-29.2936

> <Gold.PLP.part.hbond>
-1.9836

> <Gold.PLP.part.metal>
0.0000

> <Gold.PLP.part.buried>
-3.8501

> <Gold.PLP.part.nonpolar>
-25.0409

> <Gold.PLP.part.repulsive>
0.1130

> <Gold.PLP.ligand.clash>
0.0000

> <Gold.PLP.ligand.torsion>
0.8596

> <Gold.PLP.Chemscore.Hbond>
1.9913

> <Gold.PLP.Chemscore.CHOScore>
0.0000

> <Gold.PLP.Chemscore.Metal>
0.0000

> <Gold.Chemscore.Hbonds>
donor molecule, donor type, donor heavy atom, donor atom, acceptor molecule, acceptor atom, score
      P1  H  6896  6907       L1     7  0.96
      P1  H 10752 10765       L1    11  0.80

> <Gold.PLP.Chemscore.Internal.Correction>
0.0517

> <Gold.Rescore>
     Score         DG    S(hbond)    S(metal)    S(lipo)     H(rot)  DE(clash)    DE(int)     intcor
     16.68     -19.06       1.93        0.00      97.39       1.66       0.05       2.33       ----

> <Gold.Chemscore.Fitness>
16.6843

> <Gold.Chemscore.DG>
-19.0629

> <Gold.Chemscore.ZeroCoef>
-5.4800

> <Gold.Chemscore.Hbond>
1.9256

> <Gold.Chemscore.Metal>
0.0000

> <Gold.Chemscore.Lipo>
97.3933

> <Gold.Chemscore.Internal_Hbond>
0.0000

> <Gold.Chemscore.DEClash>
0.0465

> <Gold.Chemscore.DEInternal>
2.3321

> <Gold.Chemscore.Rot>
1.6576

> <Gold.Chemscore.Internal.Correction>
   9.000000E+99

> <Gold.Chemscore.Hbonds>
donor molecule, donor type, donor heavy atom, donor atom, acceptor molecule, acceptor atom, score
      P1  H  6896  6907       L1     7  0.72
      P1  H 10752 10765       L1    11  0.35

> <Gold.Chemscore.Hbond.Weighted>
-6.4314

> <Gold.Chemscore.Metal.Weighted>
-0.0000

> <Gold.Chemscore.Lipo.Weighted>
-11.3950

> <Gold.Chemscore.Internal_Hbond.Weighted>
0.0000

> <Gold.Chemscore.DEClash.Weighted>
0.0465

> <Gold.Chemscore.DEInternal.Weighted>
2.3321

> <Gold.Chemscore.Rot.Weighted>
4.2436

> <Gold.Chemscore.Internal.Correction.Weighted>
   9.000000E+99

> <Gold.Protein.RotatedTorsions>
[ 6907 6896 6895 6894 ] final  106.10 input  -60.11 | X-H torsion
[ 7974 7965 7964 7962 ] final -116.90 input  175.53 | X-H torsion
[ 8008 7997 7996 7995 ] final   54.40 input   59.86 | X-H torsion
[ 10167 10162 10161 10158 ] final   64.29 input  -65.29 | X-H torsion
[ 10718 10713 10712 10709 ] final   71.27 input   66.30 | X-H torsion
[ 10763 10752 10751 10750 ] final  -21.64 input  -60.55 | X-H torsion
[ 11005 11000 10999 10996 ] final  100.77 input  -57.11 | X-H torsion

> <Gold.Protein.ActiveResidues>
 VAL166  LYS551  ARG553  GLY616  TRP617  ASP618  TYR619  PRO620  LYS621  CYS622 
 ASP623  PHE694  ASN695  SER759  ASP760  ASP761  ALA762  ILE779  LEU786  VAL792 
 PHE793  MET794  SER795  GLU796  ALA797  LYS798  CYS799  TRP800  GLU811  SER814 

> <Gold.Protein.RotatedAtoms>
  152.5206  133.9430  159.7635 H   0  0  0  0  0  0  0  0  0  0  0  0  # atno 6907 bound_to 6896
  150.9756  133.6290  159.2738 H   0  0  0  0  0  0  0  0  0  0  0  0  # atno 6908 bound_to 6896
  151.3485  135.0885  159.9448 H   0  0  0  0  0  0  0  0  0  0  0  0  # atno 6909 bound_to 6896
  145.0914  140.8492  143.3980 H   0  0  0  0  0  0  0  0  0  0  0  0  # atno 7974 bound_to 7965
  155.4840  140.3469  155.4344 H   0  0  0  0  0  0  0  0  0  0  0  0  # atno 8008 bound_to 7997
  156.1020  140.1438  156.9483 H   0  0  0  0  0  0  0  0  0  0  0  0  # atno 8009 bound_to 7997
  154.4700  140.0904  156.7098 H   0  0  0  0  0  0  0  0  0  0  0  0  # atno 8010 bound_to 7997
  140.1238  144.4707  150.6905 H   0  0  0  0  0  0  0  0  0  0  0  0  # atno 10167 bound_to 10162
  157.6443  130.9520  150.0766 H   0  0  0  0  0  0  0  0  0  0  0  0  # atno 10718 bound_to 10713
  153.6393  135.6986  153.5247 H   0  0  0  0  0  0  0  0  0  0  0  0  # atno 10763 bound_to 10752
  153.2795  135.4190  155.1065 H   0  0  0  0  0  0  0  0  0  0  0  0  # atno 10764 bound_to 10752
  154.8503  135.3598  154.5937 H   0  0  0  0  0  0  0  0  0  0  0  0  # atno 10765 bound_to 10752
  139.8771  134.9155  156.4807 H   0  0  0  0  0  0  0  0  0  0  0  0  # atno 11005 bound_to 11000
  145.1061  139.2789  143.5661 LP  0  0  0  0  0  0  0  0  0  0  0  0  # atno 17320 bound_to 7965
  146.3531  140.0643  142.8627 LP  0  0  0  0  0  0  0  0  0  0  0  0  # atno 17321 bound_to 7965
  140.6857  143.2349  151.5267 LP  0  0  0  0  0  0  0  0  0  0  0  0  # atno 17342 bound_to 10162
  139.5555  144.2287  152.1604 LP  0  0  0  0  0  0  0  0  0  0  0  0  # atno 17343 bound_to 10162
  156.1755  130.3648  149.9106 LP  0  0  0  0  0  0  0  0  0  0  0  0  # atno 17370 bound_to 10713
  156.7072  130.8956  151.3605 LP  0  0  0  0  0  0  0  0  0  0  0  0  # atno 17371 bound_to 10713
  140.8729  133.7974  155.9384 LP  0  0  0  0  0  0  0  0  0  0  0  0  # atno 17394 bound_to 11000
  140.8933  134.2468  157.5082 LP  0  0  0  0  0  0  0  0  0  0  0  0  # atno 17395 bound_to 11000

$$$$
