AV-unprocessed.smi:1978|AV-procd|sdf|7995|dock8
  -GOLD-   2272010183D 1   1.00000     0.00000
 Structure written by MMmdl.
 45 46  0  0  0  0  0  0  0  0  2 V2000
  151.7413  139.5874  158.2806 C   0  0  0  0  0  0  0  0  0  0  0  0
  151.3871  139.5404  156.8336 C   0  0  0  0  0  0  0  0  0  0  0  0
  150.2443  139.1978  156.1669 C   0  0  0  0  0  0  0  0  0  0  0  0
  150.6021  139.3797  154.8046 C   0  0  0  0  0  0  0  0  0  0  0  0
  149.6696  139.1271  153.7661 N   0  0  0  0  0  0  0  0  0  0  0  0
  148.3452  138.9329  153.8864 C   0  0  0  0  0  0  0  0  0  0  0  0
  147.7181  138.9566  154.9458 O   0  0  0  0  0  0  0  0  0  0  0  0
  147.7739  138.7010  152.6948 N   0  0  0  0  0  0  0  0  0  0  0  0
  146.3477  138.4748  152.4710 C   0  0  0  0  0  0  0  0  0  0  0  0
  145.8151  137.2265  153.2183 C   0  0  1  0  0  0  0  0  0  0  0  0
  144.3195  137.3209  153.5935 C   0  0  0  0  0  0  0  0  0  0  0  0
  146.1403  135.9678  152.4699 N   0  3  2  0  0  0  0  0  0  0  0  0
  145.1708  135.6506  151.3789 C   0  0  0  0  0  0  0  0  0  0  0  0
  145.6937  134.5292  150.4706 C   0  0  0  0  0  0  0  0  0  0  0  0
  145.9780  133.2681  151.2886 C   0  0  0  0  0  0  0  0  0  0  0  0
  146.9446  133.6017  152.4293 C   0  0  0  0  0  0  0  0  0  0  0  0
  146.4235  134.7572  153.3130 C   0  0  1  0  0  0  0  0  0  0  0  0
  147.4381  135.0095  154.4473 C   0  0  0  0  0  0  0  0  0  0  0  0
  151.8501  139.7954  154.6531 N   0  0  0  0  0  0  0  0  0  0  0  0
  152.3598  139.8996  155.9526 O   0  0  0  0  0  0  0  0  0  0  0  0
  150.8608  139.7945  158.8889 H   0  0  0  0  0  0  0  0  0  0  0  0
  152.4774  140.3674  158.4769 H   0  0  0  0  0  0  0  0  0  0  0  0
  152.1618  138.6358  158.6059 H   0  0  0  0  0  0  0  0  0  0  0  0
  149.3059  138.8706  156.5892 H   0  0  0  0  0  0  0  0  0  0  0  0
  150.0537  139.0872  152.8336 H   0  0  0  0  0  0  0  0  0  0  0  0
  148.3679  138.6984  151.8781 H   0  0  0  0  0  0  0  0  0  0  0  0
  145.7937  139.3742  152.7378 H   0  0  0  0  0  0  0  0  0  0  0  0
  146.2044  138.3430  151.3980 H   0  0  0  0  0  0  0  0  0  0  0  0
  146.3746  137.2272  154.1503 H   0  0  0  0  0  0  0  0  0  0  0  0
  144.1369  138.1445  154.2834 H   0  0  0  0  0  0  0  0  0  0  0  0
  143.9691  136.4171  154.0911 H   0  0  0  0  0  0  0  0  0  0  0  0
  143.6917  137.4878  152.7179 H   0  0  0  0  0  0  0  0  0  0  0  0
  144.2137  135.3514  151.8081 H   0  0  0  0  0  0  0  0  0  0  0  0
  144.9736  136.5219  150.7581 H   0  0  0  0  0  0  0  0  0  0  0  0
  144.9639  134.3096  149.6907 H   0  0  0  0  0  0  0  0  0  0  0  0
  146.6021  134.8571  149.9630 H   0  0  0  0  0  0  0  0  0  0  0  0
  145.0470  132.8709  151.6950 H   0  0  0  0  0  0  0  0  0  0  0  0
  146.3992  132.4901  150.6510 H   0  0  0  0  0  0  0  0  0  0  0  0
  147.1035  132.7084  153.0349 H   0  0  0  0  0  0  0  0  0  0  0  0
  147.9179  133.8667  152.0130 H   0  0  0  0  0  0  0  0  0  0  0  0
  145.4878  134.4320  153.7698 H   0  0  0  0  0  0  0  0  0  0  0  0
  147.7344  134.0724  154.9194 H   0  0  0  0  0  0  0  0  0  0  0  0
  147.0223  135.6267  155.2433 H   0  0  0  0  0  0  0  0  0  0  0  0
  148.3440  135.4887  154.0751 H   0  0  0  0  0  0  0  0  0  0  0  0
  147.0148  136.1677  152.0058 H   0  0  0  0  0  0  0  0  0  0  0  0
  1  2  1  0  0  0  0
  1 21  1  0  0  0  0
  1 22  1  0  0  0  0
  1 23  1  0  0  0  0
  2 20  1  0  0  0  0
  2  3  2  0  0  0  0
  3  4  1  0  0  0  0
  3 24  1  0  0  0  0
  4  5  1  0  0  0  0
  4 19  2  0  0  0  0
  5  6  1  0  0  0  0
  5 25  1  0  0  0  0
  6  7  2  0  0  0  0
  6  8  1  0  0  0  0
  8  9  1  0  0  0  0
  8 26  1  0  0  0  0
  9 10  1  0  0  0  0
  9 27  1  0  0  0  0
  9 28  1  0  0  0  0
 10 11  1  0  0  0  0
 10 12  1  0  0  0  0
 10 29  1  0  0  0  0
 11 30  1  0  0  0  0
 11 31  1  0  0  0  0
 11 32  1  0  0  0  0
 12 17  1  0  0  0  0
 12 13  1  0  0  0  0
 12 45  1  0  0  0  0
 13 14  1  0  0  0  0
 13 33  1  0  0  0  0
 13 34  1  0  0  0  0
 14 15  1  0  0  0  0
 14 35  1  0  0  0  0
 14 36  1  0  0  0  0
 15 16  1  0  0  0  0
 15 37  1  0  0  0  0
 15 38  1  0  0  0  0
 16 17  1  0  0  0  0
 16 39  1  0  0  0  0
 16 40  1  0  0  0  0
 17 18  1  0  0  0  0
 17 41  1  0  0  0  0
 18 42  1  0  0  0  0
 18 43  1  0  0  0  0
 18 44  1  0  0  0  0
 19 20  1  0  0  0  0
M  CHG  1  12   1
M  END
> <s_m_source_file>
AV-unprocessed.smi

> <i_m_source_file_index>
1978

> <i_lp_mmshare_version>
43012

> <i_f3d_flags>
0

> <s_epik_input>
W0NIM11jMVtjSF1jKG5vMSlbTkhdQyg9TylbTkhdW0NIMl1bQ0BIXShbQ0gzXSlOMltDSDJdW0NIMl1bQ0gyXVtDSDJdW0NASF0yW0NIM10=

> <s_epik_cmdline>
J2VwaWtfcHl0aG9uJywgJy1waCcsICc3LjAnLCAnLXRuJywgJzgnLCAnLW1hJywgJzIwMCcsICctbWV0YWxfYmluZGluZycsICctaW1hZScsICc8aW5maWxlLm1hZT4nLCAnLW9tYWUnLCAnPG91dGZpbGUubWFlPic=

> <r_epik_Ionization_Penalty>
0.00265971

> <r_epik_Ionization_Penalty_Charging>
0.00262393

> <r_epik_Ionization_Penalty_Neutral>
3.57846e-05

> <r_epik_State_Penalty>
0.00182566

> <r_epik_Charging_Adjusted_Penalty>
0.00444959

> <i_epik_Tot_Q>
1

> <i_epik_Tot_abs_Q>
1

> <r_epik_Metal_State_Penalty>
0.0216344

> <b_epik_Metal_Only>
0

> <s_lp_Force_Field>
OPLS_2005

> <r_lp_Energy>
21.4618

> <b_lp_Chiralities_Consistent>
1

> <s_lp_Variant>
AV-unprocessed.smi:1978-4

> <Gold.Version>
5.8.1

> <Gold.Id.Protein>
6NUR|6NUR_protein|mol2

> <Gold.PLP.Fitness>
42.4071

> <Gold.PLP.PLP>
-28.1533

> <Gold.PLP.part.hbond>
-6.0000

> <Gold.PLP.part.metal>
0.0000

> <Gold.PLP.part.buried>
-2.9190

> <Gold.PLP.part.nonpolar>
-20.5565

> <Gold.PLP.part.repulsive>
0.2951

> <Gold.PLP.ligand.clash>
0.0000

> <Gold.PLP.ligand.torsion>
0.8392

> <Gold.PLP.Chemscore.Hbond>
5.2716

> <Gold.PLP.Chemscore.CHOScore>
0.0000

> <Gold.PLP.Chemscore.Metal>
0.0000

> <Gold.Chemscore.Hbonds>
donor molecule, donor type, donor heavy atom, donor atom, acceptor molecule, acceptor atom, score
      L1  H     5    25       P1  7957  0.67
      L1  H     8    26       P1  7957  0.67
      L1  H    12    45       P1  7948  2.00
      P1  H  7989  7998       L1    19  0.99
      P1  H  7997  8008       L1    20  1.00

> <Gold.PLP.Chemscore.Internal.Correction>
0.1175

> <Gold.Rescore>
     Score         DG    S(hbond)    S(metal)    S(lipo)     H(rot)  DE(clash)    DE(int)     intcor
     18.74     -22.66       4.50        0.00      52.31       1.55       0.58       3.34       ----

> <Gold.Chemscore.Fitness>
18.7435

> <Gold.Chemscore.DG>
-22.6609

> <Gold.Chemscore.ZeroCoef>
-5.4800

> <Gold.Chemscore.Hbond>
4.4974

> <Gold.Chemscore.Metal>
0.0000

> <Gold.Chemscore.Lipo>
52.3149

> <Gold.Chemscore.Internal_Hbond>
0.0000

> <Gold.Chemscore.DEClash>
0.5803

> <Gold.Chemscore.DEInternal>
3.3372

> <Gold.Chemscore.Rot>
1.5474

> <Gold.Chemscore.Internal.Correction>
   9.000000E+99

> <Gold.Chemscore.Hbonds>
donor molecule, donor type, donor heavy atom, donor atom, acceptor molecule, acceptor atom, score
      L1  H     5    25       P1  7957  0.55
      L1  H     8    26       P1  7957  0.51
      L1  H    12    45       P1  7948  0.98
      P1  H  7989  7998       L1    19  0.27
      P1  H  7997  8008       L1    20  0.90

> <Gold.Chemscore.Hbond.Weighted>
-15.0213

> <Gold.Chemscore.Metal.Weighted>
-0.0000

> <Gold.Chemscore.Lipo.Weighted>
-6.1208

> <Gold.Chemscore.Internal_Hbond.Weighted>
0.0000

> <Gold.Chemscore.DEClash.Weighted>
0.5803

> <Gold.Chemscore.DEInternal.Weighted>
3.3372

> <Gold.Chemscore.Rot.Weighted>
3.9612

> <Gold.Chemscore.Internal.Correction.Weighted>
   9.000000E+99

> <Gold.Protein.RotatedTorsions>
[ 6907 6896 6895 6894 ] final   28.63 input  -60.11 | X-H torsion
[ 7974 7965 7964 7962 ] final   -2.91 input  175.53 | X-H torsion
[ 8008 7997 7996 7995 ] final  -31.97 input   59.86 | X-H torsion
[ 10167 10162 10161 10158 ] final -130.88 input  -65.29 | X-H torsion
[ 10718 10713 10712 10709 ] final  138.90 input   66.30 | X-H torsion
[ 10763 10752 10751 10750 ] final   73.12 input  -60.55 | X-H torsion
[ 11005 11000 10999 10996 ] final -140.60 input  -57.11 | X-H torsion

> <Gold.Protein.ActiveResidues>
 VAL166  LYS551  ARG553  GLY616  TRP617  ASP618  TYR619  PRO620  LYS621  CYS622 
 ASP623  PHE694  ASN695  SER759  ASP760  ASP761  ALA762  ILE779  LEU786  VAL792 
 PHE793  MET794  SER795  GLU796  ALA797  LYS798  CYS799  TRP800  GLU811  SER814 

> <Gold.Protein.RotatedAtoms>
  152.0198  134.9829  160.0570 H   0  0  0  0  0  0  0  0  0  0  0  0  # atno 6907 bound_to 6896
  152.1348  133.4424  159.4747 H   0  0  0  0  0  0  0  0  0  0  0  0  # atno 6908 bound_to 6896
  150.6859  134.2295  159.4472 H   0  0  0  0  0  0  0  0  0  0  0  0  # atno 6909 bound_to 6896
  146.2397  140.1642  142.8332 H   0  0  0  0  0  0  0  0  0  0  0  0  # atno 7974 bound_to 7965
  154.4195  140.1750  156.1653 H   0  0  0  0  0  0  0  0  0  0  0  0  # atno 8008 bound_to 7997
  155.9805  140.3378  155.6634 H   0  0  0  0  0  0  0  0  0  0  0  0  # atno 8009 bound_to 7997
  155.6506  140.0690  157.2579 H   0  0  0  0  0  0  0  0  0  0  0  0  # atno 8010 bound_to 7997
  139.9247  143.6342  152.2545 H   0  0  0  0  0  0  0  0  0  0  0  0  # atno 10167 bound_to 10162
  157.4202  131.1038  151.0361 H   0  0  0  0  0  0  0  0  0  0  0  0  # atno 10718 bound_to 10713
  153.0501  135.5075  154.7846 H   0  0  0  0  0  0  0  0  0  0  0  0  # atno 10763 bound_to 10752
  154.6715  135.2953  154.9738 H   0  0  0  0  0  0  0  0  0  0  0  0  # atno 10764 bound_to 10752
  154.0555  135.6698  153.4858 H   0  0  0  0  0  0  0  0  0  0  0  0  # atno 10765 bound_to 10752
  140.8407  134.2405  157.4811 H   0  0  0  0  0  0  0  0  0  0  0  0  # atno 11005 bound_to 11000
  145.0064  140.8676  143.5251 LP  0  0  0  0  0  0  0  0  0  0  0  0  # atno 17320 bound_to 7965
  145.1669  139.2426  143.5362 LP  0  0  0  0  0  0  0  0  0  0  0  0  # atno 17321 bound_to 7965
  139.6832  144.7654  151.1570 LP  0  0  0  0  0  0  0  0  0  0  0  0  # atno 17342 bound_to 10162
  140.7653  143.5694  150.9012 LP  0  0  0  0  0  0  0  0  0  0  0  0  # atno 17343 bound_to 10162
  157.1294  130.6096  149.5525 LP  0  0  0  0  0  0  0  0  0  0  0  0  # atno 17370 bound_to 10713
  155.9878  130.4919  150.7142 LP  0  0  0  0  0  0  0  0  0  0  0  0  # atno 17371 bound_to 10713
  139.8703  134.9634  156.4460 LP  0  0  0  0  0  0  0  0  0  0  0  0  # atno 17394 bound_to 11000
  140.8898  133.7856  155.9559 LP  0  0  0  0  0  0  0  0  0  0  0  0  # atno 17395 bound_to 11000

$$$$
