AV-unprocessed.smi:198|AV-procd|sdf|1557|dock7
  -GOLD-   2262019433D 1   1.00000     0.00000
 Structure written by MMmdl.
 59 63  0  0  0  0  0  0  0  0  2 V2000
  146.9653  142.0948  154.2378 C   0  0  0  0  0  0  0  0  0  0  0  0
  147.7921  140.9536  154.6862 N   0  3  2  0  0  0  0  0  0  0  0  0
  147.7142  139.8024  153.7552 C   0  0  0  0  0  0  0  0  0  0  0  0
  148.6822  138.6880  154.1832 C   0  0  0  0  0  0  0  0  0  0  0  0
  148.4171  138.2137  155.6321 C   0  0  1  0  0  0  0  0  0  0  0  0
  148.4518  139.4436  156.5730 C   0  0  2  0  0  0  0  0  0  0  0  0
  148.1756  139.0244  158.0307 C   0  0  0  0  0  0  0  0  0  0  0  0
  146.8770  138.2116  158.1453 C   0  0  0  0  0  0  0  0  0  0  0  0
  146.8871  137.0277  157.1679 C   0  0  0  0  0  0  0  0  0  0  0  0
  147.1593  137.4689  155.8008 N   0  0  0  0  0  0  0  0  0  0  0  0
  146.9354  136.4681  154.9206 C   0  0  0  0  0  0  0  0  0  0  0  0
  147.6978  135.3550  155.0472 N   0  0  0  0  0  0  0  0  0  0  0  0
  147.5292  134.3329  154.2026 C   0  0  0  0  0  0  0  0  0  0  0  0
  146.6724  134.2230  153.1849 N   0  0  0  0  0  0  0  0  0  0  0  0
  145.9040  135.3430  153.0563 C   0  0  0  0  0  0  0  0  0  0  0  0
  145.9718  136.5060  153.8737 C   0  0  0  0  0  0  0  0  0  0  0  0
  145.0509  137.4493  153.4356 N   0  0  0  0  0  0  0  0  0  0  0  0
  144.4770  136.8797  152.4111 C   0  0  0  0  0  0  0  0  0  0  0  0
  144.9090  135.6027  152.1296 N   0  0  0  0  0  0  0  0  0  0  0  0
  144.4830  134.7774  151.0366 C   0  0  0  0  0  0  0  0  0  0  0  0
  144.0517  133.3256  151.2656 C   0  0  0  0  0  0  0  0  0  0  0  0
  144.6899  132.9098  149.9219 C   0  0  0  0  0  0  0  0  0  0  0  0
  145.5597  131.6441  149.9764 C   0  0  0  0  0  0  0  0  0  0  0  0
  146.3958  131.6407  151.1158 O   0  0  0  0  0  0  0  0  0  0  0  0
  143.7452  132.7593  148.7087 C   0  0  0  0  0  0  0  0  0  0  0  0
  143.4703  133.9828  148.0570 O   0  0  0  0  0  0  0  0  0  0  0  0
  145.4837  134.2327  150.0126 C   0  0  0  0  0  0  0  0  0  0  0  0
  147.4961  140.5575  156.0848 C   0  0  0  0  0  0  0  0  0  0  0  0
  145.9076  141.8283  154.2192 H   0  0  0  0  0  0  0  0  0  0  0  0
  147.2559  142.4111  153.2354 H   0  0  0  0  0  0  0  0  0  0  0  0
  147.0920  142.9484  154.9045 H   0  0  0  0  0  0  0  0  0  0  0  0
  146.6913  139.4244  153.7185 H   0  0  0  0  0  0  0  0  0  0  0  0
  147.9659  140.1326  152.7465 H   0  0  0  0  0  0  0  0  0  0  0  0
  148.6409  137.8604  153.4747 H   0  0  0  0  0  0  0  0  0  0  0  0
  149.7025  139.0684  154.1207 H   0  0  0  0  0  0  0  0  0  0  0  0
  149.2295  137.5465  155.9228 H   0  0  0  0  0  0  0  0  0  0  0  0
  149.4616  139.8562  156.5443 H   0  0  0  0  0  0  0  0  0  0  0  0
  149.0065  138.4168  158.3915 H   0  0  0  0  0  0  0  0  0  0  0  0
  148.1330  139.8991  158.6803 H   0  0  0  0  0  0  0  0  0  0  0  0
  146.7551  137.8480  159.1659 H   0  0  0  0  0  0  0  0  0  0  0  0
  146.0148  138.8479  157.9448 H   0  0  0  0  0  0  0  0  0  0  0  0
  147.6480  136.3079  157.4731 H   0  0  0  0  0  0  0  0  0  0  0  0
  145.9270  136.5111  157.2110 H   0  0  0  0  0  0  0  0  0  0  0  0
  148.1723  133.4804  154.3650 H   0  0  0  0  0  0  0  0  0  0  0  0
  143.7150  137.3791  151.8304 H   0  0  0  0  0  0  0  0  0  0  0  0
  143.6917  135.3377  150.5373 H   0  0  0  0  0  0  0  0  0  0  0  0
  144.5506  132.8737  152.1247 H   0  0  0  0  0  0  0  0  0  0  0  0
  142.9725  133.1812  151.3232 H   0  0  0  0  0  0  0  0  0  0  0  0
  144.9465  130.7422  149.9835 H   0  0  0  0  0  0  0  0  0  0  0  0
  146.1998  131.5733  149.0966 H   0  0  0  0  0  0  0  0  0  0  0  0
  147.2911  131.5369  150.8317 H   0  0  0  0  0  0  0  0  0  0  0  0
  144.1724  132.0802  147.9701 H   0  0  0  0  0  0  0  0  0  0  0  0
  142.7887  132.3305  149.0092 H   0  0  0  0  0  0  0  0  0  0  0  0
  144.2781  134.4657  147.9710 H   0  0  0  0  0  0  0  0  0  0  0  0
  145.5309  134.8044  149.0850 H   0  0  0  0  0  0  0  0  0  0  0  0
  146.4802  134.1047  150.4385 H   0  0  0  0  0  0  0  0  0  0  0  0
  147.5938  141.4301  156.7322 H   0  0  0  0  0  0  0  0  0  0  0  0
  146.4560  140.2349  156.1464 H   0  0  0  0  0  0  0  0  0  0  0  0
  148.7509  141.2714  154.6730 H   0  0  0  0  0  0  0  0  0  0  0  0
  1  2  1  0  0  0  0
  1 29  1  0  0  0  0
  1 30  1  0  0  0  0
  1 31  1  0  0  0  0
  2 28  1  0  0  0  0
  2  3  1  0  0  0  0
  2 59  1  0  0  0  0
  3  4  1  0  0  0  0
  3 32  1  0  0  0  0
  3 33  1  0  0  0  0
  4  5  1  0  0  0  0
  4 34  1  0  0  0  0
  4 35  1  0  0  0  0
  5 10  1  0  0  0  0
  5  6  1  0  0  0  0
  5 36  1  0  0  0  0
  6  7  1  0  0  0  0
  6 28  1  0  0  0  0
  6 37  1  0  0  0  0
  7  8  1  0  0  0  0
  7 38  1  0  0  0  0
  7 39  1  0  0  0  0
  8  9  1  0  0  0  0
  8 40  1  0  0  0  0
  8 41  1  0  0  0  0
  9 10  1  0  0  0  0
  9 42  1  0  0  0  0
  9 43  1  0  0  0  0
 10 11  1  0  0  0  0
 11 16  1  0  0  0  0
 11 12  2  0  0  0  0
 12 13  1  0  0  0  0
 13 14  2  0  0  0  0
 13 44  1  0  0  0  0
 14 15  1  0  0  0  0
 15 19  1  0  0  0  0
 15 16  2  0  0  0  0
 16 17  1  0  0  0  0
 17 18  2  0  0  0  0
 18 19  1  0  0  0  0
 18 45  1  0  0  0  0
 19 20  1  0  0  0  0
 20 27  1  0  0  0  0
 20 21  1  0  0  0  0
 20 46  1  0  0  0  0
 21 22  1  0  0  0  0
 21 47  1  0  0  0  0
 21 48  1  0  0  0  0
 22 23  1  0  0  0  0
 22 25  1  0  0  0  0
 22 27  1  0  0  0  0
 23 24  1  0  0  0  0
 23 49  1  0  0  0  0
 23 50  1  0  0  0  0
 24 51  1  0  0  0  0
 25 26  1  0  0  0  0
 25 52  1  0  0  0  0
 25 53  1  0  0  0  0
 26 54  1  0  0  0  0
 27 55  1  0  0  0  0
 27 56  1  0  0  0  0
 28 57  1  0  0  0  0
 28 58  1  0  0  0  0
M  CHG  1   2   1
M  END
> <s_m_source_file>
AV-unprocessed.smi

> <i_m_source_file_index>
198

> <i_lp_mmshare_version>
43012

> <i_f3d_flags>
0

> <s_epik_input>
W0NIMl0xW0NIMl1OKFtDSDNdKVtDSDJdW0NAQEhdKFtDQEhdMTIpW0NIMl1bQ0gyXVtDSDJdTjJjKG5bY0hdbjMpYyhjMzQpbltjSF1uNFtDSF0oW0NIMl01KVtDSDJdQzUoW0NIMl1bT0hdKVtDSDJdW09IXQ==

> <s_epik_cmdline>
J2VwaWtfcHl0aG9uJywgJy1waCcsICc3LjAnLCAnLXRuJywgJzgnLCAnLW1hJywgJzIwMCcsICctbWV0YWxfYmluZGluZycsICctaW1hZScsICc8aW5maWxlLm1hZT4nLCAnLW9tYWUnLCAnPG91dGZpbGUubWFlPic=

> <r_lp_tautomer_probability>
1

> <r_epik_Ionization_Penalty>
0.00239938

> <r_epik_Ionization_Penalty_Charging>
0.00138697

> <r_epik_Ionization_Penalty_Neutral>
0.00101241

> <r_epik_State_Penalty>
-0

> <r_epik_Charging_Adjusted_Penalty>
0.00138697

> <i_epik_Tot_Q>
1

> <i_epik_Tot_abs_Q>
1

> <r_epik_Metal_State_Penalty>
-0

> <b_epik_Metal_Only>
0

> <s_lp_Force_Field>
OPLS_2005

> <r_lp_Energy>
60.6867

> <b_lp_Chiralities_Consistent>
1

> <s_lp_Variant>
AV-unprocessed.smi:198-6

> <Gold.Version>
5.8.1

> <Gold.Id.Protein>
6NUR|6NUR_protein|mol2

> <Gold.PLP.Fitness>
42.6399

> <Gold.PLP.PLP>
-31.9848

> <Gold.PLP.part.hbond>
-4.7182

> <Gold.PLP.part.metal>
0.0000

> <Gold.PLP.part.buried>
-0.7958

> <Gold.PLP.part.nonpolar>
-27.5494

> <Gold.PLP.part.repulsive>
0.4434

> <Gold.PLP.ligand.clash>
0.0000

> <Gold.PLP.ligand.torsion>
0.9731

> <Gold.PLP.Chemscore.Hbond>
3.0000

> <Gold.PLP.Chemscore.CHOScore>
1.0000

> <Gold.PLP.Chemscore.Metal>
0.0000

> <Gold.Chemscore.Hbonds>
donor molecule, donor type, donor heavy atom, donor atom, acceptor molecule, acceptor atom, score
      L1  H    24    51       P1 10747  1.00
      L1  H    26    54       P1  7921  1.00
      P1  H 10192 10197       L1    26  0.88
      L1  C    18    45       P1 10171  1.00

> <Gold.PLP.Chemscore.Internal.Correction>
0.6014

> <Gold.Rescore>
     Score         DG    S(hbond)    S(metal)    S(lipo)     H(rot)  DE(clash)    DE(int)     intcor
     13.78     -16.74       2.90        0.00      80.77       3.08       1.75       1.21       ----

> <Gold.Chemscore.Fitness>
13.7772

> <Gold.Chemscore.DG>
-16.7391

> <Gold.Chemscore.ZeroCoef>
-5.4800

> <Gold.Chemscore.Hbond>
2.9010

> <Gold.Chemscore.Metal>
0.0000

> <Gold.Chemscore.Lipo>
80.7686

> <Gold.Chemscore.Internal_Hbond>
0.0000

> <Gold.Chemscore.DEClash>
1.7532

> <Gold.Chemscore.DEInternal>
1.2087

> <Gold.Chemscore.Rot>
3.0781

> <Gold.Chemscore.Internal.Correction>
   9.000000E+99

> <Gold.Chemscore.Hbonds>
donor molecule, donor type, donor heavy atom, donor atom, acceptor molecule, acceptor atom, score
      L1  H    24    51       P1 10747  1.00
      L1  H    26    54       P1  7921  0.99
      P1  H 10192 10197       L1    26  0.47

> <Gold.Chemscore.Hbond.Weighted>
-9.6892

> <Gold.Chemscore.Metal.Weighted>
-0.0000

> <Gold.Chemscore.Lipo.Weighted>
-9.4499

> <Gold.Chemscore.Internal_Hbond.Weighted>
0.0000

> <Gold.Chemscore.DEClash.Weighted>
1.7532

> <Gold.Chemscore.DEInternal.Weighted>
1.2087

> <Gold.Chemscore.Rot.Weighted>
7.8800

> <Gold.Chemscore.Internal.Correction.Weighted>
   9.000000E+99

> <Gold.Protein.RotatedTorsions>
[ 6907 6896 6895 6894 ] final  -33.63 input  -60.11 | X-H torsion
[ 7974 7965 7964 7962 ] final  124.68 input  175.53 | X-H torsion
[ 8008 7997 7996 7995 ] final  126.34 input   59.86 | X-H torsion
[ 10167 10162 10161 10158 ] final  -49.77 input  -65.29 | X-H torsion
[ 10718 10713 10712 10709 ] final   15.88 input   66.30 | X-H torsion
[ 10763 10752 10751 10750 ] final -131.00 input  -60.55 | X-H torsion
[ 11005 11000 10999 10996 ] final  -63.11 input  -57.11 | X-H torsion

> <Gold.Protein.ActiveResidues>
 VAL166  LYS551  ARG553  GLY616  TRP617  ASP618  TYR619  PRO620  LYS621  CYS622 
 ASP623  PHE694  ASN695  SER759  ASP760  ASP761  ALA762  ILE779  LEU786  VAL792 
 PHE793  MET794  SER795  GLU796  ALA797  LYS798  CYS799  TRP800  GLU811  SER814 

> <Gold.Protein.RotatedAtoms>
  151.0631  134.9749  159.8270 H   0  0  0  0  0  0  0  0  0  0  0  0  # atno 6907 bound_to 6896
  152.5398  134.2393  159.8865 H   0  0  0  0  0  0  0  0  0  0  0  0  # atno 6908 bound_to 6896
  151.2413  133.4355  159.2641 H   0  0  0  0  0  0  0  0  0  0  0  0  # atno 6909 bound_to 6896
  145.0816  139.3653  143.4906 H   0  0  0  0  0  0  0  0  0  0  0  0  # atno 7974 bound_to 7965
  156.2861  140.2695  156.2094 H   0  0  0  0  0  0  0  0  0  0  0  0  # atno 8008 bound_to 7997
  155.0279  140.0386  157.2481 H   0  0  0  0  0  0  0  0  0  0  0  0  # atno 8009 bound_to 7997
  154.7379  140.2719  155.6404 H   0  0  0  0  0  0  0  0  0  0  0  0  # atno 8010 bound_to 7997
  140.6669  143.2684  151.4263 H   0  0  0  0  0  0  0  0  0  0  0  0  # atno 10167 bound_to 10162
  157.0599  130.6304  149.5784 H   0  0  0  0  0  0  0  0  0  0  0  0  # atno 10718 bound_to 10713
  154.8753  135.3844  154.4174 H   0  0  0  0  0  0  0  0  0  0  0  0  # atno 10763 bound_to 10752
  153.4882  135.7030  153.5904 H   0  0  0  0  0  0  0  0  0  0  0  0  # atno 10764 bound_to 10752
  153.4290  135.3883  155.2126 H   0  0  0  0  0  0  0  0  0  0  0  0  # atno 10765 bound_to 10752
  141.1382  133.6648  156.5630 H   0  0  0  0  0  0  0  0  0  0  0  0  # atno 11005 bound_to 11000
  146.3531  140.0609  142.8629 LP  0  0  0  0  0  0  0  0  0  0  0  0  # atno 17320 bound_to 7965
  145.1171  140.9440  143.4622 LP  0  0  0  0  0  0  0  0  0  0  0  0  # atno 17321 bound_to 7965
  139.5922  144.1475  152.2101 LP  0  0  0  0  0  0  0  0  0  0  0  0  # atno 17342 bound_to 10162
  140.0833  144.5682  150.7107 LP  0  0  0  0  0  0  0  0  0  0  0  0  # atno 17343 bound_to 10162
  155.9981  130.5055  150.7560 LP  0  0  0  0  0  0  0  0  0  0  0  0  # atno 17370 bound_to 10713
  157.4963  131.0915  151.0368 LP  0  0  0  0  0  0  0  0  0  0  0  0  # atno 17371 bound_to 10713
  140.3973  134.7388  157.4758 LP  0  0  0  0  0  0  0  0  0  0  0  0  # atno 17394 bound_to 11000
  140.0522  134.6114  155.8848 LP  0  0  0  0  0  0  0  0  0  0  0  0  # atno 17395 bound_to 11000

$$$$
