AV-unprocessed.smi:805|AV-procd|sdf|3797|dock1
  -GOLD-   22720 1233D 1   1.00000     0.00000
 Structure written by MMmdl.
 40 41  0  0  0  0  0  0  0  0  1 V2000
  145.3551  130.6856  151.3097 C   0  0  0  0  0  0  0  0  0  0  0  0
  145.6131  131.7989  150.2916 C   0  0  0  0  0  0  0  0  0  0  0  0
  144.7249  132.8730  150.5510 O   0  0  0  0  0  0  0  0  0  0  0  0
  144.7975  133.3398  151.8891 C   0  0  1  0  0  0  0  0  0  0  0  0
  146.2206  133.4995  152.4339 C   0  0  0  0  0  0  0  0  0  0  0  0
  145.6981  134.7623  153.1204 C   0  0  1  0  0  0  0  0  0  0  0  0
  146.6780  135.8434  153.1321 N   0  0  0  0  0  0  0  0  0  0  0  0
  146.4461  137.0682  153.6229 C   0  0  0  0  0  0  0  0  0  0  0  0
  145.3754  137.4028  154.1293 O   0  0  0  0  0  0  0  0  0  0  0  0
  147.5298  137.8537  153.4981 N   0  0  0  0  0  0  0  0  0  0  0  0
  147.6919  139.2095  153.8923 C   0  0  0  0  0  0  0  0  0  0  0  0
  149.0054  139.6964  154.0552 C   0  0  0  0  0  0  0  0  0  0  0  0
  149.1987  141.0393  154.4302 C   0  0  0  0  0  0  0  0  0  0  0  0
  148.0640  141.8511  154.6201 C   0  0  0  0  0  0  0  0  0  0  0  0
  146.8006  141.4068  154.4537 N   0  0  0  0  0  0  0  0  0  0  0  0
  146.6221  140.1167  154.0955 C   0  0  0  0  0  0  0  0  0  0  0  0
  144.6179  134.8736  152.0109 C   0  0  0  0  0  0  0  0  0  0  0  0
  144.9753  135.6966  150.7606 C   0  0  0  0  0  0  0  0  0  0  0  0
  143.2380  135.3421  152.4718 C   0  0  0  0  0  0  0  0  0  0  0  0
  146.0193  129.8382  151.1382 H   0  0  0  0  0  0  0  0  0  0  0  0
  144.3285  130.3250  151.2428 H   0  0  0  0  0  0  0  0  0  0  0  0
  145.5205  131.0402  152.3272 H   0  0  0  0  0  0  0  0  0  0  0  0
  146.6467  132.1401  150.3672 H   0  0  0  0  0  0  0  0  0  0  0  0
  145.4641  131.4183  149.2803 H   0  0  0  0  0  0  0  0  0  0  0  0
  144.1440  132.7911  152.5717 H   0  0  0  0  0  0  0  0  0  0  0  0
  146.5391  132.7092  153.1140 H   0  0  0  0  0  0  0  0  0  0  0  0
  146.9623  133.6887  151.6557 H   0  0  0  0  0  0  0  0  0  0  0  0
  145.2740  134.5371  154.1020 H   0  0  0  0  0  0  0  0  0  0  0  0
  147.5859  135.6453  152.7375 H   0  0  0  0  0  0  0  0  0  0  0  0
  148.3568  137.4102  153.1263 H   0  0  0  0  0  0  0  0  0  0  0  0
  149.8568  139.0497  153.8997 H   0  0  0  0  0  0  0  0  0  0  0  0
  150.1928  141.4382  154.5685 H   0  0  0  0  0  0  0  0  0  0  0  0
  148.1747  142.8860  154.9084 H   0  0  0  0  0  0  0  0  0  0  0  0
  145.5921  139.8299  153.9538 H   0  0  0  0  0  0  0  0  0  0  0  0
  144.9934  136.7657  150.9750 H   0  0  0  0  0  0  0  0  0  0  0  0
  144.2516  135.5393  149.9604 H   0  0  0  0  0  0  0  0  0  0  0  0
  145.9541  135.4320  150.3605 H   0  0  0  0  0  0  0  0  0  0  0  0
  143.2342  136.4074  152.7040 H   0  0  0  0  0  0  0  0  0  0  0  0
  142.9173  134.8166  153.3718 H   0  0  0  0  0  0  0  0  0  0  0  0
  142.4799  135.1660  151.7081 H   0  0  0  0  0  0  0  0  0  0  0  0
  1  2  1  0  0  0  0
  1 20  1  0  0  0  0
  1 21  1  0  0  0  0
  1 22  1  0  0  0  0
  2  3  1  0  0  0  0
  2 23  1  0  0  0  0
  2 24  1  0  0  0  0
  3  4  1  0  0  0  0
  4 17  1  0  0  0  0
  4  5  1  0  0  0  0
  4 25  1  0  0  0  0
  5  6  1  0  0  0  0
  5 26  1  0  0  0  0
  5 27  1  0  0  0  0
  6  7  1  0  0  0  0
  6 17  1  0  0  0  0
  6 28  1  0  0  0  0
  7  8  1  0  0  0  0
  7 29  1  0  0  0  0
  8  9  2  0  0  0  0
  8 10  1  0  0  0  0
 10 11  1  0  0  0  0
 10 30  1  0  0  0  0
 11 16  1  0  0  0  0
 11 12  2  0  0  0  0
 12 13  1  0  0  0  0
 12 31  1  0  0  0  0
 13 14  2  0  0  0  0
 13 32  1  0  0  0  0
 14 15  1  0  0  0  0
 14 33  1  0  0  0  0
 15 16  2  0  0  0  0
 16 34  1  0  0  0  0
 17 18  1  0  0  0  0
 17 19  1  0  0  0  0
 18 35  1  0  0  0  0
 18 36  1  0  0  0  0
 18 37  1  0  0  0  0
 19 38  1  0  0  0  0
 19 39  1  0  0  0  0
 19 40  1  0  0  0  0
M  END
> <s_m_source_file>
AV-unprocessed.smi

> <i_m_source_file_index>
805

> <i_lp_mmshare_version>
43012

> <i_f3d_flags>
0

> <s_epik_input>
W0NIM11bQ0gyXU9bQ0BASF0oQzEoW0NIM10pW0NIM10pW0NIMl1bQ0BIXTFbTkhdQyg9TylbTkhdYzJbY0hdW2NIXVtjSF1uW2NIXTI=

> <s_epik_cmdline>
J2VwaWtfcHl0aG9uJywgJy1waCcsICc3LjAnLCAnLXRuJywgJzgnLCAnLW1hJywgJzIwMCcsICctbWV0YWxfYmluZGluZycsICctaW1hZScsICc8aW5maWxlLm1hZT4nLCAnLW9tYWUnLCAnPG91dGZpbGUubWFlPic=

> <r_epik_Ionization_Penalty>
0.00485231

> <r_epik_Ionization_Penalty_Charging>
0

> <r_epik_Ionization_Penalty_Neutral>
0.00485231

> <r_epik_State_Penalty>
0.00349213

> <r_epik_Charging_Adjusted_Penalty>
0.00349213

> <i_epik_Tot_Q>
0

> <i_epik_Tot_abs_Q>
0

> <r_epik_Metal_State_Penalty>
-0

> <b_epik_Metal_Only>
0

> <s_lp_Force_Field>
OPLS_2005

> <r_lp_Energy>
21.475

> <b_lp_Chiralities_Consistent>
1

> <s_lp_Variant>
AV-unprocessed.smi:805-2

> <Gold.Version>
5.8.1

> <Gold.Id.Protein>
6NUR|6NUR_protein|mol2

> <Gold.PLP.Fitness>
39.9270

> <Gold.PLP.PLP>
-29.0706

> <Gold.PLP.part.hbond>
-2.0000

> <Gold.PLP.part.metal>
0.0000

> <Gold.PLP.part.buried>
-1.9954

> <Gold.PLP.part.nonpolar>
-25.3750

> <Gold.PLP.part.repulsive>
0.3934

> <Gold.PLP.ligand.clash>
0.0000

> <Gold.PLP.ligand.torsion>
0.5309

> <Gold.PLP.Chemscore.Hbond>
1.8720

> <Gold.PLP.Chemscore.CHOScore>
2.0000

> <Gold.PLP.Chemscore.Metal>
0.0000

> <Gold.Chemscore.Hbonds>
donor molecule, donor type, donor heavy atom, donor atom, acceptor molecule, acceptor atom, score
      L1  H     7    29       P1  7948  0.98
      L1  H    10    30       P1  7948  0.88
      L1  C    14    33       P1  8028  1.00
      L1  C    16    34       P1 10175  1.00

> <Gold.PLP.Chemscore.Internal.Correction>
0.3021

> <Gold.Rescore>
     Score         DG    S(hbond)    S(metal)    S(lipo)     H(rot)  DE(clash)    DE(int)     intcor
     15.85     -17.52       1.89        0.00      78.66       1.36       0.05       1.61       ----

> <Gold.Chemscore.Fitness>
15.8501

> <Gold.Chemscore.DG>
-17.5187

> <Gold.Chemscore.ZeroCoef>
-5.4800

> <Gold.Chemscore.Hbond>
1.8875

> <Gold.Chemscore.Metal>
0.0000

> <Gold.Chemscore.Lipo>
78.6632

> <Gold.Chemscore.Internal_Hbond>
0.0000

> <Gold.Chemscore.DEClash>
0.0540

> <Gold.Chemscore.DEInternal>
1.6146

> <Gold.Chemscore.Rot>
1.3551

> <Gold.Chemscore.Internal.Correction>
   9.000000E+99

> <Gold.Chemscore.Hbonds>
donor molecule, donor type, donor heavy atom, donor atom, acceptor molecule, acceptor atom, score
      L1  H     7    29       P1  7948  0.92
      L1  H    10    30       P1  7948  0.87

> <Gold.Chemscore.Hbond.Weighted>
-6.3042

> <Gold.Chemscore.Metal.Weighted>
-0.0000

> <Gold.Chemscore.Lipo.Weighted>
-9.2036

> <Gold.Chemscore.Internal_Hbond.Weighted>
0.0000

> <Gold.Chemscore.DEClash.Weighted>
0.0540

> <Gold.Chemscore.DEInternal.Weighted>
1.6146

> <Gold.Chemscore.Rot.Weighted>
3.4691

> <Gold.Chemscore.Internal.Correction.Weighted>
   9.000000E+99

> <Gold.Protein.RotatedTorsions>
[ 6907 6896 6895 6894 ] final  -36.97 input  -60.11 | X-H torsion
[ 7974 7965 7964 7962 ] final  114.48 input  175.53 | X-H torsion
[ 8008 7997 7996 7995 ] final  -78.64 input   59.86 | X-H torsion
[ 10167 10162 10161 10158 ] final   78.66 input  -65.29 | X-H torsion
[ 10718 10713 10712 10709 ] final  120.11 input   66.30 | X-H torsion
[ 10763 10752 10751 10750 ] final -143.60 input  -60.55 | X-H torsion
[ 11005 11000 10999 10996 ] final   57.48 input  -57.11 | X-H torsion

> <Gold.Protein.ActiveResidues>
 VAL166  LYS551  ARG553  GLY616  TRP617  ASP618  TYR619  PRO620  LYS621  CYS622 
 ASP623  PHE694  ASN695  SER759  ASP760  ASP761  ALA762  ILE779  LEU786  VAL792 
 PHE793  MET794  SER795  GLU796  ALA797  LYS798  CYS799  TRP800  GLU811  SER814 

> <Gold.Protein.RotatedAtoms>
  151.0205  134.9465  159.8056 H   0  0  0  0  0  0  0  0  0  0  0  0  # atno 6907 bound_to 6896
  152.5324  134.2910  159.9053 H   0  0  0  0  0  0  0  0  0  0  0  0  # atno 6908 bound_to 6896
  151.2918  133.4120  159.2667 H   0  0  0  0  0  0  0  0  0  0  0  0  # atno 6909 bound_to 6896
  145.2039  139.2939  143.4304 H   0  0  0  0  0  0  0  0  0  0  0  0  # atno 7974 bound_to 7965
  154.5709  140.0691  156.8962 H   0  0  0  0  0  0  0  0  0  0  0  0  # atno 8008 bound_to 7997
  155.2637  140.3360  155.4253 H   0  0  0  0  0  0  0  0  0  0  0  0  # atno 8009 bound_to 7997
  156.2117  140.1762  156.7665 H   0  0  0  0  0  0  0  0  0  0  0  0  # atno 8010 bound_to 7997
  139.9686  144.5911  150.8006 H   0  0  0  0  0  0  0  0  0  0  0  0  # atno 10167 bound_to 10162
  157.5914  131.1063  150.7990 H   0  0  0  0  0  0  0  0  0  0  0  0  # atno 10718 bound_to 10713
  154.8463  135.3463  154.6213 H   0  0  0  0  0  0  0  0  0  0  0  0  # atno 10763 bound_to 10752
  153.6822  135.6979  153.5119 H   0  0  0  0  0  0  0  0  0  0  0  0  # atno 10764 bound_to 10752
  153.2659  135.4308  155.0896 H   0  0  0  0  0  0  0  0  0  0  0  0  # atno 10765 bound_to 10752
  140.0449  134.5820  155.9335 H   0  0  0  0  0  0  0  0  0  0  0  0  # atno 11005 bound_to 11000
  146.3412  140.2293  142.8593 LP  0  0  0  0  0  0  0  0  0  0  0  0  # atno 17320 bound_to 7965
  144.9921  140.8556  143.5333 LP  0  0  0  0  0  0  0  0  0  0  0  0  # atno 17321 bound_to 7965
  140.7529  143.3000  151.3106 LP  0  0  0  0  0  0  0  0  0  0  0  0  # atno 17342 bound_to 10162
  139.6499  144.0382  152.2618 LP  0  0  0  0  0  0  0  0  0  0  0  0  # atno 17343 bound_to 10162
  156.8411  130.5048  149.5321 LP  0  0  0  0  0  0  0  0  0  0  0  0  # atno 17370 bound_to 10713
  156.0969  130.5939  150.9829 LP  0  0  0  0  0  0  0  0  0  0  0  0  # atno 17371 bound_to 10713
  141.1902  133.6567  156.5401 LP  0  0  0  0  0  0  0  0  0  0  0  0  # atno 17394 bound_to 11000
  140.4009  134.7357  157.4779 LP  0  0  0  0  0  0  0  0  0  0  0  0  # atno 17395 bound_to 11000

$$$$
