AV-unprocessed.smi:3045|AV-procd|sdf|11611|dock3
  -GOLD-   2272016593D 1   1.00000     0.00000
 Structure written by MMmdl.
 36 37  0  0  0  0  0  0  0  0  2 V2000
  148.7592  137.1834  156.4860 C   0  0  0  0  0  0  0  0  0  0  0  0
  149.3171  135.8878  156.1235 N   0  0  0  0  0  0  0  0  0  0  0  0
  148.5861  134.6583  156.3764 C   0  0  0  0  0  0  0  0  0  0  0  0
  149.4111  133.5392  155.7038 C   0  0  1  0  0  0  0  0  0  0  0  0
  148.6984  132.9486  154.4769 C   0  0  0  0  0  0  0  0  0  0  0  0
  148.4699  131.7399  154.4130 O   0  0  0  0  0  0  0  0  0  0  0  0
  148.3557  133.8119  153.5082 N   0  0  0  0  0  0  0  0  0  0  0  0
  147.6648  133.4519  152.2759 C   0  0  0  0  0  0  0  0  0  0  0  0
  146.2669  134.0891  152.1970 C   0  0  0  0  0  0  0  0  0  0  0  0
  145.4647  133.5620  151.0234 C   0  0  0  0  0  0  0  0  0  0  0  0
  146.0117  132.5815  150.1661 C   0  0  0  0  0  0  0  0  0  0  0  0
  145.2444  132.1028  149.0837 C   0  0  0  0  0  0  0  0  0  0  0  0
  143.9473  132.6172  148.8819 C   0  0  0  0  0  0  0  0  0  0  0  0
  143.4578  133.5555  149.7221 N   0  3  0  0  0  0  0  0  0  0  0  0
  144.1601  134.0387  150.7705 C   0  0  0  0  0  0  0  0  0  0  0  0
  150.7512  134.2009  155.3204 C   0  0  0  0  0  0  0  0  0  0  0  0
  150.5178  135.6807  155.5761 C   0  0  0  0  0  0  0  0  0  0  0  0
  151.3453  136.5460  155.2947 O   0  0  0  0  0  0  0  0  0  0  0  0
  149.4009  137.6889  157.2085 H   0  0  0  0  0  0  0  0  0  0  0  0
  147.7695  137.0750  156.9305 H   0  0  0  0  0  0  0  0  0  0  0  0
  148.6667  137.8187  155.6044 H   0  0  0  0  0  0  0  0  0  0  0  0
  148.5162  134.4945  157.4527 H   0  0  0  0  0  0  0  0  0  0  0  0
  147.5689  134.7325  155.9878 H   0  0  0  0  0  0  0  0  0  0  0  0
  149.5933  132.7410  156.4258 H   0  0  0  0  0  0  0  0  0  0  0  0
  148.5797  134.7880  153.6404 H   0  0  0  0  0  0  0  0  0  0  0  0
  148.2704  133.7454  151.4167 H   0  0  0  0  0  0  0  0  0  0  0  0
  147.5801  132.3654  152.2396 H   0  0  0  0  0  0  0  0  0  0  0  0
  145.7189  133.9042  153.1219 H   0  0  0  0  0  0  0  0  0  0  0  0
  146.3464  135.1726  152.0998 H   0  0  0  0  0  0  0  0  0  0  0  0
  147.0071  132.1978  150.3379 H   0  0  0  0  0  0  0  0  0  0  0  0
  145.6454  131.3515  148.4189 H   0  0  0  0  0  0  0  0  0  0  0  0
  143.2914  132.3084  148.0809 H   0  0  0  0  0  0  0  0  0  0  0  0
  143.6596  134.7852  151.3702 H   0  0  0  0  0  0  0  0  0  0  0  0
  151.5620  133.8462  155.9572 H   0  0  0  0  0  0  0  0  0  0  0  0
  151.0427  134.0357  154.2818 H   0  0  0  0  0  0  0  0  0  0  0  0
  142.5167  133.9146  149.5580 H   0  0  0  0  0  0  0  0  0  0  0  0
  1  2  1  0  0  0  0
  1 19  1  0  0  0  0
  1 20  1  0  0  0  0
  1 21  1  0  0  0  0
  2 17  1  0  0  0  0
  2  3  1  0  0  0  0
  3  4  1  0  0  0  0
  3 22  1  0  0  0  0
  3 23  1  0  0  0  0
  4  5  1  0  0  0  0
  4 16  1  0  0  0  0
  4 24  1  0  0  0  0
  5  6  2  0  0  0  0
  5  7  1  0  0  0  0
  7  8  1  0  0  0  0
  7 25  1  0  0  0  0
  8  9  1  0  0  0  0
  8 26  1  0  0  0  0
  8 27  1  0  0  0  0
  9 10  1  0  0  0  0
  9 28  1  0  0  0  0
  9 29  1  0  0  0  0
 10 15  1  0  0  0  0
 10 11  2  0  0  0  0
 11 12  1  0  0  0  0
 11 30  1  0  0  0  0
 12 13  2  0  0  0  0
 12 31  1  0  0  0  0
 13 14  1  0  0  0  0
 13 32  1  0  0  0  0
 14 15  2  0  0  0  0
 14 36  1  0  0  0  0
 15 33  1  0  0  0  0
 16 17  1  0  0  0  0
 16 34  1  0  0  0  0
 16 35  1  0  0  0  0
 17 18  2  0  0  0  0
M  CHG  1  14   1
M  END
> <s_m_source_file>
AV-unprocessed.smi

> <i_m_source_file_index>
3045

> <i_lp_mmshare_version>
43012

> <i_f3d_flags>
0

> <s_epik_input>
W0NIM11OMVtDSDJdW0NASF0oW0NIMl1DMT1PKUMoPU8pW05IXVtDSDJdW0NIMl1jMltjSF1bY0hdW2NIXW5bY0hdMg==

> <s_epik_cmdline>
J2VwaWtfcHl0aG9uJywgJy1waCcsICc3LjAnLCAnLXRuJywgJzgnLCAnLW1hJywgJzIwMCcsICctbWV0YWxfYmluZGluZycsICctaW1hZScsICc8aW5maWxlLm1hZT4nLCAnLW9tYWUnLCAnPG91dGZpbGUubWFlPic=

> <r_epik_Ionization_Penalty>
2.26523

> <r_epik_Ionization_Penalty_Charging>
2.26523

> <r_epik_Ionization_Penalty_Neutral>
2.92809e-08

> <r_epik_State_Penalty>
2.41338

> <r_epik_Charging_Adjusted_Penalty>
4.67861

> <i_epik_Tot_Q>
1

> <i_epik_Tot_abs_Q>
1

> <r_epik_Metal_State_Penalty>
2.42626

> <b_epik_Metal_Only>
0

> <s_lp_Force_Field>
OPLS_2005

> <r_lp_Energy>
17.4677

> <b_lp_Chiralities_Consistent>
1

> <s_lp_Variant>
AV-unprocessed.smi:3045-3

> <Gold.Version>
5.8.1

> <Gold.Id.Protein>
6NUR|6NUR_protein|mol2

> <Gold.PLP.Fitness>
38.1717

> <Gold.PLP.PLP>
-28.6971

> <Gold.PLP.part.hbond>
-3.0000

> <Gold.PLP.part.metal>
0.0000

> <Gold.PLP.part.buried>
-4.0711

> <Gold.PLP.part.nonpolar>
-21.3508

> <Gold.PLP.part.repulsive>
0.2131

> <Gold.PLP.ligand.clash>
0.0000

> <Gold.PLP.ligand.torsion>
0.0458

> <Gold.PLP.Chemscore.Hbond>
3.1794

> <Gold.PLP.Chemscore.CHOScore>
0.0000

> <Gold.PLP.Chemscore.Metal>
0.0000

> <Gold.Chemscore.Hbonds>
donor molecule, donor type, donor heavy atom, donor atom, acceptor molecule, acceptor atom, score
      L1  H     7    25       P1  7948  0.15
      L1  H    14    36       P1 10186  2.00
      P1  H 10752 10763       L1    18  1.00

> <Gold.PLP.Chemscore.Internal.Correction>
0.0280

> <Gold.Rescore>
     Score         DG    S(hbond)    S(metal)    S(lipo)     H(rot)  DE(clash)    DE(int)     intcor
     16.44     -16.64       1.96        0.00      76.74       1.71       0.15       0.05       ----

> <Gold.Chemscore.Fitness>
16.4444

> <Gold.Chemscore.DG>
-16.6422

> <Gold.Chemscore.ZeroCoef>
-5.4800

> <Gold.Chemscore.Hbond>
1.9649

> <Gold.Chemscore.Metal>
0.0000

> <Gold.Chemscore.Lipo>
76.7360

> <Gold.Chemscore.Internal_Hbond>
0.0000

> <Gold.Chemscore.DEClash>
0.1496

> <Gold.Chemscore.DEInternal>
0.0482

> <Gold.Chemscore.Rot>
1.7105

> <Gold.Chemscore.Internal.Correction>
   9.000000E+99

> <Gold.Chemscore.Hbonds>
donor molecule, donor type, donor heavy atom, donor atom, acceptor molecule, acceptor atom, score
      L1  H     7    25       P1  7948  0.10
      L1  H    14    36       P1 10186  0.98
      P1  H 10752 10763       L1    18  0.59

> <Gold.Chemscore.Hbond.Weighted>
-6.5629

> <Gold.Chemscore.Metal.Weighted>
-0.0000

> <Gold.Chemscore.Lipo.Weighted>
-8.9781

> <Gold.Chemscore.Internal_Hbond.Weighted>
0.0000

> <Gold.Chemscore.DEClash.Weighted>
0.1496

> <Gold.Chemscore.DEInternal.Weighted>
0.0482

> <Gold.Chemscore.Rot.Weighted>
4.3789

> <Gold.Chemscore.Internal.Correction.Weighted>
   9.000000E+99

> <Gold.Protein.RotatedTorsions>
[ 6907 6896 6895 6894 ] final   46.46 input  -60.11 | X-H torsion
[ 7974 7965 7964 7962 ] final   22.21 input  175.53 | X-H torsion
[ 8008 7997 7996 7995 ] final -100.93 input   59.86 | X-H torsion
[ 10167 10162 10161 10158 ] final -160.13 input  -65.29 | X-H torsion
[ 10718 10713 10712 10709 ] final   89.75 input   66.30 | X-H torsion
[ 10763 10752 10751 10750 ] final   56.99 input  -60.55 | X-H torsion
[ 11005 11000 10999 10996 ] final   15.55 input  -57.11 | X-H torsion

> <Gold.Protein.ActiveResidues>
 VAL166  LYS551  ARG553  GLY616  TRP617  ASP618  TYR619  PRO620  LYS621  CYS622 
 ASP623  PHE694  ASN695  SER759  ASP760  ASP761  ALA762  ILE779  LEU786  VAL792 
 PHE793  MET794  SER795  GLU796  ALA797  LYS798  CYS799  TRP800  GLU811  SER814 

> <Gold.Protein.RotatedAtoms>
  152.2566  134.8077  160.0437 H   0  0  0  0  0  0  0  0  0  0  0  0  # atno 6907 bound_to 6896
  151.8738  133.3476  159.3752 H   0  0  0  0  0  0  0  0  0  0  0  0  # atno 6908 bound_to 6896
  150.7102  134.5013  159.5607 H   0  0  0  0  0  0  0  0  0  0  0  0  # atno 6909 bound_to 6896
  146.2038  139.7917  142.8741 H   0  0  0  0  0  0  0  0  0  0  0  0  # atno 7974 bound_to 7965
  154.8354  140.0437  157.1505 H   0  0  0  0  0  0  0  0  0  0  0  0  # atno 8008 bound_to 7997
  154.9106  140.3013  155.5248 H   0  0  0  0  0  0  0  0  0  0  0  0  # atno 8009 bound_to 7997
  156.2989  140.2359  156.4144 H   0  0  0  0  0  0  0  0  0  0  0  0  # atno 8010 bound_to 7997
  139.6563  143.9994  152.2195 H   0  0  0  0  0  0  0  0  0  0  0  0  # atno 10167 bound_to 10162
  157.6956  131.0345  150.3473 H   0  0  0  0  0  0  0  0  0  0  0  0  # atno 10718 bound_to 10713
  152.9841  135.5657  154.5318 H   0  0  0  0  0  0  0  0  0  0  0  0  # atno 10763 bound_to 10752
  154.4788  135.2788  155.1589 H   0  0  0  0  0  0  0  0  0  0  0  0  # atno 10764 bound_to 10752
  154.3106  135.6289  153.5517 H   0  0  0  0  0  0  0  0  0  0  0  0  # atno 10765 bound_to 10752
  140.4571  134.1165  155.7711 H   0  0  0  0  0  0  0  0  0  0  0  0  # atno 11005 bound_to 11000
  145.3390  141.0283  143.3403 LP  0  0  0  0  0  0  0  0  0  0  0  0  # atno 17320 bound_to 7965
  144.8745  139.4990  143.6752 LP  0  0  0  0  0  0  0  0  0  0  0  0  # atno 17321 bound_to 7965
  139.9721  144.6487  150.7979 LP  0  0  0  0  0  0  0  0  0  0  0  0  # atno 17342 bound_to 10162
  140.7560  143.3058  151.2966 LP  0  0  0  0  0  0  0  0  0  0  0  0  # atno 17343 bound_to 10162
  156.3926  130.3900  149.7019 LP  0  0  0  0  0  0  0  0  0  0  0  0  # atno 17370 bound_to 10713
  156.4363  130.7840  151.2860 LP  0  0  0  0  0  0  0  0  0  0  0  0  # atno 17371 bound_to 10713
  141.1638  133.8742  157.1773 LP  0  0  0  0  0  0  0  0  0  0  0  0  # atno 17394 bound_to 11000
  139.9969  135.0043  157.0103 LP  0  0  0  0  0  0  0  0  0  0  0  0  # atno 17395 bound_to 11000

$$$$
