AV-unprocessed.smi:2140|AV-procd|sdf|8717|dock5
  -GOLD-   2272011483D 1   1.00000     0.00000
 Structure written by MMmdl.
 40 41  0  0  0  0  0  0  0  0  2 V2000
  143.7871  135.8968  152.3361 C   0  0  0  0  0  0  0  0  0  0  0  0
  145.1815  136.1694  151.7207 C   0  0  1  0  0  0  0  0  0  0  0  0
  145.5794  137.6541  151.9407 C   0  0  0  0  0  0  0  0  0  0  0  0
  146.9514  137.8164  152.4144 N   0  0  0  0  0  0  0  0  0  0  0  0
  147.3537  138.7554  153.2826 C   0  0  0  0  0  0  0  0  0  0  0  0
  146.5959  139.5958  153.7669 O   0  0  0  0  0  0  0  0  0  0  0  0
  148.6710  138.6593  153.5300 N   0  0  0  0  0  0  0  0  0  0  0  0
  149.4639  139.4369  154.4170 C   0  0  0  0  0  0  0  0  0  0  0  0
  149.0443  140.6567  155.0020 C   0  0  0  0  0  0  0  0  0  0  0  0
  149.9168  141.3229  155.8839 C   0  0  0  0  0  0  0  0  0  0  0  0
  151.1718  140.7442  156.1542 C   0  0  0  0  0  0  0  0  0  0  0  0
  151.5794  139.5763  155.6145 N   0  0  0  0  0  0  0  0  0  0  0  0
  150.7374  138.9426  154.7705 C   0  0  0  0  0  0  0  0  0  0  0  0
  146.2535  135.2589  152.2422 N   0  3  0  0  0  0  0  0  0  0  0  0
  146.3508  135.1646  153.7257 C   0  0  0  0  0  0  0  0  0  0  0  0
  147.4948  134.2271  154.1501 C   0  0  0  0  0  0  0  0  0  0  0  0
  147.3101  132.9443  153.5710 O   0  0  0  0  0  0  0  0  0  0  0  0
  147.3280  133.0068  152.1528 C   0  0  0  0  0  0  0  0  0  0  0  0
  146.1678  133.8893  151.6646 C   0  0  0  0  0  0  0  0  0  0  0  0
  143.0360  136.5911  151.9596 H   0  0  0  0  0  0  0  0  0  0  0  0
  143.8049  135.9939  153.4220 H   0  0  0  0  0  0  0  0  0  0  0  0
  143.4167  134.9027  152.0862 H   0  0  0  0  0  0  0  0  0  0  0  0
  145.0908  135.9824  150.6494 H   0  0  0  0  0  0  0  0  0  0  0  0
  145.4833  138.2028  151.0032 H   0  0  0  0  0  0  0  0  0  0  0  0
  144.9214  138.1548  152.6493 H   0  0  0  0  0  0  0  0  0  0  0  0
  147.6392  137.1687  152.0578 H   0  0  0  0  0  0  0  0  0  0  0  0
  149.1775  137.9749  152.9874 H   0  0  0  0  0  0  0  0  0  0  0  0
  148.0737  141.0852  154.8068 H   0  0  0  0  0  0  0  0  0  0  0  0
  149.6280  142.2551  156.3466 H   0  0  0  0  0  0  0  0  0  0  0  0
  151.8637  141.2291  156.8267 H   0  0  0  0  0  0  0  0  0  0  0  0
  151.0956  138.0096  154.3601 H   0  0  0  0  0  0  0  0  0  0  0  0
  146.5510  136.1410  154.1656 H   0  0  0  0  0  0  0  0  0  0  0  0
  145.4038  134.8076  154.1337 H   0  0  0  0  0  0  0  0  0  0  0  0
  148.4629  134.6364  153.8563 H   0  0  0  0  0  0  0  0  0  0  0  0
  147.5112  134.1238  155.2353 H   0  0  0  0  0  0  0  0  0  0  0  0
  148.2873  133.3901  151.8010 H   0  0  0  0  0  0  0  0  0  0  0  0
  147.2235  131.9972  151.7549 H   0  0  0  0  0  0  0  0  0  0  0  0
  145.2169  133.4342  151.9466 H   0  0  0  0  0  0  0  0  0  0  0  0
  146.1917  133.9161  150.5768 H   0  0  0  0  0  0  0  0  0  0  0  0
  147.1317  135.6527  151.9357 H   0  0  0  0  0  0  0  0  0  0  0  0
  1  2  1  0  0  0  0
  1 20  1  0  0  0  0
  1 21  1  0  0  0  0
  1 22  1  0  0  0  0
  2  3  1  0  0  0  0
  2 14  1  0  0  0  0
  2 23  1  0  0  0  0
  3  4  1  0  0  0  0
  3 24  1  0  0  0  0
  3 25  1  0  0  0  0
  4  5  1  0  0  0  0
  4 26  1  0  0  0  0
  5  6  2  0  0  0  0
  5  7  1  0  0  0  0
  7  8  1  0  0  0  0
  7 27  1  0  0  0  0
  8 13  1  0  0  0  0
  8  9  2  0  0  0  0
  9 10  1  0  0  0  0
  9 28  1  0  0  0  0
 10 11  2  0  0  0  0
 10 29  1  0  0  0  0
 11 12  1  0  0  0  0
 11 30  1  0  0  0  0
 12 13  2  0  0  0  0
 13 31  1  0  0  0  0
 14 19  1  0  0  0  0
 14 15  1  0  0  0  0
 14 40  1  0  0  0  0
 15 16  1  0  0  0  0
 15 32  1  0  0  0  0
 15 33  1  0  0  0  0
 16 17  1  0  0  0  0
 16 34  1  0  0  0  0
 16 35  1  0  0  0  0
 17 18  1  0  0  0  0
 18 19  1  0  0  0  0
 18 36  1  0  0  0  0
 18 37  1  0  0  0  0
 19 38  1  0  0  0  0
 19 39  1  0  0  0  0
M  CHG  1  14   1
M  END
> <s_m_source_file>
AV-unprocessed.smi

> <i_m_source_file_index>
2140

> <i_lp_mmshare_version>
43012

> <i_f3d_flags>
0

> <s_epik_input>
W0NIMl0xW0NIMl1PW0NIMl1bQ0gyXU4xW0NASF0oW0NIM10pW0NIMl1bTkhdQyg9TylbTkhdYzJbY0hdW2NIXVtjSF1uW2NIXTI=

> <s_epik_cmdline>
J2VwaWtfcHl0aG9uJywgJy1waCcsICc3LjAnLCAnLXRuJywgJzgnLCAnLW1hJywgJzIwMCcsICctbWV0YWxfYmluZGluZycsICctaW1hZScsICc8aW5maWxlLm1hZT4nLCAnLW9tYWUnLCAnPG91dGZpbGUubWFlPic=

> <r_epik_Ionization_Penalty>
0.60672

> <r_epik_Ionization_Penalty_Charging>
0.602531

> <r_epik_Ionization_Penalty_Neutral>
0.00418997

> <r_epik_State_Penalty>
0.607459

> <r_epik_Charging_Adjusted_Penalty>
1.20999

> <i_epik_Tot_Q>
1

> <i_epik_Tot_abs_Q>
1

> <r_epik_Metal_State_Penalty>
0.604586

> <b_epik_Metal_Only>
0

> <s_lp_Force_Field>
OPLS_2005

> <r_lp_Energy>
23.4588

> <b_lp_Chiralities_Consistent>
1

> <s_lp_Variant>
AV-unprocessed.smi:2140-4

> <Gold.Version>
5.8.1

> <Gold.Id.Protein>
6NUR|6NUR_protein|mol2

> <Gold.PLP.Fitness>
41.0468

> <Gold.PLP.PLP>
-31.5400

> <Gold.PLP.part.hbond>
-4.5473

> <Gold.PLP.part.metal>
0.0000

> <Gold.PLP.part.buried>
-1.4909

> <Gold.PLP.part.nonpolar>
-26.9843

> <Gold.PLP.part.repulsive>
0.4160

> <Gold.PLP.ligand.clash>
0.0000

> <Gold.PLP.ligand.torsion>
1.1158

> <Gold.PLP.Chemscore.Hbond>
3.8960

> <Gold.PLP.Chemscore.CHOScore>
0.0000

> <Gold.PLP.Chemscore.Metal>
0.0000

> <Gold.Chemscore.Hbonds>
donor molecule, donor type, donor heavy atom, donor atom, acceptor molecule, acceptor atom, score
      L1  H     4    26       P1  7948  1.00
      L1  H     7    27       P1  7948  0.84
      L1  H    14    40       P1  7948  2.00

> <Gold.PLP.Chemscore.Internal.Correction>
0.0503

> <Gold.Rescore>
     Score         DG    S(hbond)    S(metal)    S(lipo)     H(rot)  DE(clash)    DE(int)     intcor
     16.15     -18.70       2.78        0.00      66.82       1.52       0.01       2.54       ----

> <Gold.Chemscore.Fitness>
16.1466

> <Gold.Chemscore.DG>
-18.7015

> <Gold.Chemscore.ZeroCoef>
-5.4800

> <Gold.Chemscore.Hbond>
2.7812

> <Gold.Chemscore.Metal>
0.0000

> <Gold.Chemscore.Lipo>
66.8221

> <Gold.Chemscore.Internal_Hbond>
0.0000

> <Gold.Chemscore.DEClash>
0.0149

> <Gold.Chemscore.DEInternal>
2.5400

> <Gold.Chemscore.Rot>
1.5179

> <Gold.Chemscore.Internal.Correction>
   9.000000E+99

> <Gold.Chemscore.Hbonds>
donor molecule, donor type, donor heavy atom, donor atom, acceptor molecule, acceptor atom, score
      L1  H     4    26       P1  7948  0.99
      L1  H     7    27       P1  7948  0.78
      L1  H    14    40       P1  7948  1.00

> <Gold.Chemscore.Hbond.Weighted>
-9.2892

> <Gold.Chemscore.Metal.Weighted>
-0.0000

> <Gold.Chemscore.Lipo.Weighted>
-7.8182

> <Gold.Chemscore.Internal_Hbond.Weighted>
0.0000

> <Gold.Chemscore.DEClash.Weighted>
0.0149

> <Gold.Chemscore.DEInternal.Weighted>
2.5400

> <Gold.Chemscore.Rot.Weighted>
3.8859

> <Gold.Chemscore.Internal.Correction.Weighted>
   9.000000E+99

> <Gold.Protein.RotatedTorsions>
[ 6907 6896 6895 6894 ] final   70.37 input  -60.11 | X-H torsion
[ 7974 7965 7964 7962 ] final  104.93 input  175.53 | X-H torsion
[ 8008 7997 7996 7995 ] final   68.13 input   59.86 | X-H torsion
[ 10167 10162 10161 10158 ] final   30.25 input  -65.29 | X-H torsion
[ 10718 10713 10712 10709 ] final  -21.57 input   66.30 | X-H torsion
[ 10763 10752 10751 10750 ] final  125.22 input  -60.55 | X-H torsion
[ 11005 11000 10999 10996 ] final -103.83 input  -57.11 | X-H torsion

> <Gold.Protein.ActiveResidues>
 VAL166  LYS551  ARG553  GLY616  TRP617  ASP618  TYR619  PRO620  LYS621  CYS622 
 ASP623  PHE694  ASN695  SER759  ASP760  ASP761  ALA762  ILE779  LEU786  VAL792 
 PHE793  MET794  SER795  GLU796  ALA797  LYS798  CYS799  TRP800  GLU811  SER814 

> <Gold.Protein.RotatedAtoms>
  152.4745  134.4879  159.9685 H   0  0  0  0  0  0  0  0  0  0  0  0  # atno 6907 bound_to 6896
  151.4898  133.3521  159.2859 H   0  0  0  0  0  0  0  0  0  0  0  0  # atno 6908 bound_to 6896
  150.8774  134.8187  159.7261 H   0  0  0  0  0  0  0  0  0  0  0  0  # atno 6909 bound_to 6896
  145.3263  139.2499  143.3685 H   0  0  0  0  0  0  0  0  0  0  0  0  # atno 7974 bound_to 7965
  155.7036  140.3495  155.4944 H   0  0  0  0  0  0  0  0  0  0  0  0  # atno 8008 bound_to 7997
  155.9418  140.1103  157.1071 H   0  0  0  0  0  0  0  0  0  0  0  0  # atno 8009 bound_to 7997
  154.4104  140.1211  156.4923 H   0  0  0  0  0  0  0  0  0  0  0  0  # atno 8010 bound_to 7997
  140.4694  144.0785  150.6233 H   0  0  0  0  0  0  0  0  0  0  0  0  # atno 10167 bound_to 10162
  156.5164  130.4622  149.6620 H   0  0  0  0  0  0  0  0  0  0  0  0  # atno 10718 bound_to 10713
  153.6739  135.3325  155.3160 H   0  0  0  0  0  0  0  0  0  0  0  0  # atno 10763 bound_to 10752
  154.8483  135.4393  154.1676 H   0  0  0  0  0  0  0  0  0  0  0  0  # atno 10764 bound_to 10752
  153.2675  135.6997  153.7591 H   0  0  0  0  0  0  0  0  0  0  0  0  # atno 10765 bound_to 10752
  141.1128  133.8672  157.1535 H   0  0  0  0  0  0  0  0  0  0  0  0  # atno 11005 bound_to 11000
  146.3063  140.3831  142.8686 LP  0  0  0  0  0  0  0  0  0  0  0  0  # atno 17320 bound_to 7965
  144.8899  140.7510  143.5933 LP  0  0  0  0  0  0  0  0  0  0  0  0  # atno 17321 bound_to 7965
  140.3995  143.2711  151.9964 LP  0  0  0  0  0  0  0  0  0  0  0  0  # atno 17342 bound_to 10162
  139.4816  144.6009  151.7607 LP  0  0  0  0  0  0  0  0  0  0  0  0  # atno 17343 bound_to 10162
  156.3191  130.7271  151.2179 LP  0  0  0  0  0  0  0  0  0  0  0  0  # atno 17370 bound_to 10713
  157.7443  131.0460  150.4874 LP  0  0  0  0  0  0  0  0  0  0  0  0  # atno 17371 bound_to 10713
  140.0032  135.0019  157.0235 LP  0  0  0  0  0  0  0  0  0  0  0  0  # atno 17394 bound_to 11000
  140.4728  134.1369  155.7205 LP  0  0  0  0  0  0  0  0  0  0  0  0  # atno 17395 bound_to 11000

$$$$
