AV-unprocessed.smi:1920|AV-procd|sdf|7781|dock7
  -GOLD-   22720 9523D 1   1.00000     0.00000
 Structure written by MMmdl.
 36 37  0  0  0  0  0  0  0  0  1 V2000
  150.0637  139.8242  154.3845 C   0  0  0  0  0  0  0  0  0  0  0  0
  149.0067  140.7373  155.0274 C   0  0  2  0  0  0  0  0  0  0  0  0
  147.9324  141.2155  154.0256 C   0  0  0  0  0  0  0  0  0  0  0  0
  147.2157  140.1166  153.4062 N   0  0  0  0  0  0  0  0  0  0  0  0
  147.1185  139.8426  152.0481 C   0  0  0  0  0  0  0  0  0  0  0  0
  146.3496  138.7068  151.9303 C   0  0  0  0  0  0  0  0  0  0  0  0
  145.9715  138.2634  153.1955 N   0  0  0  0  0  0  0  0  0  0  0  0
  146.5241  139.1454  154.0185 C   0  0  0  0  0  0  0  0  0  0  0  0
  149.6742  141.8816  155.6416 N   0  0  0  0  0  0  0  0  0  0  0  0
  150.7391  141.8154  156.4559 C   0  0  0  0  0  0  0  0  0  0  0  0
  151.2772  140.7570  156.7813 O   0  0  0  0  0  0  0  0  0  0  0  0
  151.2805  143.1487  156.9832 C   0  0  0  0  0  0  0  0  0  0  0  0
  151.1057  143.3279  158.5072 C   0  0  2  0  0  0  0  0  0  0  0  0
  151.3442  144.7415  158.9813 C   0  0  0  0  0  0  0  0  0  0  0  0
  152.2506  144.8123  159.9533 C   0  0  0  0  0  0  0  0  0  0  0  0
  152.8022  143.4642  160.3260 C   0  0  0  0  0  0  0  0  0  0  0  0
  152.1153  142.4947  159.3382 C   0  0  0  0  0  0  0  0  0  0  0  0
  149.6182  138.9094  153.9931 H   0  0  0  0  0  0  0  0  0  0  0  0
  150.8206  139.5282  155.1116 H   0  0  0  0  0  0  0  0  0  0  0  0
  150.5717  140.3259  153.5603 H   0  0  0  0  0  0  0  0  0  0  0  0
  148.5171  140.1635  155.8165 H   0  0  0  0  0  0  0  0  0  0  0  0
  147.1999  141.8531  154.5221 H   0  0  0  0  0  0  0  0  0  0  0  0
  148.3898  141.8198  153.2405 H   0  0  0  0  0  0  0  0  0  0  0  0
  147.5894  140.4631  151.2999 H   0  0  0  0  0  0  0  0  0  0  0  0
  146.0441  138.1775  151.0397 H   0  0  0  0  0  0  0  0  0  0  0  0
  146.4202  139.0848  155.0919 H   0  0  0  0  0  0  0  0  0  0  0  0
  149.2993  142.7947  155.4286 H   0  0  0  0  0  0  0  0  0  0  0  0
  152.3393  143.2040  156.7283 H   0  0  0  0  0  0  0  0  0  0  0  0
  150.7949  143.9733  156.4584 H   0  0  0  0  0  0  0  0  0  0  0  0
  150.0903  143.0523  158.7964 H   0  0  0  0  0  0  0  0  0  0  0  0
  150.8116  145.5869  158.5702 H   0  0  0  0  0  0  0  0  0  0  0  0
  152.5662  145.7200  160.4461 H   0  0  0  0  0  0  0  0  0  0  0  0
  153.8872  143.4512  160.2192 H   0  0  0  0  0  0  0  0  0  0  0  0
  152.5499  143.2324  161.3610 H   0  0  0  0  0  0  0  0  0  0  0  0
  151.6115  141.6861  159.8688 H   0  0  0  0  0  0  0  0  0  0  0  0
  152.8653  142.0320  158.6951 H   0  0  0  0  0  0  0  0  0  0  0  0
  1  2  1  0  0  0  0
  1 18  1  0  0  0  0
  1 19  1  0  0  0  0
  1 20  1  0  0  0  0
  2  3  1  0  0  0  0
  2  9  1  0  0  0  0
  2 21  1  0  0  0  0
  3  4  1  0  0  0  0
  3 22  1  0  0  0  0
  3 23  1  0  0  0  0
  4  8  1  0  0  0  0
  4  5  1  0  0  0  0
  5  6  2  0  0  0  0
  5 24  1  0  0  0  0
  6  7  1  0  0  0  0
  6 25  1  0  0  0  0
  7  8  2  0  0  0  0
  8 26  1  0  0  0  0
  9 10  1  0  0  0  0
  9 27  1  0  0  0  0
 10 11  2  0  0  0  0
 10 12  1  0  0  0  0
 12 13  1  0  0  0  0
 12 28  1  0  0  0  0
 12 29  1  0  0  0  0
 13 17  1  0  0  0  0
 13 14  1  0  0  0  0
 13 30  1  0  0  0  0
 14 15  2  0  0  0  0
 14 31  1  0  0  0  0
 15 16  1  0  0  0  0
 15 32  1  0  0  0  0
 16 17  1  0  0  0  0
 16 33  1  0  0  0  0
 16 34  1  0  0  0  0
 17 35  1  0  0  0  0
 17 36  1  0  0  0  0
M  END
> <s_m_source_file>
AV-unprocessed.smi

> <i_m_source_file_index>
1920

> <i_lp_mmshare_version>
43012

> <i_f3d_flags>
0

> <s_epik_input>
W2NIXTFuW2NIXVtjSF1uMVtDSDJdW0NAQEhdKFtDSDNdKVtOSF1DKD1PKVtDSDJdW0NAQEhdMltDSF09W0NIXVtDSDJdW0NIMl0y

> <s_epik_cmdline>
J2VwaWtfcHl0aG9uJywgJy1waCcsICc3LjAnLCAnLXRuJywgJzgnLCAnLW1hJywgJzIwMCcsICctbWV0YWxfYmluZGluZycsICctaW1hZScsICc8aW5maWxlLm1hZT4nLCAnLW9tYWUnLCAnPG91dGZpbGUubWFlPic=

> <r_lp_tautomer_probability>
1

> <r_epik_Ionization_Penalty>
0.635367

> <r_epik_Ionization_Penalty_Charging>
0.635367

> <r_epik_Ionization_Penalty_Neutral>
2.1249e-08

> <r_epik_State_Penalty>
0.65258

> <r_epik_Charging_Adjusted_Penalty>
1.28795

> <i_epik_Tot_Q>
0

> <i_epik_Tot_abs_Q>
0

> <r_epik_Metal_State_Penalty>
0.310403

> <b_epik_Metal_Only>
0

> <s_lp_Force_Field>
OPLS_2005

> <r_lp_Energy>
18.8766

> <b_lp_Chiralities_Consistent>
1

> <s_lp_Variant>
AV-unprocessed.smi:1920-5

> <Gold.Version>
5.8.1

> <Gold.Id.Protein>
6NUR|6NUR_protein|mol2

> <Gold.PLP.Fitness>
43.7455

> <Gold.PLP.PLP>
-36.5783

> <Gold.PLP.part.hbond>
-1.0000

> <Gold.PLP.part.metal>
0.0000

> <Gold.PLP.part.buried>
1.3553

> <Gold.PLP.part.nonpolar>
-37.9622

> <Gold.PLP.part.repulsive>
0.3799

> <Gold.PLP.ligand.clash>
0.0000

> <Gold.PLP.ligand.torsion>
0.2358

> <Gold.PLP.Chemscore.Hbond>
1.0000

> <Gold.PLP.Chemscore.CHOScore>
1.5282

> <Gold.PLP.Chemscore.Metal>
0.0000

> <Gold.Chemscore.Hbonds>
donor molecule, donor type, donor heavy atom, donor atom, acceptor molecule, acceptor atom, score
      L1  H     9    27       P1  8028  1.00
      L1  C     5    24       P1  7957  0.62
      L1  C     6    25       P1 10171  0.89

> <Gold.PLP.Chemscore.Internal.Correction>
0.0541

> <Gold.Rescore>
     Score         DG    S(hbond)    S(metal)    S(lipo)     H(rot)  DE(clash)    DE(int)     intcor
     14.18     -16.24       0.97        0.00     106.36       1.93       0.58       1.47       ----

> <Gold.Chemscore.Fitness>
14.1791

> <Gold.Chemscore.DG>
-16.2370

> <Gold.Chemscore.ZeroCoef>
-5.4800

> <Gold.Chemscore.Hbond>
0.9745

> <Gold.Chemscore.Metal>
0.0000

> <Gold.Chemscore.Lipo>
106.3635

> <Gold.Chemscore.Internal_Hbond>
0.0000

> <Gold.Chemscore.DEClash>
0.5831

> <Gold.Chemscore.DEInternal>
1.4748

> <Gold.Chemscore.Rot>
1.9306

> <Gold.Chemscore.Internal.Correction>
   9.000000E+99

> <Gold.Chemscore.Hbonds>
donor molecule, donor type, donor heavy atom, donor atom, acceptor molecule, acceptor atom, score
      L1  H     9    27       P1  8028  0.97

> <Gold.Chemscore.Hbond.Weighted>
-3.2550

> <Gold.Chemscore.Metal.Weighted>
-0.0000

> <Gold.Chemscore.Lipo.Weighted>
-12.4445

> <Gold.Chemscore.Internal_Hbond.Weighted>
0.0000

> <Gold.Chemscore.DEClash.Weighted>
0.5831

> <Gold.Chemscore.DEInternal.Weighted>
1.4748

> <Gold.Chemscore.Rot.Weighted>
4.9424

> <Gold.Chemscore.Internal.Correction.Weighted>
   9.000000E+99

> <Gold.Protein.RotatedTorsions>
[ 6907 6896 6895 6894 ] final    3.96 input  -60.11 | X-H torsion
[ 7974 7965 7964 7962 ] final   40.16 input  175.53 | X-H torsion
[ 8008 7997 7996 7995 ] final   20.40 input   59.86 | X-H torsion
[ 10167 10162 10161 10158 ] final   36.97 input  -65.29 | X-H torsion
[ 10718 10713 10712 10709 ] final  -22.20 input   66.30 | X-H torsion
[ 10763 10752 10751 10750 ] final  -62.50 input  -60.55 | X-H torsion
[ 11005 11000 10999 10996 ] final  -77.22 input  -57.11 | X-H torsion

> <Gold.Protein.ActiveResidues>
 VAL166  LYS551  ARG553  GLY616  TRP617  ASP618  TYR619  PRO620  LYS621  CYS622 
 ASP623  PHE694  ASN695  SER759  ASP760  ASP761  ALA762  ILE779  LEU786  VAL792 
 PHE793  MET794  SER795  GLU796  ALA797  LYS798  CYS799  TRP800  GLU811  SER814 

> <Gold.Protein.RotatedAtoms>
  151.6335  135.1020  160.0126 H   0  0  0  0  0  0  0  0  0  0  0  0  # atno 6907 bound_to 6896
  152.4093  133.6934  159.6392 H   0  0  0  0  0  0  0  0  0  0  0  0  # atno 6908 bound_to 6896
  150.7985  133.8570  159.3262 H   0  0  0  0  0  0  0  0  0  0  0  0  # atno 6909 bound_to 6896
  146.0927  139.5566  142.9465 H   0  0  0  0  0  0  0  0  0  0  0  0  # atno 7974 bound_to 7965
  154.9350  140.3045  155.5149 H   0  0  0  0  0  0  0  0  0  0  0  0  # atno 8008 bound_to 7997
  156.3000  140.2347  156.4351 H   0  0  0  0  0  0  0  0  0  0  0  0  # atno 8009 bound_to 7997
  154.8200  140.0424  157.1392 H   0  0  0  0  0  0  0  0  0  0  0  0  # atno 8010 bound_to 7997
  140.4077  144.1635  150.6137 H   0  0  0  0  0  0  0  0  0  0  0  0  # atno 10167 bound_to 10162
  156.5077  130.4603  149.6665 H   0  0  0  0  0  0  0  0  0  0  0  0  # atno 10718 bound_to 10713
  154.3008  135.6235  153.5424 H   0  0  0  0  0  0  0  0  0  0  0  0  # atno 10763 bound_to 10752
  152.9841  135.5678  154.5286 H   0  0  0  0  0  0  0  0  0  0  0  0  # atno 10764 bound_to 10752
  154.4916  135.2867  155.1468 H   0  0  0  0  0  0  0  0  0  0  0  0  # atno 10765 bound_to 10752
  141.1659  133.7014  156.7788 H   0  0  0  0  0  0  0  0  0  0  0  0  # atno 11005 bound_to 11000
  145.6008  141.0355  143.2019 LP  0  0  0  0  0  0  0  0  0  0  0  0  # atno 17320 bound_to 7965
  144.7372  139.7552  143.7325 LP  0  0  0  0  0  0  0  0  0  0  0  0  # atno 17321 bound_to 7965
  140.4671  143.2427  151.9140 LP  0  0  0  0  0  0  0  0  0  0  0  0  # atno 17342 bound_to 10162
  139.4783  144.5408  151.8531 LP  0  0  0  0  0  0  0  0  0  0  0  0  # atno 17343 bound_to 10162
  156.3270  130.7311  151.2234 LP  0  0  0  0  0  0  0  0  0  0  0  0  # atno 17370 bound_to 10713
  157.7454  131.0440  150.4772 LP  0  0  0  0  0  0  0  0  0  0  0  0  # atno 17371 bound_to 10713
  140.2410  134.8614  157.3573 LP  0  0  0  0  0  0  0  0  0  0  0  0  # atno 17394 bound_to 11000
  140.1796  134.4506  155.7780 LP  0  0  0  0  0  0  0  0  0  0  0  0  # atno 17395 bound_to 11000

$$$$
