AV-unprocessed.smi:1669|AV-procd|sdf|6685|dock2
  -GOLD-   22720 7403D 1   1.00000     0.00000
 Structure written by MMmdl.
 48 50  0  0  0  0  0  0  0  0  2 V2000
  146.5548  136.0919  153.3086 C   0  0  0  0  0  0  0  0  0  0  0  0
  146.0973  137.0261  152.2547 N   0  3  1  0  0  0  0  0  0  0  0  0
  144.8957  136.5192  151.5466 C   0  0  0  0  0  0  0  0  0  0  0  0
  145.0942  135.0998  151.0423 C   0  0  0  0  0  0  0  0  0  0  0  0
  143.9970  134.2147  150.9817 C   0  0  0  0  0  0  0  0  0  0  0  0
  144.1775  132.8929  150.5302 C   0  0  0  0  0  0  0  0  0  0  0  0
  145.4545  132.4523  150.1331 C   0  0  0  0  0  0  0  0  0  0  0  0
  146.5509  133.3342  150.1863 C   0  0  0  0  0  0  0  0  0  0  0  0
  146.3716  134.6558  150.6391 C   0  0  0  0  0  0  0  0  0  0  0  0
  145.9576  138.4222  152.7468 C   0  0  0  0  0  0  0  0  0  0  0  0
  147.2815  138.9608  153.3188 C   0  0  1  0  0  0  0  0  0  0  0  0
  148.1409  139.2756  152.2396 O   0  0  0  0  0  0  0  0  0  0  0  0
  147.0622  140.2162  154.1855 C   0  0  0  0  0  0  0  0  0  0  0  0
  148.1555  140.4446  155.1214 N   0  0  0  0  0  0  0  0  0  0  0  0
  148.2240  140.1253  156.4392 C   0  0  0  0  0  0  0  0  0  0  0  0
  147.1036  139.4377  157.1578 C   0  0  0  0  0  0  0  0  0  0  0  0
  145.9007  140.1747  157.1191 O   0  0  0  0  0  0  0  0  0  0  0  0
  149.3556  140.4623  157.0585 N   0  0  0  0  0  0  0  0  0  0  0  0
  150.0929  141.0498  156.0493 C   0  0  0  0  0  0  0  0  0  0  0  0
  151.3873  141.6167  156.0670 C   0  0  0  0  0  0  0  0  0  0  0  0
  151.9415  142.1662  154.8923 C   0  0  0  0  0  0  0  0  0  0  0  0
  151.2114  142.1574  153.6862 C   0  0  0  0  0  0  0  0  0  0  0  0
  149.9196  141.5986  153.6470 C   0  0  0  0  0  0  0  0  0  0  0  0
  149.3708  141.0520  154.8224 C   0  0  0  0  0  0  0  0  0  0  0  0
  145.7987  135.9815  154.0869 H   0  0  0  0  0  0  0  0  0  0  0  0
  147.4756  136.4419  153.7751 H   0  0  0  0  0  0  0  0  0  0  0  0
  146.7567  135.1063  152.8881 H   0  0  0  0  0  0  0  0  0  0  0  0
  144.0422  136.5086  152.2262 H   0  0  0  0  0  0  0  0  0  0  0  0
  144.6336  137.1895  150.7265 H   0  0  0  0  0  0  0  0  0  0  0  0
  143.0149  134.5449  151.2874 H   0  0  0  0  0  0  0  0  0  0  0  0
  143.3363  132.2166  150.4893 H   0  0  0  0  0  0  0  0  0  0  0  0
  145.5931  131.4386  149.7868 H   0  0  0  0  0  0  0  0  0  0  0  0
  147.5300  132.9960  149.8806 H   0  0  0  0  0  0  0  0  0  0  0  0
  147.2189  135.3245  150.6794 H   0  0  0  0  0  0  0  0  0  0  0  0
  145.6358  139.0880  151.9460 H   0  0  0  0  0  0  0  0  0  0  0  0
  145.1680  138.4640  153.4989 H   0  0  0  0  0  0  0  0  0  0  0  0
  147.7672  138.1952  153.9240 H   0  0  0  0  0  0  0  0  0  0  0  0
  147.7446  139.9682  151.7321 H   0  0  0  0  0  0  0  0  0  0  0  0
  146.9249  141.0965  153.5578 H   0  0  0  0  0  0  0  0  0  0  0  0
  146.1420  140.1132  154.7621 H   0  0  0  0  0  0  0  0  0  0  0  0
  146.9278  138.4628  156.7016 H   0  0  0  0  0  0  0  0  0  0  0  0
  147.3842  139.2500  158.1941 H   0  0  0  0  0  0  0  0  0  0  0  0
  145.2657  139.6871  156.6177 H   0  0  0  0  0  0  0  0  0  0  0  0
  151.9549  141.6281  156.9858 H   0  0  0  0  0  0  0  0  0  0  0  0
  152.9320  142.5963  154.9170 H   0  0  0  0  0  0  0  0  0  0  0  0
  151.6440  142.5801  152.7912 H   0  0  0  0  0  0  0  0  0  0  0  0
  149.3587  141.5905  152.7244 H   0  0  0  0  0  0  0  0  0  0  0  0
  146.8275  137.0509  151.5566 H   0  0  0  0  0  0  0  0  0  0  0  0
  1  2  1  0  0  0  0
  1 25  1  0  0  0  0
  1 26  1  0  0  0  0
  1 27  1  0  0  0  0
  2  3  1  0  0  0  0
  2 10  1  0  0  0  0
  2 48  1  0  0  0  0
  3  4  1  0  0  0  0
  3 28  1  0  0  0  0
  3 29  1  0  0  0  0
  4  9  1  0  0  0  0
  4  5  2  0  0  0  0
  5  6  1  0  0  0  0
  5 30  1  0  0  0  0
  6  7  2  0  0  0  0
  6 31  1  0  0  0  0
  7  8  1  0  0  0  0
  7 32  1  0  0  0  0
  8  9  2  0  0  0  0
  8 33  1  0  0  0  0
  9 34  1  0  0  0  0
 10 11  1  0  0  0  0
 10 35  1  0  0  0  0
 10 36  1  0  0  0  0
 11 12  1  0  0  0  0
 11 13  1  0  0  0  0
 11 37  1  0  0  0  0
 12 38  1  0  0  0  0
 13 14  1  0  0  0  0
 13 39  1  0  0  0  0
 13 40  1  0  0  0  0
 14 24  1  0  0  0  0
 14 15  1  0  0  0  0
 15 16  1  0  0  0  0
 15 18  2  0  0  0  0
 16 17  1  0  0  0  0
 16 41  1  0  0  0  0
 16 42  1  0  0  0  0
 17 43  1  0  0  0  0
 18 19  1  0  0  0  0
 19 24  2  0  0  0  0
 19 20  1  0  0  0  0
 20 21  2  0  0  0  0
 20 44  1  0  0  0  0
 21 22  1  0  0  0  0
 21 45  1  0  0  0  0
 22 23  2  0  0  0  0
 22 46  1  0  0  0  0
 23 24  1  0  0  0  0
 23 47  1  0  0  0  0
M  CHG  1   2   1
M  END
> <s_m_source_file>
AV-unprocessed.smi

> <i_m_source_file_index>
1669

> <i_lp_mmshare_version>
43012

> <i_f3d_flags>
0

> <s_epik_input>
W2NIXTFbY0hdW2NIXVtjSF1bY0hdYzFbQ0gyXU4oW0NIM10pW0NIMl1bQ0BIXShbT0hdKVtDSDJdbihjKG4yKVtDSDJdW09IXSljKGMyMylbY0hdW2NIXVtjSF1bY0hdMw==

> <s_epik_cmdline>
J2VwaWtfcHl0aG9uJywgJy1waCcsICc3LjAnLCAnLXRuJywgJzgnLCAnLW1hJywgJzIwMCcsICctbWV0YWxfYmluZGluZycsICctaW1hZScsICc8aW5maWxlLm1hZT4nLCAnLW9tYWUnLCAnPG91dGZpbGUubWFlPic=

> <r_epik_Ionization_Penalty>
0.0949884

> <r_epik_Ionization_Penalty_Charging>
0.0475377

> <r_epik_Ionization_Penalty_Neutral>
0.0474507

> <r_epik_State_Penalty>
0.078247

> <r_epik_Charging_Adjusted_Penalty>
0.125785

> <i_epik_Tot_Q>
1

> <i_epik_Tot_abs_Q>
1

> <r_epik_Metal_State_Penalty>
0.0403451

> <b_epik_Metal_Only>
0

> <s_lp_Force_Field>
OPLS_2005

> <r_lp_Energy>
15.7652

> <b_lp_Chiralities_Consistent>
1

> <s_lp_Variant>
AV-unprocessed.smi:1669-3

> <Gold.Version>
5.8.1

> <Gold.Id.Protein>
6NUR|6NUR_protein|mol2

> <Gold.PLP.Fitness>
53.2557

> <Gold.PLP.PLP>
-42.7661

> <Gold.PLP.part.hbond>
-4.4651

> <Gold.PLP.part.metal>
0.0000

> <Gold.PLP.part.buried>
-2.2183

> <Gold.PLP.part.nonpolar>
-35.8429

> <Gold.PLP.part.repulsive>
0.1295

> <Gold.PLP.ligand.clash>
0.0000

> <Gold.PLP.ligand.torsion>
1.0459

> <Gold.PLP.Chemscore.Hbond>
4.0000

> <Gold.PLP.Chemscore.CHOScore>
0.0000

> <Gold.PLP.Chemscore.Metal>
0.0000

> <Gold.Chemscore.Hbonds>
donor molecule, donor type, donor heavy atom, donor atom, acceptor molecule, acceptor atom, score
      L1  H     2    48       P1  7948  0.42

> <Gold.PLP.Chemscore.Internal.Correction>
0.5815

> <Gold.Rescore>
     Score         DG    S(hbond)    S(metal)    S(lipo)     H(rot)  DE(clash)    DE(int)     intcor
     16.27     -18.62       2.76        0.00     102.88       3.17       0.20       2.15       ----

> <Gold.Chemscore.Fitness>
16.2686

> <Gold.Chemscore.DG>
-18.6204

> <Gold.Chemscore.ZeroCoef>
-5.4800

> <Gold.Chemscore.Hbond>
2.7624

> <Gold.Chemscore.Metal>
0.0000

> <Gold.Chemscore.Lipo>
102.8794

> <Gold.Chemscore.Internal_Hbond>
0.0000

> <Gold.Chemscore.DEClash>
0.1978

> <Gold.Chemscore.DEInternal>
2.1539

> <Gold.Chemscore.Rot>
3.1731

> <Gold.Chemscore.Internal.Correction>
   9.000000E+99

> <Gold.Chemscore.Hbonds>
donor molecule, donor type, donor heavy atom, donor atom, acceptor molecule, acceptor atom, score
      L1  H     2    48       P1  7948  0.22

> <Gold.Chemscore.Hbond.Weighted>
-9.2265

> <Gold.Chemscore.Metal.Weighted>
-0.0000

> <Gold.Chemscore.Lipo.Weighted>
-12.0369

> <Gold.Chemscore.Internal_Hbond.Weighted>
0.0000

> <Gold.Chemscore.DEClash.Weighted>
0.1978

> <Gold.Chemscore.DEInternal.Weighted>
2.1539

> <Gold.Chemscore.Rot.Weighted>
8.1230

> <Gold.Chemscore.Internal.Correction.Weighted>
   9.000000E+99

> <Gold.Protein.RotatedTorsions>
[ 6907 6896 6895 6894 ] final   61.58 input  -60.11 | X-H torsion
[ 7974 7965 7964 7962 ] final  121.83 input  175.53 | X-H torsion
[ 8008 7997 7996 7995 ] final  -49.77 input   59.86 | X-H torsion
[ 10167 10162 10161 10158 ] final  155.97 input  -65.29 | X-H torsion
[ 10718 10713 10712 10709 ] final -140.64 input   66.30 | X-H torsion
[ 10763 10752 10751 10750 ] final   24.54 input  -60.55 | X-H torsion
[ 11005 11000 10999 10996 ] final -177.13 input  -57.11 | X-H torsion

> <Gold.Protein.ActiveResidues>
 VAL166  LYS551  ARG553  GLY616  TRP617  ASP618  TYR619  PRO620  LYS621  CYS622 
 ASP623  PHE694  ASN695  SER759  ASP760  ASP761  ALA762  ILE779  LEU786  VAL792 
 PHE793  MET794  SER795  GLU796  ALA797  LYS798  CYS799  TRP800  GLU811  SER814 

> <Gold.Protein.RotatedAtoms>
  152.4101  134.6139  160.0032 H   0  0  0  0  0  0  0  0  0  0  0  0  # atno 6907 bound_to 6896
  151.6319  133.3326  159.3119 H   0  0  0  0  0  0  0  0  0  0  0  0  # atno 6908 bound_to 6896
  150.7992  134.7115  159.6651 H   0  0  0  0  0  0  0  0  0  0  0  0  # atno 6909 bound_to 6896
  145.1147  139.3429  143.4745 H   0  0  0  0  0  0  0  0  0  0  0  0  # atno 7974 bound_to 7965
  154.4050  140.1288  156.4558 H   0  0  0  0  0  0  0  0  0  0  0  0  # atno 8008 bound_to 7997
  155.7322  140.3491  155.5045 H   0  0  0  0  0  0  0  0  0  0  0  0  # atno 8009 bound_to 7997
  155.9117  140.1037  157.1264 H   0  0  0  0  0  0  0  0  0  0  0  0  # atno 8010 bound_to 7997
  139.4821  144.5051  151.8110 H   0  0  0  0  0  0  0  0  0  0  0  0  # atno 10167 bound_to 10162
  156.3247  130.7553  151.1659 H   0  0  0  0  0  0  0  0  0  0  0  0  # atno 10718 bound_to 10713
  153.0756  135.6603  154.0153 H   0  0  0  0  0  0  0  0  0  0  0  0  # atno 10763 bound_to 10752
  153.9787  135.2957  155.3423 H   0  0  0  0  0  0  0  0  0  0  0  0  # atno 10764 bound_to 10752
  154.7143  135.5192  153.8785 H   0  0  0  0  0  0  0  0  0  0  0  0  # atno 10765 bound_to 10752
  140.4444  134.6401  157.4772 H   0  0  0  0  0  0  0  0  0  0  0  0  # atno 11005 bound_to 11000
  146.3524  140.1081  142.8605 LP  0  0  0  0  0  0  0  0  0  0  0  0  # atno 17320 bound_to 7965
  145.0807  140.9219  143.4827 LP  0  0  0  0  0  0  0  0  0  0  0  0  # atno 17321 bound_to 7965
  140.4548  144.1805  150.5900 LP  0  0  0  0  0  0  0  0  0  0  0  0  # atno 17342 bound_to 10162
  140.4547  143.2472  151.9300 LP  0  0  0  0  0  0  0  0  0  0  0  0  # atno 17343 bound_to 10162
  157.7419  131.0498  150.5065 LP  0  0  0  0  0  0  0  0  0  0  0  0  # atno 17370 bound_to 10713
  156.5222  130.4164  149.6245 LP  0  0  0  0  0  0  0  0  0  0  0  0  # atno 17371 bound_to 10713
  140.0048  134.6780  155.9472 LP  0  0  0  0  0  0  0  0  0  0  0  0  # atno 17394 bound_to 11000
  141.1691  133.6537  156.4588 LP  0  0  0  0  0  0  0  0  0  0  0  0  # atno 17395 bound_to 11000

$$$$
