#       Name:                AV-unprocessed.smi:503
#       Creating user name   scv26
#       Creation time:       Thu Mar 26 23:21:05 2020


#       File generated by GOLD software.
#

@<TRIPOS>MOLECULE
AV-unprocessed.smi:503
    48    49     1
SMALL
NO_CHARGES


@<TRIPOS>ATOM
      1 ****         0.2241   1.5572  -0.8335 O.2            1 S1                 0.0000
      2 ****         0.6409   0.7246  -0.0268 C.2            1 S1                 0.0000
      3 ****         2.1470   0.4925   0.1618 C.3            1 S1                 0.0000
      4 ****         2.9809   1.5686  -0.3997 N.am           1 S1                 0.0000
      5 ****         3.4921   1.3718  -1.6977 C.2            1 S1                 0.0000
      6 ****         4.2736   2.2736  -2.3225 C.2            1 S1                 0.0000
      7 ****         4.7598   2.0611  -3.7479 C.3            1 S1                 0.0000
      8 ****         4.9186   3.2249  -4.3788 F              1 S1                 0.0000
      9 ****         5.9341   1.4318  -3.7357 F              1 S1                 0.0000
     10 ****         3.8994   1.3196  -4.4469 F              1 S1                 0.0000
     11 ****         4.5482   3.4997  -1.5993 C.2            1 S1                 0.0000
     12 ****         4.0562   3.7098  -0.3625 C.2            1 S1                 0.0000
     13 ****         3.2225   2.7112   0.3107 C.2            1 S1                 0.0000
     14 ****         2.7689   2.8910   1.4411 O.2            1 S1                 0.0000
     15 ****        -0.1664  -0.0431   0.7211 N.am           1 S1                 0.0000
     16 ****        -1.6275  -0.0084   0.7095 C.3            1 S1                 0.0000
     17 ****        -2.1525  -0.3994   2.1079 C.3            1 S1                 0.0000
     18 ****        -3.6732  -0.6360   2.2062 C.3            1 S1                 0.0000
     19 ****        -4.0884  -2.1210   2.2531 C.3            1 S1                 0.0000
     20 ****        -3.8951  -2.9409   0.9608 C.3            1 S1                 0.0000
     21 ****        -2.4248  -3.2088   0.5786 C.3            1 S1                 0.0000
     22 ****        -1.8588  -2.3191  -0.5454 C.3            1 S1                 0.0000
     23 ****        -2.1948  -0.8159  -0.4821 C.3            1 S1                 0.0000
     24 ****         2.3605   0.3663   1.2251 H              1 S1                 0.0000
     25 ****         2.4033  -0.4646  -0.2946 H              1 S1                 0.0000
     26 ****         3.1973   0.4403  -2.1589 H              1 S1                 0.0000
     27 ****         5.1617   4.2623  -2.0560 H              1 S1                 0.0000
     28 ****         4.2822   4.6354   0.1466 H              1 S1                 0.0000
     29 ****         0.2642  -0.7045   1.3512 H              1 S1                 0.0000
     30 ****        -1.9380   1.0267   0.5531 H              1 S1                 0.0000
     31 ****        -1.6114  -1.2562   2.5071 H              1 S1                 0.0000
     32 ****        -1.8953   0.4163   2.7853 H              1 S1                 0.0000
     33 ****        -4.0139  -0.1845   3.1387 H              1 S1                 0.0000
     34 ****        -4.2132  -0.1009   1.4252 H              1 S1                 0.0000
     35 ****        -3.5740  -2.6160   3.0777 H              1 S1                 0.0000
     36 ****        -5.1472  -2.1590   2.5116 H              1 S1                 0.0000
     37 ****        -4.3693  -3.9084   1.1293 H              1 S1                 0.0000
     38 ****        -4.4482  -2.5009   0.1310 H              1 S1                 0.0000
     39 ****        -1.7871  -3.1692   1.4602 H              1 S1                 0.0000
     40 ****        -2.3447  -4.2414   0.2373 H              1 S1                 0.0000
     41 ****        -0.7782  -2.4551  -0.5999 H              1 S1                 0.0000
     42 ****        -2.2447  -2.6968  -1.4930 H              1 S1                 0.0000
     43 ****        -3.2717  -0.6726  -0.5506 H              1 S1                 0.0000
     44 ****        -1.8156  -0.3638  -1.3996 H              1 S1                 0.0000
     45 ****         0.8697   2.0936  -1.3770 LP             1 S1                 0.0000
     46 ****        -0.7599   1.6967  -0.9447 LP             1 S1                 0.0000
     47 ****         2.2020   2.1877   1.8701 LP             1 S1                 0.0000
     48 ****         2.9673   3.7404   1.9302 LP             1 S1                 0.0000
@<TRIPOS>BOND
    1    1    2 2     
    2    2    3 1     
    3    2   15 am    
    4    3    4 1     
    5    3   24 1     
    6    3   25 1     
    7    4   13 am    
    8    4    5 1     
    9    5    6 2     
   10    5   26 1     
   11    6    7 1     
   12    6   11 1     
   13    7    8 1     
   14    7    9 1     
   15    7   10 1     
   16   11   12 2     
   17   11   27 1     
   18   12   13 1     
   19   12   28 1     
   20   13   14 2     
   21   15   16 1     
   22   15   29 1     
   23   16   23 1     
   24   16   17 1     
   25   16   30 1     
   26   17   18 1     
   27   17   31 1     
   28   17   32 1     
   29   18   19 1     
   30   18   33 1     
   31   18   34 1     
   32   19   20 1     
   33   19   35 1     
   34   19   36 1     
   35   20   21 1     
   36   20   37 1     
   37   20   38 1     
   38   21   22 1     
   39   21   39 1     
   40   21   40 1     
   41   22   23 1     
   42   22   41 1     
   43   22   42 1     
   44   23   43 1     
   45   23   44 1     
   46    1   45 1     
   47    1   46 1     
   48   14   47 1     
   49   14   48 1     
@<TRIPOS>SUBSTRUCTURE
      1 S1             1
@<TRIPOS>SET
LONE_PAIRS      STATIC     ATOMS    <user>   **** ""
4 45 46 47 48
DONOR_HYDROGENS      STATIC     ATOMS    <user>   **** ""
1 29
ATOM$BLUE        STATIC     ATOMS    COLORGROUP SYSTEM
4 45 46 47 48
ATOM$RED        STATIC     ATOMS    COLORGROUP SYSTEM
1 29
