AV-unprocessed.smi:1834|AV-procd|sdf|7471|dock10
  -GOLD-   22720 9163D 1   1.00000     0.00000
 Structure written by MMmdl.
 46 47  0  0  0  0  0  0  0  0  2 V2000
  146.6335  132.8273  153.9541 C   0  0  0  0  0  0  0  0  0  0  0  0
  147.4296  133.8572  153.1399 C   0  0  0  0  0  0  0  0  0  0  0  0
  146.5560  134.8087  152.4060 N   0  3  1  0  0  0  0  0  0  0  0  0
  145.6597  134.1124  151.4463 C   0  0  0  0  0  0  0  0  0  0  0  0
  144.8419  135.1109  150.6107 C   0  0  0  0  0  0  0  0  0  0  0  0
  144.0602  136.0801  151.5104 C   0  0  0  0  0  0  0  0  0  0  0  0
  144.9905  136.7750  152.5221 C   0  0  2  0  0  0  0  0  0  0  0  0
  145.8644  137.8621  151.8507 C   0  0  0  0  0  0  0  0  0  0  0  0
  147.2047  137.9410  152.4251 N   0  0  0  0  0  0  0  0  0  0  0  0
  147.6154  138.8725  153.2980 C   0  0  0  0  0  0  0  0  0  0  0  0
  146.8851  139.7686  153.7215 O   0  0  0  0  0  0  0  0  0  0  0  0
  148.9065  138.6981  153.6281 N   0  0  0  0  0  0  0  0  0  0  0  0
  149.6903  139.4771  154.4202 C   0  0  0  0  0  0  0  0  0  0  0  0
  149.4135  140.7005  154.9667 C   0  0  0  0  0  0  0  0  0  0  0  0
  150.6128  141.0064  155.6738 C   0  0  0  0  0  0  0  0  0  0  0  0
  150.9202  142.2296  156.4863 C   0  0  0  0  0  0  0  0  0  0  0  0
  151.5317  140.0542  155.5597 N   0  0  0  0  0  0  0  0  0  0  0  0
  150.9659  139.1058  154.7823 N   0  0  0  0  0  0  0  0  0  0  0  0
  151.7060  137.9047  154.4469 C   0  0  0  0  0  0  0  0  0  0  0  0
  145.7882  135.7080  153.3093 C   0  0  0  0  0  0  0  0  0  0  0  0
  147.3083  132.1727  154.5058 H   0  0  0  0  0  0  0  0  0  0  0  0
  146.0111  132.1924  153.3244 H   0  0  0  0  0  0  0  0  0  0  0  0
  145.9877  133.3174  154.6827 H   0  0  0  0  0  0  0  0  0  0  0  0
  148.0600  134.4100  153.8377 H   0  0  0  0  0  0  0  0  0  0  0  0
  148.1059  133.3583  152.4445 H   0  0  0  0  0  0  0  0  0  0  0  0
  146.2502  133.4873  150.7755 H   0  0  0  0  0  0  0  0  0  0  0  0
  144.9905  133.4461  151.9932 H   0  0  0  0  0  0  0  0  0  0  0  0
  145.5055  135.6658  149.9471 H   0  0  0  0  0  0  0  0  0  0  0  0
  144.1507  134.5709  149.9629 H   0  0  0  0  0  0  0  0  0  0  0  0
  143.5315  136.8169  150.9047 H   0  0  0  0  0  0  0  0  0  0  0  0
  143.2929  135.5236  152.0507 H   0  0  0  0  0  0  0  0  0  0  0  0
  144.3528  137.2926  153.2402 H   0  0  0  0  0  0  0  0  0  0  0  0
  145.9177  137.7095  150.7722 H   0  0  0  0  0  0  0  0  0  0  0  0
  145.3969  138.8377  151.9881 H   0  0  0  0  0  0  0  0  0  0  0  0
  147.8668  137.2362  152.1339 H   0  0  0  0  0  0  0  0  0  0  0  0
  149.3662  137.8938  153.2270 H   0  0  0  0  0  0  0  0  0  0  0  0
  148.5157  141.2943  154.8869 H   0  0  0  0  0  0  0  0  0  0  0  0
  150.0942  142.9405  156.4565 H   0  0  0  0  0  0  0  0  0  0  0  0
  151.8086  142.7382  156.1109 H   0  0  0  0  0  0  0  0  0  0  0  0
  151.0980  141.9723  157.5306 H   0  0  0  0  0  0  0  0  0  0  0  0
  151.7880  137.8157  153.3633 H   0  0  0  0  0  0  0  0  0  0  0  0
  151.1835  137.0315  154.8386 H   0  0  0  0  0  0  0  0  0  0  0  0
  152.7088  137.9387  154.8754 H   0  0  0  0  0  0  0  0  0  0  0  0
  145.0972  135.1031  153.8986 H   0  0  0  0  0  0  0  0  0  0  0  0
  146.4476  136.1870  154.0308 H   0  0  0  0  0  0  0  0  0  0  0  0
  147.1679  135.3935  151.8541 H   0  0  0  0  0  0  0  0  0  0  0  0
  1  2  1  0  0  0  0
  1 21  1  0  0  0  0
  1 22  1  0  0  0  0
  1 23  1  0  0  0  0
  2  3  1  0  0  0  0
  2 24  1  0  0  0  0
  2 25  1  0  0  0  0
  3 20  1  0  0  0  0
  3  4  1  0  0  0  0
  3 46  1  0  0  0  0
  4  5  1  0  0  0  0
  4 26  1  0  0  0  0
  4 27  1  0  0  0  0
  5  6  1  0  0  0  0
  5 28  1  0  0  0  0
  5 29  1  0  0  0  0
  6  7  1  0  0  0  0
  6 30  1  0  0  0  0
  6 31  1  0  0  0  0
  7  8  1  0  0  0  0
  7 20  1  0  0  0  0
  7 32  1  0  0  0  0
  8  9  1  0  0  0  0
  8 33  1  0  0  0  0
  8 34  1  0  0  0  0
  9 10  1  0  0  0  0
  9 35  1  0  0  0  0
 10 11  2  0  0  0  0
 10 12  1  0  0  0  0
 12 13  1  0  0  0  0
 12 36  1  0  0  0  0
 13 18  1  0  0  0  0
 13 14  2  0  0  0  0
 14 15  1  0  0  0  0
 14 37  1  0  0  0  0
 15 16  1  0  0  0  0
 15 17  2  0  0  0  0
 16 38  1  0  0  0  0
 16 39  1  0  0  0  0
 16 40  1  0  0  0  0
 17 18  1  0  0  0  0
 18 19  1  0  0  0  0
 19 41  1  0  0  0  0
 19 42  1  0  0  0  0
 19 43  1  0  0  0  0
 20 44  1  0  0  0  0
 20 45  1  0  0  0  0
M  CHG  1   3   1
M  END
> <s_m_source_file>
AV-unprocessed.smi

> <i_m_source_file_index>
1834

> <i_lp_mmshare_version>
43012

> <i_f3d_flags>
0

> <s_epik_input>
W0NIM11bQ0gyXU4xW0NIMl1bQ0gyXVtDSDJdW0NASF0oW0NIMl0xKVtDSDJdW05IXUMoPU8pW05IXWMyW2NIXWMoW0NIM10pbm4yW0NIM10=

> <s_epik_cmdline>
J2VwaWtfcHl0aG9uJywgJy1waCcsICc3LjAnLCAnLXRuJywgJzgnLCAnLW1hJywgJzIwMCcsICctbWV0YWxfYmluZGluZycsICctaW1hZScsICc8aW5maWxlLm1hZT4nLCAnLW9tYWUnLCAnPG91dGZpbGUubWFlPic=

> <r_lp_tautomer_probability>
1

> <r_epik_Ionization_Penalty>
0.000466842

> <r_epik_Ionization_Penalty_Charging>
0.000378984

> <r_epik_Ionization_Penalty_Neutral>
8.78572e-05

> <r_epik_State_Penalty>
0.000231434

> <r_epik_Charging_Adjusted_Penalty>
0.000610418

> <i_epik_Tot_Q>
1

> <i_epik_Tot_abs_Q>
1

> <r_epik_Metal_State_Penalty>
-0

> <b_epik_Metal_Only>
0

> <s_lp_Force_Field>
OPLS_2005

> <r_lp_Energy>
21.0152

> <b_lp_Chiralities_Consistent>
1

> <s_lp_Variant>
AV-unprocessed.smi:1834-3

> <Gold.Version>
5.8.1

> <Gold.Id.Protein>
6NUR|6NUR_protein|mol2

> <Gold.PLP.Fitness>
43.5787

> <Gold.PLP.PLP>
-35.6194

> <Gold.PLP.part.hbond>
-4.8099

> <Gold.PLP.part.metal>
0.0000

> <Gold.PLP.part.buried>
-1.0276

> <Gold.PLP.part.nonpolar>
-29.9222

> <Gold.PLP.part.repulsive>
0.2953

> <Gold.PLP.ligand.clash>
0.0000

> <Gold.PLP.ligand.torsion>
0.6835

> <Gold.PLP.Chemscore.Hbond>
3.0990

> <Gold.PLP.Chemscore.CHOScore>
0.0000

> <Gold.PLP.Chemscore.Metal>
0.0000

> <Gold.Chemscore.Hbonds>
donor molecule, donor type, donor heavy atom, donor atom, acceptor molecule, acceptor atom, score
      L1  H     3    46       P1  7948  1.73
      L1  H     9    35       P1  7948  0.89
      L1  H    12    36       P1  7948  0.56

> <Gold.PLP.Chemscore.Internal.Correction>
0.0291

> <Gold.Rescore>
     Score         DG    S(hbond)    S(metal)    S(lipo)     H(rot)  DE(clash)    DE(int)     intcor
     16.23     -18.44       2.83        0.00      61.28       1.43       0.41       1.79       ----

> <Gold.Chemscore.Fitness>
16.2328

> <Gold.Chemscore.DG>
-18.4372

> <Gold.Chemscore.ZeroCoef>
-5.4800

> <Gold.Chemscore.Hbond>
2.8279

> <Gold.Chemscore.Metal>
0.0000

> <Gold.Chemscore.Lipo>
61.2845

> <Gold.Chemscore.Internal_Hbond>
0.0000

> <Gold.Chemscore.DEClash>
0.4104

> <Gold.Chemscore.DEInternal>
1.7941

> <Gold.Chemscore.Rot>
1.4291

> <Gold.Chemscore.Internal.Correction>
   9.000000E+99

> <Gold.Chemscore.Hbonds>
donor molecule, donor type, donor heavy atom, donor atom, acceptor molecule, acceptor atom, score
      L1  H     3    46       P1  7948  0.84
      L1  H     9    35       P1  7948  0.86
      L1  H    12    36       P1  7948  0.54

> <Gold.Chemscore.Hbond.Weighted>
-9.4453

> <Gold.Chemscore.Metal.Weighted>
-0.0000

> <Gold.Chemscore.Lipo.Weighted>
-7.1703

> <Gold.Chemscore.Internal_Hbond.Weighted>
0.0000

> <Gold.Chemscore.DEClash.Weighted>
0.4104

> <Gold.Chemscore.DEInternal.Weighted>
1.7941

> <Gold.Chemscore.Rot.Weighted>
3.6584

> <Gold.Chemscore.Internal.Correction.Weighted>
   9.000000E+99

> <Gold.Protein.RotatedTorsions>
[ 6907 6896 6895 6894 ] final  115.02 input  -60.11 | X-H torsion
[ 7974 7965 7964 7962 ] final   30.16 input  175.53 | X-H torsion
[ 8008 7997 7996 7995 ] final -131.86 input   59.86 | X-H torsion
[ 10167 10162 10161 10158 ] final    6.52 input  -65.29 | X-H torsion
[ 10718 10713 10712 10709 ] final  142.00 input   66.30 | X-H torsion
[ 10763 10752 10751 10750 ] final   39.31 input  -60.55 | X-H torsion
[ 11005 11000 10999 10996 ] final  -23.71 input  -57.11 | X-H torsion

> <Gold.Protein.ActiveResidues>
 VAL166  LYS551  ARG553  GLY616  TRP617  ASP618  TYR619  PRO620  LYS621  CYS622 
 ASP623  PHE694  ASN695  SER759  ASP760  ASP761  ALA762  ILE779  LEU786  VAL792 
 PHE793  MET794  SER795  GLU796  ALA797  LYS798  CYS799  TRP800  GLU811  SER814 

> <Gold.Protein.RotatedAtoms>
  152.4767  133.8155  159.7025 H   0  0  0  0  0  0  0  0  0  0  0  0  # atno 6907 bound_to 6896
  150.8789  133.7391  159.2945 H   0  0  0  0  0  0  0  0  0  0  0  0  # atno 6908 bound_to 6896
  151.4901  135.1060  159.9853 H   0  0  0  0  0  0  0  0  0  0  0  0  # atno 6909 bound_to 6896
  146.1628  139.6825  142.9021 H   0  0  0  0  0  0  0  0  0  0  0  0  # atno 7974 bound_to 7965
  155.3194  140.0461  157.3038 H   0  0  0  0  0  0  0  0  0  0  0  0  # atno 8008 bound_to 7997
  154.5388  140.2281  155.8642 H   0  0  0  0  0  0  0  0  0  0  0  0  # atno 8009 bound_to 7997
  156.1861  140.3062  155.9248 H   0  0  0  0  0  0  0  0  0  0  0  0  # atno 8010 bound_to 7997
  140.6423  143.7745  150.7446 H   0  0  0  0  0  0  0  0  0  0  0  0  # atno 10167 bound_to 10162
  157.3856  131.0998  151.0696 H   0  0  0  0  0  0  0  0  0  0  0  0  # atno 10718 bound_to 10713
  152.9971  135.6224  154.2444 H   0  0  0  0  0  0  0  0  0  0  0  0  # atno 10763 bound_to 10752
  154.2184  135.2797  155.2935 H   0  0  0  0  0  0  0  0  0  0  0  0  # atno 10764 bound_to 10752
  154.5549  135.5722  153.7013 H   0  0  0  0  0  0  0  0  0  0  0  0  # atno 10765 bound_to 10752
  140.8777  133.7675  156.0264 H   0  0  0  0  0  0  0  0  0  0  0  0  # atno 11005 bound_to 11000
  145.4544  141.0430  143.2786 LP  0  0  0  0  0  0  0  0  0  0  0  0  # atno 17320 bound_to 7965
  144.8051  139.6067  143.7054 LP  0  0  0  0  0  0  0  0  0  0  0  0  # atno 17321 bound_to 7965
  140.1379  143.4467  152.2212 LP  0  0  0  0  0  0  0  0  0  0  0  0  # atno 17342 bound_to 10162
  139.5632  144.7419  151.4095 LP  0  0  0  0  0  0  0  0  0  0  0  0  # atno 17343 bound_to 10162
  157.1749  130.6283  149.5652 LP  0  0  0  0  0  0  0  0  0  0  0  0  # atno 17370 bound_to 10713
  155.9786  130.4773  150.6665 LP  0  0  0  0  0  0  0  0  0  0  0  0  # atno 17371 bound_to 10713
  140.8498  134.2967  157.5280 LP  0  0  0  0  0  0  0  0  0  0  0  0  # atno 17394 bound_to 11000
  139.8717  134.9461  156.3930 LP  0  0  0  0  0  0  0  0  0  0  0  0  # atno 17395 bound_to 11000

$$$$
