#       Name:                AV-unprocessed.smi:3241
#       Creating user name   scv26
#       Creation time:       Fri Mar 27 18:26:14 2020


#       File generated by GOLD software.
#

@<TRIPOS>MOLECULE
AV-unprocessed.smi:3241
    47    48     1
SMALL
NO_CHARGES


@<TRIPOS>ATOM
      1 ****        -2.9459  -0.5970   3.0429 C.3            1 S1                 0.0000
      2 ****        -2.2121   0.4836   2.2338 C.3            1 S1                 0.0000
      3 ****        -3.0901   1.0460   1.0973 C.3            1 S1                 0.0000
      4 ****        -2.3625   2.1504   0.3136 C.3            1 S1                 0.0000
      5 ****        -1.0113   1.6566  -0.2246 C.3            1 S1                 0.0000
      6 ****        -0.1328   1.0963   0.9055 C.3            1 S1                 0.0000
      7 ****        -0.8534  -0.0169   1.6947 C.3            1 S1                 0.0000
      8 ****        -1.0789  -1.1289   0.8314 O.3            1 S1                 0.0000
      9 ****        -0.3189  -2.3011   1.1062 C.3            1 S1                 0.0000
     10 ****         1.1793  -2.1090   0.8230 C.3            1 S1                 0.0000
     11 ****         1.4063  -1.8324  -0.5900 N.3            1 S1                 0.0000
     12 ****         2.8044  -1.5888  -0.9286 C.3            1 S1                 0.0000
     13 ****         2.9616  -1.1840  -2.4026 C.3            1 S1                 0.0000
     14 ****         2.3196   0.0879  -2.6886 N.pl3          1 S1                 0.0000
     15 ****         2.7468   1.3562  -2.3556 C.2            1 S1                 0.0000
     16 ****         1.8132   2.2358  -2.8235 C.2            1 S1                 0.0000
     17 ****         0.8394   1.3996  -3.4379 C.2            1 S1                 0.0000
     18 ****         1.1458   0.1150  -3.3570 N.2            1 S1                 0.0000
     19 ****        -3.2208  -1.4464   2.4168 H              1 S1                 0.0000
     20 ****        -3.8609  -0.2016   3.4847 H              1 S1                 0.0000
     21 ****        -2.3218  -0.9702   3.8553 H              1 S1                 0.0000
     22 ****        -2.0046   1.3051   2.9212 H              1 S1                 0.0000
     23 ****        -3.3734   0.2431   0.4154 H              1 S1                 0.0000
     24 ****        -4.0198   1.4430   1.5061 H              1 S1                 0.0000
     25 ****        -2.9876   2.4939  -0.5111 H              1 S1                 0.0000
     26 ****        -2.2035   3.0135   0.9610 H              1 S1                 0.0000
     27 ****        -1.1753   0.8850  -0.9781 H              1 S1                 0.0000
     28 ****        -0.4919   2.4719  -0.7283 H              1 S1                 0.0000
     29 ****         0.8067   0.7311   0.4922 H              1 S1                 0.0000
     30 ****         0.1325   1.9052   1.5871 H              1 S1                 0.0000
     31 ****        -0.2332  -0.3056   2.5453 H              1 S1                 0.0000
     32 ****        -0.4760  -2.6049   2.1421 H              1 S1                 0.0000
     33 ****        -0.7086  -3.1103   0.4880 H              1 S1                 0.0000
     34 ****         1.5862  -1.3076   1.4396 H              1 S1                 0.0000
     35 ****         1.7141  -3.0156   1.1081 H              1 S1                 0.0000
     36 ****         1.0322  -2.5843  -1.1601 H              1 S1                 0.0000
     37 ****         3.2147  -0.8054  -0.2903 H              1 S1                 0.0000
     38 ****         3.3916  -2.4870  -0.7351 H              1 S1                 0.0000
     39 ****         4.0198  -1.0904  -2.6489 H              1 S1                 0.0000
     40 ****         2.5548  -1.9545  -3.0599 H              1 S1                 0.0000
     41 ****         3.6671   1.5242  -1.8159 H              1 S1                 0.0000
     42 ****         1.8224   3.3122  -2.7381 H              1 S1                 0.0000
     43 ****        -0.0755   1.6858  -3.9355 H              1 S1                 0.0000
     44 ****        -0.8663  -0.8390  -0.1018 LP             1 S1                 0.0000
     45 ****        -2.0471  -1.3715   0.8926 LP             1 S1                 0.0000
     46 ****         0.9218  -0.9799  -0.7862 LP             1 S1                 0.0000
     47 ****         0.6252  -0.6618  -3.7113 LP             1 S1                 0.0000
@<TRIPOS>BOND
    1    1    2 1     
    2    1   19 1     
    3    1   20 1     
    4    1   21 1     
    5    2    7 1     
    6    2    3 1     
    7    2   22 1     
    8    3    4 1     
    9    3   23 1     
   10    3   24 1     
   11    4    5 1     
   12    4   25 1     
   13    4   26 1     
   14    5    6 1     
   15    5   27 1     
   16    5   28 1     
   17    6    7 1     
   18    6   29 1     
   19    6   30 1     
   20    7    8 1     
   21    7   31 1     
   22    8    9 1     
   23    9   10 1     
   24    9   32 1     
   25    9   33 1     
   26   10   11 1     
   27   10   34 1     
   28   10   35 1     
   29   11   12 1     
   30   11   36 1     
   31   12   13 1     
   32   12   37 1     
   33   12   38 1     
   34   13   14 1     
   35   13   39 1     
   36   13   40 1     
   37   14   18 1     
   38   14   15 1     
   39   15   16 2     
   40   15   41 1     
   41   16   17 1     
   42   16   42 1     
   43   17   18 2     
   44   17   43 1     
   45    8   44 1     
   46    8   45 1     
   47   11   46 1     
   48   18   47 1     
@<TRIPOS>SUBSTRUCTURE
      1 S1             1
@<TRIPOS>SET
LONE_PAIRS      STATIC     ATOMS    <user>   **** ""
4 44 45 46 47
DONOR_HYDROGENS      STATIC     ATOMS    <user>   **** ""
1 36
ATOM$BLUE        STATIC     ATOMS    COLORGROUP SYSTEM
4 44 45 46 47
ATOM$RED        STATIC     ATOMS    COLORGROUP SYSTEM
1 36
