#       Name:                AV-unprocessed.smi:2889
#       Creating user name   scv26
#       Creation time:       Fri Mar 27 15:57:51 2020


#       File generated by GOLD software.
#

@<TRIPOS>MOLECULE
AV-unprocessed.smi:2889
    40    41     1
SMALL
NO_CHARGES


@<TRIPOS>ATOM
      1 ****        -0.0928  -0.3299   3.7165 C.3            1 S1                 0.0000
      2 ****        -1.5176   0.4680   2.9272 S.3            1 S1                 0.0000
      3 ****        -1.6283  -0.4612   1.3642 C.3            1 S1                 0.0000
      4 ****        -3.1090  -0.7080   1.0184 C.3            1 S1                 0.0000
      5 ****        -3.2714  -1.4522  -0.3155 C.3            1 S1                 0.0000
      6 ****        -2.5783  -0.6936  -1.4557 C.3            1 S1                 0.0000
      7 ****        -1.0951  -0.4586  -1.1368 C.3            1 S1                 0.0000
      8 ****        -0.9114   0.2740   0.2064 C.3            1 S1                 0.0000
      9 ****         0.5204   0.3945   0.4877 N.3            1 S1                 0.0000
     10 ****         1.2994   1.9062   0.1995 S.o2           1 S1                 0.0000
     11 ****         0.7925   2.4370  -1.0758 O.2            1 S1                 0.0000
     12 ****         1.1739   2.6936   1.4353 O.2            1 S1                 0.0000
     13 ****         3.0616   1.4029  -0.0130 C.3            1 S1                 0.0000
     14 ****         3.2849   0.8747  -1.4031 C.2            1 S1                 0.0000
     15 ****         2.8107  -0.3381  -1.9763 C.2            1 S1                 0.0000
     16 ****         3.3054  -0.3050  -3.2480 C.2            1 S1                 0.0000
     17 ****         4.0296   0.8248  -3.4465 O.3            1 S1                 0.0000
     18 ****         4.0122   1.5707  -2.2625 N.2            1 S1                 0.0000
     19 ****         0.0742   0.1012   4.7034 H              1 S1                 0.0000
     20 ****         0.8120  -0.1890   3.1266 H              1 S1                 0.0000
     21 ****        -0.2704  -1.3988   3.8344 H              1 S1                 0.0000
     22 ****        -1.1577  -1.4335   1.5173 H              1 S1                 0.0000
     23 ****        -3.5867  -1.2788   1.8152 H              1 S1                 0.0000
     24 ****        -3.6366   0.2454   0.9645 H              1 S1                 0.0000
     25 ****        -2.8500  -2.4545  -0.2307 H              1 S1                 0.0000
     26 ****        -4.3300  -1.5793  -0.5434 H              1 S1                 0.0000
     27 ****        -2.6751  -1.2518  -2.3874 H              1 S1                 0.0000
     28 ****        -3.0748   0.2643  -1.6151 H              1 S1                 0.0000
     29 ****        -0.5779  -1.4188  -1.1065 H              1 S1                 0.0000
     30 ****        -0.6331   0.1136  -1.9424 H              1 S1                 0.0000
     31 ****        -1.3392   1.2743   0.1219 H              1 S1                 0.0000
     32 ****         0.7353   0.0469   1.4218 H              1 S1                 0.0000
     33 ****         3.6809   2.2811   0.1722 H              1 S1                 0.0000
     34 ****         3.3103   0.6610   0.7452 H              1 S1                 0.0000
     35 ****         2.1990  -1.1064  -1.5275 H              1 S1                 0.0000
     36 ****         3.2348  -0.9777  -4.0901 H              1 S1                 0.0000
     37 ****         0.9226  -0.1833  -0.2225 LP             1 S1                 0.0000
     38 ****         3.6258   1.3593  -4.1890 LP             1 S1                 0.0000
     39 ****         4.9716   0.5858  -3.6819 LP             1 S1                 0.0000
     40 ****         4.4584   2.4506  -2.0990 LP             1 S1                 0.0000
@<TRIPOS>BOND
    1    1    2 1     
    2    1   19 1     
    3    1   20 1     
    4    1   21 1     
    5    2    3 1     
    6    3    8 1     
    7    3    4 1     
    8    3   22 1     
    9    4    5 1     
   10    4   23 1     
   11    4   24 1     
   12    5    6 1     
   13    5   25 1     
   14    5   26 1     
   15    6    7 1     
   16    6   27 1     
   17    6   28 1     
   18    7    8 1     
   19    7   29 1     
   20    7   30 1     
   21    8    9 1     
   22    8   31 1     
   23    9   10 1     
   24    9   32 1     
   25   10   11 2     
   26   10   12 2     
   27   10   13 1     
   28   13   14 1     
   29   13   33 1     
   30   13   34 1     
   31   14   18 2     
   32   14   15 1     
   33   15   16 2     
   34   15   35 1     
   35   16   17 1     
   36   16   36 1     
   37   17   18 1     
   38    9   37 1     
   39   17   38 1     
   40   17   39 1     
   41   18   40 1     
@<TRIPOS>SUBSTRUCTURE
      1 S1             1
@<TRIPOS>SET
LONE_PAIRS      STATIC     ATOMS    <user>   **** ""
6 37 11 12 38 39 40
DONOR_HYDROGENS      STATIC     ATOMS    <user>   **** ""
1 32
ATOM$BLUE        STATIC     ATOMS    COLORGROUP SYSTEM
6 37 11 12 38 39 40
ATOM$RED        STATIC     ATOMS    COLORGROUP SYSTEM
1 32
