#       Name:                AV-unprocessed.smi:2451
#       Creating user name   scv26
#       Creation time:       Fri Mar 27 13:32:19 2020


#       File generated by GOLD software.
#

@<TRIPOS>MOLECULE
AV-unprocessed.smi:2451
    41    42     1
SMALL
NO_CHARGES


@<TRIPOS>ATOM
      1 ****        -1.8147  -3.0691   1.9307 C.3            1 S1                 0.0000
      2 ****        -1.3181  -2.2739   0.7091 C.3            1 S1                 0.0000
      3 ****        -1.7815  -2.9906  -0.5844 C.3            1 S1                 0.0000
      4 ****        -1.3173  -2.2152  -1.8322 C.3            1 S1                 0.0000
      5 ****        -1.7598  -0.7317  -1.8090 C.3            1 S1                 0.0000
      6 ****        -1.3263   0.0302  -0.5338 C.3            1 S1                 0.0000
      7 ****         0.1190   0.2291  -0.5517 N.pl3          1 S1                -1.0000
      8 ****         0.7236   1.7326  -0.5750 S.o2           1 S1                 0.0000
      9 ****         0.4449   2.4348  -1.8385 O.2            1 S1                 0.0000
     10 ****         0.4563   2.4702   0.6709 O.2            1 S1                 0.0000
     11 ****         2.5305   1.3678  -0.5767 C.3            1 S1                 0.0000
     12 ****         3.3171   2.6481  -0.5626 C.2            1 S1                 0.0000
     13 ****         3.6141   3.4905   0.5447 C.2            1 S1                 0.0000
     14 ****         4.3532   4.4958  -0.0083 C.2            1 S1                 0.0000
     15 ****         4.5104   4.2928  -1.3406 O.3            1 S1                 0.0000
     16 ****         3.8489   3.1084  -1.6846 N.2            1 S1                 0.0000
     17 ****        -1.7648  -0.7702   0.7368 C.3            1 S1                 0.0000
     18 ****        -1.3909  -0.0440   2.0539 C.3            1 S1                 0.0000
     19 ****        -2.8985  -3.0057   2.0314 H              1 S1                 0.0000
     20 ****        -1.3668  -2.7097   2.8567 H              1 S1                 0.0000
     21 ****        -1.5512  -4.1236   1.8444 H              1 S1                 0.0000
     22 ****        -0.2270  -2.3158   0.7361 H              1 S1                 0.0000
     23 ****        -1.3922  -4.0087  -0.6175 H              1 S1                 0.0000
     24 ****        -2.8694  -3.0714  -0.5923 H              1 S1                 0.0000
     25 ****        -0.2314  -2.2854  -1.9201 H              1 S1                 0.0000
     26 ****        -1.7161  -2.6967  -2.7253 H              1 S1                 0.0000
     27 ****        -1.3876  -0.2196  -2.6974 H              1 S1                 0.0000
     28 ****        -2.8474  -0.6960  -1.8817 H              1 S1                 0.0000
     29 ****        -1.8540   0.9850  -0.5268 H              1 S1                 0.0000
     30 ****         2.7561   0.7647   0.3024 H              1 S1                 0.0000
     31 ****         2.7569   0.7678  -1.4583 H              1 S1                 0.0000
     32 ****         3.3234   3.3763   1.5783 H              1 S1                 0.0000
     33 ****         4.8186   5.3830   0.3950 H              1 S1                 0.0000
     34 ****        -2.8556  -0.7807   0.7118 H              1 S1                 0.0000
     35 ****        -0.3174  -0.0764   2.2479 H              1 S1                 0.0000
     36 ****        -1.8875  -0.4977   2.9106 H              1 S1                 0.0000
     37 ****        -1.6968   1.0044   2.0545 H              1 S1                 0.0000
     38 ****         0.7342  -0.5593  -0.5496 LP             1 S1                 0.0000
     39 ****         5.4831   4.2125  -1.5581 LP             1 S1                 0.0000
     40 ****         4.1175   5.0595  -1.8483 LP             1 S1                 0.0000
     41 ****         3.7898   2.6941  -2.5928 LP             1 S1                 0.0000
@<TRIPOS>BOND
    1    1    2 1     
    2    1   19 1     
    3    1   20 1     
    4    1   21 1     
    5    2   17 1     
    6    2    3 1     
    7    2   22 1     
    8    3    4 1     
    9    3   23 1     
   10    3   24 1     
   11    4    5 1     
   12    4   25 1     
   13    4   26 1     
   14    5    6 1     
   15    5   27 1     
   16    5   28 1     
   17    6    7 1     
   18    6   17 1     
   19    6   29 1     
   20    7    8 1     
   21    8    9 2     
   22    8   10 2     
   23    8   11 1     
   24   11   12 1     
   25   11   30 1     
   26   11   31 1     
   27   12   16 2     
   28   12   13 1     
   29   13   14 2     
   30   13   32 1     
   31   14   15 1     
   32   14   33 1     
   33   15   16 1     
   34   17   18 1     
   35   17   34 1     
   36   18   35 1     
   37   18   36 1     
   38   18   37 1     
   39    7   38 1     
   40   15   39 1     
   41   15   40 1     
   42   16   41 1     
@<TRIPOS>SUBSTRUCTURE
      1 S1             1
@<TRIPOS>SET
LONE_PAIRS      STATIC     ATOMS    <user>   **** ""
6 38 9 10 39 40 41
ATOM$BLUE        STATIC     ATOMS    COLORGROUP SYSTEM
6 38 9 10 39 40 41
