AV-unprocessed.smi:2225|AV-procd|sdf|9000|dock5
  -GOLD-   2272012213D 1   1.00000     0.00000
 Structure written by MMmdl.
 33 34  0  0  0  0  0  0  0  0  1 V2000
  149.3597  140.2164  156.5992 O   0  0  0  0  0  0  0  0  0  0  0  0
  149.5379  141.4052  156.3374 C   0  0  0  0  0  0  0  0  0  0  0  0
  150.9754  141.9526  156.2983 C   0  0  0  0  0  0  0  0  0  0  0  0
  151.5360  142.3278  157.6098 N   0  0  0  0  0  0  0  0  0  0  0  0
  151.1507  143.5768  158.1285 C   0  0  0  0  0  0  0  0  0  0  0  0
  151.5979  144.0182  159.3116 C   0  0  0  0  0  0  0  0  0  0  0  0
  152.5013  143.1756  160.0565 C   0  0  0  0  0  0  0  0  0  0  0  0
  152.8867  141.9670  159.5856 C   0  0  0  0  0  0  0  0  0  0  0  0
  153.8392  141.0616  160.3633 C   0  0  0  0  0  0  0  0  0  0  0  0
  155.0635  141.1031  159.8359 F   0  0  0  0  0  0  0  0  0  0  0  0
  153.9199  141.4520  161.6357 F   0  0  0  0  0  0  0  0  0  0  0  0
  153.4344  139.7906  160.3510 F   0  0  0  0  0  0  0  0  0  0  0  0
  152.3790  141.4857  158.2845 C   0  0  0  0  0  0  0  0  0  0  0  0
  152.6872  140.3862  157.8220 O   0  0  0  0  0  0  0  0  0  0  0  0
  148.5257  142.2493  156.0760 N   0  0  0  0  0  0  0  0  0  0  0  0
  147.1127  141.8872  156.0593 C   0  0  1  0  0  0  0  0  0  0  0  0
  146.2978  142.7544  157.0164 C   0  0  0  0  0  0  0  0  0  0  0  0
  145.3330  143.5104  156.1055 C   0  0  0  0  0  0  0  0  0  0  0  0
  145.1777  142.6424  154.9964 O   0  0  0  0  0  0  0  0  0  0  0  0
  146.4699  142.1454  154.6892 C   0  0  0  0  0  0  0  0  0  0  0  0
  151.6124  141.2152  155.8069 H   0  0  0  0  0  0  0  0  0  0  0  0
  150.9859  142.8152  155.6302 H   0  0  0  0  0  0  0  0  0  0  0  0
  150.4680  144.1424  157.5107 H   0  0  0  0  0  0  0  0  0  0  0  0
  151.2887  144.9781  159.6982 H   0  0  0  0  0  0  0  0  0  0  0  0
  152.8685  143.5327  161.0071 H   0  0  0  0  0  0  0  0  0  0  0  0
  148.7517  143.2109  155.8673 H   0  0  0  0  0  0  0  0  0  0  0  0
  146.9903  140.8397  156.3411 H   0  0  0  0  0  0  0  0  0  0  0  0
  145.7372  142.1160  157.7001 H   0  0  0  0  0  0  0  0  0  0  0  0
  146.9024  143.4324  157.6207 H   0  0  0  0  0  0  0  0  0  0  0  0
  144.3789  143.7260  156.5869 H   0  0  0  0  0  0  0  0  0  0  0  0
  145.7714  144.4526  155.7722 H   0  0  0  0  0  0  0  0  0  0  0  0
  147.0142  142.9070  154.1277 H   0  0  0  0  0  0  0  0  0  0  0  0
  146.4171  141.2460  154.0754 H   0  0  0  0  0  0  0  0  0  0  0  0
  1  2  2  0  0  0  0
  2  3  1  0  0  0  0
  2 15  1  0  0  0  0
  3  4  1  0  0  0  0
  3 21  1  0  0  0  0
  3 22  1  0  0  0  0
  4 13  1  0  0  0  0
  4  5  1  0  0  0  0
  5  6  2  0  0  0  0
  5 23  1  0  0  0  0
  6  7  1  0  0  0  0
  6 24  1  0  0  0  0
  7  8  2  0  0  0  0
  7 25  1  0  0  0  0
  8  9  1  0  0  0  0
  8 13  1  0  0  0  0
  9 10  1  0  0  0  0
  9 11  1  0  0  0  0
  9 12  1  0  0  0  0
 13 14  2  0  0  0  0
 15 16  1  0  0  0  0
 15 26  1  0  0  0  0
 16 20  1  0  0  0  0
 16 17  1  0  0  0  0
 16 27  1  0  0  0  0
 17 18  1  0  0  0  0
 17 28  1  0  0  0  0
 17 29  1  0  0  0  0
 18 19  1  0  0  0  0
 18 30  1  0  0  0  0
 18 31  1  0  0  0  0
 19 20  1  0  0  0  0
 20 32  1  0  0  0  0
 20 33  1  0  0  0  0
M  END
> <s_m_source_file>
AV-unprocessed.smi

> <i_m_source_file_index>
2225

> <i_lp_mmshare_version>
43012

> <i_f3d_flags>
0

> <s_epik_input>
W0NIMl0xT1tDSDJdW0NIMl1bQ0BIXTFbTkhdQyg9TylbQ0gyXW4yW2NIXVtjSF1bY0hdYyhDKEYpKEYpRiljMj1P

> <s_epik_cmdline>
J2VwaWtfcHl0aG9uJywgJy1waCcsICc3LjAnLCAnLXRuJywgJzgnLCAnLW1hJywgJzIwMCcsICctbWV0YWxfYmluZGluZycsICctaW1hZScsICc8aW5maWxlLm1hZT4nLCAnLW9tYWUnLCAnPG91dGZpbGUubWFlPic=

> <r_lp_tautomer_probability>
1

> <r_epik_Ionization_Penalty>
3.32109e-08

> <r_epik_Ionization_Penalty_Charging>
1.91399e-09

> <r_epik_Ionization_Penalty_Neutral>
3.1297e-08

> <r_epik_State_Penalty>
-0

> <r_epik_Charging_Adjusted_Penalty>
1.91399e-09

> <i_epik_Tot_Q>
0

> <i_epik_Tot_abs_Q>
0

> <r_epik_Metal_State_Penalty>
-0

> <b_epik_Metal_Only>
0

> <s_lp_Force_Field>
OPLS_2005

> <r_lp_Energy>
24.9921

> <b_lp_Chiralities_Consistent>
1

> <s_lp_Variant>
AV-unprocessed.smi:2225-2

> <Gold.Version>
5.8.1

> <Gold.Id.Protein>
6NUR|6NUR_protein|mol2

> <Gold.PLP.Fitness>
45.1888

> <Gold.PLP.PLP>
-39.2106

> <Gold.PLP.part.hbond>
-2.0000

> <Gold.PLP.part.metal>
0.0000

> <Gold.PLP.part.buried>
-5.0618

> <Gold.PLP.part.nonpolar>
-31.1331

> <Gold.PLP.part.repulsive>
0.2622

> <Gold.PLP.ligand.clash>
0.5613

> <Gold.PLP.ligand.torsion>
1.2795

> <Gold.PLP.Chemscore.Hbond>
1.9120

> <Gold.PLP.Chemscore.CHOScore>
1.0000

> <Gold.PLP.Chemscore.Metal>
0.0000

> <Gold.Chemscore.Hbonds>
donor molecule, donor type, donor heavy atom, donor atom, acceptor molecule, acceptor atom, score
      L1  H    15    26       P1  8028  0.98
      P1  H  7997  8008       L1    14  0.86
      L1  C     5    23       P1  8028  1.00

> <Gold.PLP.Chemscore.Internal.Correction>
0.3625

> <Gold.Rescore>
     Score         DG    S(hbond)    S(metal)    S(lipo)     H(rot)  DE(clash)    DE(int)     intcor
     14.09     -16.44       1.89        0.00      75.57       1.64       0.07       2.29       ----

> <Gold.Chemscore.Fitness>
14.0855

> <Gold.Chemscore.DG>
-16.4388

> <Gold.Chemscore.ZeroCoef>
-5.4800

> <Gold.Chemscore.Hbond>
1.8901

> <Gold.Chemscore.Metal>
0.0000

> <Gold.Chemscore.Lipo>
75.5690

> <Gold.Chemscore.Internal_Hbond>
0.0000

> <Gold.Chemscore.DEClash>
0.0659

> <Gold.Chemscore.DEInternal>
2.2874

> <Gold.Chemscore.Rot>
1.6389

> <Gold.Chemscore.Internal.Correction>
   9.000000E+99

> <Gold.Chemscore.Hbonds>
donor molecule, donor type, donor heavy atom, donor atom, acceptor molecule, acceptor atom, score
      L1  H    15    26       P1  8028  0.92
      P1  H  7997  8008       L1    14  0.79

> <Gold.Chemscore.Hbond.Weighted>
-6.3128

> <Gold.Chemscore.Metal.Weighted>
-0.0000

> <Gold.Chemscore.Lipo.Weighted>
-8.8416

> <Gold.Chemscore.Internal_Hbond.Weighted>
0.0000

> <Gold.Chemscore.DEClash.Weighted>
0.0659

> <Gold.Chemscore.DEInternal.Weighted>
2.2874

> <Gold.Chemscore.Rot.Weighted>
4.1956

> <Gold.Chemscore.Internal.Correction.Weighted>
   9.000000E+99

> <Gold.Protein.RotatedTorsions>
[ 6907 6896 6895 6894 ] final  -96.14 input  -60.11 | X-H torsion
[ 7974 7965 7964 7962 ] final   31.96 input  175.53 | X-H torsion
[ 8008 7997 7996 7995 ] final  -74.10 input   59.86 | X-H torsion
[ 10167 10162 10161 10158 ] final  -62.56 input  -65.29 | X-H torsion
[ 10718 10713 10712 10709 ] final -110.14 input   66.30 | X-H torsion
[ 10763 10752 10751 10750 ] final   -3.30 input  -60.55 | X-H torsion
[ 11005 11000 10999 10996 ] final   27.22 input  -57.11 | X-H torsion

> <Gold.Protein.ActiveResidues>
 VAL166  LYS551  ARG553  GLY616  TRP617  ASP618  TYR619  PRO620  LYS621  CYS622 
 ASP623  PHE694  ASN695  SER759  ASP760  ASP761  ALA762  ILE779  LEU786  VAL792 
 PHE793  MET794  SER795  GLU796  ALA797  LYS798  CYS799  TRP800  GLU811  SER814 

> <Gold.Protein.RotatedAtoms>
  150.6981  134.1549  159.4154 H   0  0  0  0  0  0  0  0  0  0  0  0  # atno 6907 bound_to 6896
  151.9531  135.0157  160.0552 H   0  0  0  0  0  0  0  0  0  0  0  0  # atno 6908 bound_to 6896
  152.1993  133.4794  159.5087 H   0  0  0  0  0  0  0  0  0  0  0  0  # atno 6909 bound_to 6896
  146.1517  139.6589  142.9094 H   0  0  0  0  0  0  0  0  0  0  0  0  # atno 7974 bound_to 7965
  154.5302  140.0767  156.8332 H   0  0  0  0  0  0  0  0  0  0  0  0  # atno 8008 bound_to 7997
  155.3390  140.3406  155.4221 H   0  0  0  0  0  0  0  0  0  0  0  0  # atno 8009 bound_to 7997
  156.1774  140.1640  156.8325 H   0  0  0  0  0  0  0  0  0  0  0  0  # atno 8010 bound_to 7997
  140.5931  143.2345  151.6096 H   0  0  0  0  0  0  0  0  0  0  0  0  # atno 10167 bound_to 10162
  156.0575  130.5800  150.8196 H   0  0  0  0  0  0  0  0  0  0  0  0  # atno 10718 bound_to 10713
  153.3695  135.6994  153.6649 H   0  0  0  0  0  0  0  0  0  0  0  0  # atno 10763 bound_to 10752
  153.5305  135.3593  155.2674 H   0  0  0  0  0  0  0  0  0  0  0  0  # atno 10764 bound_to 10752
  154.8679  135.4179  154.2970 H   0  0  0  0  0  0  0  0  0  0  0  0  # atno 10765 bound_to 10752
  140.3286  134.2463  155.7706 H   0  0  0  0  0  0  0  0  0  0  0  0  # atno 11005 bound_to 11000
  145.4807  141.0438  143.2647 LP  0  0  0  0  0  0  0  0  0  0  0  0  # atno 17320 bound_to 7965
  144.7912  139.6324  143.7112 LP  0  0  0  0  0  0  0  0  0  0  0  0  # atno 17321 bound_to 7965
  139.5240  144.3116  152.0988 LP  0  0  0  0  0  0  0  0  0  0  0  0  # atno 17342 bound_to 10162
  140.2284  144.4394  150.6311 LP  0  0  0  0  0  0  0  0  0  0  0  0  # atno 17343 bound_to 10162
  157.5556  131.0945  150.9633 LP  0  0  0  0  0  0  0  0  0  0  0  0  # atno 17370 bound_to 10713
  156.9882  130.5553  149.5301 LP  0  0  0  0  0  0  0  0  0  0  0  0  # atno 17371 bound_to 10713
  141.2069  133.7820  157.0150 LP  0  0  0  0  0  0  0  0  0  0  0  0  # atno 17394 bound_to 11000
  140.0880  134.9609  157.1731 LP  0  0  0  0  0  0  0  0  0  0  0  0  # atno 17395 bound_to 11000

$$$$
