#       Name:                AV-unprocessed.smi:3087
#       Creating user name   scv26
#       Creation time:       Fri Mar 27 17:14:58 2020


#       File generated by GOLD software.
#

@<TRIPOS>MOLECULE
AV-unprocessed.smi:3087
    32    33     1
SMALL
NO_CHARGES


@<TRIPOS>ATOM
      1 ****        -3.9697   1.3912   0.0764 C.3            1 S1                 0.0000
      2 ****        -2.4741   1.4703   0.1606 C.2            1 S1                 0.0000
      3 ****        -1.6569   2.6268   0.2906 C.2            1 S1                 0.0000
      4 ****        -0.3810   2.1380   0.3112 C.2            1 S1                 0.0000
      5 ****         0.9206   2.8645   0.4064 C.3            1 S1                 0.0000
      6 ****        -0.4735   0.7591   0.2214 N.pl3          1 S1                 0.0000
      7 ****         0.5997  -0.2278   0.1565 C.3            1 S1                 0.0000
      8 ****         0.8913  -0.6255  -1.3030 C.3            1 S1                 0.0000
      9 ****         2.0201  -1.6663  -1.3590 C.3            1 S1                 0.0000
     10 ****         1.6951  -2.8794  -0.4711 C.3            1 S1                 0.0000
     11 ****         1.4168  -2.4529   0.9178 N.4            1 S1                 1.0000
     12 ****         0.3038  -1.4829   1.0095 C.3            1 S1                 0.0000
     13 ****        -1.7603   0.3588   0.1079 N.2            1 S1                 0.0000
     14 ****        -4.4170   2.3853   0.0652 H              1 S1                 0.0000
     15 ****        -4.3819   0.8509   0.9289 H              1 S1                 0.0000
     16 ****        -4.2863   0.8755  -0.8307 H              1 S1                 0.0000
     17 ****        -1.9612   3.6615   0.3495 H              1 S1                 0.0000
     18 ****         0.7720   3.9413   0.3234 H              1 S1                 0.0000
     19 ****         1.5977   2.5594  -0.3919 H              1 S1                 0.0000
     20 ****         1.4069   2.6660   1.3616 H              1 S1                 0.0000
     21 ****         1.4966   0.2375   0.5670 H              1 S1                 0.0000
     22 ****        -0.0073  -1.0364  -1.7653 H              1 S1                 0.0000
     23 ****         1.1673   0.2535  -1.8866 H              1 S1                 0.0000
     24 ****         2.1794  -1.9881  -2.3887 H              1 S1                 0.0000
     25 ****         2.9550  -1.2107  -1.0295 H              1 S1                 0.0000
     26 ****         0.8290  -3.4148  -0.8626 H              1 S1                 0.0000
     27 ****         2.5295  -3.5809  -0.4684 H              1 S1                 0.0000
     28 ****         1.1885  -3.2662   1.4717 H              1 S1                 0.0000
     29 ****         0.1604  -1.2071   2.0547 H              1 S1                 0.0000
     30 ****        -0.6113  -1.9778   0.6809 H              1 S1                 0.0000
     31 ****         2.2495  -2.0242   1.2959 H              1 S1                 0.0000
     32 ****        -2.0989  -0.5765   0.0060 LP             1 S1                 0.0000
@<TRIPOS>BOND
    1    1    2 1     
    2    1   14 1     
    3    1   15 1     
    4    1   16 1     
    5    2   13 2     
    6    2    3 1     
    7    3    4 2     
    8    3   17 1     
    9    4    5 1     
   10    4    6 1     
   11    5   18 1     
   12    5   19 1     
   13    5   20 1     
   14    6    7 1     
   15    6   13 1     
   16    7   12 1     
   17    7    8 1     
   18    7   21 1     
   19    8    9 1     
   20    8   22 1     
   21    8   23 1     
   22    9   10 1     
   23    9   24 1     
   24    9   25 1     
   25   10   11 1     
   26   10   26 1     
   27   10   27 1     
   28   11   12 1     
   29   11   28 1     
   30   11   31 1     
   31   12   29 1     
   32   12   30 1     
   33   13   32 1     
@<TRIPOS>SUBSTRUCTURE
      1 S1             1
@<TRIPOS>SET
LONE_PAIRS      STATIC     ATOMS    <user>   **** ""
1 32
DONOR_HYDROGENS      STATIC     ATOMS    <user>   **** ""
2 28 31
ATOM$BLUE        STATIC     ATOMS    COLORGROUP SYSTEM
1 32
ATOM$RED        STATIC     ATOMS    COLORGROUP SYSTEM
2 28 31
