AV-unprocessed.smi:952|AV-procd|sdf|4256|dock2
  -GOLD-   22720 2163D 1   1.00000     0.00000
 Structure written by MMmdl.
 35 35  0  0  0  0  0  0  0  0  1 V2000
  147.0471  140.6020  153.1274 C   0  0  0  0  0  0  0  0  0  0  0  0
  148.1688  140.1186  154.0524 C   0  0  0  0  0  0  0  0  0  0  0  0
  148.5609  141.1730  155.1003 C   0  0  0  0  0  0  0  0  0  0  0  0
  149.3821  140.5971  156.1586 N   0  0  0  0  0  0  0  0  0  0  0  0
  150.5724  140.0058  155.9753 C   0  0  0  0  0  0  0  0  0  0  0  0
  151.0960  139.8710  154.8682 O   0  0  0  0  0  0  0  0  0  0  0  0
  151.2590  139.4707  157.2381 C   0  0  0  0  0  0  0  0  0  0  0  0
  151.4518  140.4957  158.2606 N   0  0  0  0  0  0  0  0  0  0  0  0
  152.6054  140.7434  158.9022 C   0  0  0  0  0  0  0  0  0  0  0  0
  153.6456  140.1224  158.6786 O   0  0  0  0  0  0  0  0  0  0  0  0
  152.5699  141.8661  159.9507 C   0  0  1  0  0  0  0  0  0  0  0  0
  153.9250  142.0705  160.6528 C   0  0  0  0  0  0  0  0  0  0  0  0
  152.1007  143.1076  159.3493 N   0  0  0  0  0  0  0  0  0  0  0  0
  152.0203  144.3677  159.9106 C   0  0  0  0  0  0  0  0  0  0  0  0
  151.5151  145.2078  158.9604 C   0  0  0  0  0  0  0  0  0  0  0  0
  151.3105  144.3609  157.8360 C   0  0  0  0  0  0  0  0  0  0  0  0
  151.6594  143.1065  158.0718 N   0  0  0  0  0  0  0  0  0  0  0  0
  146.7963  139.8389  152.3902 H   0  0  0  0  0  0  0  0  0  0  0  0
  147.3414  141.5027  152.5878 H   0  0  0  0  0  0  0  0  0  0  0  0
  146.1424  140.8289  153.6923 H   0  0  0  0  0  0  0  0  0  0  0  0
  147.8490  139.2021  154.5494 H   0  0  0  0  0  0  0  0  0  0  0  0
  149.0411  139.8558  153.4526 H   0  0  0  0  0  0  0  0  0  0  0  0
  149.1323  141.9720  154.6267 H   0  0  0  0  0  0  0  0  0  0  0  0
  147.6709  141.6392  155.5268 H   0  0  0  0  0  0  0  0  0  0  0  0
  149.0234  140.6604  157.1005 H   0  0  0  0  0  0  0  0  0  0  0  0
  150.6904  138.6348  157.6501 H   0  0  0  0  0  0  0  0  0  0  0  0
  152.2366  139.0770  156.9596 H   0  0  0  0  0  0  0  0  0  0  0  0
  150.6452  141.0509  158.5069 H   0  0  0  0  0  0  0  0  0  0  0  0
  151.8510  141.5668  160.7164 H   0  0  0  0  0  0  0  0  0  0  0  0
  154.2754  141.1456  161.1125 H   0  0  0  0  0  0  0  0  0  0  0  0
  153.8426  142.8166  161.4435 H   0  0  0  0  0  0  0  0  0  0  0  0
  154.6946  142.4104  159.9586 H   0  0  0  0  0  0  0  0  0  0  0  0
  152.3274  144.5588  160.9284 H   0  0  0  0  0  0  0  0  0  0  0  0
  151.3202  146.2657  159.0547 H   0  0  0  0  0  0  0  0  0  0  0  0
  150.9208  144.6184  156.8621 H   0  0  0  0  0  0  0  0  0  0  0  0
  1  2  1  0  0  0  0
  1 18  1  0  0  0  0
  1 19  1  0  0  0  0
  1 20  1  0  0  0  0
  2  3  1  0  0  0  0
  2 21  1  0  0  0  0
  2 22  1  0  0  0  0
  3  4  1  0  0  0  0
  3 23  1  0  0  0  0
  3 24  1  0  0  0  0
  4  5  1  0  0  0  0
  4 25  1  0  0  0  0
  5  6  2  0  0  0  0
  5  7  1  0  0  0  0
  7  8  1  0  0  0  0
  7 26  1  0  0  0  0
  7 27  1  0  0  0  0
  8  9  1  0  0  0  0
  8 28  1  0  0  0  0
  9 10  2  0  0  0  0
  9 11  1  0  0  0  0
 11 12  1  0  0  0  0
 11 13  1  0  0  0  0
 11 29  1  0  0  0  0
 12 30  1  0  0  0  0
 12 31  1  0  0  0  0
 12 32  1  0  0  0  0
 13 17  1  0  0  0  0
 13 14  1  0  0  0  0
 14 15  2  0  0  0  0
 14 33  1  0  0  0  0
 15 16  1  0  0  0  0
 15 34  1  0  0  0  0
 16 17  2  0  0  0  0
 16 35  1  0  0  0  0
M  END
> <s_m_source_file>
AV-unprocessed.smi

> <i_m_source_file_index>
952

> <i_lp_mmshare_version>
43012

> <i_f3d_flags>
0

> <s_epik_input>
W0NIM11bQ0gyXVtDSDJdW05IXUMoPU8pW0NIMl1bTkhdQyg9TylbQ0BIXShbQ0gzXSluMVtjSF1bY0hdW2NIXW4x

> <s_epik_cmdline>
J2VwaWtfcHl0aG9uJywgJy1waCcsICc3LjAnLCAnLXRuJywgJzgnLCAnLW1hJywgJzIwMCcsICctbWV0YWxfYmluZGluZycsICctaW1hZScsICc8aW5maWxlLm1hZT4nLCAnLW9tYWUnLCAnPG91dGZpbGUubWFlPic=

> <r_lp_tautomer_probability>
1

> <r_epik_Ionization_Penalty>
2.62173e-05

> <r_epik_Ionization_Penalty_Charging>
0

> <r_epik_Ionization_Penalty_Neutral>
2.62173e-05

> <r_epik_State_Penalty>
-0

> <r_epik_Charging_Adjusted_Penalty>
0

> <i_epik_Tot_Q>
0

> <i_epik_Tot_abs_Q>
0

> <r_epik_Metal_State_Penalty>
-0

> <b_epik_Metal_Only>
0

> <s_lp_Force_Field>
OPLS_2005

> <r_lp_Energy>
2.421

> <b_lp_Chiralities_Consistent>
1

> <s_lp_Variant>
AV-unprocessed.smi:952-2

> <Gold.Version>
5.8.1

> <Gold.Id.Protein>
6NUR|6NUR_protein|mol2

> <Gold.PLP.Fitness>
46.7651

> <Gold.PLP.PLP>
-38.2775

> <Gold.PLP.part.hbond>
-2.0000

> <Gold.PLP.part.metal>
0.0000

> <Gold.PLP.part.buried>
-4.6960

> <Gold.PLP.part.nonpolar>
-31.6664

> <Gold.PLP.part.repulsive>
0.2642

> <Gold.PLP.ligand.clash>
0.0000

> <Gold.PLP.ligand.torsion>
0.2849

> <Gold.PLP.Chemscore.Hbond>
2.0000

> <Gold.PLP.Chemscore.CHOScore>
0.9829

> <Gold.PLP.Chemscore.Metal>
0.0000

> <Gold.Chemscore.Hbonds>
donor molecule, donor type, donor heavy atom, donor atom, acceptor molecule, acceptor atom, score
      P1  H  7989  7998       L1     6  1.00
      P1  H  7997  8008       L1    10  0.99
      L1  C    16    35       P1  8028  1.00

> <Gold.PLP.Chemscore.Internal.Correction>
0.1088

> <Gold.Rescore>
     Score         DG    S(hbond)    S(metal)    S(lipo)     H(rot)  DE(clash)    DE(int)     intcor
     14.59     -16.39       1.97        0.00      85.85       2.24       0.12       1.68       ----

> <Gold.Chemscore.Fitness>
14.5900

> <Gold.Chemscore.DG>
-16.3854

> <Gold.Chemscore.ZeroCoef>
-5.4800

> <Gold.Chemscore.Hbond>
1.9717

> <Gold.Chemscore.Metal>
0.0000

> <Gold.Chemscore.Lipo>
85.8533

> <Gold.Chemscore.Internal_Hbond>
0.0000

> <Gold.Chemscore.DEClash>
0.1173

> <Gold.Chemscore.DEInternal>
1.6780

> <Gold.Chemscore.Rot>
2.2364

> <Gold.Chemscore.Internal.Correction>
   9.000000E+99

> <Gold.Chemscore.Hbonds>
donor molecule, donor type, donor heavy atom, donor atom, acceptor molecule, acceptor atom, score
      P1  H  7989  7998       L1     6  1.00
      P1  H  7997  8008       L1    10  0.93

> <Gold.Chemscore.Hbond.Weighted>
-6.5856

> <Gold.Chemscore.Metal.Weighted>
-0.0000

> <Gold.Chemscore.Lipo.Weighted>
-10.0448

> <Gold.Chemscore.Internal_Hbond.Weighted>
0.0000

> <Gold.Chemscore.DEClash.Weighted>
0.1173

> <Gold.Chemscore.DEInternal.Weighted>
1.6780

> <Gold.Chemscore.Rot.Weighted>
5.7251

> <Gold.Chemscore.Internal.Correction.Weighted>
   9.000000E+99

> <Gold.Protein.RotatedTorsions>
[ 6907 6896 6895 6894 ] final  -45.30 input  -60.11 | X-H torsion
[ 7974 7965 7964 7962 ] final  -38.11 input  175.53 | X-H torsion
[ 8008 7997 7996 7995 ] final  -99.22 input   59.86 | X-H torsion
[ 10167 10162 10161 10158 ] final -101.45 input  -65.29 | X-H torsion
[ 10718 10713 10712 10709 ] final   83.28 input   66.30 | X-H torsion
[ 10763 10752 10751 10750 ] final   66.75 input  -60.55 | X-H torsion
[ 11005 11000 10999 10996 ] final  138.71 input  -57.11 | X-H torsion

> <Gold.Protein.ActiveResidues>
 VAL166  LYS551  ARG553  GLY616  TRP617  ASP618  TYR619  PRO620  LYS621  CYS622 
 ASP623  PHE694  ASN695  SER759  ASP760  ASP761  ALA762  ILE779  LEU786  VAL792 
 PHE793  MET794  SER795  GLU796  ALA797  LYS798  CYS799  TRP800  GLU811  SER814 

> <Gold.Protein.RotatedAtoms>
  150.9234  134.8652  159.7503 H   0  0  0  0  0  0  0  0  0  0  0  0  # atno 6907 bound_to 6896
  152.5004  134.4184  159.9482 H   0  0  0  0  0  0  0  0  0  0  0  0  # atno 6908 bound_to 6896
  151.4216  133.3657  159.2792 H   0  0  0  0  0  0  0  0  0  0  0  0  # atno 6909 bound_to 6896
  146.0516  140.6474  142.9039 H   0  0  0  0  0  0  0  0  0  0  0  0  # atno 7974 bound_to 7965
  154.8119  140.0449  157.1349 H   0  0  0  0  0  0  0  0  0  0  0  0  # atno 8008 bound_to 7997
  154.9358  140.3046  155.5125 H   0  0  0  0  0  0  0  0  0  0  0  0  # atno 8009 bound_to 7997
  156.2972  140.2314  156.4423 H   0  0  0  0  0  0  0  0  0  0  0  0  # atno 8010 bound_to 7997
  140.2412  143.3537  152.0800 H   0  0  0  0  0  0  0  0  0  0  0  0  # atno 10167 bound_to 10162
  157.6875  131.0084  150.2499 H   0  0  0  0  0  0  0  0  0  0  0  0  # atno 10718 bound_to 10713
  153.0154  135.5309  154.6873 H   0  0  0  0  0  0  0  0  0  0  0  0  # atno 10763 bound_to 10752
  154.6017  135.2869  155.0530 H   0  0  0  0  0  0  0  0  0  0  0  0  # atno 10764 bound_to 10752
  154.1585  135.6551  153.5032 H   0  0  0  0  0  0  0  0  0  0  0  0  # atno 10765 bound_to 10752
  140.0203  134.9399  157.0460 H   0  0  0  0  0  0  0  0  0  0  0  0  # atno 11005 bound_to 11000
  144.7125  140.4092  143.7069 LP  0  0  0  0  0  0  0  0  0  0  0  0  # atno 17320 bound_to 7965
  145.6715  139.1600  143.2752 LP  0  0  0  0  0  0  0  0  0  0  0  0  # atno 17321 bound_to 7965
  139.5077  144.6836  151.5945 LP  0  0  0  0  0  0  0  0  0  0  0  0  # atno 17342 bound_to 10162
  140.6112  143.9432  150.6455 LP  0  0  0  0  0  0  0  0  0  0  0  0  # atno 17343 bound_to 10162
  156.3098  130.3770  149.7672 LP  0  0  0  0  0  0  0  0  0  0  0  0  # atno 17370 bound_to 10713
  156.5276  130.8243  151.3226 LP  0  0  0  0  0  0  0  0  0  0  0  0  # atno 17371 bound_to 10713
  140.4399  134.1692  155.7173 LP  0  0  0  0  0  0  0  0  0  0  0  0  # atno 17394 bound_to 11000
  141.1769  133.8494  157.1390 LP  0  0  0  0  0  0  0  0  0  0  0  0  # atno 17395 bound_to 11000

$$$$
