AV-unprocessed.smi:3132|AV-procd|sdf|11934|dock1
  -GOLD-   2272017323D 1   1.00000     0.00000
 Structure written by MMmdl.
 33 34  0  0  0  0  0  0  0  0  1 V2000
  149.4907  140.9244  157.4855 C   0  0  0  0  0  0  0  0  0  0  0  0
  151.0170  140.8627  157.3390 C   0  0  1  0  0  0  0  0  0  0  0  0
  151.4361  140.7948  155.8548 C   0  0  0  0  0  0  0  0  0  0  0  0
  151.3937  139.4456  155.3207 N   0  0  0  0  0  0  0  0  0  0  0  0
  150.2758  138.7586  154.8655 C   0  0  0  0  0  0  0  0  0  0  0  0
  150.7171  137.5239  154.4466 C   0  0  0  0  0  0  0  0  0  0  0  0
  152.0930  137.4274  154.6392 N   0  0  0  0  0  0  0  0  0  0  0  0
  152.4225  138.6018  155.1612 C   0  0  0  0  0  0  0  0  0  0  0  0
  151.6038  142.0321  157.9927 N   0  0  0  0  0  0  0  0  0  0  0  0
  152.4739  142.0055  159.0149 C   0  0  0  0  0  0  0  0  0  0  0  0
  152.8597  140.9637  159.5468 O   0  0  0  0  0  0  0  0  0  0  0  0
  152.9898  143.3677  159.5023 C   0  0  2  0  0  0  0  0  0  0  0  0
  152.3114  143.8502  160.8000 C   0  0  0  0  0  0  0  0  0  0  0  0
  151.6690  145.1735  160.4203 C   0  0  0  0  0  0  0  0  0  0  0  0
  151.5082  145.0541  158.9118 C   0  0  0  0  0  0  0  0  0  0  0  0
  152.6837  144.3588  158.5224 O   0  0  0  0  0  0  0  0  0  0  0  0
  149.0181  140.0510  157.0357 H   0  0  0  0  0  0  0  0  0  0  0  0
  149.0797  141.8112  157.0018 H   0  0  0  0  0  0  0  0  0  0  0  0
  149.1979  140.9509  158.5357 H   0  0  0  0  0  0  0  0  0  0  0  0
  151.3502  139.9516  157.8394 H   0  0  0  0  0  0  0  0  0  0  0  0
  150.7722  141.4131  155.2490 H   0  0  0  0  0  0  0  0  0  0  0  0
  152.4424  141.1946  155.7207 H   0  0  0  0  0  0  0  0  0  0  0  0
  149.2881  139.1953  154.8705 H   0  0  0  0  0  0  0  0  0  0  0  0
  150.1547  136.7040  154.0252 H   0  0  0  0  0  0  0  0  0  0  0  0
  153.4377  138.8573  155.4276 H   0  0  0  0  0  0  0  0  0  0  0  0
  151.3394  142.9351  157.6265 H   0  0  0  0  0  0  0  0  0  0  0  0
  154.0729  143.3335  159.6277 H   0  0  0  0  0  0  0  0  0  0  0  0
  151.5515  143.1508  161.1529 H   0  0  0  0  0  0  0  0  0  0  0  0
  153.0304  143.9778  161.6096 H   0  0  0  0  0  0  0  0  0  0  0  0
  150.7251  145.3551  160.9351 H   0  0  0  0  0  0  0  0  0  0  0  0
  152.3473  145.9951  160.6540 H   0  0  0  0  0  0  0  0  0  0  0  0
  150.6250  144.4666  158.6577 H   0  0  0  0  0  0  0  0  0  0  0  0
  151.4309  146.0224  158.4174 H   0  0  0  0  0  0  0  0  0  0  0  0
  1  2  1  0  0  0  0
  1 17  1  0  0  0  0
  1 18  1  0  0  0  0
  1 19  1  0  0  0  0
  2  3  1  0  0  0  0
  2  9  1  0  0  0  0
  2 20  1  0  0  0  0
  3  4  1  0  0  0  0
  3 21  1  0  0  0  0
  3 22  1  0  0  0  0
  4  8  1  0  0  0  0
  4  5  1  0  0  0  0
  5  6  2  0  0  0  0
  5 23  1  0  0  0  0
  6  7  1  0  0  0  0
  6 24  1  0  0  0  0
  7  8  2  0  0  0  0
  8 25  1  0  0  0  0
  9 10  1  0  0  0  0
  9 26  1  0  0  0  0
 10 11  2  0  0  0  0
 10 12  1  0  0  0  0
 12 16  1  0  0  0  0
 12 13  1  0  0  0  0
 12 27  1  0  0  0  0
 13 14  1  0  0  0  0
 13 28  1  0  0  0  0
 13 29  1  0  0  0  0
 14 15  1  0  0  0  0
 14 30  1  0  0  0  0
 14 31  1  0  0  0  0
 15 16  1  0  0  0  0
 15 32  1  0  0  0  0
 15 33  1  0  0  0  0
M  END
> <s_m_source_file>
AV-unprocessed.smi

> <i_m_source_file_index>
3132

> <i_lp_mmshare_version>
43012

> <i_f3d_flags>
0

> <s_epik_input>
W2NIXTFuW2NIXVtjSF1uMVtDSDJdW0NAQEhdKFtDSDNdKVtOSF1DKD1PKVtDQEBIXTJbQ0gyXVtDSDJdW0NIMl1PMg==

> <s_epik_cmdline>
J2VwaWtfcHl0aG9uJywgJy1waCcsICc3LjAnLCAnLXRuJywgJzgnLCAnLW1hJywgJzIwMCcsICctbWV0YWxfYmluZGluZycsICctaW1hZScsICc8aW5maWxlLm1hZT4nLCAnLW9tYWUnLCAnPG91dGZpbGUubWFlPic=

> <r_lp_tautomer_probability>
1

> <r_epik_Ionization_Penalty>
0.630322

> <r_epik_Ionization_Penalty_Charging>
0.630322

> <r_epik_Ionization_Penalty_Neutral>
3.82652e-08

> <r_epik_State_Penalty>
0.647117

> <r_epik_Charging_Adjusted_Penalty>
1.27744

> <i_epik_Tot_Q>
0

> <i_epik_Tot_abs_Q>
0

> <r_epik_Metal_State_Penalty>
0.309095

> <b_epik_Metal_Only>
0

> <s_lp_Force_Field>
OPLS_2005

> <r_lp_Energy>
20.2845

> <b_lp_Chiralities_Consistent>
1

> <s_lp_Variant>
AV-unprocessed.smi:3132-6

> <Gold.Version>
5.8.1

> <Gold.Id.Protein>
6NUR|6NUR_protein|mol2

> <Gold.PLP.Fitness>
41.6315

> <Gold.PLP.PLP>
-37.9919

> <Gold.PLP.part.hbond>
-1.0000

> <Gold.PLP.part.metal>
0.0000

> <Gold.PLP.part.buried>
-5.7574

> <Gold.PLP.part.nonpolar>
-32.1004

> <Gold.PLP.part.repulsive>
0.1913

> <Gold.PLP.ligand.clash>
0.0000

> <Gold.PLP.ligand.torsion>
1.0000

> <Gold.PLP.Chemscore.Hbond>
0.8320

> <Gold.PLP.Chemscore.CHOScore>
1.0301

> <Gold.PLP.Chemscore.Metal>
0.0000

> <Gold.Chemscore.Hbonds>
donor molecule, donor type, donor heavy atom, donor atom, acceptor molecule, acceptor atom, score
      P1  H 10752 10763       L1     7  0.82
      L1  C     6    24       P1  7948  0.99
      L1  C     6    24       P1  7949  0.04

> <Gold.PLP.Chemscore.Internal.Correction>
0.0532

> <Gold.Rescore>
     Score         DG    S(hbond)    S(metal)    S(lipo)     H(rot)  DE(clash)    DE(int)     intcor
     12.25     -12.77       0.93        0.00      76.66       1.86       0.00       0.52       ----

> <Gold.Chemscore.Fitness>
12.2500

> <Gold.Chemscore.DG>
-12.7736

> <Gold.Chemscore.ZeroCoef>
-5.4800

> <Gold.Chemscore.Hbond>
0.9267

> <Gold.Chemscore.Metal>
0.0000

> <Gold.Chemscore.Lipo>
76.6607

> <Gold.Chemscore.Internal_Hbond>
0.0000

> <Gold.Chemscore.DEClash>
0.0000

> <Gold.Chemscore.DEInternal>
0.5236

> <Gold.Chemscore.Rot>
1.8636

> <Gold.Chemscore.Internal.Correction>
   9.000000E+99

> <Gold.Chemscore.Hbonds>
donor molecule, donor type, donor heavy atom, donor atom, acceptor molecule, acceptor atom, score
      P1  H 10752 10763       L1     7  0.76

> <Gold.Chemscore.Hbond.Weighted>
-3.0952

> <Gold.Chemscore.Metal.Weighted>
-0.0000

> <Gold.Chemscore.Lipo.Weighted>
-8.9693

> <Gold.Chemscore.Internal_Hbond.Weighted>
0.0000

> <Gold.Chemscore.DEClash.Weighted>
0.0000

> <Gold.Chemscore.DEInternal.Weighted>
0.5236

> <Gold.Chemscore.Rot.Weighted>
4.7709

> <Gold.Chemscore.Internal.Correction.Weighted>
   9.000000E+99

> <Gold.Protein.RotatedTorsions>
[ 6907 6896 6895 6894 ] final -175.57 input  -60.11 | X-H torsion
[ 7974 7965 7964 7962 ] final   95.72 input  175.53 | X-H torsion
[ 8008 7997 7996 7995 ] final   79.76 input   59.86 | X-H torsion
[ 10167 10162 10161 10158 ] final   99.17 input  -65.29 | X-H torsion
[ 10718 10713 10712 10709 ] final    7.18 input   66.30 | X-H torsion
[ 10763 10752 10751 10750 ] final   47.40 input  -60.55 | X-H torsion
[ 11005 11000 10999 10996 ] final -156.03 input  -57.11 | X-H torsion

> <Gold.Protein.ActiveResidues>
 VAL166  LYS551  ARG553  GLY616  TRP617  ASP618  TYR619  PRO620  LYS621  CYS622 
 ASP623  PHE694  ASN695  SER759  ASP760  ASP761  ALA762  ILE779  LEU786  VAL792 
 PHE793  MET794  SER795  GLU796  ALA797  LYS798  CYS799  TRP800  GLU811  SER814 

> <Gold.Protein.RotatedAtoms>
  151.5907  133.3367  159.3026 H   0  0  0  0  0  0  0  0  0  0  0  0  # atno 6907 bound_to 6896
  150.8261  134.7496  159.6826 H   0  0  0  0  0  0  0  0  0  0  0  0  # atno 6908 bound_to 6896
  152.4350  134.5709  159.9972 H   0  0  0  0  0  0  0  0  0  0  0  0  # atno 6909 bound_to 6896
  145.4484  139.2295  143.3053 H   0  0  0  0  0  0  0  0  0  0  0  0  # atno 7974 bound_to 7965
  155.8741  140.3447  155.5842 H   0  0  0  0  0  0  0  0  0  0  0  0  # atno 8008 bound_to 7997
  155.7794  140.0856  157.2086 H   0  0  0  0  0  0  0  0  0  0  0  0  # atno 8009 bound_to 7997
  154.4019  140.1503  156.3021 H   0  0  0  0  0  0  0  0  0  0  0  0  # atno 8010 bound_to 7997
  139.7641  144.6944  151.0249 H   0  0  0  0  0  0  0  0  0  0  0  0  # atno 10167 bound_to 10162
  156.9331  130.5833  149.5650 H   0  0  0  0  0  0  0  0  0  0  0  0  # atno 10718 bound_to 10713
  152.9800  135.5977  154.3757 H   0  0  0  0  0  0  0  0  0  0  0  0  # atno 10763 bound_to 10752
  154.3427  135.2767  155.2416 H   0  0  0  0  0  0  0  0  0  0  0  0  # atno 10764 bound_to 10752
  154.4491  135.5994  153.6234 H   0  0  0  0  0  0  0  0  0  0  0  0  # atno 10765 bound_to 10752
  140.6800  134.4154  157.5227 H   0  0  0  0  0  0  0  0  0  0  0  0  # atno 11005 bound_to 11000
  146.2518  140.5241  142.8890 LP  0  0  0  0  0  0  0  0  0  0  0  0  # atno 17320 bound_to 7965
  144.8077  140.6329  143.6436 LP  0  0  0  0  0  0  0  0  0  0  0  0  # atno 17321 bound_to 7965
  140.7809  143.4663  151.0208 LP  0  0  0  0  0  0  0  0  0  0  0  0  # atno 17342 bound_to 10162
  139.8348  143.7642  152.3180 LP  0  0  0  0  0  0  0  0  0  0  0  0  # atno 17343 bound_to 10162
  156.0438  130.5517  150.8833 LP  0  0  0  0  0  0  0  0  0  0  0  0  # atno 17370 bound_to 10713
  157.5834  131.0946  150.9235 LP  0  0  0  0  0  0  0  0  0  0  0  0  # atno 17371 bound_to 10713
  139.8954  134.8682  156.2131 LP  0  0  0  0  0  0  0  0  0  0  0  0  # atno 17394 bound_to 11000
  141.0325  133.6981  156.1454 LP  0  0  0  0  0  0  0  0  0  0  0  0  # atno 17395 bound_to 11000

$$$$
