#       Name:                AV-unprocessed.smi:1410
#       Creating user name   scv26
#       Creation time:       Fri Mar 27 05:36:56 2020


#       File generated by GOLD software.
#

@<TRIPOS>MOLECULE
AV-unprocessed.smi:1410
    45    46     1
SMALL
NO_CHARGES


@<TRIPOS>ATOM
      1 ****        -5.7356   3.0790   0.2732 N.pl3          1 S1                -1.0000
      2 ****        -5.0324   2.4493   1.2336 C.2            1 S1                 0.0000
      3 ****        -4.6871   2.8892   2.3284 O.2            1 S1                 0.0000
      4 ****        -4.6293   1.0274   0.8278 C.3            1 S1                 0.0000
      5 ****        -3.1521   0.9212   0.7324 N.4            1 S1                 1.0000
      6 ****        -2.6019   1.5134  -0.5167 C.3            1 S1                 0.0000
      7 ****        -1.0649   1.5039  -0.5028 C.3            1 S1                 0.0000
      8 ****        -0.5219   0.0809  -0.3003 C.3            1 S1                 0.0000
      9 ****         0.9349   0.1157  -0.2139 N.am           1 S1                 0.0000
     10 ****         1.7509  -0.9049  -0.5143 C.2            1 S1                 0.0000
     11 ****         1.3483  -2.0100  -0.8773 O.2            1 S1                 0.0000
     12 ****         3.0396  -0.5611  -0.3457 N.am           1 S1                 0.0000
     13 ****         4.2051  -1.3359  -0.5938 C.ar           1 S1                 0.0000
     14 ****         5.4019  -0.9438   0.0407 C.ar           1 S1                 0.0000
     15 ****         6.5748  -1.6853  -0.2041 C.ar           1 S1                 0.0000
     16 ****         6.6187  -2.7535  -1.0279 N.ar           1 S1                 0.0000
     17 ****         5.4754  -3.1183  -1.6462 C.ar           1 S1                 0.0000
     18 ****         4.2489  -2.4467  -1.4702 C.ar           1 S1                 0.0000
     19 ****        -1.1350  -0.5281   0.9738 C.3            1 S1                 0.0000
     20 ****        -2.6715  -0.4694   0.9344 C.3            1 S1                 0.0000
     21 ****        -6.0543   4.0402   0.4454 H              1 S1                 0.0000
     22 ****        -5.0012   0.3604   1.6066 H              1 S1                 0.0000
     23 ****        -5.0964   0.7046  -0.1054 H              1 S1                 0.0000
     24 ****        -2.9735   0.9571  -1.3788 H              1 S1                 0.0000
     25 ****        -2.9474   2.5408  -0.6337 H              1 S1                 0.0000
     26 ****        -0.6864   1.9203  -1.4370 H              1 S1                 0.0000
     27 ****        -0.7073   2.1574   0.2946 H              1 S1                 0.0000
     28 ****        -0.8165  -0.5225  -1.1614 H              1 S1                 0.0000
     29 ****         1.3526   0.9853   0.0840 H              1 S1                 0.0000
     30 ****         3.2075   0.3544   0.0450 H              1 S1                 0.0000
     31 ****         5.4255  -0.0945   0.7077 H              1 S1                 0.0000
     32 ****         7.5036  -1.4101   0.2733 H              1 S1                 0.0000
     33 ****         5.5403  -3.9688  -2.3085 H              1 S1                 0.0000
     34 ****         3.3817  -2.7861  -2.0151 H              1 S1                 0.0000
     35 ****        -0.8116  -1.5632   1.0908 H              1 S1                 0.0000
     36 ****        -0.7754   0.0092   1.8528 H              1 S1                 0.0000
     37 ****        -3.0670  -0.8644   1.8709 H              1 S1                 0.0000
     38 ****        -3.0529  -1.1067   0.1348 H              1 S1                 0.0000
     39 ****        -2.7881   1.4647   1.5020 H              1 S1                 0.0000
     40 ****        -5.9434   2.6199  -0.5905 LP             1 S1                 0.0000
     41 ****        -4.9304   3.8228   2.5915 LP             1 S1                 0.0000
     42 ****        -4.1629   2.3134   2.9559 LP             1 S1                 0.0000
     43 ****         0.3667  -2.1819  -0.9607 LP             1 S1                 0.0000
     44 ****         2.0028  -2.7359  -1.0888 LP             1 S1                 0.0000
     45 ****         7.4696  -3.2578  -1.1753 LP             1 S1                 0.0000
@<TRIPOS>BOND
    1    1    2 1     
    2    1   21 1     
    3    2    3 2     
    4    2    4 1     
    5    4    5 1     
    6    4   22 1     
    7    4   23 1     
    8    5   20 1     
    9    5    6 1     
   10    5   39 1     
   11    6    7 1     
   12    6   24 1     
   13    6   25 1     
   14    7    8 1     
   15    7   26 1     
   16    7   27 1     
   17    8    9 1     
   18    8   19 1     
   19    8   28 1     
   20    9   10 am    
   21    9   29 1     
   22   10   11 2     
   23   10   12 am    
   24   12   13 1     
   25   12   30 1     
   26   13   18 ar    
   27   13   14 ar    
   28   14   15 ar    
   29   14   31 1     
   30   15   16 ar    
   31   15   32 1     
   32   16   17 ar    
   33   17   18 ar    
   34   17   33 1     
   35   18   34 1     
   36   19   20 1     
   37   19   35 1     
   38   19   36 1     
   39   20   37 1     
   40   20   38 1     
   41    1   40 1     
   42    3   41 1     
   43    3   42 1     
   44   11   43 1     
   45   11   44 1     
   46   16   45 1     
@<TRIPOS>SUBSTRUCTURE
      1 S1             1
@<TRIPOS>SET
LONE_PAIRS      STATIC     ATOMS    <user>   **** ""
6 40 41 42 43 44 45
DONOR_HYDROGENS      STATIC     ATOMS    <user>   **** ""
4 21 39 29 30
ATOM$BLUE        STATIC     ATOMS    COLORGROUP SYSTEM
6 40 41 42 43 44 45
ATOM$RED        STATIC     ATOMS    COLORGROUP SYSTEM
4 21 39 29 30
