AV-unprocessed.smi:692|AV-procd|sdf|3370|dock8
  -GOLD-   22720 0353D 1   1.00000     0.00000
 Structure written by MMmdl.
 36 37  0  0  0  0  0  0  0  0  2 V2000
  155.4323  143.8262  164.9398 C   0  0  0  0  0  0  0  0  0  0  0  0
  156.5542  142.8006  165.1363 C   0  0  0  0  0  0  0  0  0  0  0  0
  156.1606  141.4307  164.6745 C   0  0  0  0  0  0  0  0  0  0  0  0
  156.2087  140.2704  165.4026 C   0  0  0  0  0  0  0  0  0  0  0  0
  155.6509  138.9064  164.4764 S   0  0  0  0  0  0  0  0  0  0  0  0
  155.3695  139.9720  163.0978 C   0  0  0  0  0  0  0  0  0  0  0  0
  154.8862  139.5802  161.9078 N   0  5  0  0  0  0  0  0  0  0  0  0
  154.5886  140.5009  160.9629 C   0  0  0  0  0  0  0  0  0  0  0  0
  154.9378  140.4737  159.7805 O   0  0  0  0  0  0  0  0  0  0  0  0
  153.8366  141.5144  161.4158 N   0  0  0  0  0  0  0  0  0  0  0  0
  153.3598  142.6481  160.6285 C   0  0  2  0  0  0  0  0  0  0  0  0
  152.6342  143.6412  161.5378 C   0  0  0  0  0  0  0  0  0  0  0  0
  152.1641  144.8587  160.7331 C   0  0  0  0  0  0  0  0  0  0  0  0
  151.4484  144.4934  159.4236 C   0  0  0  0  0  0  0  0  0  0  0  0
  150.7403  145.3492  158.8917 O   0  0  0  0  0  0  0  0  0  0  0  0
  151.6392  143.2664  158.8808 N   0  0  0  0  0  0  0  0  0  0  0  0
  150.9953  142.9102  157.6153 C   0  0  0  0  0  0  0  0  0  0  0  0
  152.4098  142.1816  159.5082 C   0  0  0  0  0  0  0  0  0  0  0  0
  155.6784  141.2432  163.3764 N   0  0  0  0  0  0  0  0  0  0  0  0
  155.7422  144.8124  165.2854 H   0  0  0  0  0  0  0  0  0  0  0  0
  154.5389  143.5424  165.4968 H   0  0  0  0  0  0  0  0  0  0  0  0
  155.1580  143.9129  163.8879 H   0  0  0  0  0  0  0  0  0  0  0  0
  157.4435  143.1331  164.5998 H   0  0  0  0  0  0  0  0  0  0  0  0
  156.8340  142.7734  166.1898 H   0  0  0  0  0  0  0  0  0  0  0  0
  156.5346  140.1347  166.4225 H   0  0  0  0  0  0  0  0  0  0  0  0
  153.5757  141.4946  162.3906 H   0  0  0  0  0  0  0  0  0  0  0  0
  154.2168  143.1587  160.1841 H   0  0  0  0  0  0  0  0  0  0  0  0
  151.7787  143.1597  162.0140 H   0  0  0  0  0  0  0  0  0  0  0  0
  153.2946  143.9682  162.3419 H   0  0  0  0  0  0  0  0  0  0  0  0
  151.5068  145.4763  161.3462 H   0  0  0  0  0  0  0  0  0  0  0  0
  153.0235  145.4789  160.4767 H   0  0  0  0  0  0  0  0  0  0  0  0
  151.3766  143.5329  156.8049 H   0  0  0  0  0  0  0  0  0  0  0  0
  149.9152  143.0518  157.6764 H   0  0  0  0  0  0  0  0  0  0  0  0
  151.1706  141.8685  157.3430 H   0  0  0  0  0  0  0  0  0  0  0  0
  152.9852  141.6513  158.7478 H   0  0  0  0  0  0  0  0  0  0  0  0
  151.6927  141.4643  159.9105 H   0  0  0  0  0  0  0  0  0  0  0  0
  1  2  1  0  0  0  0
  1 20  1  0  0  0  0
  1 21  1  0  0  0  0
  1 22  1  0  0  0  0
  2  3  1  0  0  0  0
  2 23  1  0  0  0  0
  2 24  1  0  0  0  0
  3 19  1  0  0  0  0
  3  4  2  0  0  0  0
  4  5  1  0  0  0  0
  4 25  1  0  0  0  0
  5  6  1  0  0  0  0
  6  7  1  0  0  0  0
  6 19  2  0  0  0  0
  7  8  1  0  0  0  0
  8  9  2  0  0  0  0
  8 10  1  0  0  0  0
 10 11  1  0  0  0  0
 10 26  1  0  0  0  0
 11 18  1  0  0  0  0
 11 12  1  0  0  0  0
 11 27  1  0  0  0  0
 12 13  1  0  0  0  0
 12 28  1  0  0  0  0
 12 29  1  0  0  0  0
 13 14  1  0  0  0  0
 13 30  1  0  0  0  0
 13 31  1  0  0  0  0
 14 15  2  0  0  0  0
 14 16  1  0  0  0  0
 16 17  1  0  0  0  0
 16 18  1  0  0  0  0
 17 32  1  0  0  0  0
 17 33  1  0  0  0  0
 17 34  1  0  0  0  0
 18 35  1  0  0  0  0
 18 36  1  0  0  0  0
M  CHG  1   7  -1
M  END
> <s_m_source_file>
AV-unprocessed.smi

> <i_m_source_file_index>
692

> <i_lp_mmshare_version>
43012

> <i_f3d_flags>
0

> <s_epik_input>
W0NIM11bQ0gyXWMxW2NIXXNjKG4xKVtOSF1DKD1PKVtOSF1bQ0BASF0yW0NIMl1bQ0gyXUMoPU8pTihbQ0gzXSlbQ0gyXTI=

> <s_epik_cmdline>
J2VwaWtfcHl0aG9uJywgJy1waCcsICc3LjAnLCAnLXRuJywgJzgnLCAnLW1hJywgJzIwMCcsICctbWV0YWxfYmluZGluZycsICctaW1hZScsICc8aW5maWxlLm1hZT4nLCAnLW9tYWUnLCAnPG91dGZpbGUubWFlPic=

> <r_lp_tautomer_probability>
1

> <r_epik_Ionization_Penalty>
7.06728

> <r_epik_Ionization_Penalty_Charging>
5.78908

> <r_epik_Ionization_Penalty_Neutral>
1.2782

> <r_epik_State_Penalty>
5.78905

> <r_epik_Charging_Adjusted_Penalty>
11.5781

> <i_epik_Tot_Q>
-1

> <i_epik_Tot_abs_Q>
1

> <r_epik_Metal_State_Penalty>
1.76044

> <b_epik_Metal_Only>
1

> <s_lp_Force_Field>
OPLS_2005

> <r_lp_Energy>
4.23382

> <b_lp_Chiralities_Consistent>
1

> <s_lp_Variant>
AV-unprocessed.smi:692-3

> <Gold.Version>
5.8.1

> <Gold.Id.Protein>
6NUR|6NUR_protein|mol2

> <Gold.PLP.Fitness>
42.7128

> <Gold.PLP.PLP>
-43.6949

> <Gold.PLP.part.hbond>
-1.0975

> <Gold.PLP.part.metal>
0.0000

> <Gold.PLP.part.buried>
-7.6668

> <Gold.PLP.part.nonpolar>
-35.3730

> <Gold.PLP.part.repulsive>
0.1941

> <Gold.PLP.ligand.clash>
0.0289

> <Gold.PLP.ligand.torsion>
0.4848

> <Gold.PLP.Chemscore.Hbond>
0.0000

> <Gold.PLP.Chemscore.CHOScore>
0.0000

> <Gold.PLP.Chemscore.Metal>
0.0000

> <Gold.PLP.Chemscore.Internal.Correction>
0.0165

> <Gold.Rescore>
     Score         DG    S(hbond)    S(metal)    S(lipo)     H(rot)  DE(clash)    DE(int)     intcor
     10.61     -13.02       0.00        0.00      91.22       1.23       0.24       2.16       ----

> <Gold.Chemscore.Fitness>
10.6081

> <Gold.Chemscore.DG>
-13.0169

> <Gold.Chemscore.ZeroCoef>
-5.4800

> <Gold.Chemscore.Hbond>
0.0000

> <Gold.Chemscore.Metal>
0.0000

> <Gold.Chemscore.Lipo>
91.2233

> <Gold.Chemscore.Internal_Hbond>
0.0000

> <Gold.Chemscore.DEClash>
0.2443

> <Gold.Chemscore.DEInternal>
2.1645

> <Gold.Chemscore.Rot>
1.2251

> <Gold.Chemscore.Internal.Correction>
   9.000000E+99

> <Gold.Chemscore.Hbond.Weighted>
-0.0000

> <Gold.Chemscore.Metal.Weighted>
-0.0000

> <Gold.Chemscore.Lipo.Weighted>
-10.6731

> <Gold.Chemscore.Internal_Hbond.Weighted>
0.0000

> <Gold.Chemscore.DEClash.Weighted>
0.2443

> <Gold.Chemscore.DEInternal.Weighted>
2.1645

> <Gold.Chemscore.Rot.Weighted>
3.1362

> <Gold.Chemscore.Internal.Correction.Weighted>
   9.000000E+99

> <Gold.Protein.RotatedTorsions>
[ 6907 6896 6895 6894 ] final  -88.87 input  -60.11 | X-H torsion
[ 7974 7965 7964 7962 ] final -145.22 input  175.53 | X-H torsion
[ 8008 7997 7996 7995 ] final  -54.81 input   59.86 | X-H torsion
[ 10167 10162 10161 10158 ] final   54.58 input  -65.29 | X-H torsion
[ 10718 10713 10712 10709 ] final  -44.00 input   66.30 | X-H torsion
[ 10763 10752 10751 10750 ] final -109.16 input  -60.55 | X-H torsion
[ 11005 11000 10999 10996 ] final  136.20 input  -57.11 | X-H torsion

> <Gold.Protein.ActiveResidues>
 VAL166  LYS551  ARG553  GLY616  TRP617  ASP618  TYR619  PRO620  LYS621  CYS622 
 ASP623  PHE694  ASN695  SER759  ASP760  ASP761  ALA762  ILE779  LEU786  VAL792 
 PHE793  MET794  SER795  GLU796  ALA797  LYS798  CYS799  TRP800  GLU811  SER814 

> <Gold.Protein.RotatedAtoms>
  150.6870  134.2675  159.4574 H   0  0  0  0  0  0  0  0  0  0  0  0  # atno 6907 bound_to 6896
  152.0600  134.9597  160.0584 H   0  0  0  0  0  0  0  0  0  0  0  0  # atno 6908 bound_to 6896
  152.1028  133.4224  159.4632 H   0  0  0  0  0  0  0  0  0  0  0  0  # atno 6909 bound_to 6896
  144.8243  140.5611  143.5558 H   0  0  0  0  0  0  0  0  0  0  0  0  # atno 7974 bound_to 7965
  154.4174  140.1167  156.5375 H   0  0  0  0  0  0  0  0  0  0  0  0  # atno 8008 bound_to 7997
  155.6542  140.3496  155.4740 H   0  0  0  0  0  0  0  0  0  0  0  0  # atno 8009 bound_to 7997
  155.9767  140.1152  157.0753 H   0  0  0  0  0  0  0  0  0  0  0  0  # atno 8010 bound_to 7997
  140.2286  144.3711  150.6423 H   0  0  0  0  0  0  0  0  0  0  0  0  # atno 10167 bound_to 10162
  156.2432  130.4181  149.8736 H   0  0  0  0  0  0  0  0  0  0  0  0  # atno 10718 bound_to 10713
  154.8177  135.4611  154.0691 H   0  0  0  0  0  0  0  0  0  0  0  0  # atno 10763 bound_to 10752
  153.2070  135.6876  153.8167 H   0  0  0  0  0  0  0  0  0  0  0  0  # atno 10764 bound_to 10752
  153.7632  135.3281  155.3317 H   0  0  0  0  0  0  0  0  0  0  0  0  # atno 10765 bound_to 10752
  140.0030  134.9470  157.0114 H   0  0  0  0  0  0  0  0  0  0  0  0  # atno 11005 bound_to 11000
  145.5036  139.1482  143.3644 LP  0  0  0  0  0  0  0  0  0  0  0  0  # atno 17320 bound_to 7965
  146.2548  140.5176  142.8878 LP  0  0  0  0  0  0  0  0  0  0  0  0  # atno 17321 bound_to 7965
  140.6202  143.2175  151.6710 LP  0  0  0  0  0  0  0  0  0  0  0  0  # atno 17342 bound_to 10162
  139.5118  144.3497  152.0663 LP  0  0  0  0  0  0  0  0  0  0  0  0  # atno 17343 bound_to 10162
  156.6311  130.8666  151.3495 LP  0  0  0  0  0  0  0  0  0  0  0  0  # atno 17370 bound_to 10713
  157.7184  130.9526  150.1342 LP  0  0  0  0  0  0  0  0  0  0  0  0  # atno 17371 bound_to 10713
  140.4692  134.1404  155.7201 LP  0  0  0  0  0  0  0  0  0  0  0  0  # atno 17394 bound_to 11000
  141.1656  133.8709  157.1723 LP  0  0  0  0  0  0  0  0  0  0  0  0  # atno 17395 bound_to 11000

$$$$
