AV-unprocessed.smi:551|AV-procd|sdf|2901|dock3
  -GOLD-   2262023393D 1   1.00000     0.00000
 Structure written by MMmdl.
 38 39  0  0  0  0  0  0  0  0  1 V2000
  147.2705  141.9157  155.7551 C   0  0  0  0  0  0  0  0  0  0  0  0
  148.6167  141.1923  155.8933 C   0  0  1  0  0  0  0  0  0  0  0  0
  149.1932  140.8082  154.5143 C   0  0  0  0  0  0  0  0  0  0  0  0
  150.1681  139.7356  154.5931 N   0  0  0  0  0  0  0  0  0  0  0  0
  150.1896  138.5656  153.8447 C   0  0  0  0  0  0  0  0  0  0  0  0
  151.2966  137.8576  154.2542 C   0  0  0  0  0  0  0  0  0  0  0  0
  151.9631  138.5653  155.2518 N   0  0  0  0  0  0  0  0  0  0  0  0
  151.2363  139.6654  155.3993 C   0  0  0  0  0  0  0  0  0  0  0  0
  149.5472  142.0542  156.6210 N   0  0  0  0  0  0  0  0  0  0  0  0
  150.2464  141.7072  157.7137 C   0  0  0  0  0  0  0  0  0  0  0  0
  150.1537  140.6051  158.2554 O   0  0  0  0  0  0  0  0  0  0  0  0
  151.2130  142.7616  158.2678 C   0  0  0  0  0  0  0  0  0  0  0  0
  151.9554  142.2213  159.5086 C   0  0  0  0  0  0  0  0  0  0  0  0
  152.9184  143.2714  160.0858 C   0  0  0  0  0  0  0  0  0  0  0  0
  152.1821  144.5789  160.4180 C   0  0  0  0  0  0  0  0  0  0  0  0
  151.4341  145.1227  159.1903 C   0  0  0  0  0  0  0  0  0  0  0  0
  150.4716  144.0710  158.6141 C   0  0  0  0  0  0  0  0  0  0  0  0
  146.5404  141.2893  155.2418 H   0  0  0  0  0  0  0  0  0  0  0  0
  147.3724  142.8411  155.1871 H   0  0  0  0  0  0  0  0  0  0  0  0
  146.8574  142.1676  156.7324 H   0  0  0  0  0  0  0  0  0  0  0  0
  148.4330  140.2783  156.4613 H   0  0  0  0  0  0  0  0  0  0  0  0
  148.3918  140.4828  153.8497 H   0  0  0  0  0  0  0  0  0  0  0  0
  149.6602  141.6721  154.0393 H   0  0  0  0  0  0  0  0  0  0  0  0
  149.4408  138.3431  153.0990 H   0  0  0  0  0  0  0  0  0  0  0  0
  151.6610  136.9007  153.9107 H   0  0  0  0  0  0  0  0  0  0  0  0
  151.4893  140.4414  156.1068 H   0  0  0  0  0  0  0  0  0  0  0  0
  149.6914  142.9813  156.2478 H   0  0  0  0  0  0  0  0  0  0  0  0
  151.9546  142.9856  157.4987 H   0  0  0  0  0  0  0  0  0  0  0  0
  151.2396  141.9289  160.2789 H   0  0  0  0  0  0  0  0  0  0  0  0
  152.5128  141.3198  159.2501 H   0  0  0  0  0  0  0  0  0  0  0  0
  153.4028  142.8797  160.9805 H   0  0  0  0  0  0  0  0  0  0  0  0
  153.7134  143.4722  159.3667 H   0  0  0  0  0  0  0  0  0  0  0  0
  151.4741  144.4030  161.2290 H   0  0  0  0  0  0  0  0  0  0  0  0
  152.8913  145.3229  160.7821 H   0  0  0  0  0  0  0  0  0  0  0  0
  150.8819  146.0232  159.4606 H   0  0  0  0  0  0  0  0  0  0  0  0
  152.1529  145.4188  158.4253 H   0  0  0  0  0  0  0  0  0  0  0  0
  149.9836  144.4728  157.7253 H   0  0  0  0  0  0  0  0  0  0  0  0
  149.6798  143.8762  159.3394 H   0  0  0  0  0  0  0  0  0  0  0  0
  1  2  1  0  0  0  0
  1 18  1  0  0  0  0
  1 19  1  0  0  0  0
  1 20  1  0  0  0  0
  2  3  1  0  0  0  0
  2  9  1  0  0  0  0
  2 21  1  0  0  0  0
  3  4  1  0  0  0  0
  3 22  1  0  0  0  0
  3 23  1  0  0  0  0
  4  8  1  0  0  0  0
  4  5  1  0  0  0  0
  5  6  2  0  0  0  0
  5 24  1  0  0  0  0
  6  7  1  0  0  0  0
  6 25  1  0  0  0  0
  7  8  2  0  0  0  0
  8 26  1  0  0  0  0
  9 10  1  0  0  0  0
  9 27  1  0  0  0  0
 10 11  2  0  0  0  0
 10 12  1  0  0  0  0
 12 17  1  0  0  0  0
 12 13  1  0  0  0  0
 12 28  1  0  0  0  0
 13 14  1  0  0  0  0
 13 29  1  0  0  0  0
 13 30  1  0  0  0  0
 14 15  1  0  0  0  0
 14 31  1  0  0  0  0
 14 32  1  0  0  0  0
 15 16  1  0  0  0  0
 15 33  1  0  0  0  0
 15 34  1  0  0  0  0
 16 17  1  0  0  0  0
 16 35  1  0  0  0  0
 16 36  1  0  0  0  0
 17 37  1  0  0  0  0
 17 38  1  0  0  0  0
M  END
> <s_m_source_file>
AV-unprocessed.smi

> <i_m_source_file_index>
551

> <i_lp_mmshare_version>
43012

> <i_f3d_flags>
0

> <s_epik_input>
W2NIXTFuW2NIXVtjSF1uMVtDSDJdW0NAQEhdKFtDSDNdKVtOSF1DKD1PKVtDSF0yW0NIMl1bQ0gyXVtDSDJdW0NIMl1bQ0gyXTI=

> <s_epik_cmdline>
J2VwaWtfcHl0aG9uJywgJy1waCcsICc3LjAnLCAnLXRuJywgJzgnLCAnLW1hJywgJzIwMCcsICctbWV0YWxfYmluZGluZycsICctaW1hZScsICc8aW5maWxlLm1hZT4nLCAnLW9tYWUnLCAnPG91dGZpbGUubWFlPic=

> <r_lp_tautomer_probability>
1

> <r_epik_Ionization_Penalty>
0.642614

> <r_epik_Ionization_Penalty_Charging>
0.642614

> <r_epik_Ionization_Penalty_Neutral>
3.29891e-08

> <r_epik_State_Penalty>
0.660429

> <r_epik_Charging_Adjusted_Penalty>
1.30304

> <i_epik_Tot_Q>
0

> <i_epik_Tot_abs_Q>
0

> <r_epik_Metal_State_Penalty>
0.31224

> <b_epik_Metal_Only>
0

> <s_lp_Force_Field>
OPLS_2005

> <r_lp_Energy>
12.4308

> <b_lp_Chiralities_Consistent>
1

> <s_lp_Variant>
AV-unprocessed.smi:551-4

> <Gold.Version>
5.8.1

> <Gold.Id.Protein>
6NUR|6NUR_protein|mol2

> <Gold.PLP.Fitness>
46.1910

> <Gold.PLP.PLP>
-36.7459

> <Gold.PLP.part.hbond>
-1.0000

> <Gold.PLP.part.metal>
0.0000

> <Gold.PLP.part.buried>
-1.8080

> <Gold.PLP.part.nonpolar>
-33.8006

> <Gold.PLP.part.repulsive>
0.0545

> <Gold.PLP.ligand.clash>
0.0000

> <Gold.PLP.ligand.torsion>
0.3477

> <Gold.PLP.Chemscore.Hbond>
0.9920

> <Gold.PLP.Chemscore.CHOScore>
2.3629

> <Gold.PLP.Chemscore.Metal>
0.0000

> <Gold.Chemscore.Hbonds>
donor molecule, donor type, donor heavy atom, donor atom, acceptor molecule, acceptor atom, score
      L1  H     9    27       P1  8028  0.96
      L1  C     5    24       P1  7948  1.00
      L1  C     5    24       P1  7957  0.55
      L1  C     6    25       P1  7949  0.64

> <Gold.PLP.Chemscore.Internal.Correction>
0.0757

> <Gold.Rescore>
     Score         DG    S(hbond)    S(metal)    S(lipo)     H(rot)  DE(clash)    DE(int)     intcor
     15.15     -15.43       0.92        0.00      96.71       1.73       0.07       0.21       ----

> <Gold.Chemscore.Fitness>
15.1528

> <Gold.Chemscore.DG>
-15.4270

> <Gold.Chemscore.ZeroCoef>
-5.4800

> <Gold.Chemscore.Hbond>
0.9178

> <Gold.Chemscore.Metal>
0.0000

> <Gold.Chemscore.Lipo>
96.7137

> <Gold.Chemscore.Internal_Hbond>
0.0000

> <Gold.Chemscore.DEClash>
0.0691

> <Gold.Chemscore.DEInternal>
0.2052

> <Gold.Chemscore.Rot>
1.7319

> <Gold.Chemscore.Internal.Correction>
   9.000000E+99

> <Gold.Chemscore.Hbonds>
donor molecule, donor type, donor heavy atom, donor atom, acceptor molecule, acceptor atom, score
      L1  H     9    27       P1  8028  0.89

> <Gold.Chemscore.Hbond.Weighted>
-3.0653

> <Gold.Chemscore.Metal.Weighted>
-0.0000

> <Gold.Chemscore.Lipo.Weighted>
-11.3155

> <Gold.Chemscore.Internal_Hbond.Weighted>
0.0000

> <Gold.Chemscore.DEClash.Weighted>
0.0691

> <Gold.Chemscore.DEInternal.Weighted>
0.2052

> <Gold.Chemscore.Rot.Weighted>
4.4338

> <Gold.Chemscore.Internal.Correction.Weighted>
   9.000000E+99

> <Gold.Protein.RotatedTorsions>
[ 6907 6896 6895 6894 ] final  141.69 input  -60.11 | X-H torsion
[ 7974 7965 7964 7962 ] final   -3.49 input  175.53 | X-H torsion
[ 8008 7997 7996 7995 ] final  148.58 input   59.86 | X-H torsion
[ 10167 10162 10161 10158 ] final -159.56 input  -65.29 | X-H torsion
[ 10718 10713 10712 10709 ] final   19.90 input   66.30 | X-H torsion
[ 10763 10752 10751 10750 ] final  -40.93 input  -60.55 | X-H torsion
[ 11005 11000 10999 10996 ] final  162.13 input  -57.11 | X-H torsion

> <Gold.Protein.ActiveResidues>
 VAL166  LYS551  ARG553  GLY616  TRP617  ASP618  TYR619  PRO620  LYS621  CYS622 
 ASP623  PHE694  ASN695  SER759  ASP760  ASP761  ALA762  ILE779  LEU786  VAL792 
 PHE793  MET794  SER795  GLU796  ALA797  LYS798  CYS799  TRP800  GLU811  SER814 

> <Gold.Protein.RotatedAtoms>
  152.2278  133.5034  159.5198 H   0  0  0  0  0  0  0  0  0  0  0  0  # atno 6907 bound_to 6896
  150.7029  134.1256  159.4060 H   0  0  0  0  0  0  0  0  0  0  0  0  # atno 6908 bound_to 6896
  151.9177  135.0311  160.0570 H   0  0  0  0  0  0  0  0  0  0  0  0  # atno 6909 bound_to 6896
  146.2388  140.1730  142.8332 H   0  0  0  0  0  0  0  0  0  0  0  0  # atno 7974 bound_to 7965
  156.2786  140.2125  156.5722 H   0  0  0  0  0  0  0  0  0  0  0  0  # atno 8008 bound_to 7997
  154.7126  140.0510  157.0588 H   0  0  0  0  0  0  0  0  0  0  0  0  # atno 8009 bound_to 7997
  155.0584  140.3164  155.4671 H   0  0  0  0  0  0  0  0  0  0  0  0  # atno 8010 bound_to 7997
  139.6606  143.9920  152.2222 H   0  0  0  0  0  0  0  0  0  0  0  0  # atno 10167 bound_to 10162
  157.1169  130.6533  149.5913 H   0  0  0  0  0  0  0  0  0  0  0  0  # atno 10718 bound_to 10713
  153.9541  135.6747  153.4744 H   0  0  0  0  0  0  0  0  0  0  0  0  # atno 10763 bound_to 10752
  153.0870  135.4894  154.8612 H   0  0  0  0  0  0  0  0  0  0  0  0  # atno 10764 bound_to 10752
  154.7309  135.3138  154.8852 H   0  0  0  0  0  0  0  0  0  0  0  0  # atno 10765 bound_to 10752
  140.2227  134.8184  157.3236 H   0  0  0  0  0  0  0  0  0  0  0  0  # atno 11005 bound_to 11000
  144.9996  140.8620  143.5289 LP  0  0  0  0  0  0  0  0  0  0  0  0  # atno 17320 bound_to 7965
  145.1747  139.2384  143.5323 LP  0  0  0  0  0  0  0  0  0  0  0  0  # atno 17321 bound_to 7965
  139.9658  144.6527  150.8036 LP  0  0  0  0  0  0  0  0  0  0  0  0  # atno 17342 bound_to 10162
  140.7578  143.3094  151.2882 LP  0  0  0  0  0  0  0  0  0  0  0  0  # atno 17343 bound_to 10162
  155.9837  130.4858  150.6948 LP  0  0  0  0  0  0  0  0  0  0  0  0  # atno 17370 bound_to 10713
  157.4510  131.0872  151.0845 LP  0  0  0  0  0  0  0  0  0  0  0  0  # atno 17371 bound_to 10713
  140.1833  134.4462  155.7759 LP  0  0  0  0  0  0  0  0  0  0  0  0  # atno 17394 bound_to 11000
  141.2222  133.6993  156.7905 LP  0  0  0  0  0  0  0  0  0  0  0  0  # atno 17395 bound_to 11000

$$$$
