AV-unprocessed.smi:517|AV-procd|sdf|2790|dock5
  -GOLD-   2262023263D 1   1.00000     0.00000
 Structure written by MMmdl.
 36 37  0  0  0  0  0  0  0  0  2 V2000
  154.3053  139.9186  160.5397 C   0  0  0  0  0  0  0  0  0  0  0  0
  153.3595  139.1400  159.6226 C   0  0  0  0  0  0  0  0  0  0  0  0
  153.4729  139.6590  158.3096 O   0  0  0  0  0  0  0  0  0  0  0  0
  152.4896  139.1481  157.4240 C   0  0  0  0  0  0  0  0  0  0  0  0
  151.1135  139.6997  157.8226 C   0  0  0  0  0  0  0  0  0  0  0  0
  150.9735  141.1248  157.4902 N   0  0  0  0  0  0  0  0  0  0  0  0
  150.3073  141.7346  156.4665 C   0  0  0  0  0  0  0  0  0  0  0  0
  149.5350  141.0707  155.3684 C   0  0  2  0  0  0  0  0  0  0  0  0
  148.3666  140.2562  155.9380 C   0  0  0  0  0  0  0  0  0  0  0  0
  150.3474  140.2187  154.5884 O   0  0  0  0  0  0  0  0  0  0  0  0
  150.4890  143.0784  156.6149 N   0  3  0  0  0  0  0  0  0  0  0  0
  151.2643  143.3304  157.7469 C   0  0  0  0  0  0  0  0  0  0  0  0
  151.7051  144.5278  158.3025 C   0  0  0  0  0  0  0  0  0  0  0  0
  152.4841  144.4325  159.4744 C   0  0  0  0  0  0  0  0  0  0  0  0
  152.7944  143.1834  160.0504 C   0  0  0  0  0  0  0  0  0  0  0  0
  152.3414  141.9763  159.4781 C   0  0  0  0  0  0  0  0  0  0  0  0
  151.5756  142.0793  158.3170 C   0  0  0  0  0  0  0  0  0  0  0  0
  154.2481  139.5487  161.5637 H   0  0  0  0  0  0  0  0  0  0  0  0
  154.0526  140.9791  160.5522 H   0  0  0  0  0  0  0  0  0  0  0  0
  155.3390  139.8237  160.2063 H   0  0  0  0  0  0  0  0  0  0  0  0
  153.6188  138.0804  159.6334 H   0  0  0  0  0  0  0  0  0  0  0  0
  152.3323  139.2341  159.9780 H   0  0  0  0  0  0  0  0  0  0  0  0
  152.7257  139.4372  156.3987 H   0  0  0  0  0  0  0  0  0  0  0  0
  152.4781  138.0580  157.4622 H   0  0  0  0  0  0  0  0  0  0  0  0
  150.3106  139.1394  157.3428 H   0  0  0  0  0  0  0  0  0  0  0  0
  150.9614  139.5905  158.8967 H   0  0  0  0  0  0  0  0  0  0  0  0
  149.1408  141.8347  154.6987 H   0  0  0  0  0  0  0  0  0  0  0  0
  147.6897  140.8917  156.5100 H   0  0  0  0  0  0  0  0  0  0  0  0
  148.7170  139.4631  156.5995 H   0  0  0  0  0  0  0  0  0  0  0  0
  147.7856  139.7920  155.1402 H   0  0  0  0  0  0  0  0  0  0  0  0
  149.9350  139.3693  154.5449 H   0  0  0  0  0  0  0  0  0  0  0  0
  151.4664  145.4858  157.8643 H   0  0  0  0  0  0  0  0  0  0  0  0
  152.8500  145.3354  159.9417 H   0  0  0  0  0  0  0  0  0  0  0  0
  153.3922  143.1499  160.9498 H   0  0  0  0  0  0  0  0  0  0  0  0
  152.5831  141.0252  159.9286 H   0  0  0  0  0  0  0  0  0  0  0  0
  150.1022  143.7690  155.9844 H   0  0  0  0  0  0  0  0  0  0  0  0
  1  2  1  0  0  0  0
  1 18  1  0  0  0  0
  1 19  1  0  0  0  0
  1 20  1  0  0  0  0
  2  3  1  0  0  0  0
  2 21  1  0  0  0  0
  2 22  1  0  0  0  0
  3  4  1  0  0  0  0
  4  5  1  0  0  0  0
  4 23  1  0  0  0  0
  4 24  1  0  0  0  0
  5  6  1  0  0  0  0
  5 25  1  0  0  0  0
  5 26  1  0  0  0  0
  6 17  1  0  0  0  0
  6  7  1  0  0  0  0
  7  8  1  0  0  0  0
  7 11  2  0  0  0  0
  8  9  1  0  0  0  0
  8 10  1  0  0  0  0
  8 27  1  0  0  0  0
  9 28  1  0  0  0  0
  9 29  1  0  0  0  0
  9 30  1  0  0  0  0
 10 31  1  0  0  0  0
 11 12  1  0  0  0  0
 11 36  1  0  0  0  0
 12 17  2  0  0  0  0
 12 13  1  0  0  0  0
 13 14  2  0  0  0  0
 13 32  1  0  0  0  0
 14 15  1  0  0  0  0
 14 33  1  0  0  0  0
 15 16  2  0  0  0  0
 15 34  1  0  0  0  0
 16 17  1  0  0  0  0
 16 35  1  0  0  0  0
M  CHG  1  11   1
M  END
> <s_m_source_file>
AV-unprocessed.smi

> <i_m_source_file_index>
517

> <i_lp_mmshare_version>
43012

> <i_f3d_flags>
0

> <s_epik_input>
W0NIM11bQ0gyXU9bQ0gyXVtDSDJdbihjKG4xKVtDQEhdKFtDSDNdKVtPSF0pYyhjMTIpW2NIXVtjSF1bY0hdW2NIXTI=

> <s_epik_cmdline>
J2VwaWtfcHl0aG9uJywgJy1waCcsICc3LjAnLCAnLXRuJywgJzgnLCAnLW1hJywgJzIwMCcsICctbWV0YWxfYmluZGluZycsICctaW1hZScsICc8aW5maWxlLm1hZT4nLCAnLW9tYWUnLCAnPG91dGZpbGUubWFlPic=

> <r_epik_Ionization_Penalty>
1.46962

> <r_epik_Ionization_Penalty_Charging>
1.46959

> <r_epik_Ionization_Penalty_Neutral>
2.92192e-05

> <r_epik_State_Penalty>
1.55729

> <r_epik_Charging_Adjusted_Penalty>
3.02688

> <i_epik_Tot_Q>
1

> <i_epik_Tot_abs_Q>
1

> <r_epik_Metal_State_Penalty>
5.60569

> <b_epik_Metal_Only>
0

> <s_lp_Force_Field>
OPLS_2005

> <r_lp_Energy>
10.0589

> <b_lp_Chiralities_Consistent>
1

> <s_lp_Variant>
AV-unprocessed.smi:517-3

> <Gold.Version>
5.8.1

> <Gold.Id.Protein>
6NUR|6NUR_protein|mol2

> <Gold.PLP.Fitness>
48.3374

> <Gold.PLP.PLP>
-37.1738

> <Gold.PLP.part.hbond>
-2.8303

> <Gold.PLP.part.metal>
0.0000

> <Gold.PLP.part.buried>
-5.2125

> <Gold.PLP.part.nonpolar>
-30.0955

> <Gold.PLP.part.repulsive>
0.0619

> <Gold.PLP.ligand.clash>
0.0000

> <Gold.PLP.ligand.torsion>
0.3163

> <Gold.PLP.Chemscore.Hbond>
3.9200

> <Gold.PLP.Chemscore.CHOScore>
0.0000

> <Gold.PLP.Chemscore.Metal>
0.0000

> <Gold.Chemscore.Hbonds>
donor molecule, donor type, donor heavy atom, donor atom, acceptor molecule, acceptor atom, score
      L1  H    11    36       P1  8028  1.89
      P1  H  7989  7998       L1    10  1.00
      P1  H  7997  8010       L1     3  1.00

> <Gold.PLP.Chemscore.Internal.Correction>
0.0361

> <Gold.Rescore>
     Score         DG    S(hbond)    S(metal)    S(lipo)     H(rot)  DE(clash)    DE(int)     intcor
     20.31     -20.75       2.89        0.00      95.60       2.18       0.00       0.44       ----

> <Gold.Chemscore.Fitness>
20.3123

> <Gold.Chemscore.DG>
-20.7502

> <Gold.Chemscore.ZeroCoef>
-5.4800

> <Gold.Chemscore.Hbond>
2.8936

> <Gold.Chemscore.Metal>
0.0000

> <Gold.Chemscore.Lipo>
95.6047

> <Gold.Chemscore.Internal_Hbond>
0.0000

> <Gold.Chemscore.DEClash>
0.0000

> <Gold.Chemscore.DEInternal>
0.4379

> <Gold.Chemscore.Rot>
2.1797

> <Gold.Chemscore.Internal.Correction>
   9.000000E+99

> <Gold.Chemscore.Hbonds>
donor molecule, donor type, donor heavy atom, donor atom, acceptor molecule, acceptor atom, score
      L1  H    11    36       P1  8028  0.88
      P1  H  7989  7998       L1    10  0.97
      P1  H  7997  8010       L1     3  0.26

> <Gold.Chemscore.Hbond.Weighted>
-9.6646

> <Gold.Chemscore.Metal.Weighted>
-0.0000

> <Gold.Chemscore.Lipo.Weighted>
-11.1858

> <Gold.Chemscore.Internal_Hbond.Weighted>
0.0000

> <Gold.Chemscore.DEClash.Weighted>
0.0000

> <Gold.Chemscore.DEInternal.Weighted>
0.4379

> <Gold.Chemscore.Rot.Weighted>
5.5801

> <Gold.Chemscore.Internal.Correction.Weighted>
   9.000000E+99

> <Gold.Protein.RotatedTorsions>
[ 6907 6896 6895 6894 ] final  -90.42 input  -60.11 | X-H torsion
[ 7974 7965 7964 7962 ] final -151.53 input  175.53 | X-H torsion
[ 8008 7997 7996 7995 ] final   22.75 input   59.86 | X-H torsion
[ 10167 10162 10161 10158 ] final  -56.67 input  -65.29 | X-H torsion
[ 10718 10713 10712 10709 ] final -138.25 input   66.30 | X-H torsion
[ 10763 10752 10751 10750 ] final   24.33 input  -60.55 | X-H torsion
[ 11005 11000 10999 10996 ] final   14.70 input  -57.11 | X-H torsion

> <Gold.Protein.ActiveResidues>
 VAL166  LYS551  ARG553  GLY616  TRP617  ASP618  TYR619  PRO620  LYS621  CYS622 
 ASP623  PHE694  ASN695  SER759  ASP760  ASP761  ALA762  ILE779  LEU786  VAL792 
 PHE793  MET794  SER795  GLU796  ALA797  LYS798  CYS799  TRP800  GLU811  SER814 

> <Gold.Protein.RotatedAtoms>
  150.6881  134.2435  159.4481 H   0  0  0  0  0  0  0  0  0  0  0  0  # atno 6907 bound_to 6896
  152.0378  134.9727  160.0583 H   0  0  0  0  0  0  0  0  0  0  0  0  # atno 6908 bound_to 6896
  152.1241  133.4335  159.4726 H   0  0  0  0  0  0  0  0  0  0  0  0  # atno 6909 bound_to 6896
  144.7844  140.4784  143.5816 H   0  0  0  0  0  0  0  0  0  0  0  0  # atno 7974 bound_to 7965
  154.9705  140.3089  155.4990 H   0  0  0  0  0  0  0  0  0  0  0  0  # atno 8008 bound_to 7997
  156.2966  140.2285  156.4736 H   0  0  0  0  0  0  0  0  0  0  0  0  # atno 8009 bound_to 7997
  154.7881  140.0441  157.1168 H   0  0  0  0  0  0  0  0  0  0  0  0  # atno 8010 bound_to 7997
  140.6303  143.2456  151.5258 H   0  0  0  0  0  0  0  0  0  0  0  0  # atno 10167 bound_to 10162
  156.2972  130.7408  151.1450 H   0  0  0  0  0  0  0  0  0  0  0  0  # atno 10718 bound_to 10713
  153.0772  135.6607  154.0122 H   0  0  0  0  0  0  0  0  0  0  0  0  # atno 10763 bound_to 10752
  153.9753  135.2960  155.3426 H   0  0  0  0  0  0  0  0  0  0  0  0  # atno 10764 bound_to 10752
  154.7162  135.5184  153.8813 H   0  0  0  0  0  0  0  0  0  0  0  0  # atno 10765 bound_to 10752
  140.4666  134.1074  155.7725 H   0  0  0  0  0  0  0  0  0  0  0  0  # atno 11005 bound_to 11000
  145.5961  139.1499  143.3155 LP  0  0  0  0  0  0  0  0  0  0  0  0  # atno 17320 bound_to 7965
  146.2069  140.6084  142.9077 LP  0  0  0  0  0  0  0  0  0  0  0  0  # atno 17321 bound_to 7965
  139.5518  144.2376  152.1544 LP  0  0  0  0  0  0  0  0  0  0  0  0  # atno 17342 bound_to 10162
  140.1618  144.5019  150.6628 LP  0  0  0  0  0  0  0  0  0  0  0  0  # atno 17343 bound_to 10162
  157.7358  131.0568  150.5447 LP  0  0  0  0  0  0  0  0  0  0  0  0  # atno 17370 bound_to 10713
  156.5571  130.4246  149.6080 LP  0  0  0  0  0  0  0  0  0  0  0  0  # atno 17371 bound_to 10713
  141.1597  133.8817  157.1882 LP  0  0  0  0  0  0  0  0  0  0  0  0  # atno 17394 bound_to 11000
  139.9912  135.0064  156.9978 LP  0  0  0  0  0  0  0  0  0  0  0  0  # atno 17395 bound_to 11000

$$$$
