AV-unprocessed.smi:1426|AV-procd|sdf|5805|dock3
  -GOLD-   22720 5453D 1   1.00000     0.00000
 Structure written by MMmdl.
 43 45  0  0  0  0  0  0  0  0  1 V2000
  145.2939  138.2350  152.9891 O   0  0  0  0  0  0  0  0  0  0  0  0
  146.3262  137.6794  152.6153 C   0  0  0  0  0  0  0  0  0  0  0  0
  146.3376  136.5843  151.8419 N   0  0  0  0  0  0  0  0  0  0  0  0
  145.1557  135.8844  151.3479 C   0  0  0  0  0  0  0  0  0  0  0  0
  145.5170  134.8468  150.2689 C   0  0  2  0  0  0  0  0  0  0  0  0
  144.3230  134.3312  149.4916 C   0  0  0  0  0  0  0  0  0  0  0  0
  144.8761  133.0523  148.8693 C   0  0  0  0  0  0  0  0  0  0  0  0
  145.8613  132.5687  149.7784 O   0  0  0  0  0  0  0  0  0  0  0  0
  146.1063  133.5364  150.7945 C   0  0  0  0  0  0  0  0  0  0  0  0
  147.5773  138.0754  152.9055 N   0  0  0  0  0  0  0  0  0  0  0  0
  148.0210  139.1960  153.6681 C   0  0  0  0  0  0  0  0  0  0  0  0
  147.3631  140.4513  153.6337 C   0  0  0  0  0  0  0  0  0  0  0  0
  147.8734  141.5204  154.3902 C   0  0  0  0  0  0  0  0  0  0  0  0
  149.0259  141.2995  155.1615 C   0  0  0  0  0  0  0  0  0  0  0  0
  149.6520  140.1079  155.2225 N   0  0  0  0  0  0  0  0  0  0  0  0
  149.1636  139.0632  154.5096 C   0  0  0  0  0  0  0  0  0  0  0  0
  149.8429  137.8302  154.6377 N   0  0  0  0  0  0  0  0  0  0  0  0
  151.1929  137.7829  155.1903 C   0  0  0  0  0  0  0  0  0  0  0  0
  151.4194  136.3181  155.5524 C   0  0  0  0  0  0  0  0  0  0  0  0
  150.0360  135.8867  156.0282 C   0  0  0  0  0  0  0  0  0  0  0  0
  149.0812  136.6894  155.1384 C   0  0  0  0  0  0  0  0  0  0  0  0
  147.2335  136.2005  151.5781 H   0  0  0  0  0  0  0  0  0  0  0  0
  144.6083  135.4132  152.1663 H   0  0  0  0  0  0  0  0  0  0  0  0
  144.4827  136.6302  150.9242 H   0  0  0  0  0  0  0  0  0  0  0  0
  146.2227  135.2888  149.5633 H   0  0  0  0  0  0  0  0  0  0  0  0
  143.5025  134.0904  150.1693 H   0  0  0  0  0  0  0  0  0  0  0  0
  143.9548  135.0393  148.7488 H   0  0  0  0  0  0  0  0  0  0  0  0
  144.0997  132.3082  148.6899 H   0  0  0  0  0  0  0  0  0  0  0  0
  145.3614  133.2711  147.9173 H   0  0  0  0  0  0  0  0  0  0  0  0
  147.1704  133.6157  151.0185 H   0  0  0  0  0  0  0  0  0  0  0  0
  145.5926  133.2185  151.7027 H   0  0  0  0  0  0  0  0  0  0  0  0
  148.3152  137.5481  152.4622 H   0  0  0  0  0  0  0  0  0  0  0  0
  146.4725  140.6198  153.0498 H   0  0  0  0  0  0  0  0  0  0  0  0
  147.3930  142.4874  154.3766 H   0  0  0  0  0  0  0  0  0  0  0  0
  149.4514  142.0968  155.7525 H   0  0  0  0  0  0  0  0  0  0  0  0
  151.9296  138.1416  154.4711 H   0  0  0  0  0  0  0  0  0  0  0  0
  151.2682  138.3922  156.0919 H   0  0  0  0  0  0  0  0  0  0  0  0
  151.7027  135.7520  154.6637 H   0  0  0  0  0  0  0  0  0  0  0  0
  152.1947  136.1806  156.3065 H   0  0  0  0  0  0  0  0  0  0  0  0
  149.8765  134.8104  155.9601 H   0  0  0  0  0  0  0  0  0  0  0  0
  149.9009  136.1811  157.0699 H   0  0  0  0  0  0  0  0  0  0  0  0
  148.1900  136.9979  155.6869 H   0  0  0  0  0  0  0  0  0  0  0  0
  148.7635  136.0803  154.2917 H   0  0  0  0  0  0  0  0  0  0  0  0
  1  2  2  0  0  0  0
  2  3  1  0  0  0  0
  2 10  1  0  0  0  0
  3  4  1  0  0  0  0
  3 22  1  0  0  0  0
  4  5  1  0  0  0  0
  4 23  1  0  0  0  0
  4 24  1  0  0  0  0
  5  9  1  0  0  0  0
  5  6  1  0  0  0  0
  5 25  1  0  0  0  0
  6  7  1  0  0  0  0
  6 26  1  0  0  0  0
  6 27  1  0  0  0  0
  7  8  1  0  0  0  0
  7 28  1  0  0  0  0
  7 29  1  0  0  0  0
  8  9  1  0  0  0  0
  9 30  1  0  0  0  0
  9 31  1  0  0  0  0
 10 11  1  0  0  0  0
 10 32  1  0  0  0  0
 11 16  1  0  0  0  0
 11 12  2  0  0  0  0
 12 13  1  0  0  0  0
 12 33  1  0  0  0  0
 13 14  2  0  0  0  0
 13 34  1  0  0  0  0
 14 15  1  0  0  0  0
 14 35  1  0  0  0  0
 15 16  2  0  0  0  0
 16 17  1  0  0  0  0
 17 21  1  0  0  0  0
 17 18  1  0  0  0  0
 18 19  1  0  0  0  0
 18 36  1  0  0  0  0
 18 37  1  0  0  0  0
 19 20  1  0  0  0  0
 19 38  1  0  0  0  0
 19 39  1  0  0  0  0
 20 21  1  0  0  0  0
 20 40  1  0  0  0  0
 20 41  1  0  0  0  0
 21 42  1  0  0  0  0
 21 43  1  0  0  0  0
M  END
> <s_m_source_file>
AV-unprocessed.smi

> <i_m_source_file_index>
1426

> <i_lp_mmshare_version>
43012

> <i_f3d_flags>
0

> <s_epik_input>
W0NIMl0xT1tDSDJdW0NIMl1bQ0BIXTFbQ0gyXVtOSF1DKD1PKVtOSF1jMltjSF1bY0hdW2NIXW5jMk4zW0NIMl1bQ0gyXVtDSDJdW0NIMl0z

> <s_epik_cmdline>
J2VwaWtfcHl0aG9uJywgJy1waCcsICc3LjAnLCAnLXRuJywgJzgnLCAnLW1hJywgJzIwMCcsICctbWV0YWxfYmluZGluZycsICctaW1hZScsICc8aW5maWxlLm1hZT4nLCAnLW9tYWUnLCAnPG91dGZpbGUubWFlPic=

> <r_lp_tautomer_probability>
1

> <r_epik_Ionization_Penalty>
0.0999657

> <r_epik_Ionization_Penalty_Charging>
0

> <r_epik_Ionization_Penalty_Neutral>
0.0999657

> <r_epik_State_Penalty>
0.0894442

> <r_epik_Charging_Adjusted_Penalty>
0.0894442

> <i_epik_Tot_Q>
0

> <i_epik_Tot_abs_Q>
0

> <r_epik_Metal_State_Penalty>
0.076486

> <b_epik_Metal_Only>
0

> <s_lp_Force_Field>
OPLS_2005

> <r_lp_Energy>
47.443

> <b_lp_Chiralities_Consistent>
1

> <s_lp_Variant>
AV-unprocessed.smi:1426-1

> <Gold.Version>
5.8.1

> <Gold.Id.Protein>
6NUR|6NUR_protein|mol2

> <Gold.PLP.Fitness>
41.4575

> <Gold.PLP.PLP>
-31.0921

> <Gold.PLP.part.hbond>
-3.3080

> <Gold.PLP.part.metal>
0.0000

> <Gold.PLP.part.buried>
2.9279

> <Gold.PLP.part.nonpolar>
-31.0994

> <Gold.PLP.part.repulsive>
0.7401

> <Gold.PLP.ligand.clash>
0.0000

> <Gold.PLP.ligand.torsion>
0.6832

> <Gold.PLP.Chemscore.Hbond>
2.8050

> <Gold.PLP.Chemscore.CHOScore>
1.0000

> <Gold.PLP.Chemscore.Metal>
0.0000

> <Gold.Chemscore.Hbonds>
donor molecule, donor type, donor heavy atom, donor atom, acceptor molecule, acceptor atom, score
      L1  H     3    22       P1  7948  0.94
      L1  H    10    32       P1  7948  1.00
      L1  C    14    35       P1  8028  0.59

> <Gold.PLP.Chemscore.Internal.Correction>
0.3168

> <Gold.Rescore>
     Score         DG    S(hbond)    S(metal)    S(lipo)     H(rot)  DE(clash)    DE(int)     intcor
     15.59     -17.83       1.96        0.00      79.66       1.38       0.07       2.18       ----

> <Gold.Chemscore.Fitness>
15.5859

> <Gold.Chemscore.DG>
-17.8312

> <Gold.Chemscore.ZeroCoef>
-5.4800

> <Gold.Chemscore.Hbond>
1.9649

> <Gold.Chemscore.Metal>
0.0000

> <Gold.Chemscore.Lipo>
79.6581

> <Gold.Chemscore.Internal_Hbond>
0.0000

> <Gold.Chemscore.DEClash>
0.0687

> <Gold.Chemscore.DEInternal>
2.1767

> <Gold.Chemscore.Rot>
1.3796

> <Gold.Chemscore.Internal.Correction>
   9.000000E+99

> <Gold.Chemscore.Hbonds>
donor molecule, donor type, donor heavy atom, donor atom, acceptor molecule, acceptor atom, score
      L1  H     3    22       P1  7948  0.91
      L1  H    10    32       P1  7948  0.94

> <Gold.Chemscore.Hbond.Weighted>
-6.5629

> <Gold.Chemscore.Metal.Weighted>
-0.0000

> <Gold.Chemscore.Lipo.Weighted>
-9.3200

> <Gold.Chemscore.Internal_Hbond.Weighted>
0.0000

> <Gold.Chemscore.DEClash.Weighted>
0.0687

> <Gold.Chemscore.DEInternal.Weighted>
2.1767

> <Gold.Chemscore.Rot.Weighted>
3.5317

> <Gold.Chemscore.Internal.Correction.Weighted>
   9.000000E+99

> <Gold.Protein.RotatedTorsions>
[ 6907 6896 6895 6894 ] final  -56.92 input  -60.11 | X-H torsion
[ 7974 7965 7964 7962 ] final  -48.52 input  175.53 | X-H torsion
[ 8008 7997 7996 7995 ] final   74.70 input   59.86 | X-H torsion
[ 10167 10162 10161 10158 ] final  145.78 input  -65.29 | X-H torsion
[ 10718 10713 10712 10709 ] final  130.32 input   66.30 | X-H torsion
[ 10763 10752 10751 10750 ] final -176.43 input  -60.55 | X-H torsion
[ 11005 11000 10999 10996 ] final   79.64 input  -57.11 | X-H torsion

> <Gold.Protein.ActiveResidues>
 VAL166  LYS551  ARG553  GLY616  TRP617  ASP618  TYR619  PRO620  LYS621  CYS622 
 ASP623  PHE694  ASN695  SER759  ASP760  ASP761  ALA762  ILE779  LEU786  VAL792 
 PHE793  MET794  SER795  GLU796  ALA797  LYS798  CYS799  TRP800  GLU811  SER814 

> <Gold.Protein.RotatedAtoms>
  150.8128  134.7293  159.6703 H   0  0  0  0  0  0  0  0  0  0  0  0  # atno 6907 bound_to 6896
  152.4248  134.5886  159.9977 H   0  0  0  0  0  0  0  0  0  0  0  0  # atno 6908 bound_to 6896
  151.6091  133.3312  159.3099 H   0  0  0  0  0  0  0  0  0  0  0  0  # atno 6909 bound_to 6896
  145.9502  140.7579  142.9508 H   0  0  0  0  0  0  0  0  0  0  0  0  # atno 7974 bound_to 7965
  155.8022  140.3476  155.5409 H   0  0  0  0  0  0  0  0  0  0  0  0  # atno 8008 bound_to 7997
  155.8526  140.0958  157.1685 H   0  0  0  0  0  0  0  0  0  0  0  0  # atno 8009 bound_to 7997
  154.4008  140.1373  156.3850 H   0  0  0  0  0  0  0  0  0  0  0  0  # atno 8010 bound_to 7997
  139.4919  144.5877  151.6745 H   0  0  0  0  0  0  0  0  0  0  0  0  # atno 10167 bound_to 10162
  157.5073  131.1096  150.9343 H   0  0  0  0  0  0  0  0  0  0  0  0  # atno 10718 bound_to 10713
  154.5725  135.2829  155.0813 H   0  0  0  0  0  0  0  0  0  0  0  0  # atno 10763 bound_to 10752
  154.2180  135.6396  153.5139 H   0  0  0  0  0  0  0  0  0  0  0  0  # atno 10764 bound_to 10752
  153.0062  135.5507  154.6353 H   0  0  0  0  0  0  0  0  0  0  0  0  # atno 10765 bound_to 10752
  139.9165  134.7858  156.1805 H   0  0  0  0  0  0  0  0  0  0  0  0  # atno 11005 bound_to 11000
  144.6794  140.2423  143.7342 LP  0  0  0  0  0  0  0  0  0  0  0  0  # atno 17320 bound_to 7965
  145.8181  139.2032  143.1954 LP  0  0  0  0  0  0  0  0  0  0  0  0  # atno 17321 bound_to 7965
  140.5497  144.0446  150.6121 LP  0  0  0  0  0  0  0  0  0  0  0  0  # atno 17342 bound_to 10162
  140.3496  143.2971  152.0501 LP  0  0  0  0  0  0  0  0  0  0  0  0  # atno 17343 bound_to 10162
  156.9995  130.5594  149.5310 LP  0  0  0  0  0  0  0  0  0  0  0  0  # atno 17370 bound_to 10713
  156.0266  130.5360  150.8423 LP  0  0  0  0  0  0  0  0  0  0  0  0  # atno 17371 bound_to 10713
  141.0645  133.6826  156.2018 LP  0  0  0  0  0  0  0  0  0  0  0  0  # atno 17394 bound_to 11000
  140.6607  134.4970  157.5583 LP  0  0  0  0  0  0  0  0  0  0  0  0  # atno 17395 bound_to 11000

$$$$
