#       Name:                AV-unprocessed.smi:1888
#       Creating user name   scv26
#       Creation time:       Fri Mar 27 09:39:23 2020


#       File generated by GOLD software.
#

@<TRIPOS>MOLECULE
AV-unprocessed.smi:1888
    52    54     1
SMALL
NO_CHARGES


@<TRIPOS>ATOM
      1 ****        -5.3026   1.8186  -0.9445 C.3            1 S1                 0.0000
      2 ****        -3.7894   2.0382  -1.0077 C.3            1 S1                 0.0000
      3 ****        -3.1378   0.7860  -0.8799 O.3            1 S1                 0.0000
      4 ****        -1.7260   0.8969  -0.9399 C.3            1 S1                 0.0000
      5 ****        -1.1132  -0.4988  -0.7675 C.3            1 S1                 0.0000
      6 ****         0.3452  -0.4544  -0.7598 N.pl3          1 S1                 0.0000
      7 ****         1.1681  -0.4434   0.3197 C.2            1 S1                 0.0000
      8 ****         0.6569  -0.4711   1.6346 N.pl3          1 S1                 0.0000
      9 ****        -0.0259   0.5881   2.1210 N.2            1 S1                 0.0000
     10 ****        -0.3562   0.2427   3.3541 C.2            1 S1                 0.0000
     11 ****        -1.1471   1.1964   4.1996 C.3            1 S1                 0.0000
     12 ****         0.1216  -1.0532   3.6968 C.2            1 S1                 0.0000
     13 ****         0.7695  -1.4811   2.5722 C.2            1 S1                 0.0000
     14 ****         1.4817  -2.7645   2.2960 C.3            1 S1                 0.0000
     15 ****         2.4718  -0.4268   0.0352 N.2            1 S1                 0.0000
     16 ****         2.4784  -0.4119  -1.3528 C.2            1 S1                 0.0000
     17 ****         1.2134  -0.4251  -1.8537 C.2            1 S1                 0.0000
     18 ****         0.8969  -0.4132  -3.2979 C.2            1 S1                 0.0000
     19 ****        -0.2676  -0.4211  -3.6914 O.2            1 S1                 0.0000
     20 ****         2.0271  -0.3914  -4.0732 N.pl3          1 S1                -1.0000
     21 ****         3.3263  -0.3798  -3.6117 C.2            1 S1                 0.0000
     22 ****         4.2888  -0.3598  -4.3801 O.2            1 S1                 0.0000
     23 ****         3.5705  -0.3908  -2.2630 N.am           1 S1                 0.0000
     24 ****         4.9414  -0.3817  -1.7445 C.3            1 S1                 0.0000
     25 ****        -5.8374   2.7642  -1.0350 H              1 S1                 0.0000
     26 ****        -5.5921   1.3590   0.0008 H              1 S1                 0.0000
     27 ****        -5.6365   1.1662  -1.7516 H              1 S1                 0.0000
     28 ****        -3.5211   2.5081  -1.9553 H              1 S1                 0.0000
     29 ****        -3.4767   2.7082  -0.2055 H              1 S1                 0.0000
     30 ****        -1.4248   1.3294  -1.8949 H              1 S1                 0.0000
     31 ****        -1.3724   1.5642  -0.1529 H              1 S1                 0.0000
     32 ****        -1.4653  -0.9481   0.1612 H              1 S1                 0.0000
     33 ****        -1.4464  -1.1686  -1.5596 H              1 S1                 0.0000
     34 ****        -1.4144   0.7467   5.1559 H              1 S1                 0.0000
     35 ****        -2.0717   1.4895   3.7015 H              1 S1                 0.0000
     36 ****        -0.5770   2.1023   4.4062 H              1 S1                 0.0000
     37 ****         0.0048  -1.5881   4.6276 H              1 S1                 0.0000
     38 ****         1.3403  -3.4727   3.1124 H              1 S1                 0.0000
     39 ****         2.5521  -2.5951   2.1785 H              1 S1                 0.0000
     40 ****         1.1093  -3.2272   1.3817 H              1 S1                 0.0000
     41 ****         5.4687   0.5128  -2.0774 H              1 S1                 0.0000
     42 ****         5.4900  -1.2545  -2.1007 H              1 S1                 0.0000
     43 ****         4.9803  -0.3949  -0.6557 H              1 S1                 0.0000
     44 ****        -3.4439   0.1887  -1.6212 LP             1 S1                 0.0000
     45 ****        -3.3902   0.3820  -0.0006 LP             1 S1                 0.0000
     46 ****        -0.2357   1.4457   1.6515 LP             1 S1                 0.0000
     47 ****         3.2491  -0.4254   0.6643 LP             1 S1                 0.0000
     48 ****        -1.0185  -0.4358  -3.0310 LP             1 S1                 0.0000
     49 ****        -0.4642  -0.4128  -4.6718 LP             1 S1                 0.0000
     50 ****         1.8974  -0.3832  -5.0647 LP             1 S1                 0.0000
     51 ****         4.1391  -0.3515  -5.3688 LP             1 S1                 0.0000
     52 ****         5.2198  -0.3518  -4.0152 LP             1 S1                 0.0000
@<TRIPOS>BOND
    1    1    2 1     
    2    1   25 1     
    3    1   26 1     
    4    1   27 1     
    5    2    3 1     
    6    2   28 1     
    7    2   29 1     
    8    3    4 1     
    9    4    5 1     
   10    4   30 1     
   11    4   31 1     
   12    5    6 1     
   13    5   32 1     
   14    5   33 1     
   15    6   17 1     
   16    6    7 1     
   17    7    8 1     
   18    7   15 2     
   19    8   13 1     
   20    8    9 1     
   21    9   10 2     
   22   10   11 1     
   23   10   12 1     
   24   11   34 1     
   25   11   35 1     
   26   11   36 1     
   27   12   13 2     
   28   12   37 1     
   29   13   14 1     
   30   14   38 1     
   31   14   39 1     
   32   14   40 1     
   33   15   16 1     
   34   16   23 1     
   35   16   17 2     
   36   17   18 1     
   37   18   19 2     
   38   18   20 1     
   39   20   21 1     
   40   21   22 2     
   41   21   23 am    
   42   23   24 1     
   43   24   41 1     
   44   24   42 1     
   45   24   43 1     
   46    3   44 1     
   47    3   45 1     
   48    9   46 1     
   49   15   47 1     
   50   19   48 1     
   51   19   49 1     
   52   20   50 1     
   53   22   51 1     
   54   22   52 1     
@<TRIPOS>SUBSTRUCTURE
      1 S1             1
@<TRIPOS>SET
LONE_PAIRS      STATIC     ATOMS    <user>   **** ""
9 44 45 46 47 48 49 50 51 52
ATOM$BLUE        STATIC     ATOMS    COLORGROUP SYSTEM
9 44 45 46 47 48 49 50 51 52
