AV-unprocessed.smi:26|AV-procd|sdf|186|dock2
  -GOLD-   2262015453D 1   1.00000     0.00000
 Structure written by MMmdl.
 58 61  0  0  0  0  0  0  0  0  1 V2000
  146.9496  134.4008  163.0856 C   0  0  0  0  0  0  0  0  0  0  0  0
  147.3660  134.8911  161.7349 C   0  0  0  0  0  0  0  0  0  0  0  0
  147.5959  136.1714  161.3295 C   0  0  0  0  0  0  0  0  0  0  0  0
  147.9597  136.1542  159.9565 C   0  0  0  0  0  0  0  0  0  0  0  0
  148.2770  137.3076  159.0746 C   0  0  0  0  0  0  0  0  0  0  0  0
  147.5368  138.2843  158.9475 O   0  0  0  0  0  0  0  0  0  0  0  0
  149.6127  137.2219  158.3118 C   0  0  0  0  0  0  0  0  0  0  0  0
  150.4720  138.3791  158.5323 N   0  0  0  0  0  0  0  0  0  0  0  0
  151.6731  138.1812  159.2590 C   0  0  0  0  0  0  0  0  0  0  0  0
  151.9991  137.0763  159.6966 O   0  0  0  0  0  0  0  0  0  0  0  0
  152.4701  139.3874  159.4533 C   0  0  0  0  0  0  0  0  0  0  0  0
  153.6282  139.3167  160.1315 F   0  0  0  0  0  0  0  0  0  0  0  0
  152.0620  140.5790  158.9664 C   0  0  0  0  0  0  0  0  0  0  0  0
  150.8821  140.7435  158.2607 N   0  0  0  0  0  0  0  0  0  0  0  0
  150.4567  142.1035  157.7548 C   0  0  1  0  0  0  0  0  0  0  0  0
  150.2161  143.0555  158.9321 C   0  0  0  0  0  0  0  0  0  0  0  0
  151.5362  143.7909  159.0177 C   0  0  0  0  0  0  0  0  0  0  0  0
  151.9420  143.8640  157.5506 C   0  0  0  0  0  0  0  0  0  0  0  0
  151.4871  142.6418  156.9767 O   0  0  0  0  0  0  0  0  0  0  0  0
  150.0381  139.6333  158.0383 C   0  0  0  0  0  0  0  0  0  0  0  0
  148.9618  139.7639  157.4507 O   0  0  0  0  0  0  0  0  0  0  0  0
  147.9634  134.8395  159.5484 C   0  0  0  0  0  0  0  0  0  0  0  0
  148.2905  134.2645  158.1973 C   0  0  0  0  0  0  0  0  0  0  0  0
  147.5829  134.0505  160.6441 N   0  0  0  0  0  0  0  0  0  0  0  0
  147.4224  132.5877  160.6773 C   0  0  1  0  0  0  0  0  0  0  0  0
  148.3052  131.9508  161.7700 C   0  0  0  0  0  0  0  0  0  0  0  0
  145.9498  132.1649  160.6625 C   0  0  0  0  0  0  0  0  0  0  0  0
  144.9486  133.1602  160.7317 C   0  0  0  0  0  0  0  0  0  0  0  0
  143.5848  132.8106  160.7092 C   0  0  0  0  0  0  0  0  0  0  0  0
  143.2061  131.4591  160.6113 C   0  0  0  0  0  0  0  0  0  0  0  0
  144.1934  130.4595  160.5334 C   0  0  0  0  0  0  0  0  0  0  0  0
  145.5575  130.8090  160.5553 C   0  0  0  0  0  0  0  0  0  0  0  0
  146.8317  135.2323  163.7809 H   0  0  0  0  0  0  0  0  0  0  0  0
  147.6956  133.7246  163.5037 H   0  0  0  0  0  0  0  0  0  0  0  0
  145.9954  133.8756  163.0343 H   0  0  0  0  0  0  0  0  0  0  0  0
  147.5007  137.0405  161.9639 H   0  0  0  0  0  0  0  0  0  0  0  0
  150.1722  136.3300  158.5976 H   0  0  0  0  0  0  0  0  0  0  0  0
  149.4423  137.1242  157.2385 H   0  0  0  0  0  0  0  0  0  0  0  0
  152.6918  141.4368  159.1488 H   0  0  0  0  0  0  0  0  0  0  0  0
  149.5766  141.9407  157.1309 H   0  0  0  0  0  0  0  0  0  0  0  0
  149.4126  143.7430  158.6646 H   0  0  0  0  0  0  0  0  0  0  0  0
  149.9400  142.5273  159.8456 H   0  0  0  0  0  0  0  0  0  0  0  0
  151.4506  144.7718  159.4855 H   0  0  0  0  0  0  0  0  0  0  0  0
  152.2608  143.2037  159.5831 H   0  0  0  0  0  0  0  0  0  0  0  0
  151.4344  144.6943  157.0576 H   0  0  0  0  0  0  0  0  0  0  0  0
  153.0160  143.9942  157.4166 H   0  0  0  0  0  0  0  0  0  0  0  0
  149.2519  134.6377  157.8447 H   0  0  0  0  0  0  0  0  0  0  0  0
  147.5326  134.5496  157.4677 H   0  0  0  0  0  0  0  0  0  0  0  0
  148.3606  133.1820  158.1868 H   0  0  0  0  0  0  0  0  0  0  0  0
  147.8051  132.1826  159.7430 H   0  0  0  0  0  0  0  0  0  0  0  0
  148.3097  130.8638  161.6877 H   0  0  0  0  0  0  0  0  0  0  0  0
  147.9817  132.2057  162.7780 H   0  0  0  0  0  0  0  0  0  0  0  0
  149.3389  132.2825  161.6683 H   0  0  0  0  0  0  0  0  0  0  0  0
  145.2249  134.2020  160.8041 H   0  0  0  0  0  0  0  0  0  0  0  0
  142.8293  133.5802  160.7663 H   0  0  0  0  0  0  0  0  0  0  0  0
  142.1604  131.1900  160.5939 H   0  0  0  0  0  0  0  0  0  0  0  0
  143.9043  129.4216  160.4559 H   0  0  0  0  0  0  0  0  0  0  0  0
  146.2898  130.0187  160.4934 H   0  0  0  0  0  0  0  0  0  0  0  0
  1  2  1  0  0  0  0
  1 33  1  0  0  0  0
  1 34  1  0  0  0  0
  1 35  1  0  0  0  0
  2 24  1  0  0  0  0
  2  3  2  0  0  0  0
  3  4  1  0  0  0  0
  3 36  1  0  0  0  0
  4  5  1  0  0  0  0
  4 22  2  0  0  0  0
  5  6  2  0  0  0  0
  5  7  1  0  0  0  0
  7  8  1  0  0  0  0
  7 37  1  0  0  0  0
  7 38  1  0  0  0  0
  8 20  1  0  0  0  0
  8  9  1  0  0  0  0
  9 10  2  0  0  0  0
  9 11  1  0  0  0  0
 11 12  1  0  0  0  0
 11 13  2  0  0  0  0
 13 14  1  0  0  0  0
 13 39  1  0  0  0  0
 14 15  1  0  0  0  0
 14 20  1  0  0  0  0
 15 19  1  0  0  0  0
 15 16  1  0  0  0  0
 15 40  1  0  0  0  0
 16 17  1  0  0  0  0
 16 41  1  0  0  0  0
 16 42  1  0  0  0  0
 17 18  1  0  0  0  0
 17 43  1  0  0  0  0
 17 44  1  0  0  0  0
 18 19  1  0  0  0  0
 18 45  1  0  0  0  0
 18 46  1  0  0  0  0
 20 21  2  0  0  0  0
 22 23  1  0  0  0  0
 22 24  1  0  0  0  0
 23 47  1  0  0  0  0
 23 48  1  0  0  0  0
 23 49  1  0  0  0  0
 24 25  1  0  0  0  0
 25 26  1  0  0  0  0
 25 27  1  0  0  0  0
 25 50  1  0  0  0  0
 26 51  1  0  0  0  0
 26 52  1  0  0  0  0
 26 53  1  0  0  0  0
 27 32  1  0  0  0  0
 27 28  2  0  0  0  0
 28 29  1  0  0  0  0
 28 54  1  0  0  0  0
 29 30  2  0  0  0  0
 29 55  1  0  0  0  0
 30 31  1  0  0  0  0
 30 56  1  0  0  0  0
 31 32  2  0  0  0  0
 31 57  1  0  0  0  0
 32 58  1  0  0  0  0
M  END
> <s_m_source_file>
AV-unprocessed.smi

> <i_m_source_file_index>
26

> <i_lp_mmshare_version>
43012

> <i_f3d_flags>
0

> <s_epik_input>
W2NIXTFbY0hdW2NIXVtjSF1bY0hdYzFbQ0BASF0oW0NIM10pbjJjKFtDSDNdKWMoW2NIXWMyW0NIM10pQyg9TylbQ0gyXW4zYyg9TyljKEYpW2NIXW4oYzM9TylbQ0BASF00W0NIMl1bQ0gyXVtDSDJdTzQ=

> <s_epik_cmdline>
J2VwaWtfcHl0aG9uJywgJy1waCcsICc3LjAnLCAnLXRuJywgJzgnLCAnLW1hJywgJzIwMCcsICctbWV0YWxfYmluZGluZycsICctaW1hZScsICc8aW5maWxlLm1hZT4nLCAnLW9tYWUnLCAnPG91dGZpbGUubWFlPic=

> <r_lp_tautomer_probability>
1

> <r_epik_Ionization_Penalty>
5.02402e-09

> <r_epik_Ionization_Penalty_Charging>
5.01743e-09

> <r_epik_Ionization_Penalty_Neutral>
6.58831e-12

> <r_epik_State_Penalty>
-0

> <r_epik_Charging_Adjusted_Penalty>
5.01743e-09

> <i_epik_Tot_Q>
0

> <i_epik_Tot_abs_Q>
0

> <r_epik_Metal_State_Penalty>
-0

> <b_epik_Metal_Only>
0

> <s_epik_Chemistry_Notes>
This compound contains an acetal/aminal-like group ( X-CH(R)-Y where X, Y are N, S, or O) that may be acid/base labile, releasing an aldehyde.

> <s_lp_Force_Field>
OPLS_2005

> <r_lp_Energy>
50.594

> <b_lp_Chiralities_Consistent>
1

> <s_lp_Variant>
AV-unprocessed.smi:26-4

> <Gold.Version>
5.8.1

> <Gold.Id.Protein>
6NUR|6NUR_protein|mol2

> <Gold.PLP.Fitness>
47.3849

> <Gold.PLP.PLP>
-45.7152

> <Gold.PLP.part.hbond>
-2.0000

> <Gold.PLP.part.metal>
0.0000

> <Gold.PLP.part.buried>
-4.6119

> <Gold.PLP.part.nonpolar>
-40.2224

> <Gold.PLP.part.repulsive>
0.0916

> <Gold.PLP.ligand.clash>
0.0000

> <Gold.PLP.ligand.torsion>
1.3450

> <Gold.PLP.Chemscore.Hbond>
1.2728

> <Gold.PLP.Chemscore.CHOScore>
0.0000

> <Gold.PLP.Chemscore.Metal>
0.0000

> <Gold.Chemscore.Hbonds>
donor molecule, donor type, donor heavy atom, donor atom, acceptor molecule, acceptor atom, score
      P1  H  6896  6907       L1    10  1.00
      P1  H  6934  6947       L1     6  0.23

> <Gold.PLP.Chemscore.Internal.Correction>
0.5412

> <Gold.Rescore>
     Score         DG    S(hbond)    S(metal)    S(lipo)     H(rot)  DE(clash)    DE(int)     intcor
     15.24     -18.98       1.29        0.00     118.75       1.84       0.88       2.86       ----

> <Gold.Chemscore.Fitness>
15.2369

> <Gold.Chemscore.DG>
-18.9775

> <Gold.Chemscore.ZeroCoef>
-5.4800

> <Gold.Chemscore.Hbond>
1.2884

> <Gold.Chemscore.Metal>
0.0000

> <Gold.Chemscore.Lipo>
118.7540

> <Gold.Chemscore.Internal_Hbond>
0.0000

> <Gold.Chemscore.DEClash>
0.8828

> <Gold.Chemscore.DEInternal>
2.8578

> <Gold.Chemscore.Rot>
1.8359

> <Gold.Chemscore.Internal.Correction>
   9.000000E+99

> <Gold.Chemscore.Hbonds>
donor molecule, donor type, donor heavy atom, donor atom, acceptor molecule, acceptor atom, score
      P1  H  6896  6907       L1    10  0.95
      P1  H  6934  6947       L1     6  0.15

> <Gold.Chemscore.Hbond.Weighted>
-4.3033

> <Gold.Chemscore.Metal.Weighted>
-0.0000

> <Gold.Chemscore.Lipo.Weighted>
-13.8942

> <Gold.Chemscore.Internal_Hbond.Weighted>
0.0000

> <Gold.Chemscore.DEClash.Weighted>
0.8828

> <Gold.Chemscore.DEInternal.Weighted>
2.8578

> <Gold.Chemscore.Rot.Weighted>
4.7000

> <Gold.Chemscore.Internal.Correction.Weighted>
   9.000000E+99

> <Gold.Protein.RotatedTorsions>
[ 6907 6896 6895 6894 ] final   -8.92 input  -60.11 | X-H torsion
[ 7974 7965 7964 7962 ] final -102.53 input  175.53 | X-H torsion
[ 8008 7997 7996 7995 ] final  152.75 input   59.86 | X-H torsion
[ 10167 10162 10161 10158 ] final  100.87 input  -65.29 | X-H torsion
[ 10718 10713 10712 10709 ] final    6.94 input   66.30 | X-H torsion
[ 10763 10752 10751 10750 ] final  -25.43 input  -60.55 | X-H torsion
[ 11005 11000 10999 10996 ] final  -38.26 input  -57.11 | X-H torsion

> <Gold.Protein.ActiveResidues>
 VAL166  LYS551  ARG553  GLY616  TRP617  ASP618  TYR619  PRO620  LYS621  CYS622 
 ASP623  PHE694  ASN695  SER759  ASP760  ASP761  ALA762  ILE779  LEU786  VAL792 
 PHE793  MET794  SER795  GLU796  ALA797  LYS798  CYS799  TRP800  GLU811  SER814 

> <Gold.Protein.RotatedAtoms>
  151.4260  135.1004  159.9627 H   0  0  0  0  0  0  0  0  0  0  0  0  # atno 6907 bound_to 6896
  152.4972  133.8662  159.7286 H   0  0  0  0  0  0  0  0  0  0  0  0  # atno 6908 bound_to 6896
  150.9189  133.6847  159.2864 H   0  0  0  0  0  0  0  0  0  0  0  0  # atno 6909 bound_to 6896
  145.2676  140.9288  143.3005 H   0  0  0  0  0  0  0  0  0  0  0  0  # atno 7974 bound_to 7965
  156.2614  140.2012  156.6382 H   0  0  0  0  0  0  0  0  0  0  0  0  # atno 8008 bound_to 7997
  154.6630  140.0558  157.0107 H   0  0  0  0  0  0  0  0  0  0  0  0  # atno 8009 bound_to 7997
  155.1248  140.3228  155.4491 H   0  0  0  0  0  0  0  0  0  0  0  0  # atno 8010 bound_to 7997
  139.7488  144.6990  151.0463 H   0  0  0  0  0  0  0  0  0  0  0  0  # atno 10167 bound_to 10162
  156.9296  130.5821  149.5649 H   0  0  0  0  0  0  0  0  0  0  0  0  # atno 10718 bound_to 10713
  153.6997  135.6957  153.5066 H   0  0  0  0  0  0  0  0  0  0  0  0  # atno 10763 bound_to 10752
  153.2352  135.4324  155.0637 H   0  0  0  0  0  0  0  0  0  0  0  0  # atno 10764 bound_to 10752
  154.8348  135.3494  154.6537 H   0  0  0  0  0  0  0  0  0  0  0  0  # atno 10765 bound_to 10752
  141.0014  133.6953  156.2030 H   0  0  0  0  0  0  0  0  0  0  0  0  # atno 11005 bound_to 11000
  144.9363  139.4240  143.6470 LP  0  0  0  0  0  0  0  0  0  0  0  0  # atno 17320 bound_to 7965
  146.3256  139.8300  142.8910 LP  0  0  0  0  0  0  0  0  0  0  0  0  # atno 17321 bound_to 7965
  140.7795  143.4834  150.9988 LP  0  0  0  0  0  0  0  0  0  0  0  0  # atno 17342 bound_to 10162
  139.8522  143.7424  152.3177 LP  0  0  0  0  0  0  0  0  0  0  0  0  # atno 17343 bound_to 10162
  156.0453  130.5530  150.8866 LP  0  0  0  0  0  0  0  0  0  0  0  0  # atno 17370 bound_to 10713
  157.5855  131.0945  150.9203 LP  0  0  0  0  0  0  0  0  0  0  0  0  # atno 17371 bound_to 10713
  140.6883  134.4694  157.5589 LP  0  0  0  0  0  0  0  0  0  0  0  0  # atno 17394 bound_to 11000
  139.9041  134.8489  156.1777 LP  0  0  0  0  0  0  0  0  0  0  0  0  # atno 17395 bound_to 11000

$$$$
