AV-unprocessed.smi:283|AV-procd|sdf|2138|dock4
  -GOLD-   2262021463D 1   1.00000     0.00000
 Structure written by MMmdl.
 48 51  0  0  0  0  0  0  0  0  1 V2000
  150.9650  141.3813  155.8989 C   0  0  0  0  0  0  0  0  0  0  0  0
  151.0332  141.0014  157.3842 C   0  0  1  0  0  0  0  0  0  0  0  0
  151.7435  139.7336  157.5350 N   0  0  0  0  0  0  0  0  0  0  0  0
  151.0797  138.5881  157.8052 C   0  0  0  0  0  0  0  0  0  0  0  0
  150.8509  138.3444  159.1169 N   0  0  0  0  0  0  0  0  0  0  0  0
  150.1827  137.2502  159.4879 C   0  0  0  0  0  0  0  0  0  0  0  0
  149.6785  136.2833  158.7209 N   0  0  0  0  0  0  0  0  0  0  0  0
  149.9234  136.5029  157.3956 C   0  0  0  0  0  0  0  0  0  0  0  0
  150.6072  137.6319  156.8574 C   0  0  0  0  0  0  0  0  0  0  0  0
  150.6509  137.5229  155.4741 N   0  0  0  0  0  0  0  0  0  0  0  0
  150.0185  136.4127  155.2153 C   0  0  0  0  0  0  0  0  0  0  0  0
  149.5823  135.7054  156.3158 N   0  0  0  0  0  0  0  0  0  0  0  0
  148.8067  134.4108  156.3338 C   0  0  2  0  0  0  0  0  0  0  0  0
  149.3263  133.5430  155.3777 O   0  0  0  0  0  0  0  0  0  0  0  0
  148.7430  133.8422  154.1185 C   0  0  1  0  0  0  0  0  0  0  0  0
  148.9437  132.6664  153.1515 C   0  0  0  0  0  0  0  0  0  0  0  0
  148.1108  132.8223  152.0225 O   0  0  0  0  0  0  0  0  0  0  0  0
  147.2767  134.0913  154.4928 C   0  0  2  0  0  0  0  0  0  0  0  0
  146.7181  135.0511  153.6172 O   0  0  0  0  0  0  0  0  0  0  0  0
  147.3367  134.6350  155.9240 C   0  0  1  0  0  0  0  0  0  0  0  0
  146.4567  133.9239  156.7706 O   0  0  0  0  0  0  0  0  0  0  0  0
  151.6112  142.1594  158.2028 C   0  0  0  0  0  0  0  0  0  0  0  0
  151.1492  143.4784  157.9836 C   0  0  0  0  0  0  0  0  0  0  0  0
  151.6671  144.5547  158.7278 C   0  0  0  0  0  0  0  0  0  0  0  0
  152.6473  144.3227  159.7090 C   0  0  0  0  0  0  0  0  0  0  0  0
  153.1044  143.0134  159.9465 C   0  0  0  0  0  0  0  0  0  0  0  0
  152.5903  141.9320  159.2028 C   0  0  0  0  0  0  0  0  0  0  0  0
  153.1784  140.3431  159.5490 Cl  0  0  0  0  0  0  0  0  0  0  0  0
  148.9474  134.0348  157.3480 H   0  0  0  0  0  0  0  0  0  0  0  0
  149.1883  134.7556  153.7173 H   0  0  0  0  0  0  0  0  0  0  0  0
  146.7046  133.1630  154.4487 H   0  0  0  0  0  0  0  0  0  0  0  0
  147.0710  135.6908  155.9672 H   0  0  0  0  0  0  0  0  0  0  0  0
  150.3650  142.2798  155.7510 H   0  0  0  0  0  0  0  0  0  0  0  0
  150.5113  140.5842  155.3090 H   0  0  0  0  0  0  0  0  0  0  0  0
  151.9581  141.5743  155.4917 H   0  0  0  0  0  0  0  0  0  0  0  0
  150.0102  140.8145  157.7048 H   0  0  0  0  0  0  0  0  0  0  0  0
  152.7312  139.8280  157.7212 H   0  0  0  0  0  0  0  0  0  0  0  0
  150.0299  137.1313  160.5503 H   0  0  0  0  0  0  0  0  0  0  0  0
  149.8595  136.0807  154.1998 H   0  0  0  0  0  0  0  0  0  0  0  0
  149.9864  132.5741  152.8464 H   0  0  0  0  0  0  0  0  0  0  0  0
  148.6634  131.7313  153.6371 H   0  0  0  0  0  0  0  0  0  0  0  0
  148.3056  132.1317  151.4075 H   0  0  0  0  0  0  0  0  0  0  0  0
  147.4132  135.4233  153.0962 H   0  0  0  0  0  0  0  0  0  0  0  0
  146.6868  134.1100  157.6681 H   0  0  0  0  0  0  0  0  0  0  0  0
  150.3921  143.6750  157.2387 H   0  0  0  0  0  0  0  0  0  0  0  0
  151.3098  145.5579  158.5467 H   0  0  0  0  0  0  0  0  0  0  0  0
  153.0441  145.1470  160.2829 H   0  0  0  0  0  0  0  0  0  0  0  0
  153.8518  142.8381  160.7062 H   0  0  0  0  0  0  0  0  0  0  0  0
  1  2  1  0  0  0  0
  1 33  1  0  0  0  0
  1 34  1  0  0  0  0
  1 35  1  0  0  0  0
  2  3  1  0  0  0  0
  2 22  1  0  0  0  0
  2 36  1  0  0  0  0
  3  4  1  0  0  0  0
  3 37  1  0  0  0  0
  4  9  1  0  0  0  0
  4  5  2  0  0  0  0
  5  6  1  0  0  0  0
  6  7  2  0  0  0  0
  6 38  1  0  0  0  0
  7  8  1  0  0  0  0
  8 12  1  0  0  0  0
  8  9  2  0  0  0  0
  9 10  1  0  0  0  0
 10 11  2  0  0  0  0
 11 12  1  0  0  0  0
 11 39  1  0  0  0  0
 12 13  1  0  0  0  0
 13 29  1  0  0  0  0
 13 20  1  0  0  0  0
 13 14  1  0  0  0  0
 14 15  1  0  0  0  0
 15 30  1  0  0  0  0
 15 16  1  0  0  0  0
 15 18  1  0  0  0  0
 16 17  1  0  0  0  0
 16 40  1  0  0  0  0
 16 41  1  0  0  0  0
 17 42  1  0  0  0  0
 18 31  1  0  0  0  0
 18 19  1  0  0  0  0
 18 20  1  0  0  0  0
 19 43  1  0  0  0  0
 20 32  1  0  0  0  0
 20 21  1  0  0  0  0
 21 44  1  0  0  0  0
 22 27  1  0  0  0  0
 22 23  2  0  0  0  0
 23 24  1  0  0  0  0
 23 45  1  0  0  0  0
 24 25  2  0  0  0  0
 24 46  1  0  0  0  0
 25 26  1  0  0  0  0
 25 47  1  0  0  0  0
 26 27  2  0  0  0  0
 26 48  1  0  0  0  0
 27 28  1  0  0  0  0
M  END
> <s_m_source_file>
AV-unprocessed.smi

> <i_m_source_file_index>
283

> <i_lp_mmshare_version>
43012

> <i_f3d_flags>
0

> <s_epik_input>
Q2xjMVtjSF1bY0hdW2NIXVtjSF1jMVtDQEhdKFtDSDNdKVtOSF1jKG5bY0hdbjIpYyhjMjMpbltjSF1uM1tDQEBIXTRPW0NASF0oW0NIMl1bT0hdKVtDQEBIXShbT0hdKVtDQEhdNFtPSF0=

> <s_epik_cmdline>
J2VwaWtfcHl0aG9uJywgJy1waCcsICc3LjAnLCAnLXRuJywgJzgnLCAnLW1hJywgJzIwMCcsICctbWV0YWxfYmluZGluZycsICctaW1hZScsICc8aW5maWxlLm1hZT4nLCAnLW9tYWUnLCAnPG91dGZpbGUubWFlPic=

> <r_lp_tautomer_probability>
1

> <r_epik_Ionization_Penalty>
0.000266407

> <r_epik_Ionization_Penalty_Charging>
0

> <r_epik_Ionization_Penalty_Neutral>
0.000266407

> <r_epik_State_Penalty>
-0

> <r_epik_Charging_Adjusted_Penalty>
0

> <i_epik_Tot_Q>
0

> <i_epik_Tot_abs_Q>
0

> <r_epik_Metal_State_Penalty>
-0

> <b_epik_Metal_Only>
0

> <s_epik_Chemistry_Notes>
This compound contains an acetal/aminal-like group ( X-CH(R)-Y where X, Y are N, S, or O) that may be acid/base labile, releasing an aldehyde.

> <s_lp_Force_Field>
OPLS_2005

> <r_lp_Energy>
39.8379

> <b_lp_Chiralities_Consistent>
1

> <s_lp_Variant>
AV-unprocessed.smi:283-14

> <Gold.Version>
5.8.1

> <Gold.Id.Protein>
6NUR|6NUR_protein|mol2

> <Gold.PLP.Fitness>
49.1671

> <Gold.PLP.PLP>
-41.2655

> <Gold.PLP.part.hbond>
-3.2600

> <Gold.PLP.part.metal>
0.0000

> <Gold.PLP.part.buried>
-5.5822

> <Gold.PLP.part.nonpolar>
-31.1039

> <Gold.PLP.part.repulsive>
0.1658

> <Gold.PLP.ligand.clash>
0.0000

> <Gold.PLP.ligand.torsion>
1.7521

> <Gold.PLP.Chemscore.Hbond>
2.7778

> <Gold.PLP.Chemscore.CHOScore>
0.9857

> <Gold.PLP.Chemscore.Metal>
0.0000

> <Gold.Chemscore.Hbonds>
donor molecule, donor type, donor heavy atom, donor atom, acceptor molecule, acceptor atom, score
      L1  H    17    42       P1 10747  1.00
      L1  H    19    43       P1  7948  0.78
      P1  H  6896  6907       L1     7  0.69
      L1  C    11    39       P1  7948  1.00

> <Gold.PLP.Chemscore.Internal.Correction>
0.1155

> <Gold.Rescore>
     Score         DG    S(hbond)    S(metal)    S(lipo)     H(rot)  DE(clash)    DE(int)     intcor
     10.14     -14.03       2.00        0.00     105.74       4.10       0.01       3.88       ----

> <Gold.Chemscore.Fitness>
10.1403

> <Gold.Chemscore.DG>
-14.0346

> <Gold.Chemscore.ZeroCoef>
-5.4800

> <Gold.Chemscore.Hbond>
1.9974

> <Gold.Chemscore.Metal>
0.0000

> <Gold.Chemscore.Lipo>
105.7376

> <Gold.Chemscore.Internal_Hbond>
0.0000

> <Gold.Chemscore.DEClash>
0.0137

> <Gold.Chemscore.DEInternal>
3.8805

> <Gold.Chemscore.Rot>
4.0968

> <Gold.Chemscore.Internal.Correction>
   9.000000E+99

> <Gold.Chemscore.Hbonds>
donor molecule, donor type, donor heavy atom, donor atom, acceptor molecule, acceptor atom, score
      L1  H    17    42       P1 10747  1.00
      L1  H    19    43       P1  7948  0.77
      P1  H  6896  6907       L1     7  0.09

> <Gold.Chemscore.Hbond.Weighted>
-6.6712

> <Gold.Chemscore.Metal.Weighted>
-0.0000

> <Gold.Chemscore.Lipo.Weighted>
-12.3713

> <Gold.Chemscore.Internal_Hbond.Weighted>
0.0000

> <Gold.Chemscore.DEClash.Weighted>
0.0137

> <Gold.Chemscore.DEInternal.Weighted>
3.8805

> <Gold.Chemscore.Rot.Weighted>
10.4879

> <Gold.Chemscore.Internal.Correction.Weighted>
   9.000000E+99

> <Gold.Protein.RotatedTorsions>
[ 6907 6896 6895 6894 ] final  -60.92 input  -60.11 | X-H torsion
[ 7974 7965 7964 7962 ] final  109.83 input  175.53 | X-H torsion
[ 8008 7997 7996 7995 ] final -162.62 input   59.86 | X-H torsion
[ 10167 10162 10161 10158 ] final  106.12 input  -65.29 | X-H torsion
[ 10718 10713 10712 10709 ] final -156.68 input   66.30 | X-H torsion
[ 10763 10752 10751 10750 ] final -152.35 input  -60.55 | X-H torsion
[ 11005 11000 10999 10996 ] final   20.18 input  -57.11 | X-H torsion

> <Gold.Protein.ActiveResidues>
 VAL166  LYS551  ARG553  GLY616  TRP617  ASP618  TYR619  PRO620  LYS621  CYS622 
 ASP623  PHE694  ASN695  SER759  ASP760  ASP761  ALA762  ILE779  LEU786  VAL792 
 PHE793  MET794  SER795  GLU796  ALA797  LYS798  CYS799  TRP800  GLU811  SER814 

> <Gold.Protein.RotatedAtoms>
  150.7821  134.6774  159.6424 H   0  0  0  0  0  0  0  0  0  0  0  0  # atno 6907 bound_to 6896
  152.3909  134.6440  160.0117 H   0  0  0  0  0  0  0  0  0  0  0  0  # atno 6908 bound_to 6896
  151.6741  133.3276  159.3240 H   0  0  0  0  0  0  0  0  0  0  0  0  # atno 6909 bound_to 6896
  145.2628  139.2696  143.4008 H   0  0  0  0  0  0  0  0  0  0  0  0  # atno 7974 bound_to 7965
  155.8094  140.0903  157.1912 H   0  0  0  0  0  0  0  0  0  0  0  0  # atno 8008 bound_to 7997
  154.3980  140.1457  156.3429 H   0  0  0  0  0  0  0  0  0  0  0  0  # atno 8009 bound_to 7997
  155.8380  140.3440  155.5616 H   0  0  0  0  0  0  0  0  0  0  0  0  # atno 8010 bound_to 7997
  139.7035  144.7090  151.1145 H   0  0  0  0  0  0  0  0  0  0  0  0  # atno 10167 bound_to 10162
  156.5298  130.8516  151.2712 H   0  0  0  0  0  0  0  0  0  0  0  0  # atno 10718 bound_to 10713
  154.7999  135.3238  154.7575 H   0  0  0  0  0  0  0  0  0  0  0  0  # atno 10763 bound_to 10752
  153.8245  135.6885  153.4827 H   0  0  0  0  0  0  0  0  0  0  0  0  # atno 10764 bound_to 10752
  153.1711  135.4623  154.9846 H   0  0  0  0  0  0  0  0  0  0  0  0  # atno 10765 bound_to 10752
  140.4055  134.1674  155.7665 H   0  0  0  0  0  0  0  0  0  0  0  0  # atno 11005 bound_to 11000
  146.3270  140.3049  142.8623 LP  0  0  0  0  0  0  0  0  0  0  0  0  # atno 17320 bound_to 7965
  144.9404  140.8072  143.5634 LP  0  0  0  0  0  0  0  0  0  0  0  0  # atno 17321 bound_to 7965
  140.7716  143.5390  150.9334 LP  0  0  0  0  0  0  0  0  0  0  0  0  # atno 17342 bound_to 10162
  139.9073  143.6763  152.3121 LP  0  0  0  0  0  0  0  0  0  0  0  0  # atno 17343 bound_to 10162
  157.7423  130.9888  150.2510 LP  0  0  0  0  0  0  0  0  0  0  0  0  # atno 17370 bound_to 10713
  156.3070  130.3766  149.7697 LP  0  0  0  0  0  0  0  0  0  0  0  0  # atno 17371 bound_to 10713
  141.1841  133.8351  157.1152 LP  0  0  0  0  0  0  0  0  0  0  0  0  # atno 17394 bound_to 11000
  140.0305  134.9903  157.0771 LP  0  0  0  0  0  0  0  0  0  0  0  0  # atno 17395 bound_to 11000

$$$$
