AV-unprocessed.smi:1812|AV-procd|sdf|7337|dock5
  -GOLD-   22720 8593D 1   1.00000     0.00000
 Structure written by MMmdl.
 34 36  0  0  0  0  0  0  0  0  1 V2000
  146.1369  139.1234  153.9133 O   0  0  0  0  0  0  0  0  0  0  0  0
  146.8350  138.3083  153.3093 C   0  0  0  0  0  0  0  0  0  0  0  0
  146.3322  137.3486  152.5197 N   0  0  0  0  0  0  0  0  0  0  0  0
  144.9120  137.1355  152.2650 C   0  0  0  0  0  0  0  0  0  0  0  0
  144.6193  135.6767  151.8796 C   0  0  1  0  0  0  0  0  0  0  0  0
  144.8256  135.3778  150.3987 C   0  0  0  0  0  0  0  0  0  0  0  0
  145.0007  133.8712  150.3903 C   0  0  0  0  0  0  0  0  0  0  0  0
  145.5375  133.5592  151.7912 C   0  0  0  0  0  0  0  0  0  0  0  0
  145.5469  134.7964  152.4958 O   0  0  0  0  0  0  0  0  0  0  0  0
  148.1780  138.2540  153.3482 N   0  0  0  0  0  0  0  0  0  0  0  0
  149.0736  139.1157  154.0354 C   0  0  0  0  0  0  0  0  0  0  0  0
  150.3986  138.9224  154.0896 N   0  0  0  0  0  0  0  0  0  0  0  0
  151.0355  139.9065  154.8324 N   0  0  0  0  0  0  0  0  0  0  0  0
  150.1781  140.8124  155.3177 C   0  0  0  0  0  0  0  0  0  0  0  0
  150.6275  141.9650  156.1530 C   0  0  0  0  0  0  0  0  0  0  0  0
  151.3770  141.7358  157.4454 C   0  0  0  0  0  0  0  0  0  0  0  0
  149.9748  142.2874  157.4793 C   0  0  0  0  0  0  0  0  0  0  0  0
  148.4923  140.5325  154.8930 S   0  0  0  0  0  0  0  0  0  0  0  0
  146.9746  136.7165  152.0652 H   0  0  0  0  0  0  0  0  0  0  0  0
  144.3324  137.4159  153.1460 H   0  0  0  0  0  0  0  0  0  0  0  0
  144.5999  137.8062  151.4642 H   0  0  0  0  0  0  0  0  0  0  0  0
  143.6070  135.3910  152.1722 H   0  0  0  0  0  0  0  0  0  0  0  0
  143.9950  135.7139  149.7773 H   0  0  0  0  0  0  0  0  0  0  0  0
  145.7367  135.8579  150.0385 H   0  0  0  0  0  0  0  0  0  0  0  0
  144.0392  133.3787  150.2410 H   0  0  0  0  0  0  0  0  0  0  0  0
  145.6745  133.5400  149.5996 H   0  0  0  0  0  0  0  0  0  0  0  0
  144.8904  132.8465  152.3036 H   0  0  0  0  0  0  0  0  0  0  0  0
  146.5441  133.1415  151.7605 H   0  0  0  0  0  0  0  0  0  0  0  0
  148.6122  137.5194  152.8093 H   0  0  0  0  0  0  0  0  0  0  0  0
  150.9389  142.7965  155.5241 H   0  0  0  0  0  0  0  0  0  0  0  0
  151.5191  140.7075  157.7723 H   0  0  0  0  0  0  0  0  0  0  0  0
  152.1915  142.4175  157.6817 H   0  0  0  0  0  0  0  0  0  0  0  0
  149.8544  143.3379  157.7356 H   0  0  0  0  0  0  0  0  0  0  0  0
  149.1905  141.6272  157.8430 H   0  0  0  0  0  0  0  0  0  0  0  0
  1  2  2  0  0  0  0
  2  3  1  0  0  0  0
  2 10  1  0  0  0  0
  3  4  1  0  0  0  0
  3 19  1  0  0  0  0
  4  5  1  0  0  0  0
  4 20  1  0  0  0  0
  4 21  1  0  0  0  0
  5  9  1  0  0  0  0
  5  6  1  0  0  0  0
  5 22  1  0  0  0  0
  6  7  1  0  0  0  0
  6 23  1  0  0  0  0
  6 24  1  0  0  0  0
  7  8  1  0  0  0  0
  7 25  1  0  0  0  0
  7 26  1  0  0  0  0
  8  9  1  0  0  0  0
  8 27  1  0  0  0  0
  8 28  1  0  0  0  0
 10 11  1  0  0  0  0
 10 29  1  0  0  0  0
 11 18  1  0  0  0  0
 11 12  2  0  0  0  0
 12 13  1  0  0  0  0
 13 14  2  0  0  0  0
 14 15  1  0  0  0  0
 14 18  1  0  0  0  0
 15 17  1  0  0  0  0
 15 16  1  0  0  0  0
 15 30  1  0  0  0  0
 16 17  1  0  0  0  0
 16 31  1  0  0  0  0
 16 32  1  0  0  0  0
 17 33  1  0  0  0  0
 17 34  1  0  0  0  0
M  END
> <s_m_source_file>
AV-unprocessed.smi

> <i_m_source_file_index>
1812

> <i_lp_mmshare_version>
43012

> <i_f3d_flags>
0

> <s_epik_input>
TzFbQ0gyXVtDSDJdW0NIMl1bQ0BIXTFbQ0gyXVtOSF1DKD1PKVtOSF1jMm5uYyhzMilbQ0hdM1tDSDJdW0NIMl0z

> <s_epik_cmdline>
J2VwaWtfcHl0aG9uJywgJy1waCcsICc3LjAnLCAnLXRuJywgJzgnLCAnLW1hJywgJzIwMCcsICctbWV0YWxfYmluZGluZycsICctaW1hZScsICc8aW5maWxlLm1hZT4nLCAnLW9tYWUnLCAnPG91dGZpbGUubWFlPic=

> <r_lp_tautomer_probability>
1

> <r_epik_Ionization_Penalty>
0.000281817

> <r_epik_Ionization_Penalty_Charging>
0

> <r_epik_Ionization_Penalty_Neutral>
0.000281817

> <r_epik_State_Penalty>
-0

> <r_epik_Charging_Adjusted_Penalty>
0

> <i_epik_Tot_Q>
0

> <i_epik_Tot_abs_Q>
0

> <r_epik_Metal_State_Penalty>
0.157535

> <b_epik_Metal_Only>
0

> <s_lp_Force_Field>
OPLS_2005

> <r_lp_Energy>
14.4176

> <b_lp_Chiralities_Consistent>
1

> <s_lp_Variant>
AV-unprocessed.smi:1812-2

> <Gold.Version>
5.8.1

> <Gold.Id.Protein>
6NUR|6NUR_protein|mol2

> <Gold.PLP.Fitness>
35.2999

> <Gold.PLP.PLP>
-27.8076

> <Gold.PLP.part.hbond>
-3.3631

> <Gold.PLP.part.metal>
0.0000

> <Gold.PLP.part.buried>
-4.4154

> <Gold.PLP.part.nonpolar>
-20.8608

> <Gold.PLP.part.repulsive>
0.5464

> <Gold.PLP.ligand.clash>
0.0000

> <Gold.PLP.ligand.torsion>
0.5941

> <Gold.PLP.Chemscore.Hbond>
2.8460

> <Gold.PLP.Chemscore.CHOScore>
0.0000

> <Gold.PLP.Chemscore.Metal>
0.0000

> <Gold.Chemscore.Hbonds>
donor molecule, donor type, donor heavy atom, donor atom, acceptor molecule, acceptor atom, score
      L1  H     3    19       P1  7948  0.90
      L1  H    10    29       P1  7948  1.00
      P1  H  7989  7998       L1    13  0.76

> <Gold.PLP.Chemscore.Internal.Correction>
0.1426

> <Gold.Rescore>
     Score         DG    S(hbond)    S(metal)    S(lipo)     H(rot)  DE(clash)    DE(int)     intcor
     13.55     -15.27       1.94        0.00      60.46       1.47       0.02       1.70       ----

> <Gold.Chemscore.Fitness>
13.5514

> <Gold.Chemscore.DG>
-15.2717

> <Gold.Chemscore.ZeroCoef>
-5.4800

> <Gold.Chemscore.Hbond>
1.9425

> <Gold.Chemscore.Metal>
0.0000

> <Gold.Chemscore.Lipo>
60.4562

> <Gold.Chemscore.Internal_Hbond>
0.0000

> <Gold.Chemscore.DEClash>
0.0171

> <Gold.Chemscore.DEInternal>
1.7032

> <Gold.Chemscore.Rot>
1.4725

> <Gold.Chemscore.Internal.Correction>
   9.000000E+99

> <Gold.Chemscore.Hbonds>
donor molecule, donor type, donor heavy atom, donor atom, acceptor molecule, acceptor atom, score
      L1  H     3    19       P1  7948  0.82
      L1  H    10    29       P1  7948  0.99
      P1  H  7989  7998       L1    13  0.03

> <Gold.Chemscore.Hbond.Weighted>
-6.4878

> <Gold.Chemscore.Metal.Weighted>
-0.0000

> <Gold.Chemscore.Lipo.Weighted>
-7.0734

> <Gold.Chemscore.Internal_Hbond.Weighted>
0.0000

> <Gold.Chemscore.DEClash.Weighted>
0.0171

> <Gold.Chemscore.DEInternal.Weighted>
1.7032

> <Gold.Chemscore.Rot.Weighted>
3.7695

> <Gold.Chemscore.Internal.Correction.Weighted>
   9.000000E+99

> <Gold.Protein.RotatedTorsions>
[ 6907 6896 6895 6894 ] final  -97.11 input  -60.11 | X-H torsion
[ 7974 7965 7964 7962 ] final   -0.89 input  175.53 | X-H torsion
[ 8008 7997 7996 7995 ] final -137.64 input   59.86 | X-H torsion
[ 10167 10162 10161 10158 ] final  118.47 input  -65.29 | X-H torsion
[ 10718 10713 10712 10709 ] final   -5.26 input   66.30 | X-H torsion
[ 10763 10752 10751 10750 ] final   69.44 input  -60.55 | X-H torsion
[ 11005 11000 10999 10996 ] final    7.33 input  -57.11 | X-H torsion

> <Gold.Protein.ActiveResidues>
 VAL166  LYS551  ARG553  GLY616  TRP617  ASP618  TYR619  PRO620  LYS621  CYS622 
 ASP623  PHE694  ASN695  SER759  ASP760  ASP761  ALA762  ILE779  LEU786  VAL792 
 PHE793  MET794  SER795  GLU796  ALA797  LYS798  CYS799  TRP800  GLU811  SER814 

> <Gold.Protein.RotatedAtoms>
  150.7007  134.1399  159.4100 H   0  0  0  0  0  0  0  0  0  0  0  0  # atno 6907 bound_to 6896
  151.9384  135.0222  160.0543 H   0  0  0  0  0  0  0  0  0  0  0  0  # atno 6908 bound_to 6896
  152.2115  133.4880  159.5149 H   0  0  0  0  0  0  0  0  0  0  0  0  # atno 6909 bound_to 6896
  146.2423  140.1339  142.8337 H   0  0  0  0  0  0  0  0  0  0  0  0  # atno 7974 bound_to 7965
  155.4151  140.0515  157.3029 H   0  0  0  0  0  0  0  0  0  0  0  0  # atno 8008 bound_to 7997
  154.4928  140.2127  155.9470 H   0  0  0  0  0  0  0  0  0  0  0  0  # atno 8009 bound_to 7997
  156.1365  140.3162  155.8434 H   0  0  0  0  0  0  0  0  0  0  0  0  # atno 8010 bound_to 7997
  139.6109  144.7081  151.2846 H   0  0  0  0  0  0  0  0  0  0  0  0  # atno 10167 bound_to 10162
  156.7492  130.5234  149.5807 H   0  0  0  0  0  0  0  0  0  0  0  0  # atno 10718 bound_to 10713
  153.0287  135.5210  154.7288 H   0  0  0  0  0  0  0  0  0  0  0  0  # atno 10763 bound_to 10752
  154.6322  135.2901  155.0205 H   0  0  0  0  0  0  0  0  0  0  0  0  # atno 10764 bound_to 10752
  154.1153  135.6616  153.4945 H   0  0  0  0  0  0  0  0  0  0  0  0  # atno 10765 bound_to 10752
  140.5495  134.0297  155.7932 H   0  0  0  0  0  0  0  0  0  0  0  0  # atno 11005 bound_to 11000
  145.0303  140.8865  143.5113 LP  0  0  0  0  0  0  0  0  0  0  0  0  # atno 17320 bound_to 7965
  145.1402  139.2577  143.5494 LP  0  0  0  0  0  0  0  0  0  0  0  0  # atno 17321 bound_to 7965
  140.7318  143.6840  150.7977 LP  0  0  0  0  0  0  0  0  0  0  0  0  # atno 17342 bound_to 10162
  140.0435  143.5322  152.2707 LP  0  0  0  0  0  0  0  0  0  0  0  0  # atno 17343 bound_to 10162
  156.1412  130.6246  151.0470 LP  0  0  0  0  0  0  0  0  0  0  0  0  # atno 17370 bound_to 10713
  157.6784  131.0844  150.7433 LP  0  0  0  0  0  0  0  0  0  0  0  0  # atno 17371 bound_to 10713
  141.1180  133.9508  157.2785 LP  0  0  0  0  0  0  0  0  0  0  0  0  # atno 17394 bound_to 11000
  139.9462  135.0183  156.8860 LP  0  0  0  0  0  0  0  0  0  0  0  0  # atno 17395 bound_to 11000

$$$$
