AV-unprocessed.smi:3341|AV-procd|sdf|12885|dock1
  -GOLD-   2272019293D 1   1.00000     0.00000
 Structure written by MMmdl.
 46 47  0  0  0  0  0  0  0  0  2 V2000
  151.1289  141.8396  158.5351 C   0  0  0  0  0  0  0  0  0  0  0  0
  152.0789  140.7077  158.1262 C   0  0  0  0  0  0  0  0  0  0  0  0
  151.6775  140.0942  156.8754 N   0  0  0  0  0  0  0  0  0  0  0  0
  150.5393  140.3367  156.1323 C   0  0  0  0  0  0  0  0  0  0  0  0
  150.6249  139.5121  155.0462 C   0  0  0  0  0  0  0  0  0  0  0  0
  149.7214  139.3503  153.9655 N   0  0  0  0  0  0  0  0  0  0  0  0
  148.4285  138.9935  154.0300 C   0  0  0  0  0  0  0  0  0  0  0  0
  147.8071  138.7617  155.0672 O   0  0  0  0  0  0  0  0  0  0  0  0
  147.8796  138.9239  152.8091 N   0  0  0  0  0  0  0  0  0  0  0  0
  146.4942  138.5604  152.5350 C   0  0  0  0  0  0  0  0  0  0  0  0
  146.3975  137.5010  151.4200 C   0  0  0  0  0  0  0  0  0  0  0  0
  145.5417  136.3501  151.8042 N   0  3  1  0  0  0  0  0  0  0  0  0
  144.1836  136.7782  152.2286 C   0  0  0  0  0  0  0  0  0  0  0  0
  143.3701  135.5910  152.7672 C   0  0  0  0  0  0  0  0  0  0  0  0
  143.2916  134.4608  151.7314 C   0  0  0  0  0  0  0  0  0  0  0  0
  144.6936  134.0538  151.2422 C   0  0  2  0  0  0  0  0  0  0  0  0
  145.4775  133.2388  152.2860 C   0  0  0  0  0  0  0  0  0  0  0  0
  145.4788  135.2912  150.7596 C   0  0  0  0  0  0  0  0  0  0  0  0
  151.8417  138.7976  155.1975 C   0  0  0  0  0  0  0  0  0  0  0  0
  152.4733  139.1560  156.3049 N   0  0  0  0  0  0  0  0  0  0  0  0
  151.4398  142.2839  159.4807 H   0  0  0  0  0  0  0  0  0  0  0  0
  150.1097  141.4721  158.6590 H   0  0  0  0  0  0  0  0  0  0  0  0
  151.1116  142.6312  157.7855 H   0  0  0  0  0  0  0  0  0  0  0  0
  153.0972  141.0850  158.0222 H   0  0  0  0  0  0  0  0  0  0  0  0
  152.1034  139.9390  158.8995 H   0  0  0  0  0  0  0  0  0  0  0  0
  149.7948  141.0552  156.4418 H   0  0  0  0  0  0  0  0  0  0  0  0
  150.1022  139.5234  153.0466 H   0  0  0  0  0  0  0  0  0  0  0  0
  148.4645  139.1295  152.0120 H   0  0  0  0  0  0  0  0  0  0  0  0
  146.0704  138.1874  153.4663 H   0  0  0  0  0  0  0  0  0  0  0  0
  145.9211  139.4500  152.2677 H   0  0  0  0  0  0  0  0  0  0  0  0
  145.9742  137.9761  150.5338 H   0  0  0  0  0  0  0  0  0  0  0  0
  147.3885  137.1460  151.1332 H   0  0  0  0  0  0  0  0  0  0  0  0
  144.2605  137.5369  153.0084 H   0  0  0  0  0  0  0  0  0  0  0  0
  143.6664  137.2400  151.3859 H   0  0  0  0  0  0  0  0  0  0  0  0
  143.8222  135.2225  153.6886 H   0  0  0  0  0  0  0  0  0  0  0  0
  142.3649  135.9202  153.0320 H   0  0  0  0  0  0  0  0  0  0  0  0
  142.7649  133.6010  152.1468 H   0  0  0  0  0  0  0  0  0  0  0  0
  142.6990  134.7992  150.8802 H   0  0  0  0  0  0  0  0  0  0  0  0
  144.5577  133.3976  150.3814 H   0  0  0  0  0  0  0  0  0  0  0  0
  145.6877  133.8196  153.1840 H   0  0  0  0  0  0  0  0  0  0  0  0
  146.4331  132.9029  151.8819 H   0  0  0  0  0  0  0  0  0  0  0  0
  144.9213  132.3509  152.5879 H   0  0  0  0  0  0  0  0  0  0  0  0
  145.0037  135.7022  149.8672 H   0  0  0  0  0  0  0  0  0  0  0  0
  146.4802  134.9842  150.4602 H   0  0  0  0  0  0  0  0  0  0  0  0
  152.2785  138.0473  154.5553 H   0  0  0  0  0  0  0  0  0  0  0  0
  145.9708  135.9358  152.6193 H   0  0  0  0  0  0  0  0  0  0  0  0
  1  2  1  0  0  0  0
  1 21  1  0  0  0  0
  1 22  1  0  0  0  0
  1 23  1  0  0  0  0
  2  3  1  0  0  0  0
  2 24  1  0  0  0  0
  2 25  1  0  0  0  0
  3 20  1  0  0  0  0
  3  4  1  0  0  0  0
  4  5  2  0  0  0  0
  4 26  1  0  0  0  0
  5  6  1  0  0  0  0
  5 19  1  0  0  0  0
  6  7  1  0  0  0  0
  6 27  1  0  0  0  0
  7  8  2  0  0  0  0
  7  9  1  0  0  0  0
  9 10  1  0  0  0  0
  9 28  1  0  0  0  0
 10 11  1  0  0  0  0
 10 29  1  0  0  0  0
 10 30  1  0  0  0  0
 11 12  1  0  0  0  0
 11 31  1  0  0  0  0
 11 32  1  0  0  0  0
 12 18  1  0  0  0  0
 12 13  1  0  0  0  0
 12 46  1  0  0  0  0
 13 14  1  0  0  0  0
 13 33  1  0  0  0  0
 13 34  1  0  0  0  0
 14 15  1  0  0  0  0
 14 35  1  0  0  0  0
 14 36  1  0  0  0  0
 15 16  1  0  0  0  0
 15 37  1  0  0  0  0
 15 38  1  0  0  0  0
 16 17  1  0  0  0  0
 16 18  1  0  0  0  0
 16 39  1  0  0  0  0
 17 40  1  0  0  0  0
 17 41  1  0  0  0  0
 17 42  1  0  0  0  0
 18 43  1  0  0  0  0
 18 44  1  0  0  0  0
 19 20  2  0  0  0  0
 19 45  1  0  0  0  0
M  CHG  1  12   1
M  END
> <s_m_source_file>
AV-unprocessed.smi

> <i_m_source_file_index>
3341

> <i_lp_mmshare_version>
43012

> <i_f3d_flags>
0

> <s_epik_input>
W0NIM11bQ0gyXW4xW2NIXWMoW2NIXW4xKVtOSF1DKD1PKVtOSF1bQ0gyXVtDSDJdTjJbQ0gyXVtDSDJdW0NIMl1bQ0BASF0oW0NIM10pW0NIMl0y

> <s_epik_cmdline>
J2VwaWtfcHl0aG9uJywgJy1waCcsICc3LjAnLCAnLXRuJywgJzgnLCAnLW1hJywgJzIwMCcsICctbWV0YWxfYmluZGluZycsICctaW1hZScsICc8aW5maWxlLm1hZT4nLCAnLW9tYWUnLCAnPG91dGZpbGUubWFlPic=

> <r_lp_tautomer_probability>
1

> <r_epik_Ionization_Penalty>
0.00203389

> <r_epik_Ionization_Penalty_Charging>
0.00188267

> <r_epik_Ionization_Penalty_Neutral>
0.000151224

> <r_epik_State_Penalty>
0.0012808

> <r_epik_Charging_Adjusted_Penalty>
0.00316346

> <i_epik_Tot_Q>
1

> <i_epik_Tot_abs_Q>
1

> <r_epik_Metal_State_Penalty>
-0

> <b_epik_Metal_Only>
0

> <s_lp_Force_Field>
OPLS_2005

> <r_lp_Energy>
23.1635

> <b_lp_Chiralities_Consistent>
1

> <s_lp_Variant>
AV-unprocessed.smi:3341-3

> <Gold.Version>
5.8.1

> <Gold.Id.Protein>
6NUR|6NUR_protein|mol2

> <Gold.PLP.Fitness>
43.3717

> <Gold.PLP.PLP>
-36.3214

> <Gold.PLP.part.hbond>
-4.0500

> <Gold.PLP.part.metal>
0.0000

> <Gold.PLP.part.buried>
-1.9264

> <Gold.PLP.part.nonpolar>
-31.0408

> <Gold.PLP.part.repulsive>
0.2719

> <Gold.PLP.ligand.clash>
0.0000

> <Gold.PLP.ligand.torsion>
1.0001

> <Gold.PLP.Chemscore.Hbond>
2.9920

> <Gold.PLP.Chemscore.CHOScore>
0.0000

> <Gold.PLP.Chemscore.Metal>
0.0000

> <Gold.Chemscore.Hbonds>
donor molecule, donor type, donor heavy atom, donor atom, acceptor molecule, acceptor atom, score
      L1  H     6    27       P1  7957  0.88
      L1  H     9    28       P1  7957  1.00
      P1  H  7997  8008       L1    20  0.83

> <Gold.PLP.Chemscore.Internal.Correction>
0.0745

> <Gold.Rescore>
     Score         DG    S(hbond)    S(metal)    S(lipo)     H(rot)  DE(clash)    DE(int)     intcor
     18.42     -20.75       2.92        0.00      81.97       1.59       1.32       1.01       ----

> <Gold.Chemscore.Fitness>
18.4205

> <Gold.Chemscore.DG>
-20.7490

> <Gold.Chemscore.ZeroCoef>
-5.4800

> <Gold.Chemscore.Hbond>
2.9195

> <Gold.Chemscore.Metal>
0.0000

> <Gold.Chemscore.Lipo>
81.9698

> <Gold.Chemscore.Internal_Hbond>
0.0000

> <Gold.Chemscore.DEClash>
1.3203

> <Gold.Chemscore.DEInternal>
1.0082

> <Gold.Chemscore.Rot>
1.5909

> <Gold.Chemscore.Internal.Correction>
   9.000000E+99

> <Gold.Chemscore.Hbonds>
donor molecule, donor type, donor heavy atom, donor atom, acceptor molecule, acceptor atom, score
      L1  H     6    27       P1  7957  0.81
      L1  H     9    28       P1  7957  0.97
      P1  H  7997  8008       L1    20  0.21

> <Gold.Chemscore.Hbond.Weighted>
-9.7513

> <Gold.Chemscore.Metal.Weighted>
-0.0000

> <Gold.Chemscore.Lipo.Weighted>
-9.5905

> <Gold.Chemscore.Internal_Hbond.Weighted>
0.0000

> <Gold.Chemscore.DEClash.Weighted>
1.3203

> <Gold.Chemscore.DEInternal.Weighted>
1.0082

> <Gold.Chemscore.Rot.Weighted>
4.0728

> <Gold.Chemscore.Internal.Correction.Weighted>
   9.000000E+99

> <Gold.Protein.RotatedTorsions>
[ 6907 6896 6895 6894 ] final    3.04 input  -60.11 | X-H torsion
[ 7974 7965 7964 7962 ] final  -45.95 input  175.53 | X-H torsion
[ 8008 7997 7996 7995 ] final  -50.27 input   59.86 | X-H torsion
[ 10167 10162 10161 10158 ] final  119.48 input  -65.29 | X-H torsion
[ 10718 10713 10712 10709 ] final  -20.04 input   66.30 | X-H torsion
[ 10763 10752 10751 10750 ] final  -77.50 input  -60.55 | X-H torsion
[ 11005 11000 10999 10996 ] final   -6.22 input  -57.11 | X-H torsion

> <Gold.Protein.ActiveResidues>
 VAL166  LYS551  ARG553  GLY616  TRP617  ASP618  TYR619  PRO620  LYS621  CYS622 
 ASP623  PHE694  ASN695  SER759  ASP760  ASP761  ALA762  ILE779  LEU786  VAL792 
 PHE793  MET794  SER795  GLU796  ALA797  LYS798  CYS799  TRP800  GLU811  SER814 

> <Gold.Protein.RotatedAtoms>
  151.6187  135.1034  160.0096 H   0  0  0  0  0  0  0  0  0  0  0  0  # atno 6907 bound_to 6896
  152.4169  133.7049  159.6456 H   0  0  0  0  0  0  0  0  0  0  0  0  # atno 6908 bound_to 6896
  150.8057  133.8440  159.3228 H   0  0  0  0  0  0  0  0  0  0  0  0  # atno 6909 bound_to 6896
  145.9769  140.7325  142.9383 H   0  0  0  0  0  0  0  0  0  0  0  0  # atno 7974 bound_to 7965
  154.4059  140.1276  156.4639 H   0  0  0  0  0  0  0  0  0  0  0  0  # atno 8008 bound_to 7997
  155.7246  140.3492  155.5011 H   0  0  0  0  0  0  0  0  0  0  0  0  # atno 8009 bound_to 7997
  155.9183  140.1048  157.1216 H   0  0  0  0  0  0  0  0  0  0  0  0  # atno 8010 bound_to 7997
  139.6043  144.7065  151.2990 H   0  0  0  0  0  0  0  0  0  0  0  0  # atno 10167 bound_to 10162
  156.5373  130.4669  149.6516 H   0  0  0  0  0  0  0  0  0  0  0  0  # atno 10718 bound_to 10713
  154.5137  135.5762  153.6625 H   0  0  0  0  0  0  0  0  0  0  0  0  # atno 10763 bound_to 10752
  152.9902  135.6165  154.2845 H   0  0  0  0  0  0  0  0  0  0  0  0  # atno 10764 bound_to 10752
  154.2762  135.2852  155.2697 H   0  0  0  0  0  0  0  0  0  0  0  0  # atno 10765 bound_to 10752
  140.6996  133.9001  155.8674 H   0  0  0  0  0  0  0  0  0  0  0  0  # atno 11005 bound_to 11000
  144.6851  140.2843  143.7287 LP  0  0  0  0  0  0  0  0  0  0  0  0  # atno 17320 bound_to 7965
  145.7826  139.1897  143.2149 LP  0  0  0  0  0  0  0  0  0  0  0  0  # atno 17321 bound_to 7965
  140.7273  143.6966  150.7878 LP  0  0  0  0  0  0  0  0  0  0  0  0  # atno 17342 bound_to 10162
  140.0549  143.5213  152.2656 LP  0  0  0  0  0  0  0  0  0  0  0  0  # atno 17343 bound_to 10162
  156.3004  130.7173  151.2044 LP  0  0  0  0  0  0  0  0  0  0  0  0  # atno 17370 bound_to 10713
  157.7411  131.0508  150.5117 LP  0  0  0  0  0  0  0  0  0  0  0  0  # atno 17371 bound_to 10713
  141.0174  134.0936  157.4157 LP  0  0  0  0  0  0  0  0  0  0  0  0  # atno 17394 bound_to 11000
  139.8900  135.0109  156.6713 LP  0  0  0  0  0  0  0  0  0  0  0  0  # atno 17395 bound_to 11000

$$$$
