AV-unprocessed.smi:207|AV-procd|sdf|1602|dock2
  -GOLD-   2262019513D 1   1.00000     0.00000
 Structure written by MMmdl.
 55 58  0  0  0  0  0  0  0  0  1 V2000
  146.6146  132.7065  152.7002 C   0  0  0  0  0  0  0  0  0  0  0  0
  145.7364  133.8949  152.2576 C   0  0  0  0  0  0  0  0  0  0  0  0
  144.5041  133.9219  153.2015 C   0  0  0  0  0  0  0  0  0  0  0  0
  146.5841  135.1666  152.5294 C   0  0  0  0  0  0  0  0  0  0  0  0
  145.9010  136.3806  152.0798 N   0  0  0  0  0  0  0  0  0  0  0  0
  146.3910  137.5768  152.4932 C   0  0  0  0  0  0  0  0  0  0  0  0
  146.7484  138.5190  151.5795 N   0  0  0  0  0  0  0  0  0  0  0  0
  147.2172  139.7044  151.9795 C   0  0  0  0  0  0  0  0  0  0  0  0
  147.4112  140.1478  153.2226 N   0  0  0  0  0  0  0  0  0  0  0  0
  147.0679  139.2044  154.1451 C   0  0  0  0  0  0  0  0  0  0  0  0
  146.5514  137.9064  153.8689 C   0  0  0  0  0  0  0  0  0  0  0  0
  146.3213  137.2270  155.0590 N   0  0  0  0  0  0  0  0  0  0  0  0
  146.6706  138.0775  155.9846 C   0  0  0  0  0  0  0  0  0  0  0  0
  147.1421  139.2872  155.5251 N   0  0  0  0  0  0  0  0  0  0  0  0
  147.5987  140.4056  156.3380 C   0  0  0  0  0  0  0  0  0  0  0  0
  149.0795  140.7867  156.1248 C   0  0  0  0  0  0  0  0  0  0  0  0
  149.5797  141.7051  157.2541 C   0  0  0  0  0  0  0  0  0  0  0  0
  148.6859  142.7759  157.4834 O   0  0  0  0  0  0  0  0  0  0  0  0
  150.0298  139.6292  155.7835 C   0  0  0  0  0  0  0  0  0  0  0  0
  150.5585  140.3278  154.6373 O   0  0  0  0  0  0  0  0  0  0  0  0
  149.4510  141.2500  154.7089 C   0  0  0  0  0  0  0  0  0  0  0  0
  145.5232  136.3330  150.6721 C   0  0  0  0  0  0  0  0  0  0  0  0
  144.7053  135.0654  150.3863 C   0  0  0  0  0  0  0  0  0  0  0  0
  145.3973  133.8414  150.8058 N   0  0  0  0  0  0  0  0  0  0  0  0
  144.6705  132.6448  150.3525 C   0  0  0  0  0  0  0  0  0  0  0  0
  144.1389  132.7135  148.9102 C   0  0  0  0  0  0  0  0  0  0  0  0
  142.8598  132.1205  148.8540 O   0  0  0  0  0  0  0  0  0  0  0  0
  147.0003  132.8525  153.7102 H   0  0  0  0  0  0  0  0  0  0  0  0
  147.4749  132.5776  152.0423 H   0  0  0  0  0  0  0  0  0  0  0  0
  146.0536  131.7724  152.7192 H   0  0  0  0  0  0  0  0  0  0  0  0
  144.8168  134.0092  154.2426 H   0  0  0  0  0  0  0  0  0  0  0  0
  143.9075  133.0131  153.1345 H   0  0  0  0  0  0  0  0  0  0  0  0
  143.8411  134.7645  153.0088 H   0  0  0  0  0  0  0  0  0  0  0  0
  146.8048  135.2460  153.5951 H   0  0  0  0  0  0  0  0  0  0  0  0
  147.5427  135.0916  152.0129 H   0  0  0  0  0  0  0  0  0  0  0  0
  147.4737  140.3960  151.1905 H   0  0  0  0  0  0  0  0  0  0  0  0
  146.6001  137.8399  157.0361 H   0  0  0  0  0  0  0  0  0  0  0  0
  146.9502  141.2564  156.1258 H   0  0  0  0  0  0  0  0  0  0  0  0
  147.4182  140.1595  157.3852 H   0  0  0  0  0  0  0  0  0  0  0  0
  149.7320  141.1576  158.1845 H   0  0  0  0  0  0  0  0  0  0  0  0
  150.5494  142.1331  156.9969 H   0  0  0  0  0  0  0  0  0  0  0  0
  148.8474  143.4467  156.8381 H   0  0  0  0  0  0  0  0  0  0  0  0
  150.7854  139.4331  156.5452 H   0  0  0  0  0  0  0  0  0  0  0  0
  149.5273  138.7073  155.4873 H   0  0  0  0  0  0  0  0  0  0  0  0
  148.6914  141.0296  153.9568 H   0  0  0  0  0  0  0  0  0  0  0  0
  149.7675  142.2921  154.6479 H   0  0  0  0  0  0  0  0  0  0  0  0
  144.9432  137.2090  150.3839 H   0  0  0  0  0  0  0  0  0  0  0  0
  146.4283  136.3385  150.0629 H   0  0  0  0  0  0  0  0  0  0  0  0
  143.7256  135.1332  150.8591 H   0  0  0  0  0  0  0  0  0  0  0  0
  144.5154  135.0280  149.3130 H   0  0  0  0  0  0  0  0  0  0  0  0
  145.2692  131.7461  150.4906 H   0  0  0  0  0  0  0  0  0  0  0  0
  143.7963  132.4954  150.9878 H   0  0  0  0  0  0  0  0  0  0  0  0
  144.0586  133.7514  148.5857 H   0  0  0  0  0  0  0  0  0  0  0  0
  144.7805  132.2029  148.1965 H   0  0  0  0  0  0  0  0  0  0  0  0
  142.2093  132.8049  148.8952 H   0  0  0  0  0  0  0  0  0  0  0  0
  1  2  1  0  0  0  0
  1 28  1  0  0  0  0
  1 29  1  0  0  0  0
  1 30  1  0  0  0  0
  2 24  1  0  0  0  0
  2  3  1  0  0  0  0
  2  4  1  0  0  0  0
  3 31  1  0  0  0  0
  3 32  1  0  0  0  0
  3 33  1  0  0  0  0
  4  5  1  0  0  0  0
  4 34  1  0  0  0  0
  4 35  1  0  0  0  0
  5  6  1  0  0  0  0
  5 22  1  0  0  0  0
  6 11  1  0  0  0  0
  6  7  2  0  0  0  0
  7  8  1  0  0  0  0
  8  9  2  0  0  0  0
  8 36  1  0  0  0  0
  9 10  1  0  0  0  0
 10 14  1  0  0  0  0
 10 11  2  0  0  0  0
 11 12  1  0  0  0  0
 12 13  2  0  0  0  0
 13 14  1  0  0  0  0
 13 37  1  0  0  0  0
 14 15  1  0  0  0  0
 15 16  1  0  0  0  0
 15 38  1  0  0  0  0
 15 39  1  0  0  0  0
 16 21  1  0  0  0  0
 16 17  1  0  0  0  0
 16 19  1  0  0  0  0
 17 18  1  0  0  0  0
 17 40  1  0  0  0  0
 17 41  1  0  0  0  0
 18 42  1  0  0  0  0
 19 20  1  0  0  0  0
 19 43  1  0  0  0  0
 19 44  1  0  0  0  0
 20 21  1  0  0  0  0
 21 45  1  0  0  0  0
 21 46  1  0  0  0  0
 22 23  1  0  0  0  0
 22 47  1  0  0  0  0
 22 48  1  0  0  0  0
 23 24  1  0  0  0  0
 23 49  1  0  0  0  0
 23 50  1  0  0  0  0
 24 25  1  0  0  0  0
 25 26  1  0  0  0  0
 25 51  1  0  0  0  0
 25 52  1  0  0  0  0
 26 27  1  0  0  0  0
 26 53  1  0  0  0  0
 26 54  1  0  0  0  0
 27 55  1  0  0  0  0
M  END
> <s_m_source_file>
AV-unprocessed.smi

> <i_m_source_file_index>
207

> <i_lp_mmshare_version>
43012

> <i_f3d_flags>
0

> <s_epik_input>
W09IXVtDSDJdW0NIMl1OMVtDSDJdW0NIMl1OKFtDSDJdQzEoW0NIM10pW0NIM10pYyhuW2NIXW4yKWMoYzIzKW5bY0hdbjNbQ0gyXUM0KFtDSDJdW09IXSlbQ0gyXU9bQ0gyXTQ=

> <s_epik_cmdline>
J2VwaWtfcHl0aG9uJywgJy1waCcsICc3LjAnLCAnLXRuJywgJzgnLCAnLW1hJywgJzIwMCcsICctbWV0YWxfYmluZGluZycsICctaW1hZScsICc8aW5maWxlLm1hZT4nLCAnLW9tYWUnLCAnPG91dGZpbGUubWFlPic=

> <r_lp_tautomer_probability>
1

> <r_epik_Ionization_Penalty>
0.411763

> <r_epik_Ionization_Penalty_Charging>
0

> <r_epik_Ionization_Penalty_Neutral>
0.411763

> <r_epik_State_Penalty>
0.407012

> <r_epik_Charging_Adjusted_Penalty>
0.407012

> <i_epik_Tot_Q>
0

> <i_epik_Tot_abs_Q>
0

> <r_epik_Metal_State_Penalty>
0.401279

> <b_epik_Metal_Only>
0

> <s_lp_Force_Field>
OPLS_2005

> <r_lp_Energy>
76.2772

> <b_lp_Chiralities_Consistent>
1

> <s_lp_Variant>
AV-unprocessed.smi:207-1

> <Gold.Version>
5.8.1

> <Gold.Id.Protein>
6NUR|6NUR_protein|mol2

> <Gold.PLP.Fitness>
42.7492

> <Gold.PLP.PLP>
-31.0566

> <Gold.PLP.part.hbond>
-4.9934

> <Gold.PLP.part.metal>
0.0000

> <Gold.PLP.part.buried>
3.2864

> <Gold.PLP.part.nonpolar>
-30.6877

> <Gold.PLP.part.repulsive>
1.0350

> <Gold.PLP.ligand.clash>
0.0000

> <Gold.PLP.ligand.torsion>
0.9230

> <Gold.PLP.Chemscore.Hbond>
3.9920

> <Gold.PLP.Chemscore.CHOScore>
0.2820

> <Gold.PLP.Chemscore.Metal>
0.0000

> <Gold.Chemscore.Hbonds>
donor molecule, donor type, donor heavy atom, donor atom, acceptor molecule, acceptor atom, score
      L1  H    18    42       P1  8028  1.00
      L1  H    27    55       P1 10186  0.83
      P1  H  7954  7966       L1     7  0.34
      P1  H  7989  7998       L1    20  1.00
      P1  H 10785 10796       L1    27  1.00
      L1  C     8    36       P1  7957  0.39

> <Gold.PLP.Chemscore.Internal.Correction>
0.7167

> <Gold.Rescore>
     Score         DG    S(hbond)    S(metal)    S(lipo)     H(rot)  DE(clash)    DE(int)     intcor
      9.06     -15.35       3.07        0.00      78.56       3.74       4.00       2.28       ----

> <Gold.Chemscore.Fitness>
9.0599

> <Gold.Chemscore.DG>
-15.3472

> <Gold.Chemscore.ZeroCoef>
-5.4800

> <Gold.Chemscore.Hbond>
3.0715

> <Gold.Chemscore.Metal>
0.0000

> <Gold.Chemscore.Lipo>
78.5560

> <Gold.Chemscore.Internal_Hbond>
0.0000

> <Gold.Chemscore.DEClash>
4.0025

> <Gold.Chemscore.DEInternal>
2.2848

> <Gold.Chemscore.Rot>
3.7432

> <Gold.Chemscore.Internal.Correction>
   9.000000E+99

> <Gold.Chemscore.Hbonds>
donor molecule, donor type, donor heavy atom, donor atom, acceptor molecule, acceptor atom, score
      L1  H    18    42       P1  8028  0.65
      L1  H    27    55       P1 10186  0.80
      P1  H  7954  7966       L1     7  0.15
      P1  H  7989  7998       L1    20  0.64
      P1  H 10785 10796       L1    27  0.52

> <Gold.Chemscore.Hbond.Weighted>
-10.2587

> <Gold.Chemscore.Metal.Weighted>
-0.0000

> <Gold.Chemscore.Lipo.Weighted>
-9.1910

> <Gold.Chemscore.Internal_Hbond.Weighted>
0.0000

> <Gold.Chemscore.DEClash.Weighted>
4.0025

> <Gold.Chemscore.DEInternal.Weighted>
2.2848

> <Gold.Chemscore.Rot.Weighted>
9.5825

> <Gold.Chemscore.Internal.Correction.Weighted>
   9.000000E+99

> <Gold.Protein.RotatedTorsions>
[ 6907 6896 6895 6894 ] final  -22.17 input  -60.11 | X-H torsion
[ 7974 7965 7964 7962 ] final   75.86 input  175.53 | X-H torsion
[ 8008 7997 7996 7995 ] final -121.59 input   59.86 | X-H torsion
[ 10167 10162 10161 10158 ] final   -5.63 input  -65.29 | X-H torsion
[ 10718 10713 10712 10709 ] final -138.89 input   66.30 | X-H torsion
[ 10763 10752 10751 10750 ] final -122.10 input  -60.55 | X-H torsion
[ 11005 11000 10999 10996 ] final  -15.37 input  -57.11 | X-H torsion

> <Gold.Protein.ActiveResidues>
 VAL166  LYS551  ARG553  GLY616  TRP617  ASP618  TYR619  PRO620  LYS621  CYS622 
 ASP623  PHE694  ASN695  SER759  ASP760  ASP761  ALA762  ILE779  LEU786  VAL792 
 PHE793  MET794  SER795  GLU796  ALA797  LYS798  CYS799  TRP800  GLU811  SER814 

> <Gold.Protein.RotatedAtoms>
  151.2226  135.0524  159.8955 H   0  0  0  0  0  0  0  0  0  0  0  0  # atno 6907 bound_to 6896
  152.5414  134.0624  159.8168 H   0  0  0  0  0  0  0  0  0  0  0  0  # atno 6908 bound_to 6896
  151.0792  133.5355  159.2653 H   0  0  0  0  0  0  0  0  0  0  0  0  # atno 6909 bound_to 6896
  145.7103  139.2612  143.1655 H   0  0  0  0  0  0  0  0  0  0  0  0  # atno 7974 bound_to 7965
  155.1505  140.0403  157.2820 H   0  0  0  0  0  0  0  0  0  0  0  0  # atno 8008 bound_to 7997
  154.6408  140.2546  155.7298 H   0  0  0  0  0  0  0  0  0  0  0  0  # atno 8009 bound_to 7997
  156.2531  140.2856  156.0800 H   0  0  0  0  0  0  0  0  0  0  0  0  # atno 8010 bound_to 7997
  140.6969  143.6287  150.8544 H   0  0  0  0  0  0  0  0  0  0  0  0  # atno 10167 bound_to 10162
  156.3045  130.7447  151.1507 H   0  0  0  0  0  0  0  0  0  0  0  0  # atno 10718 bound_to 10713
  154.8682  135.4145  154.2727 H   0  0  0  0  0  0  0  0  0  0  0  0  # atno 10763 bound_to 10752
  153.3634  135.7004  153.6700 H   0  0  0  0  0  0  0  0  0  0  0  0  # atno 10764 bound_to 10752
  153.5591  135.3613  155.2764 H   0  0  0  0  0  0  0  0  0  0  0  0  # atno 10765 bound_to 10752
  140.7959  133.8251  155.9424 H   0  0  0  0  0  0  0  0  0  0  0  0  # atno 11005 bound_to 11000
  146.0719  140.7860  142.9684 LP  0  0  0  0  0  0  0  0  0  0  0  0  # atno 17320 bound_to 7965
  144.6944  140.3355  143.7208 LP  0  0  0  0  0  0  0  0  0  0  0  0  # atno 17321 bound_to 7965
  140.0006  143.5749  152.2877 LP  0  0  0  0  0  0  0  0  0  0  0  0  # atno 17342 bound_to 10162
  139.6437  144.7656  151.2288 LP  0  0  0  0  0  0  0  0  0  0  0  0  # atno 17343 bound_to 10162
  157.7376  131.0550  150.5345 LP  0  0  0  0  0  0  0  0  0  0  0  0  # atno 17370 bound_to 10713
  156.5477  130.4224  149.6123 LP  0  0  0  0  0  0  0  0  0  0  0  0  # atno 17371 bound_to 10713
  140.9343  134.1982  157.4842 LP  0  0  0  0  0  0  0  0  0  0  0  0  # atno 17394 bound_to 11000
  139.8726  134.9846  156.5244 LP  0  0  0  0  0  0  0  0  0  0  0  0  # atno 17395 bound_to 11000

$$$$
