AV-unprocessed.smi:247|AV-procd|sdf|1893|dock10
  -GOLD-   2262020563D 1   1.00000     0.00000
 Structure written by MMmdl.
 61 65  0  0  0  0  0  0  0  0  1 V2000
  147.9311  139.4300  158.0078 O   0  0  0  0  0  0  0  0  0  0  0  0
  148.7773  138.6928  157.1472 C   0  0  0  0  0  0  0  0  0  0  0  0
  150.2435  138.5958  157.6542 C   0  0  0  0  0  0  0  0  0  0  0  0
  150.2419  137.8927  159.0488 C   0  0  0  0  0  0  0  0  0  0  0  0
  149.4278  136.6882  159.1327 N   0  0  0  0  0  0  0  0  0  0  0  0
  149.4651  135.6061  158.2817 C   0  0  0  0  0  0  0  0  0  0  0  0
  148.6324  134.6429  158.5664 N   0  0  0  0  0  0  0  0  0  0  0  0
  147.9876  135.0824  159.7155 C   0  0  0  0  0  0  0  0  0  0  0  0
  146.9655  134.5414  160.5436 C   0  0  0  0  0  0  0  0  0  0  0  0
  146.3944  133.3392  160.2845 N   0  0  0  0  0  0  0  0  0  0  0  0
  147.3341  132.2284  160.3264 C   0  0  0  0  0  0  0  0  0  0  0  0
  146.4793  130.9732  160.4336 C   0  0  0  0  0  0  0  0  0  0  0  0
  145.2729  131.4476  161.2392 C   0  0  0  0  0  0  0  0  0  0  0  0
  145.1220  132.9460  160.9043 C   0  0  2  0  0  0  0  0  0  0  0  0
  143.8605  133.2502  160.0321 C   0  0  2  0  0  0  0  0  0  0  0  0
  142.5264  132.7820  160.6571 C   0  0  0  0  0  0  0  0  0  0  0  0
  142.3541  131.3779  160.4913 O   0  0  0  0  0  0  0  0  0  0  0  0
  142.2238  130.9972  159.1259 C   0  0  0  0  0  0  0  0  0  0  0  0
  143.5065  131.3333  158.3498 C   0  0  0  0  0  0  0  0  0  0  0  0
  143.8954  132.8074  158.5471 C   0  0  2  0  0  0  0  0  0  0  0  0
  145.1343  133.0888  157.9284 O   0  0  0  0  0  0  0  0  0  0  0  0
  146.5700  135.2806  161.6131 N   0  0  0  0  0  0  0  0  0  0  0  0
  147.1282  136.4699  161.8552 C   0  0  0  0  0  0  0  0  0  0  0  0
  148.0820  137.0993  161.1665 N   0  0  0  0  0  0  0  0  0  0  0  0
  148.4823  136.3629  160.0905 C   0  0  0  0  0  0  0  0  0  0  0  0
  151.1070  137.8306  156.6179 C   0  0  0  0  0  0  0  0  0  0  0  0
  152.6092  137.8974  156.9452 C   0  0  0  0  0  0  0  0  0  0  0  0
  153.0264  139.2553  157.0195 O   0  0  0  0  0  0  0  0  0  0  0  0
  152.3745  139.9839  158.0530 C   0  0  0  0  0  0  0  0  0  0  0  0
  150.8535  140.0136  157.8062 C   0  0  0  0  0  0  0  0  0  0  0  0
  147.9747  139.0477  158.8710 H   0  0  0  0  0  0  0  0  0  0  0  0
  148.3503  137.6963  157.0286 H   0  0  0  0  0  0  0  0  0  0  0  0
  148.7362  139.1735  156.1699 H   0  0  0  0  0  0  0  0  0  0  0  0
  151.2491  137.6193  159.3588 H   0  0  0  0  0  0  0  0  0  0  0  0
  149.8871  138.5882  159.8106 H   0  0  0  0  0  0  0  0  0  0  0  0
  150.1275  135.5562  157.4300 H   0  0  0  0  0  0  0  0  0  0  0  0
  147.9646  132.1993  159.4377 H   0  0  0  0  0  0  0  0  0  0  0  0
  147.9807  132.3233  161.2005 H   0  0  0  0  0  0  0  0  0  0  0  0
  146.1690  130.6502  159.4398 H   0  0  0  0  0  0  0  0  0  0  0  0
  147.0066  130.1433  160.9045 H   0  0  0  0  0  0  0  0  0  0  0  0
  144.3787  130.8581  161.0351 H   0  0  0  0  0  0  0  0  0  0  0  0
  145.4921  131.3398  162.3025 H   0  0  0  0  0  0  0  0  0  0  0  0
  144.9884  133.4460  161.8627 H   0  0  0  0  0  0  0  0  0  0  0  0
  143.8133  134.3396  159.9952 H   0  0  0  0  0  0  0  0  0  0  0  0
  142.4775  133.0276  161.7160 H   0  0  0  0  0  0  0  0  0  0  0  0
  141.6884  133.3035  160.1920 H   0  0  0  0  0  0  0  0  0  0  0  0
  142.0286  129.9258  159.0764 H   0  0  0  0  0  0  0  0  0  0  0  0
  141.3612  131.4965  158.6819 H   0  0  0  0  0  0  0  0  0  0  0  0
  144.3061  130.6702  158.6650 H   0  0  0  0  0  0  0  0  0  0  0  0
  143.3581  131.1273  157.2894 H   0  0  0  0  0  0  0  0  0  0  0  0
  143.1512  133.4025  158.0158 H   0  0  0  0  0  0  0  0  0  0  0  0
  145.1889  132.5946  157.1249 H   0  0  0  0  0  0  0  0  0  0  0  0
  146.7538  136.9929  162.7227 H   0  0  0  0  0  0  0  0  0  0  0  0
  150.7846  136.7943  156.5224 H   0  0  0  0  0  0  0  0  0  0  0  0
  150.9700  138.2678  155.6284 H   0  0  0  0  0  0  0  0  0  0  0  0
  152.8438  137.3783  157.8747 H   0  0  0  0  0  0  0  0  0  0  0  0
  153.1807  137.4021  156.1602 H   0  0  0  0  0  0  0  0  0  0  0  0
  152.6198  139.5580  159.0259 H   0  0  0  0  0  0  0  0  0  0  0  0
  152.7658  141.0012  158.0566 H   0  0  0  0  0  0  0  0  0  0  0  0
  150.6852  140.5959  156.8999 H   0  0  0  0  0  0  0  0  0  0  0  0
  150.3556  140.5589  158.6088 H   0  0  0  0  0  0  0  0  0  0  0  0
  1  2  1  0  0  0  0
  1 31  1  0  0  0  0
  2  3  1  0  0  0  0
  2 32  1  0  0  0  0
  2 33  1  0  0  0  0
  3 30  1  0  0  0  0
  3  4  1  0  0  0  0
  3 26  1  0  0  0  0
  4  5  1  0  0  0  0
  4 34  1  0  0  0  0
  4 35  1  0  0  0  0
  5 25  1  0  0  0  0
  5  6  1  0  0  0  0
  6  7  2  0  0  0  0
  6 36  1  0  0  0  0
  7  8  1  0  0  0  0
  8 25  2  0  0  0  0
  8  9  1  0  0  0  0
  9 10  1  0  0  0  0
  9 22  2  0  0  0  0
 10 14  1  0  0  0  0
 10 11  1  0  0  0  0
 11 12  1  0  0  0  0
 11 37  1  0  0  0  0
 11 38  1  0  0  0  0
 12 13  1  0  0  0  0
 12 39  1  0  0  0  0
 12 40  1  0  0  0  0
 13 14  1  0  0  0  0
 13 41  1  0  0  0  0
 13 42  1  0  0  0  0
 14 15  1  0  0  0  0
 14 43  1  0  0  0  0
 15 20  1  0  0  0  0
 15 16  1  0  0  0  0
 15 44  1  0  0  0  0
 16 17  1  0  0  0  0
 16 45  1  0  0  0  0
 16 46  1  0  0  0  0
 17 18  1  0  0  0  0
 18 19  1  0  0  0  0
 18 47  1  0  0  0  0
 18 48  1  0  0  0  0
 19 20  1  0  0  0  0
 19 49  1  0  0  0  0
 19 50  1  0  0  0  0
 20 21  1  0  0  0  0
 20 51  1  0  0  0  0
 21 52  1  0  0  0  0
 22 23  1  0  0  0  0
 23 24  2  0  0  0  0
 23 53  1  0  0  0  0
 24 25  1  0  0  0  0
 26 27  1  0  0  0  0
 26 54  1  0  0  0  0
 26 55  1  0  0  0  0
 27 28  1  0  0  0  0
 27 56  1  0  0  0  0
 27 57  1  0  0  0  0
 28 29  1  0  0  0  0
 29 30  1  0  0  0  0
 29 58  1  0  0  0  0
 29 59  1  0  0  0  0
 30 60  1  0  0  0  0
 30 61  1  0  0  0  0
M  END
> <s_m_source_file>
AV-unprocessed.smi

> <i_m_source_file_index>
247

> <i_lp_mmshare_version>
43012

> <i_f3d_flags>
0

> <s_epik_input>
W0NIMl0xW0NIMl1PW0NIMl1bQ0gyXUMxKFtDSDJdW09IXSlbQ0gyXW4oW2NIXW4yKWMoYzIzKW5bY0hdbmMzTjRbQ0gyXVtDSDJdW0NIMl1bQ0BIXTRbQ0BASF01W0NIMl1PW0NIMl1bQ0gyXVtDQEhdNVtPSF0=

> <s_epik_cmdline>
J2VwaWtfcHl0aG9uJywgJy1waCcsICc3LjAnLCAnLXRuJywgJzgnLCAnLW1hJywgJzIwMCcsICctbWV0YWxfYmluZGluZycsICctaW1hZScsICc8aW5maWxlLm1hZT4nLCAnLW9tYWUnLCAnPG91dGZpbGUubWFlPic=

> <r_lp_tautomer_probability>
1

> <r_epik_Ionization_Penalty>
0.00362597

> <r_epik_Ionization_Penalty_Charging>
0

> <r_epik_Ionization_Penalty_Neutral>
0.00362597

> <r_epik_State_Penalty>
0.00241433

> <r_epik_Charging_Adjusted_Penalty>
0.00241433

> <i_epik_Tot_Q>
0

> <i_epik_Tot_abs_Q>
0

> <r_epik_Metal_State_Penalty>
-0

> <b_epik_Metal_Only>
0

> <s_lp_Force_Field>
OPLS_2005

> <r_lp_Energy>
64.0337

> <b_lp_Chiralities_Consistent>
1

> <s_lp_Variant>
AV-unprocessed.smi:247-6

> <Gold.Version>
5.8.1

> <Gold.Id.Protein>
6NUR|6NUR_protein|mol2

> <Gold.PLP.Fitness>
38.5612

> <Gold.PLP.PLP>
-31.1547

> <Gold.PLP.part.hbond>
-4.0000

> <Gold.PLP.part.metal>
0.0000

> <Gold.PLP.part.buried>
-5.9127

> <Gold.PLP.part.nonpolar>
-21.0767

> <Gold.PLP.part.repulsive>
0.0807

> <Gold.PLP.ligand.clash>
0.0000

> <Gold.PLP.ligand.torsion>
0.5228

> <Gold.PLP.Chemscore.Hbond>
2.7137

> <Gold.PLP.Chemscore.CHOScore>
0.0000

> <Gold.PLP.Chemscore.Metal>
0.0000

> <Gold.Chemscore.Hbonds>
donor molecule, donor type, donor heavy atom, donor atom, acceptor molecule, acceptor atom, score
      P1  H  6931  6943       L1    24  1.00
      P1  H  6934  6947       L1    24  0.51
      P1  H  7997  8009       L1    28  1.00

> <Gold.PLP.Chemscore.Internal.Correction>
0.3110

> <Gold.Rescore>
     Score         DG    S(hbond)    S(metal)    S(lipo)     H(rot)  DE(clash)    DE(int)     intcor
     12.23     -12.96       2.52        0.00      62.59       3.23       0.01       0.72       ----

> <Gold.Chemscore.Fitness>
12.2303

> <Gold.Chemscore.DG>
-12.9639

> <Gold.Chemscore.ZeroCoef>
-5.4800

> <Gold.Chemscore.Hbond>
2.5223

> <Gold.Chemscore.Metal>
0.0000

> <Gold.Chemscore.Lipo>
62.5857

> <Gold.Chemscore.Internal_Hbond>
0.0000

> <Gold.Chemscore.DEClash>
0.0107

> <Gold.Chemscore.DEInternal>
0.7229

> <Gold.Chemscore.Rot>
3.2278

> <Gold.Chemscore.Internal.Correction>
   9.000000E+99

> <Gold.Chemscore.Hbonds>
donor molecule, donor type, donor heavy atom, donor atom, acceptor molecule, acceptor atom, score
      P1  H  6931  6943       L1    24  0.95
      P1  H  6934  6947       L1    24  0.16
      P1  H  7997  8009       L1    28  0.60

> <Gold.Chemscore.Hbond.Weighted>
-8.4246

> <Gold.Chemscore.Metal.Weighted>
-0.0000

> <Gold.Chemscore.Lipo.Weighted>
-7.3225

> <Gold.Chemscore.Internal_Hbond.Weighted>
0.0000

> <Gold.Chemscore.DEClash.Weighted>
0.0107

> <Gold.Chemscore.DEInternal.Weighted>
0.7229

> <Gold.Chemscore.Rot.Weighted>
8.2633

> <Gold.Chemscore.Internal.Correction.Weighted>
   9.000000E+99

> <Gold.Protein.RotatedTorsions>
[ 6907 6896 6895 6894 ] final  104.28 input  -60.11 | X-H torsion
[ 7974 7965 7964 7962 ] final   37.86 input  175.53 | X-H torsion
[ 8008 7997 7996 7995 ] final  177.93 input   59.86 | X-H torsion
[ 10167 10162 10161 10158 ] final  -39.09 input  -65.29 | X-H torsion
[ 10718 10713 10712 10709 ] final  -26.08 input   66.30 | X-H torsion
[ 10763 10752 10751 10750 ] final   71.06 input  -60.55 | X-H torsion
[ 11005 11000 10999 10996 ] final   58.77 input  -57.11 | X-H torsion

> <Gold.Protein.ActiveResidues>
 VAL166  LYS551  ARG553  GLY616  TRP617  ASP618  TYR619  PRO620  LYS621  CYS622 
 ASP623  PHE694  ASN695  SER759  ASP760  ASP761  ALA762  ILE779  LEU786  VAL792 
 PHE793  MET794  SER795  GLU796  ALA797  LYS798  CYS799  TRP800  GLU811  SER814 

> <Gold.Protein.RotatedAtoms>
  152.5269  133.9700  159.7756 H   0  0  0  0  0  0  0  0  0  0  0  0  # atno 6907 bound_to 6896
  150.9973  133.6082  159.2707 H   0  0  0  0  0  0  0  0  0  0  0  0  # atno 6908 bound_to 6896
  151.3204  135.0823  159.9357 H   0  0  0  0  0  0  0  0  0  0  0  0  # atno 6909 bound_to 6896
  146.1106  139.5842  142.9355 H   0  0  0  0  0  0  0  0  0  0  0  0  # atno 7974 bound_to 7965
  156.0602  140.1346  156.9949 H   0  0  0  0  0  0  0  0  0  0  0  0  # atno 8008 bound_to 7997
  154.4478  140.0993  156.6577 H   0  0  0  0  0  0  0  0  0  0  0  0  # atno 8009 bound_to 7997
  155.5388  140.3460  155.4444 H   0  0  0  0  0  0  0  0  0  0  0  0  # atno 8010 bound_to 7997
  140.7074  143.3236  151.2733 H   0  0  0  0  0  0  0  0  0  0  0  0  # atno 10167 bound_to 10162
  156.4559  130.4493  149.6960 H   0  0  0  0  0  0  0  0  0  0  0  0  # atno 10718 bound_to 10713
  153.0377  135.5151  154.7535 H   0  0  0  0  0  0  0  0  0  0  0  0  # atno 10763 bound_to 10752
  154.6498  135.2923  155.0003 H   0  0  0  0  0  0  0  0  0  0  0  0  # atno 10764 bound_to 10752
  154.0891  135.6653  153.4902 H   0  0  0  0  0  0  0  0  0  0  0  0  # atno 10765 bound_to 10752
  140.0353  134.5952  155.9452 H   0  0  0  0  0  0  0  0  0  0  0  0  # atno 11005 bound_to 11000
  145.5672  141.0398  143.2194 LP  0  0  0  0  0  0  0  0  0  0  0  0  # atno 17320 bound_to 7965
  144.7508  139.7199  143.7274 LP  0  0  0  0  0  0  0  0  0  0  0  0  # atno 17321 bound_to 7965
  139.6697  144.0041  152.2745 LP  0  0  0  0  0  0  0  0  0  0  0  0  # atno 17342 bound_to 10162
  139.9636  144.6541  150.8056 LP  0  0  0  0  0  0  0  0  0  0  0  0  # atno 17343 bound_to 10162
  156.3767  130.7558  151.2547 LP  0  0  0  0  0  0  0  0  0  0  0  0  # atno 17370 bound_to 10713
  157.7500  131.0307  150.4150 LP  0  0  0  0  0  0  0  0  0  0  0  0  # atno 17371 bound_to 10713
  141.1854  133.6555  156.5196 LP  0  0  0  0  0  0  0  0  0  0  0  0  # atno 17394 bound_to 11000
  140.4158  134.7232  157.4862 LP  0  0  0  0  0  0  0  0  0  0  0  0  # atno 17395 bound_to 11000

$$$$
