AV-unprocessed.smi:2817|AV-procd|sdf|10846|dock6
  -GOLD-   2272015283D 1   1.00000     0.00000
 Structure written by MMmdl.
 42 44  0  0  0  0  0  0  0  0  1 V2000
  152.5526  137.6066  159.3991 O   0  0  0  0  0  0  0  0  0  0  0  0
  152.2316  138.7795  159.2070 C   0  0  0  0  0  0  0  0  0  0  0  0
  152.9660  139.9021  159.7912 C   0  0  0  0  0  0  0  0  0  0  0  0
  152.5870  141.1804  159.5554 C   0  0  0  0  0  0  0  0  0  0  0  0
  153.3448  142.3506  160.1769 C   0  0  0  0  0  0  0  0  0  0  0  0
  153.1881  142.5191  161.6978 C   0  0  0  0  0  0  0  0  0  0  0  0
  152.2027  143.6672  161.4518 C   0  0  0  0  0  0  0  0  0  0  0  0
  152.6704  143.7190  159.9928 C   0  0  0  0  0  0  0  0  0  0  0  0
  151.4698  141.4525  158.7542 N   0  0  0  0  0  0  0  0  0  0  0  0
  150.8004  140.4771  158.2281 C   0  0  0  0  0  0  0  0  0  0  0  0
  151.1646  139.1324  158.4336 N   0  0  0  0  0  0  0  0  0  0  0  0
  150.3178  138.1176  157.7867 C   0  0  0  0  0  0  0  0  0  0  0  0
  149.7514  137.1030  158.8066 C   0  0  2  0  0  0  0  0  0  0  0  0
  149.7948  135.8078  158.2429 O   0  0  0  0  0  0  0  0  0  0  0  0
  148.2854  137.3923  159.1634 C   0  0  0  0  0  0  0  0  0  0  0  0
  148.1239  137.2471  160.5682 O   0  0  0  0  0  0  0  0  0  0  0  0
  147.7240  136.0229  161.0585 C   0  0  0  0  0  0  0  0  0  0  0  0
  146.9957  136.0259  162.2663 C   0  0  0  0  0  0  0  0  0  0  0  0
  146.5475  134.8212  162.8410 C   0  0  0  0  0  0  0  0  0  0  0  0
  146.8251  133.5948  162.2098 C   0  0  0  0  0  0  0  0  0  0  0  0
  147.5510  133.5770  161.0043 C   0  0  0  0  0  0  0  0  0  0  0  0
  147.9993  134.7822  160.4292 C   0  0  0  0  0  0  0  0  0  0  0  0
  153.8223  139.6989  160.4177 H   0  0  0  0  0  0  0  0  0  0  0  0
  154.3918  142.3633  159.8703 H   0  0  0  0  0  0  0  0  0  0  0  0
  152.7636  141.6628  162.2235 H   0  0  0  0  0  0  0  0  0  0  0  0
  154.1086  142.8575  162.1754 H   0  0  0  0  0  0  0  0  0  0  0  0
  151.1610  143.3596  161.5514 H   0  0  0  0  0  0  0  0  0  0  0  0
  152.4117  144.5716  162.0242 H   0  0  0  0  0  0  0  0  0  0  0  0
  153.3903  144.5183  159.8125 H   0  0  0  0  0  0  0  0  0  0  0  0
  151.8609  143.7402  159.2621 H   0  0  0  0  0  0  0  0  0  0  0  0
  149.9189  140.6336  157.6035 H   0  0  0  0  0  0  0  0  0  0  0  0
  149.4947  138.6239  157.2786 H   0  0  0  0  0  0  0  0  0  0  0  0
  150.8442  137.6040  156.9800 H   0  0  0  0  0  0  0  0  0  0  0  0
  150.3407  137.0996  159.7246 H   0  0  0  0  0  0  0  0  0  0  0  0
  148.9092  135.5153  158.0911 H   0  0  0  0  0  0  0  0  0  0  0  0
  148.0101  138.3984  158.8419 H   0  0  0  0  0  0  0  0  0  0  0  0
  147.6348  136.6813  158.6509 H   0  0  0  0  0  0  0  0  0  0  0  0
  146.7781  136.9630  162.7579 H   0  0  0  0  0  0  0  0  0  0  0  0
  145.9910  134.8389  163.7664 H   0  0  0  0  0  0  0  0  0  0  0  0
  146.4823  132.6698  162.6500 H   0  0  0  0  0  0  0  0  0  0  0  0
  147.7655  132.6363  160.5190 H   0  0  0  0  0  0  0  0  0  0  0  0
  148.5538  134.7277  159.5048 H   0  0  0  0  0  0  0  0  0  0  0  0
  1  2  2  0  0  0  0
  2 11  1  0  0  0  0
  2  3  1  0  0  0  0
  3  4  2  0  0  0  0
  3 23  1  0  0  0  0
  4  5  1  0  0  0  0
  4  9  1  0  0  0  0
  5  8  1  0  0  0  0
  5  6  1  0  0  0  0
  5 24  1  0  0  0  0
  6  7  1  0  0  0  0
  6 25  1  0  0  0  0
  6 26  1  0  0  0  0
  7  8  1  0  0  0  0
  7 27  1  0  0  0  0
  7 28  1  0  0  0  0
  8 29  1  0  0  0  0
  8 30  1  0  0  0  0
  9 10  2  0  0  0  0
 10 11  1  0  0  0  0
 10 31  1  0  0  0  0
 11 12  1  0  0  0  0
 12 13  1  0  0  0  0
 12 32  1  0  0  0  0
 12 33  1  0  0  0  0
 13 14  1  0  0  0  0
 13 15  1  0  0  0  0
 13 34  1  0  0  0  0
 14 35  1  0  0  0  0
 15 16  1  0  0  0  0
 15 36  1  0  0  0  0
 15 37  1  0  0  0  0
 16 17  1  0  0  0  0
 17 22  1  0  0  0  0
 17 18  2  0  0  0  0
 18 19  1  0  0  0  0
 18 38  1  0  0  0  0
 19 20  2  0  0  0  0
 19 39  1  0  0  0  0
 20 21  1  0  0  0  0
 20 40  1  0  0  0  0
 21 22  2  0  0  0  0
 21 41  1  0  0  0  0
 22 42  1  0  0  0  0
M  END
> <s_m_source_file>
AV-unprocessed.smi

> <i_m_source_file_index>
2817

> <i_lp_mmshare_version>
43012

> <i_f3d_flags>
0

> <s_epik_input>
W0NIMl0xW0NIMl1bQ0gyXVtDSF0xYyhbY0hdYzI9TyluW2NIXW4yW0NIMl1bQ0BIXShbT0hdKVtDSDJdT2MzW2NIXVtjSF1bY0hdW2NIXVtjSF0z

> <s_epik_cmdline>
J2VwaWtfcHl0aG9uJywgJy1waCcsICc3LjAnLCAnLXRuJywgJzgnLCAnLW1hJywgJzIwMCcsICctbWV0YWxfYmluZGluZycsICctaW1hZScsICc8aW5maWxlLm1hZT4nLCAnLW9tYWUnLCAnPG91dGZpbGUubWFlPic=

> <r_lp_tautomer_probability>
1

> <r_epik_Ionization_Penalty>
2.12778e-05

> <r_epik_Ionization_Penalty_Charging>
7.42033e-08

> <r_epik_Ionization_Penalty_Neutral>
2.12036e-05

> <r_epik_State_Penalty>
-0

> <r_epik_Charging_Adjusted_Penalty>
7.42033e-08

> <i_epik_Tot_Q>
0

> <i_epik_Tot_abs_Q>
0

> <r_epik_Metal_State_Penalty>
-0

> <b_epik_Metal_Only>
0

> <s_lp_Force_Field>
OPLS_2005

> <r_lp_Energy>
32.2435

> <b_lp_Chiralities_Consistent>
1

> <s_lp_Variant>
AV-unprocessed.smi:2817-1

> <Gold.Version>
5.8.1

> <Gold.Id.Protein>
6NUR|6NUR_protein|mol2

> <Gold.PLP.Fitness>
52.6224

> <Gold.PLP.PLP>
-48.8512

> <Gold.PLP.part.hbond>
-3.0000

> <Gold.PLP.part.metal>
0.0000

> <Gold.PLP.part.buried>
-6.1602

> <Gold.PLP.part.nonpolar>
-40.0531

> <Gold.PLP.part.repulsive>
0.0000

> <Gold.PLP.ligand.clash>
0.0000

> <Gold.PLP.ligand.torsion>
1.9715

> <Gold.PLP.Chemscore.Hbond>
2.4270

> <Gold.PLP.Chemscore.CHOScore>
0.0000

> <Gold.PLP.Chemscore.Metal>
0.0000

> <Gold.Chemscore.Hbonds>
donor molecule, donor type, donor heavy atom, donor atom, acceptor molecule, acceptor atom, score
      P1  H  6896  6907       L1    14  1.00
      P1  H  6931  6943       L1    16  0.75
      P1  H  6934  6947       L1    16  0.61

> <Gold.PLP.Chemscore.Internal.Correction>
0.4332

> <Gold.Rescore>
     Score         DG    S(hbond)    S(metal)    S(lipo)     H(rot)  DE(clash)    DE(int)     intcor
     16.19     -19.55       2.01        0.00     116.01       2.42       0.16       3.20       ----

> <Gold.Chemscore.Fitness>
16.1867

> <Gold.Chemscore.DG>
-19.5460

> <Gold.Chemscore.ZeroCoef>
-5.4800

> <Gold.Chemscore.Hbond>
2.0057

> <Gold.Chemscore.Metal>
0.0000

> <Gold.Chemscore.Lipo>
116.0127

> <Gold.Chemscore.Internal_Hbond>
0.0000

> <Gold.Chemscore.DEClash>
0.1568

> <Gold.Chemscore.DEInternal>
3.2025

> <Gold.Chemscore.Rot>
2.4245

> <Gold.Chemscore.Internal.Correction>
   9.000000E+99

> <Gold.Chemscore.Hbonds>
donor molecule, donor type, donor heavy atom, donor atom, acceptor molecule, acceptor atom, score
      P1  H  6896  6907       L1    14  0.48
      P1  H  6931  6943       L1    16  0.62
      P1  H  6934  6947       L1    16  0.11

> <Gold.Chemscore.Hbond.Weighted>
-6.6991

> <Gold.Chemscore.Metal.Weighted>
-0.0000

> <Gold.Chemscore.Lipo.Weighted>
-13.5735

> <Gold.Chemscore.Internal_Hbond.Weighted>
0.0000

> <Gold.Chemscore.DEClash.Weighted>
0.1568

> <Gold.Chemscore.DEInternal.Weighted>
3.2025

> <Gold.Chemscore.Rot.Weighted>
6.2066

> <Gold.Chemscore.Internal.Correction.Weighted>
   9.000000E+99

> <Gold.Protein.RotatedTorsions>
[ 6907 6896 6895 6894 ] final  -73.32 input  -60.11 | X-H torsion
[ 7974 7965 7964 7962 ] final   55.28 input  175.53 | X-H torsion
[ 8008 7997 7996 7995 ] final   12.25 input   59.86 | X-H torsion
[ 10167 10162 10161 10158 ] final  141.75 input  -65.29 | X-H torsion
[ 10718 10713 10712 10709 ] final  177.57 input   66.30 | X-H torsion
[ 10763 10752 10751 10750 ] final  -65.73 input  -60.55 | X-H torsion
[ 11005 11000 10999 10996 ] final  -45.05 input  -57.11 | X-H torsion

> <Gold.Protein.ActiveResidues>
 VAL166  LYS551  ARG553  GLY616  TRP617  ASP618  TYR619  PRO620  LYS621  CYS622 
 ASP623  PHE694  ASN695  SER759  ASP760  ASP761  ALA762  ILE779  LEU786  VAL792 
 PHE793  MET794  SER795  GLU796  ALA797  LYS798  CYS799  TRP800  GLU811  SER814 

> <Gold.Protein.RotatedAtoms>
  150.7135  134.5034  159.5571 H   0  0  0  0  0  0  0  0  0  0  0  0  # atno 6907 bound_to 6896
  152.2626  134.8015  160.0437 H   0  0  0  0  0  0  0  0  0  0  0  0  # atno 6908 bound_to 6896
  151.8723  133.3443  159.3775 H   0  0  0  0  0  0  0  0  0  0  0  0  # atno 6909 bound_to 6896
  145.9520  139.3981  143.0300 H   0  0  0  0  0  0  0  0  0  0  0  0  # atno 7974 bound_to 7965
  154.8180  140.2879  155.5807 H   0  0  0  0  0  0  0  0  0  0  0  0  # atno 8008 bound_to 7997
  156.2995  140.2555  156.3012 H   0  0  0  0  0  0  0  0  0  0  0  0  # atno 8009 bound_to 7997
  154.9371  140.0382  157.2067 H   0  0  0  0  0  0  0  0  0  0  0  0  # atno 8010 bound_to 7997
  139.5012  144.6152  151.6181 H   0  0  0  0  0  0  0  0  0  0  0  0  # atno 10167 bound_to 10162
  156.9033  130.9886  151.3032 H   0  0  0  0  0  0  0  0  0  0  0  0  # atno 10718 bound_to 10713
  154.3493  135.6140  153.5635 H   0  0  0  0  0  0  0  0  0  0  0  0  # atno 10763 bound_to 10752
  152.9799  135.5788  154.4761 H   0  0  0  0  0  0  0  0  0  0  0  0  # atno 10764 bound_to 10752
  154.4480  135.2852  155.1779 H   0  0  0  0  0  0  0  0  0  0  0  0  # atno 10765 bound_to 10752
  141.0490  133.6750  156.2958 H   0  0  0  0  0  0  0  0  0  0  0  0  # atno 11005 bound_to 11000
  145.8157  140.9704  143.0925 LP  0  0  0  0  0  0  0  0  0  0  0  0  # atno 17320 bound_to 7965
  144.6798  139.9978  143.7484 LP  0  0  0  0  0  0  0  0  0  0  0  0  # atno 17321 bound_to 7965
  140.5837  143.9901  150.6283 LP  0  0  0  0  0  0  0  0  0  0  0  0  # atno 17342 bound_to 10162
  140.3058  143.3230  152.0927 LP  0  0  0  0  0  0  0  0  0  0  0  0  # atno 17343 bound_to 10162
  157.6012  130.8514  149.8805 LP  0  0  0  0  0  0  0  0  0  0  0  0  # atno 17370 bound_to 10713
  156.0571  130.3706  150.1066 LP  0  0  0  0  0  0  0  0  0  0  0  0  # atno 17371 bound_to 10713
  140.6091  134.5476  157.5530 LP  0  0  0  0  0  0  0  0  0  0  0  0  # atno 17394 bound_to 11000
  139.9335  134.7919  156.0866 LP  0  0  0  0  0  0  0  0  0  0  0  0  # atno 17395 bound_to 11000

$$$$
