#       Name:                AV-unprocessed.smi:1369
#       Creating user name   scv26
#       Creation time:       Fri Mar 27 05:17:43 2020


#       File generated by GOLD software.
#

@<TRIPOS>MOLECULE
AV-unprocessed.smi:1369
    47    49     1
SMALL
NO_CHARGES


@<TRIPOS>ATOM
      1 ****        -0.7651   3.4715   0.6623 C.3            1 S1                 0.0000
      2 ****        -1.8628   2.4321   0.8610 C.2            1 S1                 0.0000
      3 ****        -2.9456   2.7788   1.3309 O.2            1 S1                 0.0000
      4 ****        -1.5385   1.1725   0.5172 N.am           1 S1                 0.0000
      5 ****        -2.3384  -0.0033   0.5822 C.ar           1 S1                 0.0000
      6 ****        -3.7523   0.0280   0.5026 C.ar           1 S1                 0.0000
      7 ****        -4.4941  -1.1660   0.5471 C.ar           1 S1                 0.0000
      8 ****        -3.8315  -2.4000   0.6603 C.ar           1 S1                 0.0000
      9 ****        -2.4266  -2.4419   0.7228 C.ar           1 S1                 0.0000
     10 ****        -1.6663  -1.2456   0.6789 C.ar           1 S1                 0.0000
     11 ****        -0.2878  -1.2182   0.7343 O.3            1 S1                 0.0000
     12 ****         0.4202  -2.4503   0.7144 C.3            1 S1                 0.0000
     13 ****         1.9252  -2.1511   0.6881 C.3            1 S1                 0.0000
     14 ****         2.3054  -1.4484  -0.5342 N.am           1 S1                 0.0000
     15 ****         2.5534  -2.0529  -1.7693 C.2            1 S1                 0.0000
     16 ****         2.5158  -3.2495  -2.0501 O.2            1 S1                 0.0000
     17 ****         2.8514  -1.0452  -2.6500 O.3            1 S1                 0.0000
     18 ****         2.7834   0.1492  -1.9943 C.ar           1 S1                 0.0000
     19 ****         2.9996   1.4476  -2.4855 C.ar           1 S1                 0.0000
     20 ****         2.8575   2.5246  -1.5793 C.ar           1 S1                 0.0000
     21 ****         2.5072   2.2914  -0.2248 C.ar           1 S1                 0.0000
     22 ****         2.2892   0.9772   0.2485 C.ar           1 S1                 0.0000
     23 ****         2.4433  -0.0699  -0.6763 C.ar           1 S1                 0.0000
     24 ****        -0.3473   3.4021  -0.3425 H              1 S1                 0.0000
     25 ****         0.0366   3.3160   1.3843 H              1 S1                 0.0000
     26 ****        -1.1562   4.4802   0.7984 H              1 S1                 0.0000
     27 ****        -0.5787   1.0234   0.2407 H              1 S1                 0.0000
     28 ****        -4.2900   0.9568   0.3916 H              1 S1                 0.0000
     29 ****        -5.5721  -1.1347   0.4882 H              1 S1                 0.0000
     30 ****        -4.4009  -3.3172   0.6938 H              1 S1                 0.0000
     31 ****        -1.9549  -3.4090   0.8055 H              1 S1                 0.0000
     32 ****         0.1829  -3.0300   1.6075 H              1 S1                 0.0000
     33 ****         0.1416  -3.0438  -0.1581 H              1 S1                 0.0000
     34 ****         2.2082  -1.5637   1.5618 H              1 S1                 0.0000
     35 ****         2.4872  -3.0837   0.7546 H              1 S1                 0.0000
     36 ****         3.2649   1.6171  -3.5186 H              1 S1                 0.0000
     37 ****         3.0170   3.5361  -1.9230 H              1 S1                 0.0000
     38 ****         2.4031   3.1270   0.4516 H              1 S1                 0.0000
     39 ****         2.0158   0.7915   1.2767 H              1 S1                 0.0000
     40 ****        -3.0998   3.7352   1.5789 LP             1 S1                 0.0000
     41 ****        -3.6715   2.1042   1.4649 LP             1 S1                 0.0000
     42 ****        -0.0364  -0.7478   1.5802 LP             1 S1                 0.0000
     43 ****         0.0278  -0.6845  -0.0503 LP             1 S1                 0.0000
     44 ****         2.2843  -3.9212  -1.3463 LP             1 S1                 0.0000
     45 ****         2.7167  -3.5509  -2.9822 LP             1 S1                 0.0000
     46 ****         2.1939  -1.0524  -3.4034 LP             1 S1                 0.0000
     47 ****         3.7743  -1.1775  -3.0117 LP             1 S1                 0.0000
@<TRIPOS>BOND
    1    1    2 1     
    2    1   24 1     
    3    1   25 1     
    4    1   26 1     
    5    2    3 2     
    6    2    4 am    
    7    4    5 1     
    8    4   27 1     
    9    5   10 ar    
   10    5    6 ar    
   11    6    7 ar    
   12    6   28 1     
   13    7    8 ar    
   14    7   29 1     
   15    8    9 ar    
   16    8   30 1     
   17    9   10 ar    
   18    9   31 1     
   19   10   11 1     
   20   11   12 1     
   21   12   13 1     
   22   12   32 1     
   23   12   33 1     
   24   13   14 1     
   25   13   34 1     
   26   13   35 1     
   27   14   23 1     
   28   14   15 am    
   29   15   16 2     
   30   15   17 1     
   31   17   18 1     
   32   18   23 ar    
   33   18   19 ar    
   34   19   20 ar    
   35   19   36 1     
   36   20   21 ar    
   37   20   37 1     
   38   21   22 ar    
   39   21   38 1     
   40   22   23 ar    
   41   22   39 1     
   42    3   40 1     
   43    3   41 1     
   44   11   42 1     
   45   11   43 1     
   46   16   44 1     
   47   16   45 1     
   48   17   46 1     
   49   17   47 1     
@<TRIPOS>SUBSTRUCTURE
      1 S1             1
@<TRIPOS>SET
LONE_PAIRS      STATIC     ATOMS    <user>   **** ""
8 40 41 42 43 44 45 46 47
DONOR_HYDROGENS      STATIC     ATOMS    <user>   **** ""
1 27
ATOM$BLUE        STATIC     ATOMS    COLORGROUP SYSTEM
8 40 41 42 43 44 45 46 47
ATOM$RED        STATIC     ATOMS    COLORGROUP SYSTEM
1 27
