#       Name:                AV-unprocessed.smi:1316
#       Creating user name   scv26
#       Creation time:       Fri Mar 27 05:02:43 2020


#       File generated by GOLD software.
#

@<TRIPOS>MOLECULE
AV-unprocessed.smi:1316
    24    24     1
SMALL
NO_CHARGES


@<TRIPOS>ATOM
      1 ****        -2.9920  -2.6419   0.2548 C.3            1 S1                 0.0000
      2 ****        -1.5674  -2.3526   0.3161 N.am           1 S1                 0.0000
      3 ****        -1.0415  -1.1253   0.1973 C.2            1 S1                 0.0000
      4 ****        -1.7273  -0.1169   0.0211 O.2            1 S1                 0.0000
      5 ****         0.4881  -1.0439   0.2878 C.3            1 S1                 0.0000
      6 ****         0.9877   0.3211   0.2428 N.pl3          1 S1                 0.0000
      7 ****         1.1991   1.1202  -0.8621 C.2            1 S1                 0.0000
      8 ****         1.6675   2.3208  -0.4110 C.2            1 S1                 0.0000
      9 ****         2.0117   3.4379  -1.1952 N.pl3          1 S1                 0.0000
     10 ****         1.7135   2.1576   1.0022 C.2            1 S1                 0.0000
     11 ****         1.3075   0.9592   1.3903 N.2            1 S1                 0.0000
     12 ****        -3.1583  -3.7151   0.3452 H              1 S1                 0.0000
     13 ****        -3.4161  -2.3102  -0.6939 H              1 S1                 0.0000
     14 ****        -3.5237  -2.1446   1.0672 H              1 S1                 0.0000
     15 ****        -0.9425  -3.1330   0.4583 H              1 S1                 0.0000
     16 ****         0.8261  -1.5201   1.2098 H              1 S1                 0.0000
     17 ****         0.9280  -1.5995  -0.5410 H              1 S1                 0.0000
     18 ****         0.9952   0.7715  -1.8638 H              1 S1                 0.0000
     19 ****         1.9311   3.4268  -2.2021 H              1 S1                 0.0000
     20 ****         2.4183   4.2691  -0.7904 H              1 S1                 0.0000
     21 ****         2.0266   2.8688   1.7525 H              1 S1                 0.0000
     22 ****        -2.7226  -0.1934  -0.0392 LP             1 S1                 0.0000
     23 ****        -1.2886   0.7779  -0.0616 LP             1 S1                 0.0000
     24 ****         1.2502   0.6051   2.3238 LP             1 S1                 0.0000
@<TRIPOS>BOND
    1    1    2 1     
    2    1   12 1     
    3    1   13 1     
    4    1   14 1     
    5    2    3 am    
    6    2   15 1     
    7    3    4 2     
    8    3    5 1     
    9    5    6 1     
   10    5   16 1     
   11    5   17 1     
   12    6   11 1     
   13    6    7 1     
   14    7    8 2     
   15    7   18 1     
   16    8    9 1     
   17    8   10 1     
   18    9   19 1     
   19    9   20 1     
   20   10   11 2     
   21   10   21 1     
   22    4   22 1     
   23    4   23 1     
   24   11   24 1     
@<TRIPOS>SUBSTRUCTURE
      1 S1             1
@<TRIPOS>SET
LONE_PAIRS      STATIC     ATOMS    <user>   **** ""
3 22 23 24
DONOR_HYDROGENS      STATIC     ATOMS    <user>   **** ""
3 15 19 20
ATOM$BLUE        STATIC     ATOMS    COLORGROUP SYSTEM
3 22 23 24
ATOM$RED        STATIC     ATOMS    COLORGROUP SYSTEM
3 15 19 20
