AV-unprocessed.smi:21|AV-procd|sdf|158|dock8
  -GOLD-   2262015393D 1   1.00000     0.00000
 Structure written by MMmdl.
 61 64  0  0  0  0  0  0  0  0  1 V2000
  155.6709  139.9390  161.5719 C   0  0  0  0  0  0  0  0  0  0  0  0
  155.2046  141.1602  161.0207 O   0  0  0  0  0  0  0  0  0  0  0  0
  153.7977  141.3257  161.1252 C   0  0  2  0  0  0  0  0  0  0  0  0
  153.0226  140.6159  159.9995 C   0  0  0  0  0  0  0  0  0  0  0  0
  152.2778  141.7441  159.2680 C   0  0  1  0  0  0  0  0  0  0  0  0
  150.9403  141.2931  158.6388 C   0  0  0  0  0  0  0  0  0  0  0  0
  151.0991  140.2169  157.6605 N   0  0  0  0  0  0  0  0  0  0  0  0
  151.0011  140.5627  156.2431 C   0  0  0  0  0  0  0  0  0  0  0  0
  150.9343  138.9129  158.0333 C   0  0  0  0  0  0  0  0  0  0  0  0
  151.1801  138.5764  159.3291 N   0  0  0  0  0  0  0  0  0  0  0  0
  151.0508  137.3165  159.7506 C   0  0  0  0  0  0  0  0  0  0  0  0
  150.6853  136.2403  159.0558 N   0  0  0  0  0  0  0  0  0  0  0  0
  150.4230  136.5591  157.7573 C   0  0  0  0  0  0  0  0  0  0  0  0
  150.5194  137.8537  157.1654 C   0  0  0  0  0  0  0  0  0  0  0  0
  150.1625  137.7682  155.8228 N   0  0  0  0  0  0  0  0  0  0  0  0
  149.8817  136.5093  155.6331 C   0  0  0  0  0  0  0  0  0  0  0  0
  150.0024  135.7126  156.7461 N   0  0  0  0  0  0  0  0  0  0  0  0
  149.7437  134.2844  156.8169 C   0  0  0  0  0  0  0  0  0  0  0  0
  150.6741  133.4530  155.9005 C   0  0  1  0  0  0  0  0  0  0  0  0
  151.7981  132.7829  156.7253 C   0  0  0  0  0  0  0  0  0  0  0  0
  151.2637  132.1537  157.8714 O   0  0  0  0  0  0  0  0  0  0  0  0
  149.8904  132.4595  154.9969 C   0  0  2  0  0  0  0  0  0  0  0  0
  148.9939  133.0921  153.9351 C   0  0  0  0  0  0  0  0  0  0  0  0
  147.8563  132.0877  153.8157 C   0  0  0  0  0  0  0  0  0  0  0  0
  147.6643  131.6809  155.1593 O   0  0  0  0  0  0  0  0  0  0  0  0
  148.9477  131.4983  155.7439 C   0  0  0  0  0  0  0  0  0  0  0  0
  152.1556  142.8093  160.2496 N   0  0  0  0  0  0  0  0  0  0  0  0
  151.8530  144.1105  159.6680 C   0  0  0  0  0  0  0  0  0  0  0  0
  153.4359  142.8001  160.9295 C   0  0  0  0  0  0  0  0  0  0  0  0
  153.4365  140.9945  162.1007 H   0  0  0  0  0  0  0  0  0  0  0  0
  152.9366  142.0989  158.4736 H   0  0  0  0  0  0  0  0  0  0  0  0
  156.7530  139.8775  161.4578 H   0  0  0  0  0  0  0  0  0  0  0  0
  155.2329  139.0758  161.0703 H   0  0  0  0  0  0  0  0  0  0  0  0
  155.4426  139.8759  162.6365 H   0  0  0  0  0  0  0  0  0  0  0  0
  153.6720  140.0709  159.3135 H   0  0  0  0  0  0  0  0  0  0  0  0
  152.3239  139.8998  160.4340 H   0  0  0  0  0  0  0  0  0  0  0  0
  150.2730  140.9564  159.4328 H   0  0  0  0  0  0  0  0  0  0  0  0
  150.4132  142.1256  158.1784 H   0  0  0  0  0  0  0  0  0  0  0  0
  151.7033  139.9737  155.6519 H   0  0  0  0  0  0  0  0  0  0  0  0
  151.2352  141.6140  156.0758 H   0  0  0  0  0  0  0  0  0  0  0  0
  149.9930  140.3808  155.8687 H   0  0  0  0  0  0  0  0  0  0  0  0
  151.2730  137.1469  160.7938 H   0  0  0  0  0  0  0  0  0  0  0  0
  149.5687  136.1263  154.6726 H   0  0  0  0  0  0  0  0  0  0  0  0
  149.8627  133.9813  157.8576 H   0  0  0  0  0  0  0  0  0  0  0  0
  148.6989  134.1014  156.5634 H   0  0  0  0  0  0  0  0  0  0  0  0
  151.1592  134.1533  155.2185 H   0  0  0  0  0  0  0  0  0  0  0  0
  152.3324  132.0378  156.1357 H   0  0  0  0  0  0  0  0  0  0  0  0
  152.5363  133.5097  157.0623 H   0  0  0  0  0  0  0  0  0  0  0  0
  151.0673  131.2544  157.6568 H   0  0  0  0  0  0  0  0  0  0  0  0
  150.6069  131.8217  154.4781 H   0  0  0  0  0  0  0  0  0  0  0  0
  148.5891  134.0477  154.2653 H   0  0  0  0  0  0  0  0  0  0  0  0
  149.5076  133.2576  152.9884 H   0  0  0  0  0  0  0  0  0  0  0  0
  146.9509  132.5220  153.3915 H   0  0  0  0  0  0  0  0  0  0  0  0
  148.1501  131.2303  153.2078 H   0  0  0  0  0  0  0  0  0  0  0  0
  149.2635  130.4650  155.5926 H   0  0  0  0  0  0  0  0  0  0  0  0
  148.9064  131.6697  156.8192 H   0  0  0  0  0  0  0  0  0  0  0  0
  151.8268  144.8785  160.4416 H   0  0  0  0  0  0  0  0  0  0  0  0
  150.8794  144.1042  159.1786 H   0  0  0  0  0  0  0  0  0  0  0  0
  152.6023  144.3989  158.9295 H   0  0  0  0  0  0  0  0  0  0  0  0
  153.3967  143.3467  161.8722 H   0  0  0  0  0  0  0  0  0  0  0  0
  154.1904  143.2775  160.3015 H   0  0  0  0  0  0  0  0  0  0  0  0
  1  2  1  0  0  0  0
  1 32  1  0  0  0  0
  1 33  1  0  0  0  0
  1 34  1  0  0  0  0
  2  3  1  0  0  0  0
  3 30  1  0  0  0  0
  3 29  1  0  0  0  0
  3  4  1  0  0  0  0
  4  5  1  0  0  0  0
  4 35  1  0  0  0  0
  4 36  1  0  0  0  0
  5 31  1  0  0  0  0
  5  6  1  0  0  0  0
  5 27  1  0  0  0  0
  6  7  1  0  0  0  0
  6 37  1  0  0  0  0
  6 38  1  0  0  0  0
  7  8  1  0  0  0  0
  7  9  1  0  0  0  0
  8 39  1  0  0  0  0
  8 40  1  0  0  0  0
  8 41  1  0  0  0  0
  9 14  1  0  0  0  0
  9 10  2  0  0  0  0
 10 11  1  0  0  0  0
 11 12  2  0  0  0  0
 11 42  1  0  0  0  0
 12 13  1  0  0  0  0
 13 17  1  0  0  0  0
 13 14  2  0  0  0  0
 14 15  1  0  0  0  0
 15 16  2  0  0  0  0
 16 17  1  0  0  0  0
 16 43  1  0  0  0  0
 17 18  1  0  0  0  0
 18 19  1  0  0  0  0
 18 44  1  0  0  0  0
 18 45  1  0  0  0  0
 19 20  1  0  0  0  0
 19 22  1  0  0  0  0
 19 46  1  0  0  0  0
 20 21  1  0  0  0  0
 20 47  1  0  0  0  0
 20 48  1  0  0  0  0
 21 49  1  0  0  0  0
 22 26  1  0  0  0  0
 22 23  1  0  0  0  0
 22 50  1  0  0  0  0
 23 24  1  0  0  0  0
 23 51  1  0  0  0  0
 23 52  1  0  0  0  0
 24 25  1  0  0  0  0
 24 53  1  0  0  0  0
 24 54  1  0  0  0  0
 25 26  1  0  0  0  0
 26 55  1  0  0  0  0
 26 56  1  0  0  0  0
 27 28  1  0  0  0  0
 27 29  1  0  0  0  0
 28 57  1  0  0  0  0
 28 58  1  0  0  0  0
 28 59  1  0  0  0  0
 29 60  1  0  0  0  0
 29 61  1  0  0  0  0
M  END
> <s_m_source_file>
AV-unprocessed.smi

> <i_m_source_file_index>
21

> <i_lp_mmshare_version>
43012

> <i_f3d_flags>
0

> <s_epik_input>
W0NIM11PW0NASF0xW0NIMl1bQ0BIXShOKFtDSDNdKVtDSDJdMSlbQ0gyXU4oW0NIM10pYyhuW2NIXW4yKWMoYzIzKW5bY0hdbjNbQ0gyXVtDQEhdKFtDSDJdW09IXSlbQ0BASF00W0NIMl1bQ0gyXU9bQ0gyXTQ=

> <s_epik_cmdline>
J2VwaWtfcHl0aG9uJywgJy1waCcsICc3LjAnLCAnLXRuJywgJzgnLCAnLW1hJywgJzIwMCcsICctbWV0YWxfYmluZGluZycsICctaW1hZScsICc8aW5maWxlLm1hZT4nLCAnLW9tYWUnLCAnPG91dGZpbGUubWFlPic=

> <r_lp_tautomer_probability>
1

> <r_epik_Ionization_Penalty>
2.17574

> <r_epik_Ionization_Penalty_Charging>
0

> <r_epik_Ionization_Penalty_Neutral>
2.17574

> <r_epik_State_Penalty>
2.31336

> <r_epik_Charging_Adjusted_Penalty>
2.31336

> <i_epik_Tot_Q>
0

> <i_epik_Tot_abs_Q>
0

> <r_epik_Metal_State_Penalty>
2.31025

> <b_epik_Metal_Only>
0

> <s_lp_Force_Field>
OPLS_2005

> <r_lp_Energy>
69.5253

> <b_lp_Chiralities_Consistent>
1

> <s_lp_Variant>
AV-unprocessed.smi:21-38

> <Gold.Version>
5.8.1

> <Gold.Id.Protein>
6NUR|6NUR_protein|mol2

> <Gold.PLP.Fitness>
53.5398

> <Gold.PLP.PLP>
-47.0364

> <Gold.PLP.part.hbond>
-3.0000

> <Gold.PLP.part.metal>
0.0000

> <Gold.PLP.part.buried>
-6.8706

> <Gold.PLP.part.nonpolar>
-37.2657

> <Gold.PLP.part.repulsive>
0.1043

> <Gold.PLP.ligand.clash>
0.0000

> <Gold.PLP.ligand.torsion>
1.5323

> <Gold.PLP.Chemscore.Hbond>
2.0000

> <Gold.PLP.Chemscore.CHOScore>
1.0000

> <Gold.PLP.Chemscore.Metal>
0.0000

> <Gold.Chemscore.Hbonds>
donor molecule, donor type, donor heavy atom, donor atom, acceptor molecule, acceptor atom, score
      P1  H  6896  6908       L1    21  1.00
      P1  H  6896  6909       L1    12  0.87
      L1  C    16    43       P1  7948  0.20

> <Gold.PLP.Chemscore.Internal.Correction>
0.5680

> <Gold.Rescore>
     Score         DG    S(hbond)    S(metal)    S(lipo)     H(rot)  DE(clash)    DE(int)     intcor
     11.33     -15.69       1.92        0.00      98.17       3.00       0.06       4.30       ----

> <Gold.Chemscore.Fitness>
11.3282

> <Gold.Chemscore.DG>
-15.6948

> <Gold.Chemscore.ZeroCoef>
-5.4800

> <Gold.Chemscore.Hbond>
1.9212

> <Gold.Chemscore.Metal>
0.0000

> <Gold.Chemscore.Lipo>
98.1718

> <Gold.Chemscore.Internal_Hbond>
0.0000

> <Gold.Chemscore.DEClash>
0.0622

> <Gold.Chemscore.DEInternal>
4.3044

> <Gold.Chemscore.Rot>
3.0031

> <Gold.Chemscore.Internal.Correction>
   9.000000E+99

> <Gold.Chemscore.Hbonds>
donor molecule, donor type, donor heavy atom, donor atom, acceptor molecule, acceptor atom, score
      P1  H  6896  6908       L1    21  0.60
      P1  H  6896  6909       L1    12  0.74

> <Gold.Chemscore.Hbond.Weighted>
-6.4167

> <Gold.Chemscore.Metal.Weighted>
-0.0000

> <Gold.Chemscore.Lipo.Weighted>
-11.4861

> <Gold.Chemscore.Internal_Hbond.Weighted>
0.0000

> <Gold.Chemscore.DEClash.Weighted>
0.0622

> <Gold.Chemscore.DEInternal.Weighted>
4.3044

> <Gold.Chemscore.Rot.Weighted>
7.6880

> <Gold.Chemscore.Internal.Correction.Weighted>
   9.000000E+99

> <Gold.Protein.RotatedTorsions>
[ 6907 6896 6895 6894 ] final   73.81 input  -60.11 | X-H torsion
[ 7974 7965 7964 7962 ] final -147.66 input  175.53 | X-H torsion
[ 8008 7997 7996 7995 ] final -104.79 input   59.86 | X-H torsion
[ 10167 10162 10161 10158 ] final  -77.12 input  -65.29 | X-H torsion
[ 10718 10713 10712 10709 ] final  160.78 input   66.30 | X-H torsion
[ 10763 10752 10751 10750 ] final -126.58 input  -60.55 | X-H torsion
[ 11005 11000 10999 10996 ] final   41.21 input  -57.11 | X-H torsion

> <Gold.Protein.ActiveResidues>
 VAL166  LYS551  ARG553  GLY616  TRP617  ASP618  TYR619  PRO620  LYS621  CYS622 
 ASP623  PHE694  ASN695  SER759  ASP760  ASP761  ALA762  ILE779  LEU786  VAL792 
 PHE793  MET794  SER795  GLU796  ALA797  LYS798  CYS799  TRP800  GLU811  SER814 

> <Gold.Protein.RotatedAtoms>
  152.4943  134.4365  159.9529 H   0  0  0  0  0  0  0  0  0  0  0  0  # atno 6907 bound_to 6896
  151.4347  133.3654  159.2781 H   0  0  0  0  0  0  0  0  0  0  0  0  # atno 6908 bound_to 6896
  150.9130  134.8570  159.7498 H   0  0  0  0  0  0  0  0  0  0  0  0  # atno 6909 bound_to 6896
  144.8079  140.5297  143.5663 H   0  0  0  0  0  0  0  0  0  0  0  0  # atno 7974 bound_to 7965
  154.8905  140.0416  157.1835 H   0  0  0  0  0  0  0  0  0  0  0  0  # atno 8008 bound_to 7997
  154.8546  140.2934  155.5556 H   0  0  0  0  0  0  0  0  0  0  0  0  # atno 8009 bound_to 7997
  156.2997  140.2458  156.3510 H   0  0  0  0  0  0  0  0  0  0  0  0  # atno 8010 bound_to 7997
  140.4798  143.2405  151.8076 H   0  0  0  0  0  0  0  0  0  0  0  0  # atno 10167 bound_to 10162
  157.1457  131.0551  151.2305 H   0  0  0  0  0  0  0  0  0  0  0  0  # atno 10718 bound_to 10713
  154.8746  135.3991  154.3453 H   0  0  0  0  0  0  0  0  0  0  0  0  # atno 10763 bound_to 10752
  153.4247  135.7024  153.6276 H   0  0  0  0  0  0  0  0  0  0  0  0  # atno 10764 bound_to 10752
  153.4923  135.3745  155.2468 H   0  0  0  0  0  0  0  0  0  0  0  0  # atno 10765 bound_to 10752
  140.1856  134.4050  155.8175 H   0  0  0  0  0  0  0  0  0  0  0  0  # atno 11005 bound_to 11000
  145.5395  139.1475  143.3455 LP  0  0  0  0  0  0  0  0  0  0  0  0  # atno 17320 bound_to 7965
  146.2373  140.5535  142.8949 LP  0  0  0  0  0  0  0  0  0  0  0  0  # atno 17321 bound_to 7965
  139.4831  144.4787  151.9334 LP  0  0  0  0  0  0  0  0  0  0  0  0  # atno 17342 bound_to 10162
  140.3873  144.2661  150.5903 LP  0  0  0  0  0  0  0  0  0  0  0  0  # atno 17343 bound_to 10162
  157.4267  130.7467  149.6956 LP  0  0  0  0  0  0  0  0  0  0  0  0  # atno 17370 bound_to 10713
  155.9780  130.4056  150.3676 LP  0  0  0  0  0  0  0  0  0  0  0  0  # atno 17371 bound_to 10713
  141.2225  133.7021  156.8006 LP  0  0  0  0  0  0  0  0  0  0  0  0  # atno 17394 bound_to 11000
  140.2218  134.8751  157.3385 LP  0  0  0  0  0  0  0  0  0  0  0  0  # atno 17395 bound_to 11000

$$$$
