AV-unprocessed.smi:3116|AV-procd|sdf|11863|dock9
  -GOLD-   2272017243D 1   1.00000     0.00000
 Structure written by MMmdl.
 34 34  0  0  0  0  0  0  0  0  2 V2000
  147.7178  141.8072  154.2021 C   0  0  0  0  0  0  0  0  0  0  0  0
  148.6921  140.7001  154.6321 C   0  0  1  0  0  0  0  0  0  0  0  0
  148.9255  140.7806  156.0940 N   0  3  0  0  0  0  0  0  0  0  0  0
  150.0571  141.6372  156.5236 C   0  0  2  0  0  0  0  0  0  0  0  0
  151.3758  140.9083  156.2060 C   0  0  0  0  0  0  0  0  0  0  0  0
  149.9212  142.0111  158.0253 C   0  0  2  0  0  0  0  0  0  0  0  0
  148.5950  142.7222  158.3556 C   0  0  0  0  0  0  0  0  0  0  0  0
  151.0444  142.8149  158.4908 N   0  0  0  0  0  0  0  0  0  0  0  0
  151.4891  144.0265  158.0025 C   0  0  0  0  0  0  0  0  0  0  0  0
  152.5672  144.3987  158.7532 C   0  0  0  0  0  0  0  0  0  0  0  0
  152.7120  143.3360  159.6877 C   0  0  0  0  0  0  0  0  0  0  0  0
  151.8010  142.3898  159.5281 N   0  0  0  0  0  0  0  0  0  0  0  0
  148.1418  139.3269  154.2207 C   0  0  0  0  0  0  0  0  0  0  0  0
  148.7531  138.7046  153.2095 N   0  0  0  0  0  0  0  0  0  0  0  0
  147.1717  138.8389  154.7979 O   0  0  0  0  0  0  0  0  0  0  0  0
  147.5525  141.7945  153.1240 H   0  0  0  0  0  0  0  0  0  0  0  0
  148.1081  142.7924  154.4590 H   0  0  0  0  0  0  0  0  0  0  0  0
  146.7472  141.6988  154.6886 H   0  0  0  0  0  0  0  0  0  0  0  0
  149.6397  140.8679  154.1181 H   0  0  0  0  0  0  0  0  0  0  0  0
  148.0888  141.1342  156.5346 H   0  0  0  0  0  0  0  0  0  0  0  0
  150.0553  142.5562  155.9348 H   0  0  0  0  0  0  0  0  0  0  0  0
  152.2452  141.5352  156.4048 H   0  0  0  0  0  0  0  0  0  0  0  0
  151.4234  140.6261  155.1537 H   0  0  0  0  0  0  0  0  0  0  0  0
  151.4791  139.9985  156.7986 H   0  0  0  0  0  0  0  0  0  0  0  0
  149.9448  141.0848  158.6020 H   0  0  0  0  0  0  0  0  0  0  0  0
  147.7371  142.0771  158.1666 H   0  0  0  0  0  0  0  0  0  0  0  0
  148.4676  143.6288  157.7632 H   0  0  0  0  0  0  0  0  0  0  0  0
  148.5555  143.0058  159.4079 H   0  0  0  0  0  0  0  0  0  0  0  0
  151.0063  144.5198  157.1715 H   0  0  0  0  0  0  0  0  0  0  0  0
  153.1626  145.2937  158.6500 H   0  0  0  0  0  0  0  0  0  0  0  0
  153.4465  143.2248  160.4717 H   0  0  0  0  0  0  0  0  0  0  0  0
  148.4327  137.7977  152.9014 H   0  0  0  0  0  0  0  0  0  0  0  0
  149.5409  139.1441  152.7550 H   0  0  0  0  0  0  0  0  0  0  0  0
  149.0886  139.8408  156.4269 H   0  0  0  0  0  0  0  0  0  0  0  0
  1  2  1  0  0  0  0
  1 16  1  0  0  0  0
  1 17  1  0  0  0  0
  1 18  1  0  0  0  0
  2  3  1  0  0  0  0
  2 13  1  0  0  0  0
  2 19  1  0  0  0  0
  3  4  1  0  0  0  0
  3 20  1  0  0  0  0
  3 34  1  0  0  0  0
  4  5  1  0  0  0  0
  4  6  1  0  0  0  0
  4 21  1  0  0  0  0
  5 22  1  0  0  0  0
  5 23  1  0  0  0  0
  5 24  1  0  0  0  0
  6  7  1  0  0  0  0
  6  8  1  0  0  0  0
  6 25  1  0  0  0  0
  7 26  1  0  0  0  0
  7 27  1  0  0  0  0
  7 28  1  0  0  0  0
  8 12  1  0  0  0  0
  8  9  1  0  0  0  0
  9 10  2  0  0  0  0
  9 29  1  0  0  0  0
 10 11  1  0  0  0  0
 10 30  1  0  0  0  0
 11 12  2  0  0  0  0
 11 31  1  0  0  0  0
 13 14  1  0  0  0  0
 13 15  2  0  0  0  0
 14 32  1  0  0  0  0
 14 33  1  0  0  0  0
M  CHG  1   3   1
M  END
> <s_m_source_file>
AV-unprocessed.smi

> <i_m_source_file_index>
3116

> <i_lp_mmshare_version>
43012

> <i_f3d_flags>
0

> <s_epik_input>
W05IMl1DKD1PKVtDQEhdKFtDSDNdKVtOSF1bQ0BIXShbQ0gzXSlbQ0BIXShbQ0gzXSluMVtjSF1bY0hdW2NIXW4x

> <s_epik_cmdline>
J2VwaWtfcHl0aG9uJywgJy1waCcsICc3LjAnLCAnLXRuJywgJzgnLCAnLW1hJywgJzIwMCcsICctbWV0YWxfYmluZGluZycsICctaW1hZScsICc8aW5maWxlLm1hZT4nLCAnLW9tYWUnLCAnPG91dGZpbGUubWFlPic=

> <r_lp_tautomer_probability>
1

> <r_epik_Ionization_Penalty>
0.15658

> <r_epik_Ionization_Penalty_Charging>
0.156568

> <r_epik_Ionization_Penalty_Neutral>
1.19778e-05

> <r_epik_State_Penalty>
0.145866

> <r_epik_Charging_Adjusted_Penalty>
0.302434

> <i_epik_Tot_Q>
1

> <i_epik_Tot_abs_Q>
1

> <r_epik_Metal_State_Penalty>
0.146064

> <b_epik_Metal_Only>
0

> <s_lp_Force_Field>
OPLS_2005

> <r_lp_Energy>
10.4239

> <b_lp_Chiralities_Consistent>
1

> <s_lp_Variant>
AV-unprocessed.smi:3116-2

> <Gold.Version>
5.8.1

> <Gold.Id.Protein>
6NUR|6NUR_protein|mol2

> <Gold.PLP.Fitness>
38.1512

> <Gold.PLP.PLP>
-32.2532

> <Gold.PLP.part.hbond>
-1.7676

> <Gold.PLP.part.metal>
0.0000

> <Gold.PLP.part.buried>
-4.9962

> <Gold.PLP.part.nonpolar>
-26.4288

> <Gold.PLP.part.repulsive>
0.2156

> <Gold.PLP.ligand.clash>
0.0000

> <Gold.PLP.ligand.torsion>
0.8319

> <Gold.PLP.Chemscore.Hbond>
1.4880

> <Gold.PLP.Chemscore.CHOScore>
1.0000

> <Gold.PLP.Chemscore.Metal>
0.0000

> <Gold.Chemscore.Hbonds>
donor molecule, donor type, donor heavy atom, donor atom, acceptor molecule, acceptor atom, score
      L1  H    14    32       P1  7948  0.83
      L1  H    14    33       P1  7957  0.59
      L1  C     9    29       P1  8028  0.89

> <Gold.PLP.Chemscore.Internal.Correction>
0.0978

> <Gold.Rescore>
     Score         DG    S(hbond)    S(metal)    S(lipo)     H(rot)  DE(clash)    DE(int)     intcor
     12.72     -13.84       1.93        0.00      69.87       2.45       0.00       1.12       ----

> <Gold.Chemscore.Fitness>
12.7157

> <Gold.Chemscore.DG>
-13.8373

> <Gold.Chemscore.ZeroCoef>
-5.4800

> <Gold.Chemscore.Hbond>
1.9300

> <Gold.Chemscore.Metal>
0.0000

> <Gold.Chemscore.Lipo>
69.8666

> <Gold.Chemscore.Internal_Hbond>
0.0000

> <Gold.Chemscore.DEClash>
0.0000

> <Gold.Chemscore.DEInternal>
1.1216

> <Gold.Chemscore.Rot>
2.4465

> <Gold.Chemscore.Internal.Correction>
   9.000000E+99

> <Gold.Chemscore.Hbonds>
donor molecule, donor type, donor heavy atom, donor atom, acceptor molecule, acceptor atom, score
      L1  H    14    32       P1  7948  0.83
      L1  H    14    33       P1  7957  0.57

> <Gold.Chemscore.Hbond.Weighted>
-6.4460

> <Gold.Chemscore.Metal.Weighted>
-0.0000

> <Gold.Chemscore.Lipo.Weighted>
-8.1744

> <Gold.Chemscore.Internal_Hbond.Weighted>
0.0000

> <Gold.Chemscore.DEClash.Weighted>
0.0000

> <Gold.Chemscore.DEInternal.Weighted>
1.1216

> <Gold.Chemscore.Rot.Weighted>
6.2631

> <Gold.Chemscore.Internal.Correction.Weighted>
   9.000000E+99

> <Gold.Protein.RotatedTorsions>
[ 6907 6896 6895 6894 ] final  -33.66 input  -60.11 | X-H torsion
[ 7974 7965 7964 7962 ] final  -70.07 input  175.53 | X-H torsion
[ 8008 7997 7996 7995 ] final -128.59 input   59.86 | X-H torsion
[ 10167 10162 10161 10158 ] final -101.75 input  -65.29 | X-H torsion
[ 10718 10713 10712 10709 ] final -108.27 input   66.30 | X-H torsion
[ 10763 10752 10751 10750 ] final  -20.99 input  -60.55 | X-H torsion
[ 11005 11000 10999 10996 ] final -129.87 input  -57.11 | X-H torsion

> <Gold.Protein.ActiveResidues>
 VAL166  LYS551  ARG553  GLY616  TRP617  ASP618  TYR619  PRO620  LYS621  CYS622 
 ASP623  PHE694  ASN695  SER759  ASP760  ASP761  ALA762  ILE779  LEU786  VAL792 
 PHE793  MET794  SER795  GLU796  ALA797  LYS798  CYS799  TRP800  GLU811  SER814 

> <Gold.Protein.RotatedAtoms>
  151.0627  134.9747  159.8268 H   0  0  0  0  0  0  0  0  0  0  0  0  # atno 6907 bound_to 6896
  152.5397  134.2398  159.8867 H   0  0  0  0  0  0  0  0  0  0  0  0  # atno 6908 bound_to 6896
  151.2418  133.4352  159.2641 H   0  0  0  0  0  0  0  0  0  0  0  0  # atno 6909 bound_to 6896
  145.6957  140.9136  143.0758 H   0  0  0  0  0  0  0  0  0  0  0  0  # atno 7974 bound_to 7965
  155.2652  140.0437  157.3001 H   0  0  0  0  0  0  0  0  0  0  0  0  # atno 8008 bound_to 7997
  154.5686  140.2367  155.8194 H   0  0  0  0  0  0  0  0  0  0  0  0  # atno 8009 bound_to 7997
  156.2105  140.3000  155.9729 H   0  0  0  0  0  0  0  0  0  0  0  0  # atno 8010 bound_to 7997
  140.2380  143.3559  152.0827 H   0  0  0  0  0  0  0  0  0  0  0  0  # atno 10167 bound_to 10162
  156.0477  130.5704  150.7938 H   0  0  0  0  0  0  0  0  0  0  0  0  # atno 10718 bound_to 10713
  153.6291  135.6989  153.5282 H   0  0  0  0  0  0  0  0  0  0  0  0  # atno 10763 bound_to 10752
  153.2874  135.4167  155.1134 H   0  0  0  0  0  0  0  0  0  0  0  0  # atno 10764 bound_to 10752
  154.8526  135.3617  154.5834 H   0  0  0  0  0  0  0  0  0  0  0  0  # atno 10765 bound_to 10752
  140.9395  134.1212  157.4164 H   0  0  0  0  0  0  0  0  0  0  0  0  # atno 11005 bound_to 11000
  144.6983  139.8881  143.7451 LP  0  0  0  0  0  0  0  0  0  0  0  0  # atno 17320 bound_to 7965
  146.0842  139.3830  143.0445 LP  0  0  0  0  0  0  0  0  0  0  0  0  # atno 17321 bound_to 7965
  139.5087  144.6854  151.5900 LP  0  0  0  0  0  0  0  0  0  0  0  0  # atno 17342 bound_to 10162
  140.6135  143.9392  150.6471 LP  0  0  0  0  0  0  0  0  0  0  0  0  # atno 17343 bound_to 10162
  157.5371  131.0939  150.9878 LP  0  0  0  0  0  0  0  0  0  0  0  0  # atno 17370 bound_to 10713
  157.0170  130.5659  149.5327 LP  0  0  0  0  0  0  0  0  0  0  0  0  # atno 17371 bound_to 10713
  139.8816  135.0032  156.6171 LP  0  0  0  0  0  0  0  0  0  0  0  0  # atno 17394 bound_to 11000
  140.7754  133.8704  155.8525 LP  0  0  0  0  0  0  0  0  0  0  0  0  # atno 17395 bound_to 11000

$$$$
