AV-unprocessed.smi:1554|AV-procd|sdf|6252|dock5
  -GOLD-   22720 6433D 1   1.00000     0.00000
 Structure written by MMmdl.
 48 50  0  0  0  0  0  0  0  0  2 V2000
  152.2890  143.9085  161.2596 C   0  0  0  0  0  0  0  0  0  0  0  0
  152.1659  142.9858  160.0588 C   0  0  0  0  0  0  0  0  0  0  0  0
  151.3301  143.3785  158.9893 C   0  0  0  0  0  0  0  0  0  0  0  0
  151.2358  142.5119  157.9067 C   0  0  0  0  0  0  0  0  0  0  0  0
  150.5046  142.6074  156.7208 N   0  3  0  0  0  0  0  0  0  0  0  0
  150.7324  141.5038  155.9565 C   0  0  0  0  0  0  0  0  0  0  0  0
  151.6001  140.7055  156.6356 N   0  0  0  0  0  0  0  0  0  0  0  0
  152.1707  139.4054  156.2545 C   0  0  0  0  0  0  0  0  0  0  0  0
  151.1297  138.4484  155.6414 C   0  0  2  0  0  0  0  0  0  0  0  0
  151.6932  137.1586  155.5091 O   0  0  0  0  0  0  0  0  0  0  0  0
  150.6778  138.9268  154.2472 C   0  0  0  0  0  0  0  0  0  0  0  0
  149.2331  138.9098  154.0093 N   0  0  0  0  0  0  0  0  0  0  0  0
  148.5237  137.9823  154.8891 C   0  0  0  0  0  0  0  0  0  0  0  0
  147.0050  138.0080  154.6458 C   0  0  0  0  0  0  0  0  0  0  0  0
  146.5166  139.3358  154.8025 O   0  0  0  0  0  0  0  0  0  0  0  0
  147.1455  140.2666  153.9260 C   0  0  1  0  0  0  0  0  0  0  0  0
  146.5375  141.6506  154.1766 C   0  0  0  0  0  0  0  0  0  0  0  0
  148.6659  140.2440  154.1772 C   0  0  0  0  0  0  0  0  0  0  0  0
  151.9400  141.2929  157.8604 C   0  0  0  0  0  0  0  0  0  0  0  0
  152.7674  140.8911  158.9066 C   0  0  0  0  0  0  0  0  0  0  0  0
  152.8739  141.7567  160.0186 C   0  0  0  0  0  0  0  0  0  0  0  0
  153.7643  141.3409  161.1773 C   0  0  0  0  0  0  0  0  0  0  0  0
  151.7044  144.8191  161.1250 H   0  0  0  0  0  0  0  0  0  0  0  0
  153.3280  144.2010  161.4137 H   0  0  0  0  0  0  0  0  0  0  0  0
  151.9307  143.4121  162.1617 H   0  0  0  0  0  0  0  0  0  0  0  0
  150.7860  144.3115  159.0137 H   0  0  0  0  0  0  0  0  0  0  0  0
  150.3034  141.2996  154.9861 H   0  0  0  0  0  0  0  0  0  0  0  0
  152.9585  139.6066  155.5274 H   0  0  0  0  0  0  0  0  0  0  0  0
  152.6627  138.9588  157.1189 H   0  0  0  0  0  0  0  0  0  0  0  0
  150.2824  138.3858  156.3228 H   0  0  0  0  0  0  0  0  0  0  0  0
  151.0832  136.5308  155.8667 H   0  0  0  0  0  0  0  0  0  0  0  0
  151.0525  139.9374  154.0770 H   0  0  0  0  0  0  0  0  0  0  0  0
  151.1722  138.3016  153.5019 H   0  0  0  0  0  0  0  0  0  0  0  0
  148.8773  136.9636  154.7372 H   0  0  0  0  0  0  0  0  0  0  0  0
  148.7253  138.2326  155.9319 H   0  0  0  0  0  0  0  0  0  0  0  0
  146.7678  137.6412  153.6460 H   0  0  0  0  0  0  0  0  0  0  0  0
  146.4965  137.3554  155.3556 H   0  0  0  0  0  0  0  0  0  0  0  0
  146.9414  139.9748  152.8940 H   0  0  0  0  0  0  0  0  0  0  0  0
  146.9842  142.4001  153.5230 H   0  0  0  0  0  0  0  0  0  0  0  0
  146.6945  141.9690  155.2077 H   0  0  0  0  0  0  0  0  0  0  0  0
  145.4633  141.6443  153.9898 H   0  0  0  0  0  0  0  0  0  0  0  0
  148.8720  140.6072  155.1855 H   0  0  0  0  0  0  0  0  0  0  0  0
  149.1524  140.9390  153.4915 H   0  0  0  0  0  0  0  0  0  0  0  0
  153.3015  139.9528  158.8797 H   0  0  0  0  0  0  0  0  0  0  0  0
  154.2301  140.3718  160.9947 H   0  0  0  0  0  0  0  0  0  0  0  0
  153.1839  141.2632  162.0971 H   0  0  0  0  0  0  0  0  0  0  0  0
  154.5608  142.0698  161.3297 H   0  0  0  0  0  0  0  0  0  0  0  0
  149.8941  143.3681  156.4510 H   0  0  0  0  0  0  0  0  0  0  0  0
  1  2  1  0  0  0  0
  1 23  1  0  0  0  0
  1 24  1  0  0  0  0
  1 25  1  0  0  0  0
  2 21  1  0  0  0  0
  2  3  2  0  0  0  0
  3  4  1  0  0  0  0
  3 26  1  0  0  0  0
  4 19  2  0  0  0  0
  4  5  1  0  0  0  0
  5  6  2  0  0  0  0
  5 48  1  0  0  0  0
  6  7  1  0  0  0  0
  6 27  1  0  0  0  0
  7  8  1  0  0  0  0
  7 19  1  0  0  0  0
  8  9  1  0  0  0  0
  8 28  1  0  0  0  0
  8 29  1  0  0  0  0
  9 10  1  0  0  0  0
  9 11  1  0  0  0  0
  9 30  1  0  0  0  0
 10 31  1  0  0  0  0
 11 12  1  0  0  0  0
 11 32  1  0  0  0  0
 11 33  1  0  0  0  0
 12 18  1  0  0  0  0
 12 13  1  0  0  0  0
 13 14  1  0  0  0  0
 13 34  1  0  0  0  0
 13 35  1  0  0  0  0
 14 15  1  0  0  0  0
 14 36  1  0  0  0  0
 14 37  1  0  0  0  0
 15 16  1  0  0  0  0
 16 17  1  0  0  0  0
 16 18  1  0  0  0  0
 16 38  1  0  0  0  0
 17 39  1  0  0  0  0
 17 40  1  0  0  0  0
 17 41  1  0  0  0  0
 18 42  1  0  0  0  0
 18 43  1  0  0  0  0
 19 20  1  0  0  0  0
 20 21  2  0  0  0  0
 20 44  1  0  0  0  0
 21 22  1  0  0  0  0
 22 45  1  0  0  0  0
 22 46  1  0  0  0  0
 22 47  1  0  0  0  0
M  CHG  1   5   1
M  END
> <s_m_source_file>
AV-unprocessed.smi

> <i_m_source_file_index>
1554

> <i_lp_mmshare_version>
43012

> <i_f3d_flags>
0

> <s_epik_input>
W0NIM11jKFtjSF0xKWMoW0NIM10pW2NIXWMoYzEyKW4oW2NIXW4yKVtDSDJdW0NASF0oW09IXSlbQ0gyXU4zW0NIMl1bQ0gyXU9bQ0BASF0oW0NIM10pW0NIMl0z

> <s_epik_cmdline>
J2VwaWtfcHl0aG9uJywgJy1waCcsICc3LjAnLCAnLXRuJywgJzgnLCAnLW1hJywgJzIwMCcsICctbWV0YWxfYmluZGluZycsICctaW1hZScsICc8aW5maWxlLm1hZT4nLCAnLW9tYWUnLCAnPG91dGZpbGUubWFlPic=

> <r_epik_Ionization_Penalty>
1.42504

> <r_epik_Ionization_Penalty_Charging>
1.21068

> <r_epik_Ionization_Penalty_Neutral>
0.214359

> <r_epik_State_Penalty>
1.46962

> <r_epik_Charging_Adjusted_Penalty>
2.6803

> <i_epik_Tot_Q>
1

> <i_epik_Tot_abs_Q>
1

> <r_epik_Metal_State_Penalty>
5.48754

> <b_epik_Metal_Only>
0

> <s_lp_Force_Field>
OPLS_2005

> <r_lp_Energy>
34.8696

> <b_lp_Chiralities_Consistent>
1

> <s_lp_Variant>
AV-unprocessed.smi:1554-13

> <Gold.Version>
5.8.1

> <Gold.Id.Protein>
6NUR|6NUR_protein|mol2

> <Gold.PLP.Fitness>
48.0613

> <Gold.PLP.PLP>
-43.5829

> <Gold.PLP.part.hbond>
-1.6524

> <Gold.PLP.part.metal>
0.0000

> <Gold.PLP.part.buried>
-5.4329

> <Gold.PLP.part.nonpolar>
-36.8780

> <Gold.PLP.part.repulsive>
0.9066

> <Gold.PLP.ligand.clash>
0.0000

> <Gold.PLP.ligand.torsion>
1.4503

> <Gold.PLP.Chemscore.Hbond>
2.4388

> <Gold.PLP.Chemscore.CHOScore>
0.0000

> <Gold.PLP.Chemscore.Metal>
0.0000

> <Gold.Chemscore.Hbonds>
donor molecule, donor type, donor heavy atom, donor atom, acceptor molecule, acceptor atom, score
      L1  H     5    48       P1  8028  2.00
      P1  H 10752 10765       L1    10  0.40

> <Gold.PLP.Chemscore.Internal.Correction>
0.0627

> <Gold.Rescore>
     Score         DG    S(hbond)    S(metal)    S(lipo)     H(rot)  DE(clash)    DE(int)     intcor
     16.74     -18.27       1.06        0.00     123.80       2.04       0.08       1.45       ----

> <Gold.Chemscore.Fitness>
16.7406

> <Gold.Chemscore.DG>
-18.2724

> <Gold.Chemscore.ZeroCoef>
-5.4800

> <Gold.Chemscore.Hbond>
1.0592

> <Gold.Chemscore.Metal>
0.0000

> <Gold.Chemscore.Lipo>
123.7957

> <Gold.Chemscore.Internal_Hbond>
0.0000

> <Gold.Chemscore.DEClash>
0.0784

> <Gold.Chemscore.DEInternal>
1.4534

> <Gold.Chemscore.Rot>
2.0427

> <Gold.Chemscore.Internal.Correction>
   9.000000E+99

> <Gold.Chemscore.Hbonds>
donor molecule, donor type, donor heavy atom, donor atom, acceptor molecule, acceptor atom, score
      L1  H     5    48       P1  8028  1.00
      P1  H 10752 10765       L1    10  0.03

> <Gold.Chemscore.Hbond.Weighted>
-3.5377

> <Gold.Chemscore.Metal.Weighted>
-0.0000

> <Gold.Chemscore.Lipo.Weighted>
-14.4841

> <Gold.Chemscore.Internal_Hbond.Weighted>
0.0000

> <Gold.Chemscore.DEClash.Weighted>
0.0784

> <Gold.Chemscore.DEInternal.Weighted>
1.4534

> <Gold.Chemscore.Rot.Weighted>
5.2294

> <Gold.Chemscore.Internal.Correction.Weighted>
   9.000000E+99

> <Gold.Protein.RotatedTorsions>
[ 6907 6896 6895 6894 ] final  106.56 input  -60.11 | X-H torsion
[ 7974 7965 7964 7962 ] final  102.90 input  175.53 | X-H torsion
[ 8008 7997 7996 7995 ] final   86.58 input   59.86 | X-H torsion
[ 10167 10162 10161 10158 ] final -120.61 input  -65.29 | X-H torsion
[ 10718 10713 10712 10709 ] final -150.65 input   66.30 | X-H torsion
[ 10763 10752 10751 10750 ] final -177.73 input  -60.55 | X-H torsion
[ 11005 11000 10999 10996 ] final  122.00 input  -57.11 | X-H torsion

> <Gold.Protein.ActiveResidues>
 VAL166  LYS551  ARG553  GLY616  TRP617  ASP618  TYR619  PRO620  LYS621  CYS622 
 ASP623  PHE694  ASN695  SER759  ASP760  ASP761  ALA762  ILE779  LEU786  VAL792 
 PHE793  MET794  SER795  GLU796  ALA797  LYS798  CYS799  TRP800  GLU811  SER814 

> <Gold.Protein.RotatedAtoms>
  152.5189  133.9363  159.7604 H   0  0  0  0  0  0  0  0  0  0  0  0  # atno 6907 bound_to 6896
  150.9703  133.6343  159.2746 H   0  0  0  0  0  0  0  0  0  0  0  0  # atno 6908 bound_to 6896
  151.3557  135.0899  159.9470 H   0  0  0  0  0  0  0  0  0  0  0  0  # atno 6909 bound_to 6896
  145.3530  139.2435  143.3548 H   0  0  0  0  0  0  0  0  0  0  0  0  # atno 7974 bound_to 7965
  155.9646  140.3390  155.6521 H   0  0  0  0  0  0  0  0  0  0  0  0  # atno 8008 bound_to 7997
  155.6754  140.0731  157.2523 H   0  0  0  0  0  0  0  0  0  0  0  0  # atno 8009 bound_to 7997
  154.4151  140.1684  156.1912 H   0  0  0  0  0  0  0  0  0  0  0  0  # atno 8010 bound_to 7997
  140.0340  143.5220  152.2163 H   0  0  0  0  0  0  0  0  0  0  0  0  # atno 10167 bound_to 10162
  156.4489  130.8158  151.2389 H   0  0  0  0  0  0  0  0  0  0  0  0  # atno 10718 bound_to 10713
  154.5565  135.2817  155.0960 H   0  0  0  0  0  0  0  0  0  0  0  0  # atno 10763 bound_to 10752
  154.2385  135.6361  153.5203 H   0  0  0  0  0  0  0  0  0  0  0  0  # atno 10764 bound_to 10752
  153.0017  135.5554  154.6146 H   0  0  0  0  0  0  0  0  0  0  0  0  # atno 10765 bound_to 10752
  139.9249  134.9640  156.8043 H   0  0  0  0  0  0  0  0  0  0  0  0  # atno 11005 bound_to 11000
  146.2960  140.4149  142.8721 LP  0  0  0  0  0  0  0  0  0  0  0  0  # atno 17320 bound_to 7965
  144.8704  140.7264  143.6051 LP  0  0  0  0  0  0  0  0  0  0  0  0  # atno 17321 bound_to 7965
  139.6057  144.7595  151.3067 LP  0  0  0  0  0  0  0  0  0  0  0  0  # atno 17342 bound_to 10162
  140.7289  143.6921  150.7913 LP  0  0  0  0  0  0  0  0  0  0  0  0  # atno 17343 bound_to 10162
  157.7503  131.0144  150.3463 LP  0  0  0  0  0  0  0  0  0  0  0  0  # atno 17370 bound_to 10713
  156.3837  130.3885  149.7082 LP  0  0  0  0  0  0  0  0  0  0  0  0  # atno 17371 bound_to 10713
  140.6364  133.9858  155.7686 LP  0  0  0  0  0  0  0  0  0  0  0  0  # atno 17394 bound_to 11000
  141.0800  134.0077  157.3401 LP  0  0  0  0  0  0  0  0  0  0  0  0  # atno 17395 bound_to 11000

$$$$
