AV-unprocessed.smi:157|AV-procd|sdf|1292|dock8
  -GOLD-   2262018573D 1   1.00000     0.00000
 Structure written by MMmdl.
 35 37  0  0  0  0  0  0  0  0  1 V2000
  143.4525  133.9655  147.7925 O   0  0  0  0  0  0  0  0  0  0  0  0
  143.8146  132.6849  148.2637 C   0  0  0  0  0  0  0  0  0  0  0  0
  144.2901  132.7643  149.7250 C   0  0  2  0  0  0  0  0  0  0  0  0
  144.6413  134.1000  150.0736 O   0  0  0  0  0  0  0  0  0  0  0  0
  145.6522  134.1011  151.0391 C   0  0  1  0  0  0  0  0  0  0  0  0
  145.1374  134.7792  152.2713 N   0  0  0  0  0  0  0  0  0  0  0  0
  144.3703  134.2262  153.2204 C   0  0  0  0  0  0  0  0  0  0  0  0
  144.0572  135.0376  154.2163 N   0  0  0  0  0  0  0  0  0  0  0  0
  144.6822  136.2374  153.8810 C   0  0  0  0  0  0  0  0  0  0  0  0
  145.3607  136.0975  152.6785 C   0  0  0  0  0  0  0  0  0  0  0  0
  146.1490  136.9057  151.8819 N   0  0  0  0  0  0  0  0  0  0  0  0
  146.0594  138.1883  152.0422 C   0  0  0  0  0  0  0  0  0  0  0  0
  145.3487  138.9245  152.9793 N   0  0  0  0  0  0  0  0  0  0  0  0
  145.3895  138.6462  154.4048 C   0  0  0  0  0  0  0  0  0  0  0  0
  144.5767  137.4107  154.8125 C   0  0  1  0  0  0  0  0  0  0  0  0
  143.2088  137.7576  154.8862 O   0  0  0  0  0  0  0  0  0  0  0  0
  146.0048  132.6422  151.3472 C   0  0  0  0  0  0  0  0  0  0  0  0
  145.5210  131.9279  150.1023 C   0  0  2  0  0  0  0  0  0  0  0  0
  146.5147  131.9440  149.0946 O   0  0  0  0  0  0  0  0  0  0  0  0
  143.4667  132.4806  150.3829 H   0  0  0  0  0  0  0  0  0  0  0  0
  146.4948  134.6972  150.6878 H   0  0  0  0  0  0  0  0  0  0  0  0
  144.8806  137.1143  155.8168 H   0  0  0  0  0  0  0  0  0  0  0  0
  145.2563  130.8900  150.3074 H   0  0  0  0  0  0  0  0  0  0  0  0
  144.2300  134.3978  147.4734 H   0  0  0  0  0  0  0  0  0  0  0  0
  142.9749  131.9989  148.1512 H   0  0  0  0  0  0  0  0  0  0  0  0
  144.6191  132.3051  147.6337 H   0  0  0  0  0  0  0  0  0  0  0  0
  144.0359  133.1999  153.1839 H   0  0  0  0  0  0  0  0  0  0  0  0
  146.6167  138.8357  151.3636 H   0  0  0  0  0  0  0  0  0  0  0  0
  145.1943  139.9065  152.8027 H   0  0  0  0  0  0  0  0  0  0  0  0
  146.4345  138.4816  154.6713 H   0  0  0  0  0  0  0  0  0  0  0  0
  145.0683  139.5249  154.9650 H   0  0  0  0  0  0  0  0  0  0  0  0
  142.8226  137.6145  154.0355 H   0  0  0  0  0  0  0  0  0  0  0  0
  147.0692  132.5231  151.5537 H   0  0  0  0  0  0  0  0  0  0  0  0
  145.4380  132.3005  152.2150 H   0  0  0  0  0  0  0  0  0  0  0  0
  147.3217  131.6229  149.4670 H   0  0  0  0  0  0  0  0  0  0  0  0
  1  2  1  0  0  0  0
  1 24  1  0  0  0  0
  2  3  1  0  0  0  0
  2 25  1  0  0  0  0
  2 26  1  0  0  0  0
  3 20  1  0  0  0  0
  3 18  1  0  0  0  0
  3  4  1  0  0  0  0
  4  5  1  0  0  0  0
  5 21  1  0  0  0  0
  5  6  1  0  0  0  0
  5 17  1  0  0  0  0
  6 10  1  0  0  0  0
  6  7  1  0  0  0  0
  7  8  2  0  0  0  0
  7 27  1  0  0  0  0
  8  9  1  0  0  0  0
  9 15  1  0  0  0  0
  9 10  2  0  0  0  0
 10 11  1  0  0  0  0
 11 12  2  0  0  0  0
 12 13  1  0  0  0  0
 12 28  1  0  0  0  0
 13 14  1  0  0  0  0
 13 29  1  0  0  0  0
 14 15  1  0  0  0  0
 14 30  1  0  0  0  0
 14 31  1  0  0  0  0
 15 22  1  0  0  0  0
 15 16  1  0  0  0  0
 16 32  1  0  0  0  0
 17 18  1  0  0  0  0
 17 33  1  0  0  0  0
 17 34  1  0  0  0  0
 18 23  1  0  0  0  0
 18 19  1  0  0  0  0
 19 35  1  0  0  0  0
M  END
> <s_m_source_file>
AV-unprocessed.smi

> <i_m_source_file_index>
157

> <i_lp_mmshare_version>
43012

> <i_f3d_flags>
0

> <s_epik_input>
W09IXVtDSDJdW0NASF0xT1tDQEhdKFtDSDJdW0NAQEhdMVtPSF0pbihbY0hdbjIpYyhjMjMpTj1bQ0hdW05IXVtDSDJdW0NASF0zW09IXQ==

> <s_epik_cmdline>
J2VwaWtfcHl0aG9uJywgJy1waCcsICc3LjAnLCAnLXRuJywgJzgnLCAnLW1hJywgJzIwMCcsICctbWV0YWxfYmluZGluZycsICctaW1hZScsICc8aW5maWxlLm1hZT4nLCAnLW9tYWUnLCAnPG91dGZpbGUubWFlPic=

> <r_lp_tautomer_probability>
1

> <r_epik_Ionization_Penalty>
0.0357149

> <r_epik_Ionization_Penalty_Charging>
0.0355056

> <r_epik_Ionization_Penalty_Neutral>
0.000209255

> <r_epik_State_Penalty>
0.0296046

> <r_epik_Charging_Adjusted_Penalty>
0.0651102

> <i_epik_Tot_Q>
0

> <i_epik_Tot_abs_Q>
0

> <r_epik_Metal_State_Penalty>
3.03559e-05

> <b_epik_Metal_Only>
0

> <s_epik_Chemistry_Notes>
This compound has an imine and may undergo hydrolysis. This compound contains an acetal/aminal-like group ( X-CH(R)-Y where X, Y are N, S, or O) that may be acid/base labile, releasing an aldehyde.

> <s_lp_Force_Field>
OPLS_2005

> <r_lp_Energy>
45.9661

> <b_lp_Chiralities_Consistent>
1

> <s_lp_Variant>
AV-unprocessed.smi:157-2

> <Gold.Version>
5.8.1

> <Gold.Id.Protein>
6NUR|6NUR_protein|mol2

> <Gold.PLP.Fitness>
38.2430

> <Gold.PLP.PLP>
-27.5140

> <Gold.PLP.part.hbond>
-6.1304

> <Gold.PLP.part.metal>
0.0000

> <Gold.PLP.part.buried>
-4.9090

> <Gold.PLP.part.nonpolar>
-20.1369

> <Gold.PLP.part.repulsive>
4.0428

> <Gold.PLP.ligand.clash>
0.0000

> <Gold.PLP.ligand.torsion>
1.2142

> <Gold.PLP.Chemscore.Hbond>
3.3840

> <Gold.PLP.Chemscore.CHOScore>
1.0000

> <Gold.PLP.Chemscore.Metal>
0.0000

> <Gold.Chemscore.Hbonds>
donor molecule, donor type, donor heavy atom, donor atom, acceptor molecule, acceptor atom, score
      L1  H     1    24       P1  7921  1.00
      L1  H    13    29       P1 10175  0.42
      L1  H    19    35       P1 10747  1.00
      P1  H 10192 10197       L1     1  1.00
      L1  C     7    27       P1 10957  0.97

> <Gold.PLP.Chemscore.Internal.Correction>
0.0055

> <Gold.Rescore>
     Score         DG    S(hbond)    S(metal)    S(lipo)     H(rot)  DE(clash)    DE(int)     intcor
     10.56     -12.37       3.29        0.00      44.39       3.64       0.43       1.37       ----

> <Gold.Chemscore.Fitness>
10.5648

> <Gold.Chemscore.DG>
-12.3652

> <Gold.Chemscore.ZeroCoef>
-5.4800

> <Gold.Chemscore.Hbond>
3.2934

> <Gold.Chemscore.Metal>
0.0000

> <Gold.Chemscore.Lipo>
44.3912

> <Gold.Chemscore.Internal_Hbond>
0.0000

> <Gold.Chemscore.DEClash>
0.4298

> <Gold.Chemscore.DEInternal>
1.3706

> <Gold.Chemscore.Rot>
3.6362

> <Gold.Chemscore.Internal.Correction>
   9.000000E+99

> <Gold.Chemscore.Hbonds>
donor molecule, donor type, donor heavy atom, donor atom, acceptor molecule, acceptor atom, score
      L1  H     1    24       P1  7921  0.96
      L1  H    13    29       P1 10175  0.42
      L1  H    19    35       P1 10747  0.98
      P1  H 10192 10197       L1     1  0.34

> <Gold.Chemscore.Hbond.Weighted>
-11.0001

> <Gold.Chemscore.Metal.Weighted>
-0.0000

> <Gold.Chemscore.Lipo.Weighted>
-5.1938

> <Gold.Chemscore.Internal_Hbond.Weighted>
0.0000

> <Gold.Chemscore.DEClash.Weighted>
0.4298

> <Gold.Chemscore.DEInternal.Weighted>
1.3706

> <Gold.Chemscore.Rot.Weighted>
9.3087

> <Gold.Chemscore.Internal.Correction.Weighted>
   9.000000E+99

> <Gold.Protein.RotatedTorsions>
[ 6907 6896 6895 6894 ] final -137.74 input  -60.11 | X-H torsion
[ 7974 7965 7964 7962 ] final -165.95 input  175.53 | X-H torsion
[ 8008 7997 7996 7995 ] final  -63.39 input   59.86 | X-H torsion
[ 10167 10162 10161 10158 ] final  -89.50 input  -65.29 | X-H torsion
[ 10718 10713 10712 10709 ] final  133.81 input   66.30 | X-H torsion
[ 10763 10752 10751 10750 ] final   84.88 input  -60.55 | X-H torsion
[ 11005 11000 10999 10996 ] final  127.42 input  -57.11 | X-H torsion

> <Gold.Protein.ActiveResidues>
 VAL166  LYS551  ARG553  GLY616  TRP617  ASP618  TYR619  PRO620  LYS621  CYS622 
 ASP623  PHE694  ASN695  SER759  ASP760  ASP761  ALA762  ILE779  LEU786  VAL792 
 PHE793  MET794  SER795  GLU796  ALA797  LYS798  CYS799  TRP800  GLU811  SER814 

> <Gold.Protein.RotatedAtoms>
  151.0263  133.5831  159.2665 H   0  0  0  0  0  0  0  0  0  0  0  0  # atno 6907 bound_to 6896
  151.2929  135.0746  159.9220 H   0  0  0  0  0  0  0  0  0  0  0  0  # atno 6908 bound_to 6896
  152.5334  133.9958  159.7926 H   0  0  0  0  0  0  0  0  0  0  0  0  # atno 6909 bound_to 6896
  144.7257  140.2738  143.6246 H   0  0  0  0  0  0  0  0  0  0  0  0  # atno 7974 bound_to 7965
  154.4552  140.0976  156.6735 H   0  0  0  0  0  0  0  0  0  0  0  0  # atno 8008 bound_to 7997
  155.5162  140.3477  155.4379 H   0  0  0  0  0  0  0  0  0  0  0  0  # atno 8009 bound_to 7997
  156.0762  140.1361  156.9757 H   0  0  0  0  0  0  0  0  0  0  0  0  # atno 8010 bound_to 7997
  140.3642  143.2826  151.9578 H   0  0  0  0  0  0  0  0  0  0  0  0  # atno 10167 bound_to 10162
  157.4736  131.1081  150.9772 H   0  0  0  0  0  0  0  0  0  0  0  0  # atno 10718 bound_to 10713
  153.1423  135.4638  154.9513 H   0  0  0  0  0  0  0  0  0  0  0  0  # atno 10763 bound_to 10752
  154.7757  135.3172  154.8099 H   0  0  0  0  0  0  0  0  0  0  0  0  # atno 10764 bound_to 10752
  153.8620  135.6911  153.4836 H   0  0  0  0  0  0  0  0  0  0  0  0  # atno 10765 bound_to 10752
  139.9507  134.9622  156.8852 H   0  0  0  0  0  0  0  0  0  0  0  0  # atno 11005 bound_to 11000
  145.8017  139.1967  143.2044 LP  0  0  0  0  0  0  0  0  0  0  0  0  # atno 17320 bound_to 7965
  146.0671  140.7909  142.9706 LP  0  0  0  0  0  0  0  0  0  0  0  0  # atno 17321 bound_to 7965
  139.4810  144.5965  151.7681 LP  0  0  0  0  0  0  0  0  0  0  0  0  # atno 17342 bound_to 10162
  140.5097  144.1044  150.5992 LP  0  0  0  0  0  0  0  0  0  0  0  0  # atno 17343 bound_to 10162
  157.0528  130.5794  149.5373 LP  0  0  0  0  0  0  0  0  0  0  0  0  # atno 17370 bound_to 10713
  156.0085  130.5175  150.7912 LP  0  0  0  0  0  0  0  0  0  0  0  0  # atno 17371 bound_to 10713
  140.5727  134.0428  155.7436 LP  0  0  0  0  0  0  0  0  0  0  0  0  # atno 17394 bound_to 11000
  141.1169  133.9526  157.2806 LP  0  0  0  0  0  0  0  0  0  0  0  0  # atno 17395 bound_to 11000

$$$$
