#       Name:                AV-unprocessed.smi:1025
#       Creating user name   scv26
#       Creation time:       Fri Mar 27 02:44:14 2020


#       File generated by GOLD software.
#

@<TRIPOS>MOLECULE
AV-unprocessed.smi:1025
    57    58     1
SMALL
NO_CHARGES


@<TRIPOS>ATOM
      1 ****        -8.0759  -3.7619  -1.6308 C.3            1 S1                 0.0000
      2 ****        -6.6508  -3.4960  -1.5097 N.am           1 S1                 0.0000
      3 ****        -6.1209  -2.2712  -1.3780 C.2            1 S1                 0.0000
      4 ****        -6.8004  -1.2445  -1.3476 O.2            1 S1                 0.0000
      5 ****        -4.5920  -2.1922  -1.2653 C.3            1 S1                 0.0000
      6 ****        -4.1680  -1.5789   0.0861 C.3            1 S1                 0.0000
      7 ****        -2.6386  -1.4707   0.2000 C.3            1 S1                 0.0000
      8 ****        -2.0454  -0.6621  -0.9710 C.3            1 S1                 0.0000
      9 ****        -0.5889  -0.6182  -0.8849 N.am           1 S1                 0.0000
     10 ****         0.1175   0.2510  -0.1485 C.2            1 S1                 0.0000
     11 ****        -0.3953   1.1143   0.5633 O.2            1 S1                 0.0000
     12 ****         1.4378   0.0602  -0.3085 N.am           1 S1                 0.0000
     13 ****         2.5080   0.7951   0.2674 C.ar           1 S1                 0.0000
     14 ****         3.7867   0.7137  -0.3187 C.ar           1 S1                 0.0000
     15 ****         4.8472   1.3796   0.1841 N.ar           1 S1                 0.0000
     16 ****         4.6437   2.1523   1.2593 C.ar           1 S1                 0.0000
     17 ****         5.8835   2.7977   1.9031 C.3            1 S1                 0.0000
     18 ****         5.5071   4.0858   2.6729 C.3            1 S1                 0.0000
     19 ****         6.9057   3.2288   0.8253 C.3            1 S1                 0.0000
     20 ****         6.5413   1.7960   2.8700 C.3            1 S1                 0.0000
     21 ****         3.4858   2.2523   1.9254 N.ar           1 S1                 0.0000
     22 ****         2.4154   1.5937   1.4320 C.ar           1 S1                 0.0000
     23 ****        -2.4662  -1.2736  -2.3195 C.3            1 S1                 0.0000
     24 ****        -3.9955  -1.3773  -2.4324 C.3            1 S1                 0.0000
     25 ****        -8.2484  -4.8350  -1.7112 H              1 S1                 0.0000
     26 ****        -8.4862  -3.2826  -2.5206 H              1 S1                 0.0000
     27 ****        -8.6152  -3.3940  -0.7571 H              1 S1                 0.0000
     28 ****        -6.0282  -4.2908  -1.5259 H              1 S1                 0.0000
     29 ****        -4.1902  -3.2058  -1.3187 H              1 S1                 0.0000
     30 ****        -4.6055  -0.5860   0.2034 H              1 S1                 0.0000
     31 ****        -4.5514  -2.1833   0.9094 H              1 S1                 0.0000
     32 ****        -2.3765  -1.0055   1.1509 H              1 S1                 0.0000
     33 ****        -2.2047  -2.4714   0.2162 H              1 S1                 0.0000
     34 ****        -2.4341   0.3576  -0.9277 H              1 S1                 0.0000
     35 ****        -0.0816  -1.2918  -1.4396 H              1 S1                 0.0000
     36 ****         1.7068  -0.6488  -0.9749 H              1 S1                 0.0000
     37 ****         3.9637   0.1094  -1.1963 H              1 S1                 0.0000
     38 ****         6.3901   4.5705   3.0908 H              1 S1                 0.0000
     39 ****         4.8366   3.8817   3.5084 H              1 S1                 0.0000
     40 ****         5.0142   4.8087   2.0216 H              1 S1                 0.0000
     41 ****         6.4601   3.9230   0.1116 H              1 S1                 0.0000
     42 ****         7.2908   2.3775   0.2628 H              1 S1                 0.0000
     43 ****         7.7680   3.7258   1.2713 H              1 S1                 0.0000
     44 ****         7.4247   2.2238   3.3454 H              1 S1                 0.0000
     45 ****         6.8540   0.8900   2.3499 H              1 S1                 0.0000
     46 ****         5.8524   1.4993   3.6617 H              1 S1                 0.0000
     47 ****         1.5031   1.7000   1.9978 H              1 S1                 0.0000
     48 ****        -2.0792  -0.6700  -3.1415 H              1 S1                 0.0000
     49 ****        -2.0270  -2.2660  -2.4309 H              1 S1                 0.0000
     50 ****        -4.2591  -1.8384  -3.3853 H              1 S1                 0.0000
     51 ****        -4.4214  -0.3726  -2.4479 H              1 S1                 0.0000
     52 ****        -7.7959  -1.3014  -1.4228 LP             1 S1                 0.0000
     53 ****        -6.3565  -0.3539  -1.2476 LP             1 S1                 0.0000
     54 ****        -1.3908   1.1942   0.6139 LP             1 S1                 0.0000
     55 ****         0.1836   1.7359   1.0911 LP             1 S1                 0.0000
     56 ****         5.7533   1.2991  -0.2313 LP             1 S1                 0.0000
     57 ****         3.4165   2.7971   2.7611 LP             1 S1                 0.0000
@<TRIPOS>BOND
    1    1    2 1     
    2    1   25 1     
    3    1   26 1     
    4    1   27 1     
    5    2    3 am    
    6    2   28 1     
    7    3    4 2     
    8    3    5 1     
    9    5   24 1     
   10    5    6 1     
   11    5   29 1     
   12    6    7 1     
   13    6   30 1     
   14    6   31 1     
   15    7    8 1     
   16    7   32 1     
   17    7   33 1     
   18    8    9 1     
   19    8   23 1     
   20    8   34 1     
   21    9   10 am    
   22    9   35 1     
   23   10   11 2     
   24   10   12 am    
   25   12   13 1     
   26   12   36 1     
   27   13   22 ar    
   28   13   14 ar    
   29   14   15 ar    
   30   14   37 1     
   31   15   16 ar    
   32   16   17 1     
   33   16   21 ar    
   34   17   18 1     
   35   17   19 1     
   36   17   20 1     
   37   18   38 1     
   38   18   39 1     
   39   18   40 1     
   40   19   41 1     
   41   19   42 1     
   42   19   43 1     
   43   20   44 1     
   44   20   45 1     
   45   20   46 1     
   46   21   22 ar    
   47   22   47 1     
   48   23   24 1     
   49   23   48 1     
   50   23   49 1     
   51   24   50 1     
   52   24   51 1     
   53    4   52 1     
   54    4   53 1     
   55   11   54 1     
   56   11   55 1     
   57   15   56 1     
   58   21   57 1     
@<TRIPOS>SUBSTRUCTURE
      1 S1             1
@<TRIPOS>SET
LONE_PAIRS      STATIC     ATOMS    <user>   **** ""
6 52 53 54 55 56 57
DONOR_HYDROGENS      STATIC     ATOMS    <user>   **** ""
3 28 35 36
ATOM$BLUE        STATIC     ATOMS    COLORGROUP SYSTEM
6 52 53 54 55 56 57
ATOM$RED        STATIC     ATOMS    COLORGROUP SYSTEM
3 28 35 36
