#       Name:                AV-unprocessed.smi:2370
#       Creating user name   scv26
#       Creation time:       Fri Mar 27 13:06:37 2020


#       File generated by GOLD software.
#

@<TRIPOS>MOLECULE
AV-unprocessed.smi:2370
    42    43     1
SMALL
NO_CHARGES


@<TRIPOS>ATOM
      1 ****        -1.5482   2.2997  -3.5799 C.3            1 S1                 0.0000
      2 ****        -2.0165   1.4912  -2.5083 O.3            1 S1                 0.0000
      3 ****        -1.6292   0.1170  -2.5434 C.3            1 S1                 0.0000
      4 ****        -0.1096  -0.0543  -2.3814 C.3            1 S1                 0.0000
      5 ****         0.3799   0.6160  -1.1804 N.am           1 S1                 0.0000
      6 ****         0.6610   0.0191  -0.0134 C.2            1 S1                 0.0000
      7 ****         0.5560  -1.1934   0.1740 O.2            1 S1                 0.0000
      8 ****         1.0476   0.9158   0.9108 N.am           1 S1                 0.0000
      9 ****         1.3667   0.6869   2.2756 C.ar           1 S1                 0.0000
     10 ****         2.0360  -0.5003   2.6700 C.ar           1 S1                 0.0000
     11 ****         2.3627  -0.6934   4.0273 C.ar           1 S1                 0.0000
     12 ****         3.0675  -1.9575   4.4733 C.3            1 S1                 0.0000
     13 ****         2.0226   0.3101   4.9540 C.ar           1 S1                 0.0000
     14 ****         1.3777   1.4646   4.4745 C.ar           1 S1                 0.0000
     15 ****         1.0657   1.6523   3.1747 N.ar           1 S1                 0.0000
     16 ****        -2.5571  -0.6614  -1.5899 C.3            1 S1                 0.0000
     17 ****        -2.7264  -1.7197  -2.6806 C.3            1 S1                 0.0000
     18 ****        -2.3372  -0.6369  -3.6878 C.3            1 S1                 0.0000
     19 ****        -1.9897   3.2927  -3.4969 H              1 S1                 0.0000
     20 ****        -1.8294   1.8935  -4.5517 H              1 S1                 0.0000
     21 ****        -0.4661   2.4239  -3.5510 H              1 S1                 0.0000
     22 ****         0.1549  -1.1127  -2.3641 H              1 S1                 0.0000
     23 ****         0.4225   0.3539  -3.2400 H              1 S1                 0.0000
     24 ****         0.4861   1.6182  -1.2374 H              1 S1                 0.0000
     25 ****         0.9904   1.8860   0.6382 H              1 S1                 0.0000
     26 ****         2.3115  -1.2573   1.9511 H              1 S1                 0.0000
     27 ****         3.3866  -1.8873   5.5135 H              1 S1                 0.0000
     28 ****         3.9499  -2.1383   3.8588 H              1 S1                 0.0000
     29 ****         2.4000  -2.8140   4.3770 H              1 S1                 0.0000
     30 ****         2.2528   0.2049   6.0041 H              1 S1                 0.0000
     31 ****         1.1061   2.2603   5.1523 H              1 S1                 0.0000
     32 ****        -2.0884  -1.0294  -0.6777 H              1 S1                 0.0000
     33 ****        -3.4890  -0.1362  -1.3717 H              1 S1                 0.0000
     34 ****        -1.9899  -2.5218  -2.6116 H              1 S1                 0.0000
     35 ****        -3.7401  -2.1053  -2.7910 H              1 S1                 0.0000
     36 ****        -3.2066  -0.1086  -4.0835 H              1 S1                 0.0000
     37 ****        -1.6791  -0.9793  -4.4868 H              1 S1                 0.0000
     38 ****        -3.0159   1.5274  -2.5122 LP             1 S1                 0.0000
     39 ****        -1.6721   1.8842  -1.6557 LP             1 S1                 0.0000
     40 ****         0.2464  -1.7889  -0.5673 LP             1 S1                 0.0000
     41 ****         0.7803  -1.5825   1.0674 LP             1 S1                 0.0000
     42 ****         0.6169   2.4958   2.8794 LP             1 S1                 0.0000
@<TRIPOS>BOND
    1    1    2 1     
    2    1   19 1     
    3    1   20 1     
    4    1   21 1     
    5    2    3 1     
    6    3   18 1     
    7    3    4 1     
    8    3   16 1     
    9    4    5 1     
   10    4   22 1     
   11    4   23 1     
   12    5    6 am    
   13    5   24 1     
   14    6    7 2     
   15    6    8 am    
   16    8    9 1     
   17    8   25 1     
   18    9   15 ar    
   19    9   10 ar    
   20   10   11 ar    
   21   10   26 1     
   22   11   12 1     
   23   11   13 ar    
   24   12   27 1     
   25   12   28 1     
   26   12   29 1     
   27   13   14 ar    
   28   13   30 1     
   29   14   15 ar    
   30   14   31 1     
   31   16   17 1     
   32   16   32 1     
   33   16   33 1     
   34   17   18 1     
   35   17   34 1     
   36   17   35 1     
   37   18   36 1     
   38   18   37 1     
   39    2   38 1     
   40    2   39 1     
   41    7   40 1     
   42    7   41 1     
   43   15   42 1     
@<TRIPOS>SUBSTRUCTURE
      1 S1             1
@<TRIPOS>SET
LONE_PAIRS      STATIC     ATOMS    <user>   **** ""
5 38 39 40 41 42
DONOR_HYDROGENS      STATIC     ATOMS    <user>   **** ""
2 24 25
ATOM$BLUE        STATIC     ATOMS    COLORGROUP SYSTEM
5 38 39 40 41 42
ATOM$RED        STATIC     ATOMS    COLORGROUP SYSTEM
2 24 25
