#       Name:                AV-unprocessed.smi:2712
#       Creating user name   scv26
#       Creation time:       Fri Mar 27 14:51:55 2020


#       File generated by GOLD software.
#

@<TRIPOS>MOLECULE
AV-unprocessed.smi:2712
    57    58     1
SMALL
NO_CHARGES


@<TRIPOS>ATOM
      1 ****        -6.1174   1.0621   4.3177 C.3            1 S1                 0.0000
      2 ****        -5.5380   1.5099   3.0087 C.2            1 S1                 0.0000
      3 ****        -5.5685   2.8906   2.5653 C.2            1 S1                 0.0000
      4 ****        -5.0268   3.2141   1.3715 C.2            1 S1                 0.0000
      5 ****        -4.4071   2.2085   0.5111 C.2            1 S1                 0.0000
      6 ****        -3.9087   2.4705  -0.5835 O.2            1 S1                 0.0000
      7 ****        -4.4309   0.9470   1.0353 N.am           1 S1                 0.0000
      8 ****        -3.8384  -0.1878   0.3125 C.3            1 S1                 0.0000
      9 ****        -2.3087  -0.2512   0.4313 C.2            1 S1                 0.0000
     10 ****        -1.7317   0.2348   1.4052 O.2            1 S1                 0.0000
     11 ****        -1.6660  -0.8718  -0.5705 N.am           1 S1                 0.0000
     12 ****        -0.2186  -1.0487  -0.6696 C.3            1 S1                 0.0000
     13 ****         0.0573  -2.3392  -1.4637 C.3            1 S1                 0.0000
     14 ****         1.4808  -2.5018  -2.0206 C.3            1 S1                 0.0000
     15 ****         2.6129  -2.0004  -1.1082 C.3            1 S1                 0.0000
     16 ****         2.9808  -0.5057  -1.3297 C.3            1 S1                 0.0000
     17 ****         4.4266  -0.1435  -0.8224 C.3            1 S1                 0.0000
     18 ****         4.6135  -0.4821   0.6727 C.3            1 S1                 0.0000
     19 ****         4.7284   1.3604  -1.0196 C.3            1 S1                 0.0000
     20 ****         5.4987  -0.9052  -1.6378 C.3            1 S1                 0.0000
     21 ****         1.8816   0.4405  -0.7727 C.3            1 S1                 0.0000
     22 ****         0.4439   0.2065  -1.2749 C.3            1 S1                 0.0000
     23 ****        -4.9909   0.6115   2.2571 N.2            1 S1                 0.0000
     24 ****        -6.6558   1.8731   4.8088 H              1 S1                 0.0000
     25 ****        -5.3310   0.7253   4.9938 H              1 S1                 0.0000
     26 ****        -6.8165   0.2377   4.1738 H              1 S1                 0.0000
     27 ****        -6.0222   3.6461   3.1898 H              1 S1                 0.0000
     28 ****        -5.0501   4.2426   1.0426 H              1 S1                 0.0000
     29 ****        -4.2448  -1.1289   0.6874 H              1 S1                 0.0000
     30 ****        -4.1239  -0.1447  -0.7405 H              1 S1                 0.0000
     31 ****        -2.2208  -1.2431  -1.3281 H              1 S1                 0.0000
     32 ****         0.1690  -1.1918   0.3408 H              1 S1                 0.0000
     33 ****        -0.1691  -3.1889  -0.8182 H              1 S1                 0.0000
     34 ****        -0.6367  -2.4166  -2.3022 H              1 S1                 0.0000
     35 ****         1.6355  -3.5618  -2.2253 H              1 S1                 0.0000
     36 ****         1.5521  -2.0151  -2.9938 H              1 S1                 0.0000
     37 ****         2.3785  -2.1981  -0.0617 H              1 S1                 0.0000
     38 ****         3.4706  -2.6298  -1.3308 H              1 S1                 0.0000
     39 ****         2.9989  -0.3401  -2.4079 H              1 S1                 0.0000
     40 ****         5.6150  -0.2154   1.0125 H              1 S1                 0.0000
     41 ****         4.4857  -1.5462   0.8697 H              1 S1                 0.0000
     42 ****         3.9090   0.0579   1.3046 H              1 S1                 0.0000
     43 ****         4.1439   1.9905  -0.3495 H              1 S1                 0.0000
     44 ****         4.5250   1.6774  -2.0430 H              1 S1                 0.0000
     45 ****         5.7744   1.5884  -0.8113 H              1 S1                 0.0000
     46 ****         6.5033  -0.5613  -1.3889 H              1 S1                 0.0000
     47 ****         5.3647  -0.7570  -2.7099 H              1 S1                 0.0000
     48 ****         5.4951  -1.9770  -1.4472 H              1 S1                 0.0000
     49 ****         1.8820   0.4202   0.3169 H              1 S1                 0.0000
     50 ****         2.1203   1.4663  -1.0478 H              1 S1                 0.0000
     51 ****         0.4084   0.1822  -2.3648 H              1 S1                 0.0000
     52 ****        -0.1328   1.0867  -0.9867 H              1 S1                 0.0000
     53 ****        -3.9154   3.4109  -0.9237 LP             1 S1                 0.0000
     54 ****        -3.4971   1.7431  -1.1325 LP             1 S1                 0.0000
     55 ****        -2.2600   0.6771   2.1300 LP             1 S1                 0.0000
     56 ****        -0.7350   0.1871   1.4710 LP             1 S1                 0.0000
     57 ****        -4.9717  -0.3405   2.5625 LP             1 S1                 0.0000
@<TRIPOS>BOND
    1    1    2 1     
    2    1   24 1     
    3    1   25 1     
    4    1   26 1     
    5    2   23 2     
    6    2    3 1     
    7    3    4 2     
    8    3   27 1     
    9    4    5 1     
   10    4   28 1     
   11    5    6 2     
   12    5    7 am    
   13    7    8 1     
   14    7   23 1     
   15    8    9 1     
   16    8   29 1     
   17    8   30 1     
   18    9   10 2     
   19    9   11 am    
   20   11   12 1     
   21   11   31 1     
   22   12   22 1     
   23   12   13 1     
   24   12   32 1     
   25   13   14 1     
   26   13   33 1     
   27   13   34 1     
   28   14   15 1     
   29   14   35 1     
   30   14   36 1     
   31   15   16 1     
   32   15   37 1     
   33   15   38 1     
   34   16   17 1     
   35   16   21 1     
   36   16   39 1     
   37   17   18 1     
   38   17   19 1     
   39   17   20 1     
   40   18   40 1     
   41   18   41 1     
   42   18   42 1     
   43   19   43 1     
   44   19   44 1     
   45   19   45 1     
   46   20   46 1     
   47   20   47 1     
   48   20   48 1     
   49   21   22 1     
   50   21   49 1     
   51   21   50 1     
   52   22   51 1     
   53   22   52 1     
   54    6   53 1     
   55    6   54 1     
   56   10   55 1     
   57   10   56 1     
   58   23   57 1     
@<TRIPOS>SUBSTRUCTURE
      1 S1             1
@<TRIPOS>SET
LONE_PAIRS      STATIC     ATOMS    <user>   **** ""
5 53 54 55 56 57
DONOR_HYDROGENS      STATIC     ATOMS    <user>   **** ""
1 31
ATOM$BLUE        STATIC     ATOMS    COLORGROUP SYSTEM
5 53 54 55 56 57
ATOM$RED        STATIC     ATOMS    COLORGROUP SYSTEM
1 31
