AV-unprocessed.smi:152|AV-procd|sdf|1248|dock9
  -GOLD-   2262018473D 1   1.00000     0.00000
 Structure written by MMmdl.
 58 61  0  0  0  0  0  0  0  0  2 V2000
  146.7742  129.5979  152.3955 C   0  0  0  0  0  0  0  0  0  0  0  0
  146.4325  131.0879  152.5403 C   0  0  0  0  0  0  0  0  0  0  0  0
  145.3358  131.5068  151.6324 N   0  3  2  0  0  0  0  0  0  0  0  0
  145.6821  131.4954  150.1939 C   0  0  0  0  0  0  0  0  0  0  0  0
  144.7731  132.5310  149.5169 C   0  0  0  0  0  0  0  0  0  0  0  0
  143.8536  133.0396  150.6278 C   0  0  0  0  0  0  0  0  0  0  0  0
  144.6456  132.7892  151.9158 C   0  0  2  0  0  0  0  0  0  0  0  0
  145.6196  133.9556  152.2374 C   0  0  0  0  0  0  0  0  0  0  0  0
  144.9359  135.1740  152.6704 N   0  0  0  0  0  0  0  0  0  0  0  0
  144.4321  136.0468  151.6194 C   0  0  0  0  0  0  0  0  0  0  0  0
  145.4823  135.8726  153.6945 C   0  0  0  0  0  0  0  0  0  0  0  0
  145.4254  135.3855  154.9625 N   0  0  0  0  0  0  0  0  0  0  0  0
  145.9698  136.0753  155.9696 C   0  0  0  0  0  0  0  0  0  0  0  0
  146.6055  137.2481  155.9302 N   0  0  0  0  0  0  0  0  0  0  0  0
  146.6676  137.7371  154.6583 C   0  0  0  0  0  0  0  0  0  0  0  0
  146.1349  137.1182  153.4933 C   0  0  0  0  0  0  0  0  0  0  0  0
  146.3709  137.9130  152.3794 N   0  0  0  0  0  0  0  0  0  0  0  0
  147.0093  138.9454  152.8586 C   0  0  0  0  0  0  0  0  0  0  0  0
  147.2411  138.9166  154.2160 N   0  0  0  0  0  0  0  0  0  0  0  0
  147.9250  139.9303  155.0045 C   0  0  0  0  0  0  0  0  0  0  0  0
  149.3474  140.2868  154.4909 C   0  0  0  0  0  0  0  0  0  0  0  0
  149.1970  141.0038  153.2800 O   0  0  0  0  0  0  0  0  0  0  0  0
  150.1681  141.1715  155.4537 C   0  0  0  0  0  0  0  0  0  0  0  0
  150.6265  140.3748  156.6870 C   0  0  0  0  0  0  0  0  0  0  0  0
  151.3898  139.2458  156.2747 O   0  0  0  0  0  0  0  0  0  0  0  0
  150.6515  138.3300  155.4721 C   0  0  0  0  0  0  0  0  0  0  0  0
  150.1717  139.0216  154.1822 C   0  0  0  0  0  0  0  0  0  0  0  0
  147.6263  129.3361  153.0227 H   0  0  0  0  0  0  0  0  0  0  0  0
  147.0331  129.3510  151.3655 H   0  0  0  0  0  0  0  0  0  0  0  0
  145.9424  128.9599  152.6938 H   0  0  0  0  0  0  0  0  0  0  0  0
  146.1967  131.3329  153.5761 H   0  0  0  0  0  0  0  0  0  0  0  0
  147.3193  131.6706  152.2878 H   0  0  0  0  0  0  0  0  0  0  0  0
  146.7286  131.7668  150.0465 H   0  0  0  0  0  0  0  0  0  0  0  0
  145.5356  130.4953  149.7846 H   0  0  0  0  0  0  0  0  0  0  0  0
  145.3753  133.3516  149.1244 H   0  0  0  0  0  0  0  0  0  0  0  0
  144.2095  132.1084  148.6845 H   0  0  0  0  0  0  0  0  0  0  0  0
  143.5549  134.0790  150.4872 H   0  0  0  0  0  0  0  0  0  0  0  0
  142.9418  132.4409  150.6428 H   0  0  0  0  0  0  0  0  0  0  0  0
  143.9605  132.6347  152.7497 H   0  0  0  0  0  0  0  0  0  0  0  0
  146.3273  133.6720  153.0162 H   0  0  0  0  0  0  0  0  0  0  0  0
  146.2199  134.1864  151.3568 H   0  0  0  0  0  0  0  0  0  0  0  0
  143.7960  136.8351  152.0235 H   0  0  0  0  0  0  0  0  0  0  0  0
  143.8384  135.4766  150.9049 H   0  0  0  0  0  0  0  0  0  0  0  0
  145.2574  136.5138  151.0807 H   0  0  0  0  0  0  0  0  0  0  0  0
  145.8846  135.6228  156.9465 H   0  0  0  0  0  0  0  0  0  0  0  0
  147.3368  139.7601  152.2290 H   0  0  0  0  0  0  0  0  0  0  0  0
  147.2876  140.8135  155.0257 H   0  0  0  0  0  0  0  0  0  0  0  0
  147.9769  139.5795  156.0361 H   0  0  0  0  0  0  0  0  0  0  0  0
  149.1090  140.3842  152.5720 H   0  0  0  0  0  0  0  0  0  0  0  0
  151.0574  141.5402  154.9401 H   0  0  0  0  0  0  0  0  0  0  0  0
  149.6137  142.0598  155.7546 H   0  0  0  0  0  0  0  0  0  0  0  0
  151.2484  141.0030  157.3247 H   0  0  0  0  0  0  0  0  0  0  0  0
  149.7780  140.0547  157.2927 H   0  0  0  0  0  0  0  0  0  0  0  0
  151.2970  137.4878  155.2227 H   0  0  0  0  0  0  0  0  0  0  0  0
  149.8158  137.9226  156.0418 H   0  0  0  0  0  0  0  0  0  0  0  0
  149.5955  138.3252  153.5718 H   0  0  0  0  0  0  0  0  0  0  0  0
  151.0498  139.2901  153.5924 H   0  0  0  0  0  0  0  0  0  0  0  0
  144.6159  130.8047  151.7270 H   0  0  0  0  0  0  0  0  0  0  0  0
  1  2  1  0  0  0  0
  1 28  1  0  0  0  0
  1 29  1  0  0  0  0
  1 30  1  0  0  0  0
  2  3  1  0  0  0  0
  2 31  1  0  0  0  0
  2 32  1  0  0  0  0
  3  7  1  0  0  0  0
  3  4  1  0  0  0  0
  3 58  1  0  0  0  0
  4  5  1  0  0  0  0
  4 33  1  0  0  0  0
  4 34  1  0  0  0  0
  5  6  1  0  0  0  0
  5 35  1  0  0  0  0
  5 36  1  0  0  0  0
  6  7  1  0  0  0  0
  6 37  1  0  0  0  0
  6 38  1  0  0  0  0
  7  8  1  0  0  0  0
  7 39  1  0  0  0  0
  8  9  1  0  0  0  0
  8 40  1  0  0  0  0
  8 41  1  0  0  0  0
  9 10  1  0  0  0  0
  9 11  1  0  0  0  0
 10 42  1  0  0  0  0
 10 43  1  0  0  0  0
 10 44  1  0  0  0  0
 11 16  1  0  0  0  0
 11 12  2  0  0  0  0
 12 13  1  0  0  0  0
 13 14  2  0  0  0  0
 13 45  1  0  0  0  0
 14 15  1  0  0  0  0
 15 19  1  0  0  0  0
 15 16  2  0  0  0  0
 16 17  1  0  0  0  0
 17 18  2  0  0  0  0
 18 19  1  0  0  0  0
 18 46  1  0  0  0  0
 19 20  1  0  0  0  0
 20 21  1  0  0  0  0
 20 47  1  0  0  0  0
 20 48  1  0  0  0  0
 21 27  1  0  0  0  0
 21 22  1  0  0  0  0
 21 23  1  0  0  0  0
 22 49  1  0  0  0  0
 23 24  1  0  0  0  0
 23 50  1  0  0  0  0
 23 51  1  0  0  0  0
 24 25  1  0  0  0  0
 24 52  1  0  0  0  0
 24 53  1  0  0  0  0
 25 26  1  0  0  0  0
 26 27  1  0  0  0  0
 26 54  1  0  0  0  0
 26 55  1  0  0  0  0
 27 56  1  0  0  0  0
 27 57  1  0  0  0  0
M  CHG  1   3   1
M  END
> <s_m_source_file>
AV-unprocessed.smi

> <i_m_source_file_index>
152

> <i_lp_mmshare_version>
43012

> <i_f3d_flags>
0

> <s_epik_input>
W0NIM11bQ0gyXU4xW0NIMl1bQ0gyXVtDSDJdW0NASF0xW0NIMl1OKFtDSDNdKWMobltjSF1uMiljKGMyMyluW2NIXW4zW0NIMl1DNChbT0hdKVtDSDJdW0NIMl1PW0NIMl1bQ0gyXTQ=

> <s_epik_cmdline>
J2VwaWtfcHl0aG9uJywgJy1waCcsICc3LjAnLCAnLXRuJywgJzgnLCAnLW1hJywgJzIwMCcsICctbWV0YWxfYmluZGluZycsICctaW1hZScsICc8aW5maWxlLm1hZT4nLCAnLW9tYWUnLCAnPG91dGZpbGUubWFlPic=

> <r_lp_tautomer_probability>
1

> <r_epik_Ionization_Penalty>
0.00152183

> <r_epik_Ionization_Penalty_Charging>
0.00112577

> <r_epik_Ionization_Penalty_Neutral>
0.000396066

> <r_epik_State_Penalty>
-0

> <r_epik_Charging_Adjusted_Penalty>
0.00112577

> <i_epik_Tot_Q>
1

> <i_epik_Tot_abs_Q>
1

> <r_epik_Metal_State_Penalty>
-0

> <b_epik_Metal_Only>
0

> <s_lp_Force_Field>
OPLS_2005

> <r_lp_Energy>
47.1196

> <b_lp_Chiralities_Consistent>
1

> <s_lp_Variant>
AV-unprocessed.smi:152-3

> <Gold.Version>
5.8.1

> <Gold.Id.Protein>
6NUR|6NUR_protein|mol2

> <Gold.PLP.Fitness>
43.9445

> <Gold.PLP.PLP>
-37.5266

> <Gold.PLP.part.hbond>
-2.2877

> <Gold.PLP.part.metal>
0.0000

> <Gold.PLP.part.buried>
-4.6067

> <Gold.PLP.part.nonpolar>
-30.5418

> <Gold.PLP.part.repulsive>
0.5025

> <Gold.PLP.ligand.clash>
0.0236

> <Gold.PLP.ligand.torsion>
1.1795

> <Gold.PLP.Chemscore.Hbond>
1.7862

> <Gold.PLP.Chemscore.CHOScore>
0.9253

> <Gold.PLP.Chemscore.Metal>
0.0000

> <Gold.Chemscore.Hbonds>
donor molecule, donor type, donor heavy atom, donor atom, acceptor molecule, acceptor atom, score
      L1  H    22    49       P1  7957  0.86
      P1  H  8011  8017       L1    22  0.90
      L1  C    18    46       P1  7957  0.95

> <Gold.PLP.Chemscore.Internal.Correction>
0.6659

> <Gold.Rescore>
     Score         DG    S(hbond)    S(metal)    S(lipo)     H(rot)  DE(clash)    DE(int)     intcor
     10.88     -13.47       0.98        0.00     100.25       2.73       0.02       2.57       ----

> <Gold.Chemscore.Fitness>
10.8826

> <Gold.Chemscore.DG>
-13.4673

> <Gold.Chemscore.ZeroCoef>
-5.4800

> <Gold.Chemscore.Hbond>
0.9757

> <Gold.Chemscore.Metal>
0.0000

> <Gold.Chemscore.Lipo>
100.2519

> <Gold.Chemscore.Internal_Hbond>
0.0000

> <Gold.Chemscore.DEClash>
0.0155

> <Gold.Chemscore.DEInternal>
2.5692

> <Gold.Chemscore.Rot>
2.7348

> <Gold.Chemscore.Internal.Correction>
   9.000000E+99

> <Gold.Chemscore.Hbonds>
donor molecule, donor type, donor heavy atom, donor atom, acceptor molecule, acceptor atom, score
      L1  H    22    49       P1  7957  0.79
      P1  H  8011  8017       L1    22  0.18

> <Gold.Chemscore.Hbond.Weighted>
-3.2589

> <Gold.Chemscore.Metal.Weighted>
-0.0000

> <Gold.Chemscore.Lipo.Weighted>
-11.7295

> <Gold.Chemscore.Internal_Hbond.Weighted>
0.0000

> <Gold.Chemscore.DEClash.Weighted>
0.0155

> <Gold.Chemscore.DEInternal.Weighted>
2.5692

> <Gold.Chemscore.Rot.Weighted>
7.0010

> <Gold.Chemscore.Internal.Correction.Weighted>
   9.000000E+99

> <Gold.Protein.RotatedTorsions>
[ 6907 6896 6895 6894 ] final  153.57 input  -60.11 | X-H torsion
[ 7974 7965 7964 7962 ] final    6.41 input  175.53 | X-H torsion
[ 8008 7997 7996 7995 ] final -173.65 input   59.86 | X-H torsion
[ 10167 10162 10161 10158 ] final  -59.20 input  -65.29 | X-H torsion
[ 10718 10713 10712 10709 ] final   94.69 input   66.30 | X-H torsion
[ 10763 10752 10751 10750 ] final  -31.76 input  -60.55 | X-H torsion
[ 11005 11000 10999 10996 ] final   75.74 input  -57.11 | X-H torsion

> <Gold.Protein.ActiveResidues>
 VAL166  LYS551  ARG553  GLY616  TRP617  ASP618  TYR619  PRO620  LYS621  CYS622 
 ASP623  PHE694  ASN695  SER759  ASP760  ASP761  ALA762  ILE779  LEU786  VAL792 
 PHE793  MET794  SER795  GLU796  ALA797  LYS798  CYS799  TRP800  GLU811  SER814 

> <Gold.Protein.RotatedAtoms>
  152.0708  133.4106  159.4458 H   0  0  0  0  0  0  0  0  0  0  0  0  # atno 6907 bound_to 6896
  150.6863  134.3094  159.4749 H   0  0  0  0  0  0  0  0  0  0  0  0  # atno 6908 bound_to 6896
  152.0925  134.9397  160.0622 H   0  0  0  0  0  0  0  0  0  0  0  0  # atno 6909 bound_to 6896
  146.2435  140.0238  142.8395 H   0  0  0  0  0  0  0  0  0  0  0  0  # atno 7974 bound_to 7965
  155.9601  140.1143  157.0903 H   0  0  0  0  0  0  0  0  0  0  0  0  # atno 8008 bound_to 7997
  154.4130  140.1183  156.5235 H   0  0  0  0  0  0  0  0  0  0  0  0  # atno 8009 bound_to 7997
  155.6731  140.3473  155.4828 H   0  0  0  0  0  0  0  0  0  0  0  0  # atno 8010 bound_to 7997
  140.6149  143.2399  151.5620 H   0  0  0  0  0  0  0  0  0  0  0  0  # atno 10167 bound_to 10162
  157.6946  131.0520  150.4224 H   0  0  0  0  0  0  0  0  0  0  0  0  # atno 10718 bound_to 10713
  153.8026  135.6889  153.4853 H   0  0  0  0  0  0  0  0  0  0  0  0  # atno 10763 bound_to 10752
  153.1679  135.4554  154.9861 H   0  0  0  0  0  0  0  0  0  0  0  0  # atno 10764 bound_to 10752
  154.8000  135.3334  154.7513 H   0  0  0  0  0  0  0  0  0  0  0  0  # atno 10765 bound_to 10752
  139.9330  134.7542  156.1308 H   0  0  0  0  0  0  0  0  0  0  0  0  # atno 11005 bound_to 11000
  145.1217  140.9466  143.4596 LP  0  0  0  0  0  0  0  0  0  0  0  0  # atno 17320 bound_to 7965
  145.0475  139.3209  143.5945 LP  0  0  0  0  0  0  0  0  0  0  0  0  # atno 17321 bound_to 7965
  139.5391  144.2698  152.1313 LP  0  0  0  0  0  0  0  0  0  0  0  0  # atno 17342 bound_to 10162
  140.1905  144.4756  150.6481 LP  0  0  0  0  0  0  0  0  0  0  0  0  # atno 17343 bound_to 10162
  156.4598  130.4029  149.6583 LP  0  0  0  0  0  0  0  0  0  0  0  0  # atno 17370 bound_to 10713
  156.3702  130.7527  151.2509 LP  0  0  0  0  0  0  0  0  0  0  0  0  # atno 17371 bound_to 10713
  141.0929  133.6707  156.2580 LP  0  0  0  0  0  0  0  0  0  0  0  0  # atno 17394 bound_to 11000
  140.6151  134.5419  157.5539 LP  0  0  0  0  0  0  0  0  0  0  0  0  # atno 17395 bound_to 11000

$$$$
