#       Name:                AV-unprocessed.smi:1410
#       Creating user name   scv26
#       Creation time:       Fri Mar 27 05:36:48 2020


#       File generated by GOLD software.
#

@<TRIPOS>MOLECULE
AV-unprocessed.smi:1410
    45    46     1
SMALL
NO_CHARGES


@<TRIPOS>ATOM
      1 ****        -4.7474   2.6257   2.9338 N.am           1 S1                 0.0000
      2 ****        -3.4877   2.2696   3.1948 C.2            1 S1                 0.0000
      3 ****        -2.7322   2.9738   3.8626 O.2            1 S1                 0.0000
      4 ****        -3.0211   0.9201   2.6387 C.3            1 S1                 0.0000
      5 ****        -1.5421   0.8086   2.5529 N.4            1 S1                 1.0000
      6 ****        -0.9670   1.5427   1.3943 C.3            1 S1                 0.0000
      7 ****         0.5709   1.5238   1.4356 C.3            1 S1                 0.0000
      8 ****         1.1318   0.0888   1.5030 C.3            1 S1                 0.0000
      9 ****         0.9598  -0.6297   0.2398 N.am           1 S1                 0.0000
     10 ****         1.7136  -0.4586  -0.8566 C.2            1 S1                 0.0000
     11 ****         2.6275   0.3620  -0.9274 O.2            1 S1                 0.0000
     12 ****         1.3262  -1.2800  -1.8483 N.am           1 S1                 0.0000
     13 ****         1.8572  -1.4009  -3.1624 C.ar           1 S1                 0.0000
     14 ****         1.0429  -2.0163  -4.1394 C.ar           1 S1                 0.0000
     15 ****         1.5275  -2.1703  -5.4543 C.ar           1 S1                 0.0000
     16 ****         2.7671  -1.7377  -5.7688 N.pl3          1 S1                 1.0000
     17 ****         3.5875  -1.1566  -4.8676 C.ar           1 S1                 0.0000
     18 ****         3.1581  -0.9764  -3.5368 C.ar           1 S1                 0.0000
     19 ****         0.4611  -0.6779   2.6564 C.3            1 S1                 0.0000
     20 ****        -1.0755  -0.6006   2.5907 C.3            1 S1                 0.0000
     21 ****        -5.1016   3.5053   3.2827 H              1 S1                 0.0000
     22 ****        -5.3464   2.0183   2.3933 H              1 S1                 0.0000
     23 ****        -3.4083   0.1566   3.3147 H              1 S1                 0.0000
     24 ****        -3.4696   0.7300   1.6620 H              1 S1                 0.0000
     25 ****        -1.3257   1.0997   0.4640 H              1 S1                 0.0000
     26 ****        -1.3090   2.5781   1.3991 H              1 S1                 0.0000
     27 ****         0.9752   2.0575   0.5747 H              1 S1                 0.0000
     28 ****         0.9064   2.0777   2.3135 H              1 S1                 0.0000
     29 ****         2.2019   0.1409   1.7122 H              1 S1                 0.0000
     30 ****         0.2301  -1.3267   0.2088 H              1 S1                 0.0000
     31 ****         0.5155  -1.8504  -1.6574 H              1 S1                 0.0000
     32 ****         0.0511  -2.3644  -3.8891 H              1 S1                 0.0000
     33 ****         0.9655  -2.6245  -6.2573 H              1 S1                 0.0000
     34 ****         4.5594  -0.8594  -5.2339 H              1 S1                 0.0000
     35 ****         3.8405  -0.5274  -2.8319 H              1 S1                 0.0000
     36 ****         0.7850  -1.7195   2.6590 H              1 S1                 0.0000
     37 ****         0.7953  -0.2563   3.6054 H              1 S1                 0.0000
     38 ****        -1.4930  -1.1028   3.4643 H              1 S1                 0.0000
     39 ****        -1.4479  -1.1320   1.7136 H              1 S1                 0.0000
     40 ****        -1.1826   1.2495   3.3881 H              1 S1                 0.0000
     41 ****         3.0994  -1.8588  -6.7259 H              1 S1                 0.0000
     42 ****        -3.0558   3.8456   4.2302 LP             1 S1                 0.0000
     43 ****        -1.7943   2.6745   4.0379 LP             1 S1                 0.0000
     44 ****         2.8396   0.9432  -0.1418 LP             1 S1                 0.0000
     45 ****         3.1583   0.4477  -1.7706 LP             1 S1                 0.0000
@<TRIPOS>BOND
    1    1    2 am    
    2    1   21 1     
    3    1   22 1     
    4    2    3 2     
    5    2    4 1     
    6    4    5 1     
    7    4   23 1     
    8    4   24 1     
    9    5   20 1     
   10    5    6 1     
   11    5   40 1     
   12    6    7 1     
   13    6   25 1     
   14    6   26 1     
   15    7    8 1     
   16    7   27 1     
   17    7   28 1     
   18    8    9 1     
   19    8   19 1     
   20    8   29 1     
   21    9   10 am    
   22    9   30 1     
   23   10   11 2     
   24   10   12 am    
   25   12   13 1     
   26   12   31 1     
   27   13   18 ar    
   28   13   14 ar    
   29   14   15 ar    
   30   14   32 1     
   31   15   16 ar    
   32   15   33 1     
   33   16   17 ar    
   34   16   41 1     
   35   17   18 ar    
   36   17   34 1     
   37   18   35 1     
   38   19   20 1     
   39   19   36 1     
   40   19   37 1     
   41   20   38 1     
   42   20   39 1     
   43    3   42 1     
   44    3   43 1     
   45   11   44 1     
   46   11   45 1     
@<TRIPOS>SUBSTRUCTURE
      1 S1             1
@<TRIPOS>SET
LONE_PAIRS      STATIC     ATOMS    <user>   **** ""
4 42 43 44 45
DONOR_HYDROGENS      STATIC     ATOMS    <user>   **** ""
6 21 22 40 30 31 41
ATOM$BLUE        STATIC     ATOMS    COLORGROUP SYSTEM
4 42 43 44 45
ATOM$RED        STATIC     ATOMS    COLORGROUP SYSTEM
6 21 22 40 30 31 41
