#       Name:                AV-unprocessed.smi:2800
#       Creating user name   scv26
#       Creation time:       Fri Mar 27 15:22:51 2020


#       File generated by GOLD software.
#

@<TRIPOS>MOLECULE
AV-unprocessed.smi:2800
    56    57     1
SMALL
NO_CHARGES


@<TRIPOS>ATOM
      1 ****        -2.2090  -1.3791  -1.6054 C.3            1 S1                 0.0000
      2 ****        -2.0808  -0.0407  -0.8992 C.ar           1 S1                 0.0000
      3 ****        -3.1958   0.7217  -0.8975 N.ar           1 S1                 0.0000
      4 ****        -3.1708   1.9293  -0.2865 C.ar           1 S1                 0.0000
      5 ****        -4.3551   2.6920  -0.3123 N.pl3          1 S1                 0.0000
      6 ****        -5.6084   2.1464  -0.8098 C.3            1 S1                 0.0000
      7 ****        -6.6399   3.2402  -0.5387 C.3            1 S1                 0.0000
      8 ****        -6.1213   3.8950   0.7418 C.3            1 S1                 0.0000
      9 ****        -4.5967   3.7699   0.6367 C.3            1 S1                 0.0000
     10 ****        -2.0039   2.4166   0.3461 C.ar           1 S1                 0.0000
     11 ****        -0.8411   1.6236   0.3440 C.ar           1 S1                 0.0000
     12 ****        -0.8652   0.3644  -0.2999 C.ar           1 S1                 0.0000
     13 ****         0.2502  -0.5183  -0.3303 N.am           1 S1                 0.0000
     14 ****         1.5572  -0.2161  -0.2543 C.2            1 S1                 0.0000
     15 ****         2.0191   0.9210  -0.1643 O.2            1 S1                 0.0000
     16 ****         2.3079  -1.3263  -0.3071 N.am           1 S1                 0.0000
     17 ****         3.7719  -1.3933  -0.2706 C.3            1 S1                 0.0000
     18 ****         4.2629  -1.9607  -1.6258 C.3            1 S1                 0.0000
     19 ****         5.5346  -1.4507  -1.9701 O.3            1 S1                 0.0000
     20 ****         4.2638  -2.1519   1.0084 C.3            1 S1                 0.0000
     21 ****         3.8340  -1.3676   2.2684 C.3            1 S1                 0.0000
     22 ****         5.8031  -2.2542   1.0318 C.3            1 S1                 0.0000
     23 ****         3.6704  -3.5761   1.1043 C.3            1 S1                 0.0000
     24 ****         4.1544  -0.3725  -0.2066 H              1 S1                 0.0000
     25 ****        -1.4939  -1.4439  -2.4257 H              1 S1                 0.0000
     26 ****        -3.2083  -1.5206  -2.0193 H              1 S1                 0.0000
     27 ****        -2.0137  -2.1961  -0.9105 H              1 S1                 0.0000
     28 ****        -5.5502   1.9008  -1.8708 H              1 S1                 0.0000
     29 ****        -5.8545   1.2389  -0.2570 H              1 S1                 0.0000
     30 ****        -6.6315   3.9663  -1.3529 H              1 S1                 0.0000
     31 ****        -7.6544   2.8528  -0.4416 H              1 S1                 0.0000
     32 ****        -6.4534   4.9270   0.8578 H              1 S1                 0.0000
     33 ****        -6.4745   3.3312   1.6060 H              1 S1                 0.0000
     34 ****        -4.1551   3.5675   1.6131 H              1 S1                 0.0000
     35 ****        -4.1591   4.6884   0.2446 H              1 S1                 0.0000
     36 ****        -1.9827   3.3821   0.8290 H              1 S1                 0.0000
     37 ****         0.0398   1.9904   0.8477 H              1 S1                 0.0000
     38 ****         0.0282  -1.4892  -0.4944 H              1 S1                 0.0000
     39 ****         1.8263  -2.2101  -0.3812 H              1 S1                 0.0000
     40 ****         4.2842  -3.0493  -1.6359 H              1 S1                 0.0000
     41 ****         3.5884  -1.6590  -2.4284 H              1 S1                 0.0000
     42 ****         5.7819  -1.8009  -2.8123 H              1 S1                 0.0000
     43 ****         4.2079  -1.8394   3.1778 H              1 S1                 0.0000
     44 ****         2.7496  -1.3081   2.3639 H              1 S1                 0.0000
     45 ****         4.2177  -0.3468   2.2503 H              1 S1                 0.0000
     46 ****         6.2690  -1.2731   0.9335 H              1 S1                 0.0000
     47 ****         6.1797  -2.8837   0.2258 H              1 S1                 0.0000
     48 ****         6.1581  -2.6918   1.9655 H              1 S1                 0.0000
     49 ****         4.0063  -4.0788   2.0120 H              1 S1                 0.0000
     50 ****         3.9715  -4.2032   0.2661 H              1 S1                 0.0000
     51 ****         2.5806  -3.5644   1.1331 H              1 S1                 0.0000
     52 ****        -4.0305   0.3976  -1.3427 LP             1 S1                 0.0000
     53 ****         1.4050   1.7099  -0.1429 LP             1 S1                 0.0000
     54 ****         3.0086   1.0561  -0.1125 LP             1 S1                 0.0000
     55 ****         6.2054  -1.7249  -1.2810 LP             1 S1                 0.0000
     56 ****         5.4955  -0.4526  -2.0185 LP             1 S1                 0.0000
@<TRIPOS>BOND
    1    1    2 1     
    2    1   25 1     
    3    1   26 1     
    4    1   27 1     
    5    2   12 ar    
    6    2    3 ar    
    7    3    4 ar    
    8    4    5 1     
    9    4   10 ar    
   10    5    9 1     
   11    5    6 1     
   12    6    7 1     
   13    6   28 1     
   14    6   29 1     
   15    7    8 1     
   16    7   30 1     
   17    7   31 1     
   18    8    9 1     
   19    8   32 1     
   20    8   33 1     
   21    9   34 1     
   22    9   35 1     
   23   10   11 ar    
   24   10   36 1     
   25   11   12 ar    
   26   11   37 1     
   27   12   13 1     
   28   13   14 am    
   29   13   38 1     
   30   14   15 2     
   31   14   16 am    
   32   16   17 1     
   33   16   39 1     
   34   17   24 1     
   35   17   18 1     
   36   17   20 1     
   37   18   19 1     
   38   18   40 1     
   39   18   41 1     
   40   19   42 1     
   41   20   21 1     
   42   20   22 1     
   43   20   23 1     
   44   21   43 1     
   45   21   44 1     
   46   21   45 1     
   47   22   46 1     
   48   22   47 1     
   49   22   48 1     
   50   23   49 1     
   51   23   50 1     
   52   23   51 1     
   53    3   52 1     
   54   15   53 1     
   55   15   54 1     
   56   19   55 1     
   57   19   56 1     
@<TRIPOS>SUBSTRUCTURE
      1 S1             1
@<TRIPOS>SET
LONE_PAIRS      STATIC     ATOMS    <user>   **** ""
5 52 53 54 55 56
DONOR_HYDROGENS      STATIC     ATOMS    <user>   **** ""
3 38 39 42
ATOM$BLUE        STATIC     ATOMS    COLORGROUP SYSTEM
5 52 53 54 55 56
ATOM$RED        STATIC     ATOMS    COLORGROUP SYSTEM
3 38 39 42
