AV-unprocessed.smi:673|AV-procd|sdf|3298|dock10
  -GOLD-   22720 0263D 1   1.00000     0.00000
 Structure written by MMmdl.
 45 46  0  0  0  0  0  0  0  0  1 V2000
  156.7893  138.6751  160.4990 C   0  0  0  0  0  0  0  0  0  0  0  0
  156.9359  140.1987  160.3601 C   0  0  1  0  0  0  0  0  0  0  0  0
  157.5786  140.6290  159.0200 C   0  0  0  0  0  0  0  0  0  0  0  0
  158.7558  141.4663  159.1796 N   0  0  0  0  0  0  0  0  0  0  0  0
  159.4980  142.1042  158.2728 C   0  0  0  0  0  0  0  0  0  0  0  0
  160.5105  142.7844  158.7919 N   0  0  0  0  0  0  0  0  0  0  0  0
  160.3237  142.4975  160.1145 C   0  0  0  0  0  0  0  0  0  0  0  0
  159.2871  141.7102  160.4009 N   0  0  0  0  0  0  0  0  0  0  0  0
  155.6290  140.8243  160.5462 N   0  0  0  0  0  0  0  0  0  0  0  0
  154.4965  140.4962  159.8997 C   0  0  0  0  0  0  0  0  0  0  0  0
  154.4648  139.6036  159.0505 O   0  0  0  0  0  0  0  0  0  0  0  0
  153.3926  141.1775  160.3070 N   0  0  0  0  0  0  0  0  0  0  0  0
  153.3284  141.9711  161.5515 C   0  0  0  0  0  0  0  0  0  0  0  0
  152.4287  143.2213  161.4823 C   0  0  0  0  0  0  0  0  0  0  0  0
  152.6403  144.0999  160.2304 C   0  0  0  0  0  0  0  0  0  0  0  0
  151.8331  143.7087  158.9621 C   0  0  0  0  0  0  0  0  0  0  0  0
  150.3120  143.8153  159.2154 C   0  0  0  0  0  0  0  0  0  0  0  0
  152.1811  144.7241  157.8542 C   0  0  0  0  0  0  0  0  0  0  0  0
  152.1944  142.2962  158.4355 C   0  0  0  0  0  0  0  0  0  0  0  0
  152.1764  141.1640  159.4811 C   0  0  0  0  0  0  0  0  0  0  0  0
  157.7470  138.1753  160.3507 H   0  0  0  0  0  0  0  0  0  0  0  0
  156.0838  138.2677  159.7739 H   0  0  0  0  0  0  0  0  0  0  0  0
  156.4293  138.4072  161.4930 H   0  0  0  0  0  0  0  0  0  0  0  0
  157.5903  140.5351  161.1659 H   0  0  0  0  0  0  0  0  0  0  0  0
  157.8474  139.7577  158.4208 H   0  0  0  0  0  0  0  0  0  0  0  0
  156.8499  141.1861  158.4301 H   0  0  0  0  0  0  0  0  0  0  0  0
  159.2904  142.0748  157.2131 H   0  0  0  0  0  0  0  0  0  0  0  0
  160.9713  142.8798  160.8897 H   0  0  0  0  0  0  0  0  0  0  0  0
  155.5713  141.5490  161.2468 H   0  0  0  0  0  0  0  0  0  0  0  0
  153.0013  141.3239  162.3659 H   0  0  0  0  0  0  0  0  0  0  0  0
  154.3196  142.3332  161.8281 H   0  0  0  0  0  0  0  0  0  0  0  0
  151.3827  142.9461  161.6020 H   0  0  0  0  0  0  0  0  0  0  0  0
  152.6516  143.8260  162.3621 H   0  0  0  0  0  0  0  0  0  0  0  0
  152.3710  145.1225  160.4984 H   0  0  0  0  0  0  0  0  0  0  0  0
  153.7056  144.1373  159.9981 H   0  0  0  0  0  0  0  0  0  0  0  0
  149.7485  143.6646  158.2939 H   0  0  0  0  0  0  0  0  0  0  0  0
  150.0431  144.7992  159.6013 H   0  0  0  0  0  0  0  0  0  0  0  0
  149.9485  143.0761  159.9272 H   0  0  0  0  0  0  0  0  0  0  0  0
  151.6453  144.5056  156.9296 H   0  0  0  0  0  0  0  0  0  0  0  0
  153.2469  144.7137  157.6225 H   0  0  0  0  0  0  0  0  0  0  0  0
  151.9225  145.7418  158.1486 H   0  0  0  0  0  0  0  0  0  0  0  0
  151.5008  142.0356  157.6350 H   0  0  0  0  0  0  0  0  0  0  0  0
  153.1761  142.3191  157.9601 H   0  0  0  0  0  0  0  0  0  0  0  0
  152.0918  140.2070  158.9633 H   0  0  0  0  0  0  0  0  0  0  0  0
  151.2826  141.2040  160.1024 H   0  0  0  0  0  0  0  0  0  0  0  0
  1  2  1  0  0  0  0
  1 21  1  0  0  0  0
  1 22  1  0  0  0  0
  1 23  1  0  0  0  0
  2  3  1  0  0  0  0
  2  9  1  0  0  0  0
  2 24  1  0  0  0  0
  3  4  1  0  0  0  0
  3 25  1  0  0  0  0
  3 26  1  0  0  0  0
  4  8  1  0  0  0  0
  4  5  1  0  0  0  0
  5  6  2  0  0  0  0
  5 27  1  0  0  0  0
  6  7  1  0  0  0  0
  7  8  2  0  0  0  0
  7 28  1  0  0  0  0
  9 10  1  0  0  0  0
  9 29  1  0  0  0  0
 10 11  2  0  0  0  0
 10 12  1  0  0  0  0
 12 20  1  0  0  0  0
 12 13  1  0  0  0  0
 13 14  1  0  0  0  0
 13 30  1  0  0  0  0
 13 31  1  0  0  0  0
 14 15  1  0  0  0  0
 14 32  1  0  0  0  0
 14 33  1  0  0  0  0
 15 16  1  0  0  0  0
 15 34  1  0  0  0  0
 15 35  1  0  0  0  0
 16 17  1  0  0  0  0
 16 18  1  0  0  0  0
 16 19  1  0  0  0  0
 17 36  1  0  0  0  0
 17 37  1  0  0  0  0
 17 38  1  0  0  0  0
 18 39  1  0  0  0  0
 18 40  1  0  0  0  0
 18 41  1  0  0  0  0
 19 20  1  0  0  0  0
 19 42  1  0  0  0  0
 19 43  1  0  0  0  0
 20 44  1  0  0  0  0
 20 45  1  0  0  0  0
M  END
> <s_m_source_file>
AV-unprocessed.smi

> <i_m_source_file_index>
673

> <i_lp_mmshare_version>
43012

> <i_f3d_flags>
0

> <s_epik_input>
bjFbY0hdbltjSF1uMVtDSDJdW0NAQEhdKFtDSDNdKVtOSF1DKD1PKU4oW0NIMl1bQ0gyXTIpW0NIMl1bQ0gyXVtDSDJdQzIoW0NIM10pW0NIM10=

> <s_epik_cmdline>
J2VwaWtfcHl0aG9uJywgJy1waCcsICc3LjAnLCAnLXRuJywgJzgnLCAnLW1hJywgJzIwMCcsICctbWV0YWxfYmluZGluZycsICctaW1hZScsICc8aW5maWxlLm1hZT4nLCAnLW9tYWUnLCAnPG91dGZpbGUubWFlPic=

> <r_lp_tautomer_probability>
1

> <r_epik_Ionization_Penalty>
0.000118908

> <r_epik_Ionization_Penalty_Charging>
0

> <r_epik_Ionization_Penalty_Neutral>
0.000118908

> <r_epik_State_Penalty>
-0

> <r_epik_Charging_Adjusted_Penalty>
0

> <i_epik_Tot_Q>
0

> <i_epik_Tot_abs_Q>
0

> <r_epik_Metal_State_Penalty>
-0

> <b_epik_Metal_Only>
0

> <s_lp_Force_Field>
OPLS_2005

> <r_lp_Energy>
39.1702

> <b_lp_Chiralities_Consistent>
1

> <s_lp_Variant>
AV-unprocessed.smi:673-2

> <Gold.Version>
5.8.1

> <Gold.Id.Protein>
6NUR|6NUR_protein|mol2

> <Gold.PLP.Fitness>
49.5006

> <Gold.PLP.PLP>
-48.4014

> <Gold.PLP.part.hbond>
-4.4587

> <Gold.PLP.part.metal>
0.0000

> <Gold.PLP.part.buried>
-6.0541

> <Gold.PLP.part.nonpolar>
-37.9100

> <Gold.PLP.part.repulsive>
0.1901

> <Gold.PLP.ligand.clash>
0.0000

> <Gold.PLP.ligand.torsion>
0.9936

> <Gold.PLP.Chemscore.Hbond>
1.0000

> <Gold.PLP.Chemscore.CHOScore>
0.0000

> <Gold.PLP.Chemscore.Metal>
0.0000

> <Gold.Chemscore.Hbonds>
donor molecule, donor type, donor heavy atom, donor atom, acceptor molecule, acceptor atom, score
      P1  H  7997  8009       L1    11  1.00

> <Gold.PLP.Chemscore.Internal.Correction>
0.0864

> <Gold.Rescore>
     Score         DG    S(hbond)    S(metal)    S(lipo)     H(rot)  DE(clash)    DE(int)     intcor
     13.80     -16.19       0.98        0.00     104.40       1.86       0.12       2.27       ----

> <Gold.Chemscore.Fitness>
13.8006

> <Gold.Chemscore.DG>
-16.1882

> <Gold.Chemscore.ZeroCoef>
-5.4800

> <Gold.Chemscore.Hbond>
0.9757

> <Gold.Chemscore.Metal>
0.0000

> <Gold.Chemscore.Lipo>
104.3982

> <Gold.Chemscore.Internal_Hbond>
0.0000

> <Gold.Chemscore.DEClash>
0.1210

> <Gold.Chemscore.DEInternal>
2.2666

> <Gold.Chemscore.Rot>
1.8614

> <Gold.Chemscore.Internal.Correction>
   9.000000E+99

> <Gold.Chemscore.Hbonds>
donor molecule, donor type, donor heavy atom, donor atom, acceptor molecule, acceptor atom, score
      P1  H  7997  8009       L1    11  0.96

> <Gold.Chemscore.Hbond.Weighted>
-3.2589

> <Gold.Chemscore.Metal.Weighted>
-0.0000

> <Gold.Chemscore.Lipo.Weighted>
-12.2146

> <Gold.Chemscore.Internal_Hbond.Weighted>
0.0000

> <Gold.Chemscore.DEClash.Weighted>
0.1210

> <Gold.Chemscore.DEInternal.Weighted>
2.2666

> <Gold.Chemscore.Rot.Weighted>
4.7653

> <Gold.Chemscore.Internal.Correction.Weighted>
   9.000000E+99

> <Gold.Protein.RotatedTorsions>
[ 6907 6896 6895 6894 ] final  -88.24 input  -60.11 | X-H torsion
[ 7974 7965 7964 7962 ] final   80.70 input  175.53 | X-H torsion
[ 8008 7997 7996 7995 ] final  122.42 input   59.86 | X-H torsion
[ 10167 10162 10161 10158 ] final  -89.92 input  -65.29 | X-H torsion
[ 10718 10713 10712 10709 ] final -120.06 input   66.30 | X-H torsion
[ 10763 10752 10751 10750 ] final   80.88 input  -60.55 | X-H torsion
[ 11005 11000 10999 10996 ] final -151.51 input  -57.11 | X-H torsion

> <Gold.Protein.ActiveResidues>
 VAL166  LYS551  ARG553  GLY616  TRP617  ASP618  TYR619  PRO620  LYS621  CYS622 
 ASP623  PHE694  ASN695  SER759  ASP760  ASP761  ALA762  ILE779  LEU786  VAL792 
 PHE793  MET794  SER795  GLU796  ALA797  LYS798  CYS799  TRP800  GLU811  SER814 

> <Gold.Protein.RotatedAtoms>
  150.6868  134.2772  159.4612 H   0  0  0  0  0  0  0  0  0  0  0  0  # atno 6907 bound_to 6896
  152.0689  134.9543  160.0584 H   0  0  0  0  0  0  0  0  0  0  0  0  # atno 6908 bound_to 6896
  152.0941  133.4181  159.4594 H   0  0  0  0  0  0  0  0  0  0  0  0  # atno 6909 bound_to 6896
  145.6478  139.2440  143.1994 H   0  0  0  0  0  0  0  0  0  0  0  0  # atno 7974 bound_to 7965
  156.2727  140.2786  156.1465 H   0  0  0  0  0  0  0  0  0  0  0  0  # atno 8008 bound_to 7997
  155.0899  140.0388  157.2683 H   0  0  0  0  0  0  0  0  0  0  0  0  # atno 8009 bound_to 7997
  154.6898  140.2626  155.6830 H   0  0  0  0  0  0  0  0  0  0  0  0  # atno 8010 bound_to 7997
  140.3600  143.2847  151.9625 H   0  0  0  0  0  0  0  0  0  0  0  0  # atno 10167 bound_to 10162
  156.1229  130.6337  150.9494 H   0  0  0  0  0  0  0  0  0  0  0  0  # atno 10718 bound_to 10713
  153.1070  135.4786  154.8969 H   0  0  0  0  0  0  0  0  0  0  0  0  # atno 10763 bound_to 10752
  154.7441  135.3089  154.8678 H   0  0  0  0  0  0  0  0  0  0  0  0  # atno 10764 bound_to 10752
  153.9278  135.6848  153.4799 H   0  0  0  0  0  0  0  0  0  0  0  0  # atno 10765 bound_to 10752
  140.7288  134.3644  157.5170 H   0  0  0  0  0  0  0  0  0  0  0  0  # atno 11005 bound_to 11000
  146.1229  140.7286  142.9449 LP  0  0  0  0  0  0  0  0  0  0  0  0  # atno 17320 bound_to 7965
  144.7134  140.4121  143.7063 LP  0  0  0  0  0  0  0  0  0  0  0  0  # atno 17321 bound_to 7965
  139.4815  144.6001  151.7621 LP  0  0  0  0  0  0  0  0  0  0  0  0  # atno 17342 bound_to 10162
  140.5136  144.0987  150.6002 LP  0  0  0  0  0  0  0  0  0  0  0  0  # atno 17343 bound_to 10162
  157.6412  131.0910  150.8247 LP  0  0  0  0  0  0  0  0  0  0  0  0  # atno 17370 bound_to 10713
  156.8341  130.5026  149.5328 LP  0  0  0  0  0  0  0  0  0  0  0  0  # atno 17371 bound_to 10713
  139.8831  134.9004  156.2788 LP  0  0  0  0  0  0  0  0  0  0  0  0  # atno 17394 bound_to 11000
  140.9939  133.7192  156.0856 LP  0  0  0  0  0  0  0  0  0  0  0  0  # atno 17395 bound_to 11000

$$$$
