AV-unprocessed.smi:1991|AV-procd|sdf|8067|dock8
  -GOLD-   2272010273D 1   1.00000     0.00000
 Structure written by MMmdl.
 44 45  0  0  0  0  0  0  0  0  1 V2000
  145.6924  136.3750  151.2086 C   0  0  0  0  0  0  0  0  0  0  0  0
  145.8186  135.3951  152.3850 C   0  0  2  0  0  0  0  0  0  0  0  0
  144.6528  134.5751  152.3886 O   0  0  0  0  0  0  0  0  0  0  0  0
  144.8849  133.1752  152.5106 C   0  0  0  0  0  0  0  0  0  0  0  0
  144.7528  132.5174  151.1319 C   0  0  0  0  0  0  0  0  0  0  0  0
  143.5673  132.8289  150.6093 F   0  0  0  0  0  0  0  0  0  0  0  0
  145.7100  132.9593  150.3167 F   0  0  0  0  0  0  0  0  0  0  0  0
  144.8356  131.1920  151.2436 F   0  0  0  0  0  0  0  0  0  0  0  0
  145.9600  136.1370  153.7241 C   0  0  0  0  0  0  0  0  0  0  0  0
  145.0755  136.0558  154.5765 O   0  0  0  0  0  0  0  0  0  0  0  0
  147.0852  136.8495  153.8925 N   0  0  0  0  0  0  0  0  0  0  0  0
  147.4304  137.6352  155.0730 C   0  0  0  0  0  0  0  0  0  0  0  0
  147.6625  139.1089  154.7502 C   0  0  0  0  0  0  0  0  0  0  0  0
  146.6564  139.8375  154.0783 C   0  0  0  0  0  0  0  0  0  0  0  0
  146.8685  141.1954  153.7802 C   0  0  0  0  0  0  0  0  0  0  0  0
  148.0859  141.7807  154.1711 C   0  0  0  0  0  0  0  0  0  0  0  0
  149.0562  141.1027  154.8177 N   0  0  0  0  0  0  0  0  0  0  0  0
  148.8552  139.7934  155.1060 C   0  0  0  0  0  0  0  0  0  0  0  0
  149.8919  139.1234  155.7744 N   0  0  0  0  0  0  0  0  0  0  0  0
  150.4340  139.8543  156.9129 C   0  0  0  0  0  0  0  0  0  0  0  0
  151.4516  138.9765  157.6613 C   0  0  0  0  0  0  0  0  0  0  0  0
  152.4652  138.5437  156.7580 O   0  0  0  0  0  0  0  0  0  0  0  0
  151.9340  137.7674  155.6875 C   0  0  0  0  0  0  0  0  0  0  0  0
  150.9285  138.6125  154.8868 C   0  0  0  0  0  0  0  0  0  0  0  0
  146.5441  137.0551  151.1658 H   0  0  0  0  0  0  0  0  0  0  0  0
  144.7853  136.9763  151.2821 H   0  0  0  0  0  0  0  0  0  0  0  0
  145.6527  135.8373  150.2611 H   0  0  0  0  0  0  0  0  0  0  0  0
  146.6997  134.7733  152.2149 H   0  0  0  0  0  0  0  0  0  0  0  0
  145.8848  132.9963  152.9084 H   0  0  0  0  0  0  0  0  0  0  0  0
  144.1733  132.7208  153.2009 H   0  0  0  0  0  0  0  0  0  0  0  0
  147.7555  136.8530  153.1376 H   0  0  0  0  0  0  0  0  0  0  0  0
  146.6492  137.5696  155.8317 H   0  0  0  0  0  0  0  0  0  0  0  0
  148.3081  137.1724  155.5215 H   0  0  0  0  0  0  0  0  0  0  0  0
  145.7287  139.3636  153.7935 H   0  0  0  0  0  0  0  0  0  0  0  0
  146.1157  141.7738  153.2655 H   0  0  0  0  0  0  0  0  0  0  0  0
  148.2859  142.8208  153.9603 H   0  0  0  0  0  0  0  0  0  0  0  0
  150.9173  140.7699  156.5691 H   0  0  0  0  0  0  0  0  0  0  0  0
  149.6251  140.1462  157.5837 H   0  0  0  0  0  0  0  0  0  0  0  0
  151.9136  139.5420  158.4706 H   0  0  0  0  0  0  0  0  0  0  0  0
  150.9615  138.1132  158.1146 H   0  0  0  0  0  0  0  0  0  0  0  0
  152.7511  137.4432  155.0430 H   0  0  0  0  0  0  0  0  0  0  0  0
  151.4593  136.8662  156.0790 H   0  0  0  0  0  0  0  0  0  0  0  0
  150.4764  138.0101  154.0979 H   0  0  0  0  0  0  0  0  0  0  0  0
  151.4439  139.4441  154.4043 H   0  0  0  0  0  0  0  0  0  0  0  0
  1  2  1  0  0  0  0
  1 25  1  0  0  0  0
  1 26  1  0  0  0  0
  1 27  1  0  0  0  0
  2  3  1  0  0  0  0
  2  9  1  0  0  0  0
  2 28  1  0  0  0  0
  3  4  1  0  0  0  0
  4  5  1  0  0  0  0
  4 29  1  0  0  0  0
  4 30  1  0  0  0  0
  5  6  1  0  0  0  0
  5  7  1  0  0  0  0
  5  8  1  0  0  0  0
  9 10  2  0  0  0  0
  9 11  1  0  0  0  0
 11 12  1  0  0  0  0
 11 31  1  0  0  0  0
 12 13  1  0  0  0  0
 12 32  1  0  0  0  0
 12 33  1  0  0  0  0
 13 18  1  0  0  0  0
 13 14  2  0  0  0  0
 14 15  1  0  0  0  0
 14 34  1  0  0  0  0
 15 16  2  0  0  0  0
 15 35  1  0  0  0  0
 16 17  1  0  0  0  0
 16 36  1  0  0  0  0
 17 18  2  0  0  0  0
 18 19  1  0  0  0  0
 19 24  1  0  0  0  0
 19 20  1  0  0  0  0
 20 21  1  0  0  0  0
 20 37  1  0  0  0  0
 20 38  1  0  0  0  0
 21 22  1  0  0  0  0
 21 39  1  0  0  0  0
 21 40  1  0  0  0  0
 22 23  1  0  0  0  0
 23 24  1  0  0  0  0
 23 41  1  0  0  0  0
 23 42  1  0  0  0  0
 24 43  1  0  0  0  0
 24 44  1  0  0  0  0
M  END
> <s_m_source_file>
AV-unprocessed.smi

> <i_m_source_file_index>
1991

> <i_lp_mmshare_version>
43012

> <i_f3d_flags>
0

> <s_epik_input>
RkMoRikoRilbQ0gyXU9bQ0BASF0oW0NIM10pQyg9TylbTkhdW0NIMl1jMVtjSF1bY0hdW2NIXW5jMU4yW0NIMl1bQ0gyXU9bQ0gyXVtDSDJdMg==

> <s_epik_cmdline>
J2VwaWtfcHl0aG9uJywgJy1waCcsICc3LjAnLCAnLXRuJywgJzgnLCAnLW1hJywgJzIwMCcsICctbWV0YWxfYmluZGluZycsICctaW1hZScsICc8aW5maWxlLm1hZT4nLCAnLW9tYWUnLCAnPG91dGZpbGUubWFlPic=

> <r_lp_tautomer_probability>
1

> <r_epik_Ionization_Penalty>
0.00436412

> <r_epik_Ionization_Penalty_Charging>
0

> <r_epik_Ionization_Penalty_Neutral>
0.00436412

> <r_epik_State_Penalty>
0.00314317

> <r_epik_Charging_Adjusted_Penalty>
0.00314317

> <i_epik_Tot_Q>
0

> <i_epik_Tot_abs_Q>
0

> <r_epik_Metal_State_Penalty>
-0

> <b_epik_Metal_Only>
0

> <s_lp_Force_Field>
OPLS_2005

> <r_lp_Energy>
21.8151

> <b_lp_Chiralities_Consistent>
1

> <s_lp_Variant>
AV-unprocessed.smi:1991-1

> <Gold.Version>
5.8.1

> <Gold.Id.Protein>
6NUR|6NUR_protein|mol2

> <Gold.PLP.Fitness>
41.5470

> <Gold.PLP.PLP>
-36.0940

> <Gold.PLP.part.hbond>
-2.0000

> <Gold.PLP.part.metal>
0.0000

> <Gold.PLP.part.buried>
-4.3654

> <Gold.PLP.part.nonpolar>
-29.9783

> <Gold.PLP.part.repulsive>
0.2797

> <Gold.PLP.ligand.clash>
0.0000

> <Gold.PLP.ligand.torsion>
1.5871

> <Gold.PLP.Chemscore.Hbond>
1.9920

> <Gold.PLP.Chemscore.CHOScore>
0.8122

> <Gold.PLP.Chemscore.Metal>
0.0000

> <Gold.Chemscore.Hbonds>
donor molecule, donor type, donor heavy atom, donor atom, acceptor molecule, acceptor atom, score
      L1  H    11    31       P1  7948  1.00
      L1  C    16    36       P1  8028  0.86

> <Gold.PLP.Chemscore.Internal.Correction>
0.2145

> <Gold.Rescore>
     Score         DG    S(hbond)    S(metal)    S(lipo)     H(rot)  DE(clash)    DE(int)     intcor
     12.03     -13.65       1.98        0.00      67.89       2.49       0.07       1.55       ----

> <Gold.Chemscore.Fitness>
12.0340

> <Gold.Chemscore.DG>
-13.6516

> <Gold.Chemscore.ZeroCoef>
-5.4800

> <Gold.Chemscore.Hbond>
1.9768

> <Gold.Chemscore.Metal>
0.0000

> <Gold.Chemscore.Lipo>
67.8924

> <Gold.Chemscore.Internal_Hbond>
0.0000

> <Gold.Chemscore.DEClash>
0.0655

> <Gold.Chemscore.DEInternal>
1.5522

> <Gold.Chemscore.Rot>
2.4899

> <Gold.Chemscore.Internal.Correction>
   9.000000E+99

> <Gold.Chemscore.Hbonds>
donor molecule, donor type, donor heavy atom, donor atom, acceptor molecule, acceptor atom, score
      L1  H    11    31       P1  7948  1.00
      P1  H  7997  8009       L1    22  0.03

> <Gold.Chemscore.Hbond.Weighted>
-6.6024

> <Gold.Chemscore.Metal.Weighted>
-0.0000

> <Gold.Chemscore.Lipo.Weighted>
-7.9434

> <Gold.Chemscore.Internal_Hbond.Weighted>
0.0000

> <Gold.Chemscore.DEClash.Weighted>
0.0655

> <Gold.Chemscore.DEInternal.Weighted>
1.5522

> <Gold.Chemscore.Rot.Weighted>
6.3741

> <Gold.Chemscore.Internal.Correction.Weighted>
   9.000000E+99

> <Gold.Protein.RotatedTorsions>
[ 6907 6896 6895 6894 ] final -110.40 input  -60.11 | X-H torsion
[ 7974 7965 7964 7962 ] final  141.16 input  175.53 | X-H torsion
[ 8008 7997 7996 7995 ] final -163.11 input   59.86 | X-H torsion
[ 10167 10162 10161 10158 ] final  177.78 input  -65.29 | X-H torsion
[ 10718 10713 10712 10709 ] final -144.30 input   66.30 | X-H torsion
[ 10763 10752 10751 10750 ] final -140.31 input  -60.55 | X-H torsion
[ 11005 11000 10999 10996 ] final   55.04 input  -57.11 | X-H torsion

> <Gold.Protein.ActiveResidues>
 VAL166  LYS551  ARG553  GLY616  TRP617  ASP618  TYR619  PRO620  LYS621  CYS622 
 ASP623  PHE694  ASN695  SER759  ASP760  ASP761  ALA762  ILE779  LEU786  VAL792 
 PHE793  MET794  SER795  GLU796  ALA797  LYS798  CYS799  TRP800  GLU811  SER814 

> <Gold.Protein.RotatedAtoms>
  150.7623  133.9387  159.3449 H   0  0  0  0  0  0  0  0  0  0  0  0  # atno 6907 bound_to 6896
  151.7293  135.0876  160.0307 H   0  0  0  0  0  0  0  0  0  0  0  0  # atno 6908 bound_to 6896
  152.3600  133.6247  159.6043 H   0  0  0  0  0  0  0  0  0  0  0  0  # atno 6909 bound_to 6896
  144.9121  139.5279  143.5704 H   0  0  0  0  0  0  0  0  0  0  0  0  # atno 7974 bound_to 7965
  155.8166  140.0913  157.1873 H   0  0  0  0  0  0  0  0  0  0  0  0  # atno 8008 bound_to 7997
  154.3979  140.1444  156.3510 H   0  0  0  0  0  0  0  0  0  0  0  0  # atno 8009 bound_to 7997
  155.8310  140.3442  155.5575 H   0  0  0  0  0  0  0  0  0  0  0  0  # atno 8010 bound_to 7997
  139.5267  144.2757  152.0590 H   0  0  0  0  0  0  0  0  0  0  0  0  # atno 10167 bound_to 10162
  156.3684  130.7775  151.1952 H   0  0  0  0  0  0  0  0  0  0  0  0  # atno 10718 bound_to 10713
  154.8582  135.3557  154.5687 H   0  0  0  0  0  0  0  0  0  0  0  0  # atno 10763 bound_to 10752
  153.6301  135.7002  153.5283 H   0  0  0  0  0  0  0  0  0  0  0  0  # atno 10764 bound_to 10752
  153.3057  135.4193  155.1251 H   0  0  0  0  0  0  0  0  0  0  0  0  # atno 10765 bound_to 10752
  140.0638  134.5565  155.9122 H   0  0  0  0  0  0  0  0  0  0  0  0  # atno 11005 bound_to 11000
  146.3164  139.7935  142.8980 LP  0  0  0  0  0  0  0  0  0  0  0  0  # atno 17320 bound_to 7965
  145.3437  141.0293  143.3378 LP  0  0  0  0  0  0  0  0  0  0  0  0  # atno 17321 bound_to 7965
  140.2215  144.4462  150.6340 LP  0  0  0  0  0  0  0  0  0  0  0  0  # atno 17342 bound_to 10162
  140.6415  143.2204  151.6279 LP  0  0  0  0  0  0  0  0  0  0  0  0  # atno 17343 bound_to 10162
  157.7481  131.0379  150.4479 LP  0  0  0  0  0  0  0  0  0  0  0  0  # atno 17370 bound_to 10713
  156.4702  130.4051  149.6523 LP  0  0  0  0  0  0  0  0  0  0  0  0  # atno 17371 bound_to 10713
  141.1984  133.6601  156.5792 LP  0  0  0  0  0  0  0  0  0  0  0  0  # atno 17394 bound_to 11000
  140.3729  134.7590  157.4611 LP  0  0  0  0  0  0  0  0  0  0  0  0  # atno 17395 bound_to 11000

$$$$
