AV-unprocessed.smi:2746|AV-procd|sdf|10576|dock3
  -GOLD-   2272015 33D 1   1.00000     0.00000
 Structure written by MMmdl.
 38 39  0  0  0  0  0  0  0  0  3 V2000
  144.5208  135.3331  150.4175 C   0  0  0  0  0  0  0  0  0  0  0  0
  145.2638  135.8050  151.4324 C   0  0  0  0  0  0  0  0  0  0  0  0
  144.7198  136.4754  152.6822 C   0  0  1  0  0  0  0  0  0  0  0  0
  145.0103  135.6100  153.9163 C   0  0  0  0  0  0  0  0  0  0  0  0
  145.2567  137.8151  152.9194 N   0  5  0  0  0  0  0  0  0  0  0  0
  146.3276  138.3449  152.2574 C   0  0  0  0  0  0  0  0  0  0  0  0
  146.7287  138.1125  151.1114 O   0  0  0  0  0  0  0  0  0  0  0  0
  147.0923  139.3522  153.0838 C   0  0  0  0  0  0  0  0  0  0  0  0
  148.4328  139.1188  153.4735 C   0  0  0  0  0  0  0  0  0  0  0  0
  149.1229  140.0830  154.2459 C   0  0  0  0  0  0  0  0  0  0  0  0
  150.4519  139.8956  154.6502 N   0  0  0  0  0  0  0  0  0  0  0  0
  150.7234  140.3699  156.0015 C   0  0  0  0  0  0  0  0  0  0  0  0
  152.2243  140.2374  156.3127 C   0  0  0  0  0  0  0  0  0  0  0  0
  152.6340  138.8864  156.1201 O   0  0  0  0  0  0  0  0  0  0  0  0
  152.4331  138.4518  154.7779 C   0  0  0  0  0  0  0  0  0  0  0  0
  150.9381  138.5401  154.4248 C   0  0  0  0  0  0  0  0  0  0  0  0
  148.4526  141.2678  154.6156 C   0  0  0  0  0  0  0  0  0  0  0  0
  147.1190  141.4586  154.2066 C   0  0  0  0  0  0  0  0  0  0  0  0
  146.5025  140.5112  153.4696 N   0  3  0  0  0  0  0  0  0  0  0  0
  143.4412  135.3977  150.4115 H   0  0  0  0  0  0  0  0  0  0  0  0
  144.9936  134.8690  149.5649 H   0  0  0  0  0  0  0  0  0  0  0  0
  146.3385  135.7125  151.3759 H   0  0  0  0  0  0  0  0  0  0  0  0
  143.6341  136.5102  152.5752 H   0  0  0  0  0  0  0  0  0  0  0  0
  144.5900  134.6107  153.8002 H   0  0  0  0  0  0  0  0  0  0  0  0
  144.5723  136.0443  154.8159 H   0  0  0  0  0  0  0  0  0  0  0  0
  146.0824  135.5006  154.0860 H   0  0  0  0  0  0  0  0  0  0  0  0
  148.9331  138.2073  153.1804 H   0  0  0  0  0  0  0  0  0  0  0  0
  150.4111  141.4102  156.0988 H   0  0  0  0  0  0  0  0  0  0  0  0
  150.1465  139.7901  156.7231 H   0  0  0  0  0  0  0  0  0  0  0  0
  152.8136  140.9016  155.6784 H   0  0  0  0  0  0  0  0  0  0  0  0
  152.4216  140.5248  157.3454 H   0  0  0  0  0  0  0  0  0  0  0  0
  153.0310  139.0576  154.0950 H   0  0  0  0  0  0  0  0  0  0  0  0
  152.7826  137.4239  154.6812 H   0  0  0  0  0  0  0  0  0  0  0  0
  150.3729  137.8363  155.0373 H   0  0  0  0  0  0  0  0  0  0  0  0
  150.7829  138.2587  153.3824 H   0  0  0  0  0  0  0  0  0  0  0  0
  148.9537  142.0224  155.2044 H   0  0  0  0  0  0  0  0  0  0  0  0
  146.5300  142.3325  154.4426 H   0  0  0  0  0  0  0  0  0  0  0  0
  145.5359  140.6627  153.1772 H   0  0  0  0  0  0  0  0  0  0  0  0
  1  2  2  0  0  0  0
  1 20  1  0  0  0  0
  1 21  1  0  0  0  0
  2  3  1  0  0  0  0
  2 22  1  0  0  0  0
  3  4  1  0  0  0  0
  3  5  1  0  0  0  0
  3 23  1  0  0  0  0
  4 24  1  0  0  0  0
  4 25  1  0  0  0  0
  4 26  1  0  0  0  0
  5  6  1  0  0  0  0
  6  7  2  0  0  0  0
  6  8  1  0  0  0  0
  8 19  1  0  0  0  0
  8  9  2  0  0  0  0
  9 10  1  0  0  0  0
  9 27  1  0  0  0  0
 10 11  1  0  0  0  0
 10 17  2  0  0  0  0
 11 16  1  0  0  0  0
 11 12  1  0  0  0  0
 12 13  1  0  0  0  0
 12 28  1  0  0  0  0
 12 29  1  0  0  0  0
 13 14  1  0  0  0  0
 13 30  1  0  0  0  0
 13 31  1  0  0  0  0
 14 15  1  0  0  0  0
 15 16  1  0  0  0  0
 15 32  1  0  0  0  0
 15 33  1  0  0  0  0
 16 34  1  0  0  0  0
 16 35  1  0  0  0  0
 17 18  1  0  0  0  0
 17 36  1  0  0  0  0
 18 19  2  0  0  0  0
 18 37  1  0  0  0  0
 19 38  1  0  0  0  0
M  CHG  1   5  -1
M  CHG  1  19   1
M  END
> <s_m_source_file>
AV-unprocessed.smi

> <i_m_source_file_index>
2746

> <i_lp_mmshare_version>
43012

> <i_f3d_flags>
0

> <s_epik_input>
W0NIMl09W0NIXVtDQEhdKFtDSDNdKVtOSF1DKD1PKWMxW2NIXWMoW2NIXVtjSF1uMSlOMltDSDJdW0NIMl1PW0NIMl1bQ0gyXTI=

> <s_epik_cmdline>
J2VwaWtfcHl0aG9uJywgJy1waCcsICc3LjAnLCAnLXRuJywgJzgnLCAnLW1hJywgJzIwMCcsICctbWV0YWxfYmluZGluZycsICctaW1hZScsICc8aW5maWxlLm1hZT4nLCAnLW9tYWUnLCAnPG91dGZpbGUubWFlPic=

> <r_lp_tautomer_probability>
1

> <r_epik_Ionization_Penalty>
4.23471

> <r_epik_Ionization_Penalty_Charging>
4.23471

> <r_epik_Ionization_Penalty_Neutral>
3.18831e-12

> <r_epik_State_Penalty>
4.68748

> <r_epik_Charging_Adjusted_Penalty>
8.92219

> <i_epik_Tot_Q>
0

> <i_epik_Tot_abs_Q>
2

> <r_epik_Metal_State_Penalty>
1.16626

> <b_epik_Metal_Only>
1

> <s_lp_Force_Field>
OPLS_2005

> <r_lp_Energy>
17.3094

> <b_lp_Chiralities_Consistent>
1

> <s_lp_Variant>
AV-unprocessed.smi:2746-6

> <Gold.Version>
5.8.1

> <Gold.Id.Protein>
6NUR|6NUR_protein|mol2

> <Gold.PLP.Fitness>
41.3381

> <Gold.PLP.PLP>
-33.3107

> <Gold.PLP.part.hbond>
-3.6791

> <Gold.PLP.part.metal>
0.0000

> <Gold.PLP.part.buried>
-0.8868

> <Gold.PLP.part.nonpolar>
-31.5613

> <Gold.PLP.part.repulsive>
1.7070

> <Gold.PLP.ligand.clash>
0.3022

> <Gold.PLP.ligand.torsion>
1.9354

> <Gold.PLP.Chemscore.Hbond>
4.0000

> <Gold.PLP.Chemscore.CHOScore>
0.0000

> <Gold.PLP.Chemscore.Metal>
0.0000

> <Gold.Chemscore.Hbonds>
donor molecule, donor type, donor heavy atom, donor atom, acceptor molecule, acceptor atom, score
      L1  H    19    38       P1 10175  2.00
      P1  H  7954  7966       L1     7  1.00
      P1  H  7989  7998       L1    11  1.00

> <Gold.PLP.Chemscore.Internal.Correction>
0.2004

> <Gold.Rescore>
     Score         DG    S(hbond)    S(metal)    S(lipo)     H(rot)  DE(clash)    DE(int)     intcor
     13.04     -18.08       1.92        0.00      80.74       1.27       1.75       3.29       ----

> <Gold.Chemscore.Fitness>
13.0386

> <Gold.Chemscore.DG>
-18.0849

> <Gold.Chemscore.ZeroCoef>
-5.4800

> <Gold.Chemscore.Hbond>
1.9221

> <Gold.Chemscore.Metal>
0.0000

> <Gold.Chemscore.Lipo>
80.7446

> <Gold.Chemscore.Internal_Hbond>
0.0000

> <Gold.Chemscore.DEClash>
1.7524

> <Gold.Chemscore.DEInternal>
3.2939

> <Gold.Chemscore.Rot>
1.2742

> <Gold.Chemscore.Internal.Correction>
   9.000000E+99

> <Gold.Chemscore.Hbonds>
donor molecule, donor type, donor heavy atom, donor atom, acceptor molecule, acceptor atom, score
      L1  H    19    38       P1 10175  0.80
      P1  H  7954  7966       L1     7  1.00
      P1  H  7989  7998       L1    11  0.10

> <Gold.Chemscore.Hbond.Weighted>
-6.4197

> <Gold.Chemscore.Metal.Weighted>
-0.0000

> <Gold.Chemscore.Lipo.Weighted>
-9.4471

> <Gold.Chemscore.Internal_Hbond.Weighted>
0.0000

> <Gold.Chemscore.DEClash.Weighted>
1.7524

> <Gold.Chemscore.DEInternal.Weighted>
3.2939

> <Gold.Chemscore.Rot.Weighted>
3.2619

> <Gold.Chemscore.Internal.Correction.Weighted>
   9.000000E+99

> <Gold.Protein.RotatedTorsions>
[ 6907 6896 6895 6894 ] final   -9.45 input  -60.11 | X-H torsion
[ 7974 7965 7964 7962 ] final  156.98 input  175.53 | X-H torsion
[ 8008 7997 7996 7995 ] final   43.29 input   59.86 | X-H torsion
[ 10167 10162 10161 10158 ] final  122.83 input  -65.29 | X-H torsion
[ 10718 10713 10712 10709 ] final -144.74 input   66.30 | X-H torsion
[ 10763 10752 10751 10750 ] final   86.50 input  -60.55 | X-H torsion
[ 11005 11000 10999 10996 ] final   41.28 input  -57.11 | X-H torsion

> <Gold.Protein.ActiveResidues>
 VAL166  LYS551  ARG553  GLY616  TRP617  ASP618  TYR619  PRO620  LYS621  CYS622 
 ASP623  PHE694  ASN695  SER759  ASP760  ASP761  ALA762  ILE779  LEU786  VAL792 
 PHE793  MET794  SER795  GLU796  ALA797  LYS798  CYS799  TRP800  GLU811  SER814 

> <Gold.Protein.RotatedAtoms>
  151.4177  135.0993  159.9603 H   0  0  0  0  0  0  0  0  0  0  0  0  # atno 6907 bound_to 6896
  152.4999  133.8737  159.7322 H   0  0  0  0  0  0  0  0  0  0  0  0  # atno 6908 bound_to 6896
  150.9246  133.6782  159.2852 H   0  0  0  0  0  0  0  0  0  0  0  0  # atno 6909 bound_to 6896
  144.7931  139.7277  143.6213 H   0  0  0  0  0  0  0  0  0  0  0  0  # atno 7974 bound_to 7965
  155.3003  140.3384  155.4248 H   0  0  0  0  0  0  0  0  0  0  0  0  # atno 8008 bound_to 7997
  156.2004  140.1731  156.7949 H   0  0  0  0  0  0  0  0  0  0  0  0  # atno 8009 bound_to 7997
  154.5552  140.0698  156.8716 H   0  0  0  0  0  0  0  0  0  0  0  0  # atno 8010 bound_to 7997
  139.5835  144.6996  151.3468 H   0  0  0  0  0  0  0  0  0  0  0  0  # atno 10167 bound_to 10162
  156.3739  130.7802  151.1986 H   0  0  0  0  0  0  0  0  0  0  0  0  # atno 10718 bound_to 10713
  153.1576  135.4578  154.9727 H   0  0  0  0  0  0  0  0  0  0  0  0  # atno 10763 bound_to 10752
  154.7873  135.3208  154.7859 H   0  0  0  0  0  0  0  0  0  0  0  0  # atno 10764 bound_to 10752
  153.8354  135.6935  153.4864 H   0  0  0  0  0  0  0  0  0  0  0  0  # atno 10765 bound_to 10752
  140.1849  134.4057  155.8179 H   0  0  0  0  0  0  0  0  0  0  0  0  # atno 11005 bound_to 11000
  146.2189  139.5600  142.9631 LP  0  0  0  0  0  0  0  0  0  0  0  0  # atno 17320 bound_to 7965
  145.5744  141.0390  143.2156 LP  0  0  0  0  0  0  0  0  0  0  0  0  # atno 17321 bound_to 7965
  140.7110  143.7390  150.7567 LP  0  0  0  0  0  0  0  0  0  0  0  0  # atno 17342 bound_to 10162
  140.0929  143.4861  152.2469 LP  0  0  0  0  0  0  0  0  0  0  0  0  # atno 17343 bound_to 10162
  157.7486  131.0364  150.4408 LP  0  0  0  0  0  0  0  0  0  0  0  0  # atno 17370 bound_to 10713
  156.4640  130.4038  149.6558 LP  0  0  0  0  0  0  0  0  0  0  0  0  # atno 17371 bound_to 10713
  141.2224  133.7018  156.7996 LP  0  0  0  0  0  0  0  0  0  0  0  0  # atno 17394 bound_to 11000
  140.2225  134.8747  157.3392 LP  0  0  0  0  0  0  0  0  0  0  0  0  # atno 17395 bound_to 11000

$$$$
