AV-unprocessed.smi:1464|AV-procd|sdf|5949|dock9
  -GOLD-   22720 6 33D 1   1.00000     0.00000
 Structure written by MMmdl.
 41 42  0  0  0  0  0  0  0  0  1 V2000
  151.9375  145.0256  160.9107 C   0  0  0  0  0  0  0  0  0  0  0  0
  151.9337  143.5267  160.5670 C   0  0  2  0  0  0  0  0  0  0  0  0
  153.1257  142.7874  161.2087 C   0  0  0  0  0  0  0  0  0  0  0  0
  153.0579  141.2746  160.9447 C   0  0  0  0  0  0  0  0  0  0  0  0
  152.9391  140.9649  159.4444 C   0  0  0  0  0  0  0  0  0  0  0  0
  151.7444  141.7064  158.8141 C   0  0  2  0  0  0  0  0  0  0  0  0
  151.6330  141.3621  157.3984 N   0  0  0  0  0  0  0  0  0  0  0  0
  150.6037  141.6852  156.6004 C   0  0  0  0  0  0  0  0  0  0  0  0
  149.6316  142.3379  156.9831 O   0  0  0  0  0  0  0  0  0  0  0  0
  150.7078  141.2163  155.1421 C   0  0  0  0  0  0  0  0  0  0  0  0
  150.7958  139.7549  155.0075 N   0  0  0  0  0  0  0  0  0  0  0  0
  149.6147  139.1487  154.6054 N   0  0  0  0  0  0  0  0  0  0  0  0
  149.5639  137.8672  154.4645 C   0  0  0  0  0  0  0  0  0  0  0  0
  148.3742  137.3075  154.0681 O   0  0  0  0  0  0  0  0  0  0  0  0
  150.7232  137.0393  154.7150 C   0  0  0  0  0  0  0  0  0  0  0  0
  151.8698  137.6389  155.1030 C   0  0  0  0  0  0  0  0  0  0  0  0
  151.9628  139.0904  155.2720 C   0  0  0  0  0  0  0  0  0  0  0  0
  152.9950  139.6632  155.6205 O   0  0  0  0  0  0  0  0  0  0  0  0
  151.8361  143.2396  159.0450 C   0  0  2  0  0  0  0  0  0  0  0  0
  152.9525  143.9156  158.2152 C   0  0  0  0  0  0  0  0  0  0  0  0
  148.5681  136.8500  153.2646 H   0  0  0  0  0  0  0  0  0  0  0  0
  152.8596  145.5127  160.5932 H   0  0  0  0  0  0  0  0  0  0  0  0
  151.8446  145.1769  161.9863 H   0  0  0  0  0  0  0  0  0  0  0  0
  151.1025  145.5404  160.4346 H   0  0  0  0  0  0  0  0  0  0  0  0
  151.0285  143.1188  161.0198 H   0  0  0  0  0  0  0  0  0  0  0  0
  154.0663  143.1858  160.8275 H   0  0  0  0  0  0  0  0  0  0  0  0
  153.1360  142.9640  162.2848 H   0  0  0  0  0  0  0  0  0  0  0  0
  153.9410  140.7853  161.3565 H   0  0  0  0  0  0  0  0  0  0  0  0
  152.1998  140.8537  161.4703 H   0  0  0  0  0  0  0  0  0  0  0  0
  153.8655  141.2397  158.9391 H   0  0  0  0  0  0  0  0  0  0  0  0
  152.8241  139.8890  159.3057 H   0  0  0  0  0  0  0  0  0  0  0  0
  150.8446  141.3418  159.3143 H   0  0  0  0  0  0  0  0  0  0  0  0
  152.3938  140.8324  156.9984 H   0  0  0  0  0  0  0  0  0  0  0  0
  149.8356  141.5936  154.6052 H   0  0  0  0  0  0  0  0  0  0  0  0
  151.5704  141.6851  154.6647 H   0  0  0  0  0  0  0  0  0  0  0  0
  150.6632  135.9680  154.5925 H   0  0  0  0  0  0  0  0  0  0  0  0
  152.7431  137.0330  155.2952 H   0  0  0  0  0  0  0  0  0  0  0  0
  150.8960  143.6731  158.7004 H   0  0  0  0  0  0  0  0  0  0  0  0
  153.9451  143.5692  158.5007 H   0  0  0  0  0  0  0  0  0  0  0  0
  152.9361  144.9986  158.3322 H   0  0  0  0  0  0  0  0  0  0  0  0
  152.8322  143.7220  157.1494 H   0  0  0  0  0  0  0  0  0  0  0  0
  1  2  1  0  0  0  0
  1 22  1  0  0  0  0
  1 23  1  0  0  0  0
  1 24  1  0  0  0  0
  2 19  1  0  0  0  0
  2  3  1  0  0  0  0
  2 25  1  0  0  0  0
  3  4  1  0  0  0  0
  3 26  1  0  0  0  0
  3 27  1  0  0  0  0
  4  5  1  0  0  0  0
  4 28  1  0  0  0  0
  4 29  1  0  0  0  0
  5  6  1  0  0  0  0
  5 30  1  0  0  0  0
  5 31  1  0  0  0  0
  6  7  1  0  0  0  0
  6 19  1  0  0  0  0
  6 32  1  0  0  0  0
  7  8  1  0  0  0  0
  7 33  1  0  0  0  0
  8  9  2  0  0  0  0
  8 10  1  0  0  0  0
 10 34  1  0  0  0  0
 10 35  1  0  0  0  0
 10 11  1  0  0  0  0
 11 12  1  0  0  0  0
 11 17  1  0  0  0  0
 12 13  2  0  0  0  0
 13 14  1  0  0  0  0
 13 15  1  0  0  0  0
 14 21  1  0  0  0  0
 15 36  1  0  0  0  0
 15 16  2  0  0  0  0
 16 37  1  0  0  0  0
 16 17  1  0  0  0  0
 17 18  2  0  0  0  0
 19 20  1  0  0  0  0
 19 38  1  0  0  0  0
 20 39  1  0  0  0  0
 20 40  1  0  0  0  0
 20 41  1  0  0  0  0
M  END
> <s_m_source_file>
AV-unprocessed.smi

> <i_m_source_file_index>
1464

> <i_lp_mmshare_version>
43012

> <i_f3d_flags>
0

> <s_epik_input>
W0NIM11bQ0BASF0xW0NIMl1bQ0gyXVtDSDJdW0NASF0oW0NASF0xW0NIM10pW05IXUMoPU8pW0NIMl1uMltuSF1jKD1PKVtjSF1bY0hdYzI9Tw==

> <s_epik_cmdline>
J2VwaWtfcHl0aG9uJywgJy1waCcsICc3LjAnLCAnLXRuJywgJzgnLCAnLW1hJywgJzIwMCcsICctbWV0YWxfYmluZGluZycsICctaW1hZScsICc8aW5maWxlLm1hZT4nLCAnLW9tYWUnLCAnPG91dGZpbGUubWFlPic=

> <r_lp_tautomer_probability>
0.9996

> <r_epik_Ionization_Penalty>
2.10335

> <r_epik_Ionization_Penalty_Charging>
3.98079e-08

> <r_epik_Ionization_Penalty_Neutral>
2.10335

> <r_epik_State_Penalty>
1.67957

> <r_epik_Charging_Adjusted_Penalty>
1.67957

> <i_epik_Tot_Q>
0

> <i_epik_Tot_abs_Q>
0

> <r_epik_Metal_State_Penalty>
1.67957

> <b_epik_Metal_Only>
0

> <s_lp_Force_Field>
OPLS_2005

> <r_lp_Energy>
25.7664

> <b_lp_Chiralities_Consistent>
1

> <s_lp_Variant>
AV-unprocessed.smi:1464-15

> <Gold.Version>
5.8.1

> <Gold.Id.Protein>
6NUR|6NUR_protein|mol2

> <Gold.PLP.Fitness>
46.1606

> <Gold.PLP.PLP>
-40.7025

> <Gold.PLP.part.hbond>
-3.0000

> <Gold.PLP.part.metal>
0.0000

> <Gold.PLP.part.buried>
-1.3278

> <Gold.PLP.part.nonpolar>
-35.7087

> <Gold.PLP.part.repulsive>
0.6499

> <Gold.PLP.ligand.clash>
0.0000

> <Gold.PLP.ligand.torsion>
0.2782

> <Gold.PLP.Chemscore.Hbond>
2.0000

> <Gold.PLP.Chemscore.CHOScore>
0.0000

> <Gold.PLP.Chemscore.Metal>
0.0000

> <Gold.Chemscore.Hbonds>
donor molecule, donor type, donor heavy atom, donor atom, acceptor molecule, acceptor atom, score
      L1  H    14    21       P1  7948  1.00
      P1  H  7997  8008       L1    18  1.00

> <Gold.PLP.Chemscore.Internal.Correction>
0.0145

> <Gold.Rescore>
     Score         DG    S(hbond)    S(metal)    S(lipo)     H(rot)  DE(clash)    DE(int)     intcor
     16.40     -19.15       1.97        0.00     109.14       2.22       0.41       2.34       ----

> <Gold.Chemscore.Fitness>
16.4005

> <Gold.Chemscore.DG>
-19.1536

> <Gold.Chemscore.ZeroCoef>
-5.4800

> <Gold.Chemscore.Hbond>
1.9741

> <Gold.Chemscore.Metal>
0.0000

> <Gold.Chemscore.Lipo>
109.1389

> <Gold.Chemscore.Internal_Hbond>
0.0000

> <Gold.Chemscore.DEClash>
0.4128

> <Gold.Chemscore.DEInternal>
2.3403

> <Gold.Chemscore.Rot>
2.2224

> <Gold.Chemscore.Internal.Correction>
   9.000000E+99

> <Gold.Chemscore.Hbonds>
donor molecule, donor type, donor heavy atom, donor atom, acceptor molecule, acceptor atom, score
      L1  H    14    21       P1  7948  0.97
      P1  H  7997  8008       L1    18  0.95

> <Gold.Chemscore.Hbond.Weighted>
-6.5936

> <Gold.Chemscore.Metal.Weighted>
-0.0000

> <Gold.Chemscore.Lipo.Weighted>
-12.7692

> <Gold.Chemscore.Internal_Hbond.Weighted>
0.0000

> <Gold.Chemscore.DEClash.Weighted>
0.4128

> <Gold.Chemscore.DEInternal.Weighted>
2.3403

> <Gold.Chemscore.Rot.Weighted>
5.6893

> <Gold.Chemscore.Internal.Correction.Weighted>
   9.000000E+99

> <Gold.Protein.RotatedTorsions>
[ 6907 6896 6895 6894 ] final  -78.03 input  -60.11 | X-H torsion
[ 7974 7965 7964 7962 ] final  165.28 input  175.53 | X-H torsion
[ 8008 7997 7996 7995 ] final  -20.06 input   59.86 | X-H torsion
[ 10167 10162 10161 10158 ] final -142.28 input  -65.29 | X-H torsion
[ 10718 10713 10712 10709 ] final  -56.79 input   66.30 | X-H torsion
[ 10763 10752 10751 10750 ] final  151.95 input  -60.55 | X-H torsion
[ 11005 11000 10999 10996 ] final   83.67 input  -57.11 | X-H torsion

> <Gold.Protein.ActiveResidues>
 VAL166  LYS551  ARG553  GLY616  TRP617  ASP618  TYR619  PRO620  LYS621  CYS622 
 ASP623  PHE694  ASN695  SER759  ASP760  ASP761  ALA762  ILE779  LEU786  VAL792 
 PHE793  MET794  SER795  GLU796  ALA797  LYS798  CYS799  TRP800  GLU811  SER814 

> <Gold.Protein.RotatedAtoms>
  150.6983  134.4333  159.5258 H   0  0  0  0  0  0  0  0  0  0  0  0  # atno 6907 bound_to 6896
  152.2056  134.8545  160.0512 H   0  0  0  0  0  0  0  0  0  0  0  0  # atno 6908 bound_to 6896
  151.9449  133.3614  159.4015 H   0  0  0  0  0  0  0  0  0  0  0  0  # atno 6909 bound_to 6896
  144.7509  139.8448  143.6366 H   0  0  0  0  0  0  0  0  0  0  0  0  # atno 7974 bound_to 7965
  154.4795  140.2072  155.9798 H   0  0  0  0  0  0  0  0  0  0  0  0  # atno 8008 bound_to 7997
  156.1142  140.3224  155.8085 H   0  0  0  0  0  0  0  0  0  0  0  0  # atno 8009 bound_to 7997
  155.4581  140.0522  157.2984 H   0  0  0  0  0  0  0  0  0  0  0  0  # atno 8010 bound_to 7997
  139.8104  143.7711  152.2663 H   0  0  0  0  0  0  0  0  0  0  0  0  # atno 10167 bound_to 10162
  156.1261  130.4162  150.0353 H   0  0  0  0  0  0  0  0  0  0  0  0  # atno 10718 bound_to 10713
  154.1121  135.2838  155.3228 H   0  0  0  0  0  0  0  0  0  0  0  0  # atno 10763 bound_to 10752
  154.6482  135.5378  153.7874 H   0  0  0  0  0  0  0  0  0  0  0  0  # atno 10764 bound_to 10752
  153.0342  135.6503  154.1279 H   0  0  0  0  0  0  0  0  0  0  0  0  # atno 10765 bound_to 10752
  139.9024  134.8161  156.2341 H   0  0  0  0  0  0  0  0  0  0  0  0  # atno 11005 bound_to 11000
  146.1457  139.4526  143.0080 LP  0  0  0  0  0  0  0  0  0  0  0  0  # atno 17320 bound_to 7965
  145.6948  141.0153  143.1536 LP  0  0  0  0  0  0  0  0  0  0  0  0  # atno 17321 bound_to 7965
  139.7858  144.7428  151.0024 LP  0  0  0  0  0  0  0  0  0  0  0  0  # atno 17342 bound_to 10162
  140.7818  143.4494  151.0435 LP  0  0  0  0  0  0  0  0  0  0  0  0  # atno 17343 bound_to 10162
  156.8279  130.9382  151.3638 LP  0  0  0  0  0  0  0  0  0  0  0  0  # atno 17370 bound_to 10713
  157.6442  130.8830  149.9506 LP  0  0  0  0  0  0  0  0  0  0  0  0  # atno 17371 bound_to 10713
  141.0327  133.6980  156.1458 LP  0  0  0  0  0  0  0  0  0  0  0  0  # atno 17394 bound_to 11000
  140.7073  134.4499  157.5583 LP  0  0  0  0  0  0  0  0  0  0  0  0  # atno 17395 bound_to 11000

$$$$
