AV-unprocessed.smi:249|AV-procd|sdf|1915|dock4
  -GOLD-   2262021 13D 1   1.00000     0.00000
 Structure written by MMmdl.
 64 67  0  0  0  0  0  0  0  0  2 V2000
  144.6593  131.7975  150.9031 C   0  0  0  0  0  0  0  0  0  0  0  0
  145.4887  132.5506  151.9558 C   0  0  0  0  0  0  0  0  0  0  0  0
  145.8329  131.7164  153.1437 N   0  3  1  0  0  0  0  0  0  0  0  0
  146.5531  130.4719  152.7466 C   0  0  0  0  0  0  0  0  0  0  0  0
  146.8474  129.5590  153.9473 C   0  0  0  0  0  0  0  0  0  0  0  0
  147.6848  130.2854  155.0131 C   0  0  1  0  0  0  0  0  0  0  0  0
  149.0491  130.5834  154.5468 N   0  0  0  0  0  0  0  0  0  0  0  0
  149.8704  129.4576  154.1128 C   0  0  0  0  0  0  0  0  0  0  0  0
  149.7668  131.4109  155.3385 C   0  0  0  0  0  0  0  0  0  0  0  0
  150.4832  130.8456  156.3407 N   0  0  0  0  0  0  0  0  0  0  0  0
  151.2191  131.6146  157.1491 C   0  0  0  0  0  0  0  0  0  0  0  0
  151.3729  132.9406  157.1287 N   0  0  0  0  0  0  0  0  0  0  0  0
  150.6453  133.5102  156.1251 C   0  0  0  0  0  0  0  0  0  0  0  0
  149.8203  132.8251  155.1905 C   0  0  0  0  0  0  0  0  0  0  0  0
  149.2371  133.7328  154.3148 N   0  0  0  0  0  0  0  0  0  0  0  0
  149.6941  134.8907  154.7082 C   0  0  0  0  0  0  0  0  0  0  0  0
  150.5508  134.8481  155.7849 N   0  0  0  0  0  0  0  0  0  0  0  0
  151.1971  135.9828  156.4219 C   0  0  0  0  0  0  0  0  0  0  0  0
  150.7618  137.3480  155.8317 C   0  0  2  0  0  0  0  0  0  0  0  0
  151.2735  137.5161  154.3778 C   0  0  0  0  0  0  0  0  0  0  0  0
  150.3636  138.2485  153.5843 O   0  0  0  0  0  0  0  0  0  0  0  0
  151.2263  138.5043  156.7596 C   0  0  2  0  0  0  0  0  0  0  0  0
  152.7401  138.6221  156.9181 C   0  0  0  0  0  0  0  0  0  0  0  0
  152.9425  139.2027  158.3209 C   0  0  0  0  0  0  0  0  0  0  0  0
  151.6436  139.3210  158.8842 O   0  0  0  0  0  0  0  0  0  0  0  0
  150.7897  138.4043  158.2222 C   0  0  0  0  0  0  0  0  0  0  0  0
  146.8791  131.5387  155.4183 C   0  0  0  0  0  0  0  0  0  0  0  0
  146.5613  132.4649  154.2204 C   0  0  2  0  0  0  0  0  0  0  0  0
  145.7787  133.6873  154.7445 C   0  0  0  0  0  0  0  0  0  0  0  0
  144.3139  132.4846  150.1301 H   0  0  0  0  0  0  0  0  0  0  0  0
  143.7773  131.3378  151.3501 H   0  0  0  0  0  0  0  0  0  0  0  0
  145.2314  131.0199  150.3984 H   0  0  0  0  0  0  0  0  0  0  0  0
  146.3980  132.9545  151.5085 H   0  0  0  0  0  0  0  0  0  0  0  0
  144.8858  133.4062  152.2490 H   0  0  0  0  0  0  0  0  0  0  0  0
  145.9590  129.8995  152.0364 H   0  0  0  0  0  0  0  0  0  0  0  0
  147.4813  130.7344  152.2366 H   0  0  0  0  0  0  0  0  0  0  0  0
  145.9034  129.2360  154.3885 H   0  0  0  0  0  0  0  0  0  0  0  0
  147.3391  128.6445  153.6154 H   0  0  0  0  0  0  0  0  0  0  0  0
  147.7685  129.6303  155.8810 H   0  0  0  0  0  0  0  0  0  0  0  0
  150.9266  129.7244  154.0435 H   0  0  0  0  0  0  0  0  0  0  0  0
  149.5575  129.1213  153.1245 H   0  0  0  0  0  0  0  0  0  0  0  0
  149.7772  128.6206  154.8057 H   0  0  0  0  0  0  0  0  0  0  0  0
  151.7630  131.0931  157.9231 H   0  0  0  0  0  0  0  0  0  0  0  0
  149.4199  135.8145  154.2194 H   0  0  0  0  0  0  0  0  0  0  0  0
  150.9638  135.9254  157.4848 H   0  0  0  0  0  0  0  0  0  0  0  0
  152.2783  135.8656  156.3390 H   0  0  0  0  0  0  0  0  0  0  0  0
  149.6708  137.3523  155.8039 H   0  0  0  0  0  0  0  0  0  0  0  0
  152.2489  138.0032  154.3640 H   0  0  0  0  0  0  0  0  0  0  0  0
  151.3975  136.5550  153.8811 H   0  0  0  0  0  0  0  0  0  0  0  0
  149.8143  137.6386  153.1157 H   0  0  0  0  0  0  0  0  0  0  0  0
  150.8521  139.4506  156.3651 H   0  0  0  0  0  0  0  0  0  0  0  0
  153.2166  137.6426  156.8582 H   0  0  0  0  0  0  0  0  0  0  0  0
  153.1816  139.2548  156.1473 H   0  0  0  0  0  0  0  0  0  0  0  0
  153.5497  138.5337  158.9322 H   0  0  0  0  0  0  0  0  0  0  0  0
  153.4306  140.1773  158.2970 H   0  0  0  0  0  0  0  0  0  0  0  0
  149.7445  138.6745  158.3735 H   0  0  0  0  0  0  0  0  0  0  0  0
  150.9518  137.4004  158.6187 H   0  0  0  0  0  0  0  0  0  0  0  0
  145.9414  131.2176  155.8745 H   0  0  0  0  0  0  0  0  0  0  0  0
  147.3962  132.0943  156.2013 H   0  0  0  0  0  0  0  0  0  0  0  0
  147.5017  132.8249  153.8006 H   0  0  0  0  0  0  0  0  0  0  0  0
  146.2576  134.1038  155.6313 H   0  0  0  0  0  0  0  0  0  0  0  0
  144.7581  133.4192  155.0195 H   0  0  0  0  0  0  0  0  0  0  0  0
  145.7370  134.5002  154.0207 H   0  0  0  0  0  0  0  0  0  0  0  0
  144.9566  131.4251  153.5524 H   0  0  0  0  0  0  0  0  0  0  0  0
  1  2  1  0  0  0  0
  1 30  1  0  0  0  0
  1 31  1  0  0  0  0
  1 32  1  0  0  0  0
  2  3  1  0  0  0  0
  2 33  1  0  0  0  0
  2 34  1  0  0  0  0
  3 28  1  0  0  0  0
  3  4  1  0  0  0  0
  3 64  1  0  0  0  0
  4  5  1  0  0  0  0
  4 35  1  0  0  0  0
  4 36  1  0  0  0  0
  5  6  1  0  0  0  0
  5 37  1  0  0  0  0
  5 38  1  0  0  0  0
  6  7  1  0  0  0  0
  6 27  1  0  0  0  0
  6 39  1  0  0  0  0
  7  8  1  0  0  0  0
  7  9  1  0  0  0  0
  8 40  1  0  0  0  0
  8 41  1  0  0  0  0
  8 42  1  0  0  0  0
  9 14  1  0  0  0  0
  9 10  2  0  0  0  0
 10 11  1  0  0  0  0
 11 12  2  0  0  0  0
 11 43  1  0  0  0  0
 12 13  1  0  0  0  0
 13 17  1  0  0  0  0
 13 14  2  0  0  0  0
 14 15  1  0  0  0  0
 15 16  2  0  0  0  0
 16 17  1  0  0  0  0
 16 44  1  0  0  0  0
 17 18  1  0  0  0  0
 18 19  1  0  0  0  0
 18 45  1  0  0  0  0
 18 46  1  0  0  0  0
 19 20  1  0  0  0  0
 19 22  1  0  0  0  0
 19 47  1  0  0  0  0
 20 21  1  0  0  0  0
 20 48  1  0  0  0  0
 20 49  1  0  0  0  0
 21 50  1  0  0  0  0
 22 26  1  0  0  0  0
 22 23  1  0  0  0  0
 22 51  1  0  0  0  0
 23 24  1  0  0  0  0
 23 52  1  0  0  0  0
 23 53  1  0  0  0  0
 24 25  1  0  0  0  0
 24 54  1  0  0  0  0
 24 55  1  0  0  0  0
 25 26  1  0  0  0  0
 26 56  1  0  0  0  0
 26 57  1  0  0  0  0
 27 28  1  0  0  0  0
 27 58  1  0  0  0  0
 27 59  1  0  0  0  0
 28 29  1  0  0  0  0
 28 60  1  0  0  0  0
 29 61  1  0  0  0  0
 29 62  1  0  0  0  0
 29 63  1  0  0  0  0
M  CHG  1   3   1
M  END
> <s_m_source_file>
AV-unprocessed.smi

> <i_m_source_file_index>
249

> <i_lp_mmshare_version>
43012

> <i_f3d_flags>
0

> <s_epik_input>
W0NIM11bQ0gyXU4xW0NIMl1bQ0gyXVtDQEhdKFtDSDJdW0NASF0xW0NIM10pTihbQ0gzXSljKG5bY0hdbjIpYyhjMjMpbltjSF1uM1tDSDJdW0NASF0oW0NIMl1bT0hdKVtDQEBIXTRbQ0gyXVtDSDJdT1tDSDJdNA==

> <s_epik_cmdline>
J2VwaWtfcHl0aG9uJywgJy1waCcsICc3LjAnLCAnLXRuJywgJzgnLCAnLW1hJywgJzIwMCcsICctbWV0YWxfYmluZGluZycsICctaW1hZScsICc8aW5maWxlLm1hZT4nLCAnLW9tYWUnLCAnPG91dGZpbGUubWFlPic=

> <r_lp_tautomer_probability>
1

> <r_epik_Ionization_Penalty>
0.00294688

> <r_epik_Ionization_Penalty_Charging>
0.00169971

> <r_epik_Ionization_Penalty_Neutral>
0.00124717

> <r_epik_State_Penalty>
-0

> <r_epik_Charging_Adjusted_Penalty>
0.00169971

> <i_epik_Tot_Q>
1

> <i_epik_Tot_abs_Q>
1

> <r_epik_Metal_State_Penalty>
-0

> <b_epik_Metal_Only>
0

> <s_lp_Force_Field>
OPLS_2005

> <r_lp_Energy>
57.0606

> <b_lp_Chiralities_Consistent>
1

> <s_lp_Variant>
AV-unprocessed.smi:249-18

> <Gold.Version>
5.8.1

> <Gold.Id.Protein>
6NUR|6NUR_protein|mol2

> <Gold.PLP.Fitness>
43.9430

> <Gold.PLP.PLP>
-36.6677

> <Gold.PLP.part.hbond>
-3.5880

> <Gold.PLP.part.metal>
0.0000

> <Gold.PLP.part.buried>
-5.3796

> <Gold.PLP.part.nonpolar>
-27.8950

> <Gold.PLP.part.repulsive>
0.1782

> <Gold.PLP.ligand.clash>
0.0000

> <Gold.PLP.ligand.torsion>
1.0763

> <Gold.PLP.Chemscore.Hbond>
1.9440

> <Gold.PLP.Chemscore.CHOScore>
1.0000

> <Gold.PLP.Chemscore.Metal>
0.0000

> <Gold.Chemscore.Hbonds>
donor molecule, donor type, donor heavy atom, donor atom, acceptor molecule, acceptor atom, score
      L1  H    21    50       P1  7948  1.00
      P1  H  6896  6907       L1    12  0.70
      L1  C    16    44       P1  7948  0.97

> <Gold.PLP.Chemscore.Internal.Correction>
0.5960

> <Gold.Rescore>
     Score         DG    S(hbond)    S(metal)    S(lipo)     H(rot)  DE(clash)    DE(int)     intcor
     10.95     -13.15       1.74        0.00      79.46       2.90       0.03       2.18       ----

> <Gold.Chemscore.Fitness>
10.9454

> <Gold.Chemscore.DG>
-13.1550

> <Gold.Chemscore.ZeroCoef>
-5.4800

> <Gold.Chemscore.Hbond>
1.7375

> <Gold.Chemscore.Metal>
0.0000

> <Gold.Chemscore.Lipo>
79.4635

> <Gold.Chemscore.Internal_Hbond>
0.0000

> <Gold.Chemscore.DEClash>
0.0341

> <Gold.Chemscore.DEInternal>
2.1755

> <Gold.Chemscore.Rot>
2.9006

> <Gold.Chemscore.Internal.Correction>
   9.000000E+99

> <Gold.Chemscore.Hbonds>
donor molecule, donor type, donor heavy atom, donor atom, acceptor molecule, acceptor atom, score
      L1  H    21    50       P1  7948  0.52
      P1  H  6896  6907       L1    12  0.20

> <Gold.Chemscore.Hbond.Weighted>
-5.8034

> <Gold.Chemscore.Metal.Weighted>
-0.0000

> <Gold.Chemscore.Lipo.Weighted>
-9.2972

> <Gold.Chemscore.Internal_Hbond.Weighted>
0.0000

> <Gold.Chemscore.DEClash.Weighted>
0.0341

> <Gold.Chemscore.DEInternal.Weighted>
2.1755

> <Gold.Chemscore.Rot.Weighted>
7.4256

> <Gold.Chemscore.Internal.Correction.Weighted>
   9.000000E+99

> <Gold.Protein.RotatedTorsions>
[ 6907 6896 6895 6894 ] final -156.44 input  -60.11 | X-H torsion
[ 7974 7965 7964 7962 ] final  -91.29 input  175.53 | X-H torsion
[ 8008 7997 7996 7995 ] final -143.30 input   59.86 | X-H torsion
[ 10167 10162 10161 10158 ] final  101.27 input  -65.29 | X-H torsion
[ 10718 10713 10712 10709 ] final  -56.37 input   66.30 | X-H torsion
[ 10763 10752 10751 10750 ] final -178.68 input  -60.55 | X-H torsion
[ 11005 11000 10999 10996 ] final   74.66 input  -57.11 | X-H torsion

> <Gold.Protein.ActiveResidues>
 VAL166  LYS551  ARG553  GLY616  TRP617  ASP618  TYR619  PRO620  LYS621  CYS622 
 ASP623  PHE694  ASN695  SER759  ASP760  ASP761  ALA762  ILE779  LEU786  VAL792 
 PHE793  MET794  SER795  GLU796  ALA797  LYS798  CYS799  TRP800  GLU811  SER814 

> <Gold.Protein.RotatedAtoms>
  151.2877  133.4180  159.2630 H   0  0  0  0  0  0  0  0  0  0  0  0  # atno 6907 bound_to 6896
  151.0305  134.9536  159.8118 H   0  0  0  0  0  0  0  0  0  0  0  0  # atno 6908 bound_to 6896
  152.5344  134.2838  159.9070 H   0  0  0  0  0  0  0  0  0  0  0  0  # atno 6909 bound_to 6896
  145.4151  140.9547  143.2212 H   0  0  0  0  0  0  0  0  0  0  0  0  # atno 7974 bound_to 7965
  155.5083  140.0581  157.2927 H   0  0  0  0  0  0  0  0  0  0  0  0  # atno 8008 bound_to 7997
  154.4561  140.1973  156.0324 H   0  0  0  0  0  0  0  0  0  0  0  0  # atno 8009 bound_to 7997
  156.0801  140.3248  155.7688 H   0  0  0  0  0  0  0  0  0  0  0  0  # atno 8010 bound_to 7997
  139.7453  144.7000  151.0513 H   0  0  0  0  0  0  0  0  0  0  0  0  # atno 10167 bound_to 10162
  156.1294  130.4160  150.0296 H   0  0  0  0  0  0  0  0  0  0  0  0  # atno 10718 bound_to 10713
  154.5447  135.2808  155.1064 H   0  0  0  0  0  0  0  0  0  0  0  0  # atno 10763 bound_to 10752
  154.2533  135.6335  153.5251 H   0  0  0  0  0  0  0  0  0  0  0  0  # atno 10764 bound_to 10752
  152.9987  135.5588  154.5996 H   0  0  0  0  0  0  0  0  0  0  0  0  # atno 10765 bound_to 10752
  139.9380  134.7452  156.1175 H   0  0  0  0  0  0  0  0  0  0  0  0  # atno 11005 bound_to 11000
  144.8282  139.5673  143.6955 LP  0  0  0  0  0  0  0  0  0  0  0  0  # atno 17320 bound_to 7965
  146.2685  139.6577  142.9313 LP  0  0  0  0  0  0  0  0  0  0  0  0  # atno 17321 bound_to 7965
  140.7791  143.4874  150.9938 LP  0  0  0  0  0  0  0  0  0  0  0  0  # atno 17342 bound_to 10162
  139.8562  143.7373  152.3176 LP  0  0  0  0  0  0  0  0  0  0  0  0  # atno 17343 bound_to 10162
  156.8212  130.9359  151.3641 LP  0  0  0  0  0  0  0  0  0  0  0  0  # atno 17370 bound_to 10713
  157.6473  130.8855  149.9564 LP  0  0  0  0  0  0  0  0  0  0  0  0  # atno 17371 bound_to 10713
  141.1003  133.6680  156.2738 LP  0  0  0  0  0  0  0  0  0  0  0  0  # atno 17394 bound_to 11000
  140.6024  134.5541  157.5520 LP  0  0  0  0  0  0  0  0  0  0  0  0  # atno 17395 bound_to 11000

$$$$
