AV-unprocessed.smi:3112|AV-procd|sdf|11843|dock2
  -GOLD-   2272017223D 1   1.00000     0.00000
 Structure written by MMmdl.
 37 37  0  0  0  0  0  0  0  0  2 V2000
  144.1180  135.8506  151.8752 C   0  0  0  0  0  0  0  0  0  0  0  0
  144.6675  137.1451  152.4902 C   0  0  0  0  0  0  0  0  0  0  0  0
  146.1714  137.3546  152.2364 C   0  0  1  0  0  0  0  0  0  0  0  0
  146.3980  137.3967  150.8408 O   0  0  0  0  0  0  0  0  0  0  0  0
  146.6792  138.6711  152.8470 C   0  0  0  0  0  0  0  0  0  0  0  0
  148.1562  138.7266  152.8447 N   0  3  0  0  0  0  0  0  0  0  0  0
  148.7720  139.1215  154.1313 C   0  0  1  0  0  0  0  0  0  0  0  0
  150.0839  138.3356  154.3101 C   0  0  0  0  0  0  0  0  0  0  0  0
  148.9704  140.6602  154.1885 C   0  0  1  0  0  0  0  0  0  0  0  0
  147.6443  141.4427  154.1798 C   0  0  0  0  0  0  0  0  0  0  0  0
  149.7702  141.0618  155.3391 N   0  0  0  0  0  0  0  0  0  0  0  0
  149.4015  141.8382  156.4202 C   0  0  0  0  0  0  0  0  0  0  0  0
  150.4861  141.9337  157.2438 C   0  0  0  0  0  0  0  0  0  0  0  0
  151.4849  141.1715  156.5764 C   0  0  0  0  0  0  0  0  0  0  0  0
  151.0531  140.6499  155.4396 N   0  0  0  0  0  0  0  0  0  0  0  0
  143.0588  135.7336  152.1050 H   0  0  0  0  0  0  0  0  0  0  0  0
  144.6404  134.9761  152.2641 H   0  0  0  0  0  0  0  0  0  0  0  0
  144.2207  135.8486  150.7898 H   0  0  0  0  0  0  0  0  0  0  0  0
  144.1023  137.9983  152.1126 H   0  0  0  0  0  0  0  0  0  0  0  0
  144.4865  137.1148  153.5653 H   0  0  0  0  0  0  0  0  0  0  0  0
  146.7283  136.5172  152.6589 H   0  0  0  0  0  0  0  0  0  0  0  0
  145.5861  137.6201  150.4102 H   0  0  0  0  0  0  0  0  0  0  0  0
  146.2674  139.5237  152.3051 H   0  0  0  0  0  0  0  0  0  0  0  0
  146.3377  138.7568  153.8795 H   0  0  0  0  0  0  0  0  0  0  0  0
  148.5004  137.8104  152.5962 H   0  0  0  0  0  0  0  0  0  0  0  0
  148.1122  138.8257  154.9490 H   0  0  0  0  0  0  0  0  0  0  0  0
  150.5331  138.5093  155.2881 H   0  0  0  0  0  0  0  0  0  0  0  0
  150.8180  138.6130  153.5530 H   0  0  0  0  0  0  0  0  0  0  0  0
  149.9102  137.2621  154.2261 H   0  0  0  0  0  0  0  0  0  0  0  0
  149.5231  140.9559  153.2943 H   0  0  0  0  0  0  0  0  0  0  0  0
  147.0889  141.2789  153.2564 H   0  0  0  0  0  0  0  0  0  0  0  0
  147.8239  142.5155  154.2582 H   0  0  0  0  0  0  0  0  0  0  0  0
  147.0021  141.1519  155.0116 H   0  0  0  0  0  0  0  0  0  0  0  0
  148.4091  142.2542  156.5124 H   0  0  0  0  0  0  0  0  0  0  0  0
  150.5562  142.4669  158.1804 H   0  0  0  0  0  0  0  0  0  0  0  0
  152.5031  140.9822  156.8823 H   0  0  0  0  0  0  0  0  0  0  0  0
  148.4517  139.3814  152.1342 H   0  0  0  0  0  0  0  0  0  0  0  0
  1  2  1  0  0  0  0
  1 16  1  0  0  0  0
  1 17  1  0  0  0  0
  1 18  1  0  0  0  0
  2  3  1  0  0  0  0
  2 19  1  0  0  0  0
  2 20  1  0  0  0  0
  3  4  1  0  0  0  0
  3  5  1  0  0  0  0
  3 21  1  0  0  0  0
  4 22  1  0  0  0  0
  5  6  1  0  0  0  0
  5 23  1  0  0  0  0
  5 24  1  0  0  0  0
  6  7  1  0  0  0  0
  6 25  1  0  0  0  0
  6 37  1  0  0  0  0
  7  8  1  0  0  0  0
  7  9  1  0  0  0  0
  7 26  1  0  0  0  0
  8 27  1  0  0  0  0
  8 28  1  0  0  0  0
  8 29  1  0  0  0  0
  9 10  1  0  0  0  0
  9 11  1  0  0  0  0
  9 30  1  0  0  0  0
 10 31  1  0  0  0  0
 10 32  1  0  0  0  0
 10 33  1  0  0  0  0
 11 15  1  0  0  0  0
 11 12  1  0  0  0  0
 12 13  2  0  0  0  0
 12 34  1  0  0  0  0
 13 14  1  0  0  0  0
 13 35  1  0  0  0  0
 14 15  2  0  0  0  0
 14 36  1  0  0  0  0
M  CHG  1   6   1
M  END
> <s_m_source_file>
AV-unprocessed.smi

> <i_m_source_file_index>
3112

> <i_lp_mmshare_version>
43012

> <i_f3d_flags>
0

> <s_epik_input>
W0NIM11bQ0gyXVtDQEhdKFtPSF0pW0NIMl1bTkhdW0NASF0oW0NIM10pW0NASF0oW0NIM10pbjFbY0hdW2NIXVtjSF1uMQ==

> <s_epik_cmdline>
J2VwaWtfcHl0aG9uJywgJy1waCcsICc3LjAnLCAnLXRuJywgJzgnLCAnLW1hJywgJzIwMCcsICctbWV0YWxfYmluZGluZycsICctaW1hZScsICc8aW5maWxlLm1hZT4nLCAnLW9tYWUnLCAnPG91dGZpbGUubWFlPic=

> <r_lp_tautomer_probability>
1

> <r_epik_Ionization_Penalty>
0.0154842

> <r_epik_Ionization_Penalty_Charging>
0.0154724

> <r_epik_Ionization_Penalty_Neutral>
1.17979e-05

> <r_epik_State_Penalty>
0.0121607

> <r_epik_Charging_Adjusted_Penalty>
0.0276331

> <i_epik_Tot_Q>
1

> <i_epik_Tot_abs_Q>
1

> <r_epik_Metal_State_Penalty>
0.0121863

> <b_epik_Metal_Only>
0

> <s_lp_Force_Field>
OPLS_2005

> <r_lp_Energy>
13.9739

> <b_lp_Chiralities_Consistent>
1

> <s_lp_Variant>
AV-unprocessed.smi:3112-8

> <Gold.Version>
5.8.1

> <Gold.Id.Protein>
6NUR|6NUR_protein|mol2

> <Gold.PLP.Fitness>
47.7684

> <Gold.PLP.PLP>
-30.8894

> <Gold.PLP.part.hbond>
-5.9034

> <Gold.PLP.part.metal>
0.0000

> <Gold.PLP.part.buried>
0.9004

> <Gold.PLP.part.nonpolar>
-25.7772

> <Gold.PLP.part.repulsive>
0.1127

> <Gold.PLP.ligand.clash>
0.0000

> <Gold.PLP.ligand.torsion>
1.0322

> <Gold.PLP.Chemscore.Hbond>
5.8480

> <Gold.PLP.Chemscore.CHOScore>
0.3535

> <Gold.PLP.Chemscore.Metal>
0.0000

> <Gold.Chemscore.Hbonds>
donor molecule, donor type, donor heavy atom, donor atom, acceptor molecule, acceptor atom, score
      L1  H     4    22       P1 10171  0.96
      L1  H     6    25       P1  7948  2.00
      L1  H     6    37       P1  7957  1.00
      P1  H  7954  7966       L1     4  0.94
      P1  H  7989  7998       L1    15  0.86
      L1  C    12    34       P1  8028  0.29

> <Gold.PLP.Chemscore.Internal.Correction>
0.3390

> <Gold.Rescore>
     Score         DG    S(hbond)    S(metal)    S(lipo)     H(rot)  DE(clash)    DE(int)     intcor
     18.88     -21.79       4.37        0.00      67.41       2.41       0.18       2.74       ----

> <Gold.Chemscore.Fitness>
18.8780

> <Gold.Chemscore.DG>
-21.7907

> <Gold.Chemscore.ZeroCoef>
-5.4800

> <Gold.Chemscore.Hbond>
4.3684

> <Gold.Chemscore.Metal>
0.0000

> <Gold.Chemscore.Lipo>
67.4094

> <Gold.Chemscore.Internal_Hbond>
0.0000

> <Gold.Chemscore.DEClash>
0.1751

> <Gold.Chemscore.DEInternal>
2.7376

> <Gold.Chemscore.Rot>
2.4089

> <Gold.Chemscore.Internal.Correction>
   9.000000E+99

> <Gold.Chemscore.Hbonds>
donor molecule, donor type, donor heavy atom, donor atom, acceptor molecule, acceptor atom, score
      L1  H     4    22       P1 10171  0.91
      L1  H     6    25       P1  7948  1.00
      L1  H     6    37       P1  7957  0.96
      P1  H  7954  7966       L1     4  0.84
      P1  H  7989  7998       L1    15  0.20

> <Gold.Chemscore.Hbond.Weighted>
-14.5904

> <Gold.Chemscore.Metal.Weighted>
-0.0000

> <Gold.Chemscore.Lipo.Weighted>
-7.8869

> <Gold.Chemscore.Internal_Hbond.Weighted>
0.0000

> <Gold.Chemscore.DEClash.Weighted>
0.1751

> <Gold.Chemscore.DEInternal.Weighted>
2.7376

> <Gold.Chemscore.Rot.Weighted>
6.1667

> <Gold.Chemscore.Internal.Correction.Weighted>
   9.000000E+99

> <Gold.Protein.RotatedTorsions>
[ 6907 6896 6895 6894 ] final -105.37 input  -60.11 | X-H torsion
[ 7974 7965 7964 7962 ] final  134.91 input  175.53 | X-H torsion
[ 8008 7997 7996 7995 ] final  163.11 input   59.86 | X-H torsion
[ 10167 10162 10161 10158 ] final   32.19 input  -65.29 | X-H torsion
[ 10718 10713 10712 10709 ] final  100.91 input   66.30 | X-H torsion
[ 10763 10752 10751 10750 ] final  135.88 input  -60.55 | X-H torsion
[ 11005 11000 10999 10996 ] final   -8.43 input  -57.11 | X-H torsion

> <Gold.Protein.ActiveResidues>
 VAL166  LYS551  ARG553  GLY616  TRP617  ASP618  TYR619  PRO620  LYS621  CYS622 
 ASP623  PHE694  ASN695  SER759  ASP760  ASP761  ALA762  ILE779  LEU786  VAL792 
 PHE793  MET794  SER795  GLU796  ALA797  LYS798  CYS799  TRP800  GLU811  SER814 

> <Gold.Protein.RotatedAtoms>
  150.7333  134.0137  159.3677 H   0  0  0  0  0  0  0  0  0  0  0  0  # atno 6907 bound_to 6896
  151.8098  135.0682  160.0421 H   0  0  0  0  0  0  0  0  0  0  0  0  # atno 6908 bound_to 6896
  152.3081  133.5687  159.5699 H   0  0  0  0  0  0  0  0  0  0  0  0  # atno 6909 bound_to 6896
  144.9716  139.4600  143.5430 H   0  0  0  0  0  0  0  0  0  0  0  0  # atno 7974 bound_to 7965
  156.1981  140.1732  156.7956 H   0  0  0  0  0  0  0  0  0  0  0  0  # atno 8008 bound_to 7997
  154.5556  140.0709  156.8769 H   0  0  0  0  0  0  0  0  0  0  0  0  # atno 8009 bound_to 7997
  155.2945  140.3357  155.4253 H   0  0  0  0  0  0  0  0  0  0  0  0  # atno 8010 bound_to 7997
  140.4521  144.1033  150.6194 H   0  0  0  0  0  0  0  0  0  0  0  0  # atno 10167 bound_to 10162
  157.6842  131.0711  150.5172 H   0  0  0  0  0  0  0  0  0  0  0  0  # atno 10718 bound_to 10713
  153.8473  135.3084  155.3430 H   0  0  0  0  0  0  0  0  0  0  0  0  # atno 10763 bound_to 10752
  154.7907  135.4784  154.0048 H   0  0  0  0  0  0  0  0  0  0  0  0  # atno 10764 bound_to 10752
  153.1539  135.6848  153.8933 H   0  0  0  0  0  0  0  0  0  0  0  0  # atno 10765 bound_to 10752
  140.7234  133.8809  155.8838 H   0  0  0  0  0  0  0  0  0  0  0  0  # atno 11005 bound_to 11000
  146.3383  139.8931  142.8806 LP  0  0  0  0  0  0  0  0  0  0  0  0  # atno 17320 bound_to 7965
  145.2551  141.0057  143.3858 LP  0  0  0  0  0  0  0  0  0  0  0  0  # atno 17321 bound_to 7965
  140.4195  143.2618  151.9733 LP  0  0  0  0  0  0  0  0  0  0  0  0  # atno 17342 bound_to 10162
  139.4797  144.5844  151.7879 LP  0  0  0  0  0  0  0  0  0  0  0  0  # atno 17343 bound_to 10162
  156.5486  130.4226  149.6118 LP  0  0  0  0  0  0  0  0  0  0  0  0  # atno 17370 bound_to 10713
  156.2922  130.7130  151.1982 LP  0  0  0  0  0  0  0  0  0  0  0  0  # atno 17371 bound_to 10713
  140.9984  134.1184  157.4341 LP  0  0  0  0  0  0  0  0  0  0  0  0  # atno 17394 bound_to 11000
  139.8843  135.0061  156.6358 LP  0  0  0  0  0  0  0  0  0  0  0  0  # atno 17395 bound_to 11000

$$$$
