AV-unprocessed.smi:2786|AV-procd|sdf|10754|dock7
  -GOLD-   2272015183D 1   1.00000     0.00000
 Structure written by MMmdl.
 26 27  0  0  0  0  0  0  0  0  1 V2000
  149.6202  139.1033  154.6783 C   0  0  0  0  0  0  0  0  0  0  0  0
  151.0340  138.9540  154.9635 N   0  0  0  0  0  0  0  0  0  0  0  0
  151.9165  138.1247  154.2841 C   0  0  0  0  0  0  0  0  0  0  0  0
  153.1477  138.2961  154.8685 C   0  0  0  0  0  0  0  0  0  0  0  0
  153.0422  139.2214  155.9007 N   0  0  0  0  0  0  0  0  0  0  0  0
  151.7580  139.5732  155.9172 C   0  0  0  0  0  0  0  0  0  0  0  0
  151.1688  140.5799  156.8644 C   0  0  2  0  0  0  0  0  0  0  0  0
  150.5740  141.7808  156.0973 C   0  0  0  0  0  0  0  0  0  0  0  0
  149.9926  142.7587  157.0198 N   0  0  0  0  0  0  0  0  0  0  0  0
  150.9862  143.2175  157.9916 C   0  0  0  0  0  0  0  0  0  0  0  0
  151.5763  142.0255  158.7666 C   0  0  0  0  0  0  0  0  0  0  0  0
  152.1569  141.0462  157.8458 N   0  0  0  0  0  0  0  0  0  0  0  0
  149.3600  138.5580  153.7706 H   0  0  0  0  0  0  0  0  0  0  0  0
  149.3796  140.1573  154.5356 H   0  0  0  0  0  0  0  0  0  0  0  0
  149.0336  138.7081  155.5079 H   0  0  0  0  0  0  0  0  0  0  0  0
  151.6046  137.4997  153.4600 H   0  0  0  0  0  0  0  0  0  0  0  0
  154.0924  137.8320  154.6270 H   0  0  0  0  0  0  0  0  0  0  0  0
  150.3591  140.0925  157.4082 H   0  0  0  0  0  0  0  0  0  0  0  0
  151.3490  142.2552  155.4934 H   0  0  0  0  0  0  0  0  0  0  0  0
  149.8095  141.4333  155.4021 H   0  0  0  0  0  0  0  0  0  0  0  0
  149.6446  143.5532  156.4926 H   0  0  0  0  0  0  0  0  0  0  0  0
  151.7845  143.7584  157.4816 H   0  0  0  0  0  0  0  0  0  0  0  0
  150.5288  143.9212  158.6872 H   0  0  0  0  0  0  0  0  0  0  0  0
  152.3384  142.3775  159.4619 H   0  0  0  0  0  0  0  0  0  0  0  0
  150.7983  141.5551  159.3696 H   0  0  0  0  0  0  0  0  0  0  0  0
  152.5041  140.2522  158.3740 H   0  0  0  0  0  0  0  0  0  0  0  0
  1  2  1  0  0  0  0
  1 13  1  0  0  0  0
  1 14  1  0  0  0  0
  1 15  1  0  0  0  0
  2  6  1  0  0  0  0
  2  3  1  0  0  0  0
  3  4  2  0  0  0  0
  3 16  1  0  0  0  0
  4  5  1  0  0  0  0
  4 17  1  0  0  0  0
  5  6  2  0  0  0  0
  6  7  1  0  0  0  0
  7 12  1  0  0  0  0
  7  8  1  0  0  0  0
  7 18  1  0  0  0  0
  8  9  1  0  0  0  0
  8 19  1  0  0  0  0
  8 20  1  0  0  0  0
  9 10  1  0  0  0  0
  9 21  1  0  0  0  0
 10 11  1  0  0  0  0
 10 22  1  0  0  0  0
 10 23  1  0  0  0  0
 11 12  1  0  0  0  0
 11 24  1  0  0  0  0
 11 25  1  0  0  0  0
 12 26  1  0  0  0  0
M  END
> <s_m_source_file>
AV-unprocessed.smi

> <i_m_source_file_index>
2786

> <i_lp_mmshare_version>
43012

> <i_f3d_flags>
0

> <s_epik_input>
W0NIM11uMVtjSF1bY0hdbmMxW0NAQEhdMltDSDJdW05IXVtDSDJdW0NIMl1bTkhdMg==

> <s_epik_cmdline>
J2VwaWtfcHl0aG9uJywgJy1waCcsICc3LjAnLCAnLXRuJywgJzgnLCAnLW1hJywgJzIwMCcsICctbWV0YWxfYmluZGluZycsICctaW1hZScsICc8aW5maWxlLm1hZT4nLCAnLW9tYWUnLCAnPG91dGZpbGUubWFlPic=

> <r_lp_tautomer_probability>
1

> <r_epik_Ionization_Penalty>
3.5722

> <r_epik_Ionization_Penalty_Charging>
1.66148

> <r_epik_Ionization_Penalty_Neutral>
1.91072

> <r_epik_State_Penalty>
2.63328

> <r_epik_Charging_Adjusted_Penalty>
4.29476

> <i_epik_Tot_Q>
0

> <i_epik_Tot_abs_Q>
0

> <r_epik_Metal_State_Penalty>
0.942173

> <b_epik_Metal_Only>
0

> <s_lp_Force_Field>
OPLS_2005

> <r_lp_Energy>
22.0451

> <b_lp_Chiralities_Consistent>
1

> <s_lp_Variant>
AV-unprocessed.smi:2786-7

> <Gold.Version>
5.8.1

> <Gold.Id.Protein>
6NUR|6NUR_protein|mol2

> <Gold.PLP.Fitness>
34.7125

> <Gold.PLP.PLP>
-25.7322

> <Gold.PLP.part.hbond>
-2.0000

> <Gold.PLP.part.metal>
0.0000

> <Gold.PLP.part.buried>
-3.2130

> <Gold.PLP.part.nonpolar>
-20.6020

> <Gold.PLP.part.repulsive>
0.0000

> <Gold.PLP.ligand.clash>
0.0000

> <Gold.PLP.ligand.torsion>
0.0173

> <Gold.PLP.Chemscore.Hbond>
2.0000

> <Gold.PLP.Chemscore.CHOScore>
1.0000

> <Gold.PLP.Chemscore.Metal>
0.0000

> <Gold.Chemscore.Hbonds>
donor molecule, donor type, donor heavy atom, donor atom, acceptor molecule, acceptor atom, score
      L1  H     9    21       P1  8028  1.00
      P1  H  7997  8010       L1     5  1.00
      L1  C     3    16       P1  7949  1.00

> <Gold.PLP.Chemscore.Internal.Correction>
0.0150

> <Gold.Rescore>
     Score         DG    S(hbond)    S(metal)    S(lipo)     H(rot)  DE(clash)    DE(int)     intcor
     15.93     -15.98       1.97        0.00      55.51       1.00       0.04       0.01       ----

> <Gold.Chemscore.Fitness>
15.9315

> <Gold.Chemscore.DG>
-15.9831

> <Gold.Chemscore.ZeroCoef>
-5.4800

> <Gold.Chemscore.Hbond>
1.9666

> <Gold.Chemscore.Metal>
0.0000

> <Gold.Chemscore.Lipo>
55.5090

> <Gold.Chemscore.Internal_Hbond>
0.0000

> <Gold.Chemscore.DEClash>
0.0440

> <Gold.Chemscore.DEInternal>
0.0076

> <Gold.Chemscore.Rot>
1.0000

> <Gold.Chemscore.Internal.Correction>
   9.000000E+99

> <Gold.Chemscore.Hbonds>
donor molecule, donor type, donor heavy atom, donor atom, acceptor molecule, acceptor atom, score
      L1  H     9    21       P1  8028  0.99
      P1  H  7997  8010       L1     5  0.85

> <Gold.Chemscore.Hbond.Weighted>
-6.5686

> <Gold.Chemscore.Metal.Weighted>
-0.0000

> <Gold.Chemscore.Lipo.Weighted>
-6.4946

> <Gold.Chemscore.Internal_Hbond.Weighted>
0.0000

> <Gold.Chemscore.DEClash.Weighted>
0.0440

> <Gold.Chemscore.DEInternal.Weighted>
0.0076

> <Gold.Chemscore.Rot.Weighted>
2.5600

> <Gold.Chemscore.Internal.Correction.Weighted>
   9.000000E+99

> <Gold.Protein.RotatedTorsions>
[ 6907 6896 6895 6894 ] final  -22.80 input  -60.11 | X-H torsion
[ 7974 7965 7964 7962 ] final -103.63 input  175.53 | X-H torsion
[ 8008 7997 7996 7995 ] final   94.84 input   59.86 | X-H torsion
[ 10167 10162 10161 10158 ] final    5.12 input  -65.29 | X-H torsion
[ 10718 10713 10712 10709 ] final  -94.04 input   66.30 | X-H torsion
[ 10763 10752 10751 10750 ] final   90.85 input  -60.55 | X-H torsion
[ 11005 11000 10999 10996 ] final -172.04 input  -57.11 | X-H torsion

> <Gold.Protein.ActiveResidues>
 VAL166  LYS551  ARG553  GLY616  TRP617  ASP618  TYR619  PRO620  LYS621  CYS622 
 ASP623  PHE694  ASN695  SER759  ASP760  ASP761  ALA762  ILE779  LEU786  VAL792 
 PHE793  MET794  SER795  GLU796  ALA797  LYS798  CYS799  TRP800  GLU811  SER814 

> <Gold.Protein.RotatedAtoms>
  151.2133  135.0490  159.8919 H   0  0  0  0  0  0  0  0  0  0  0  0  # atno 6907 bound_to 6896
  152.5422  134.0720  159.8208 H   0  0  0  0  0  0  0  0  0  0  0  0  # atno 6908 bound_to 6896
  151.0877  133.5292  159.2648 H   0  0  0  0  0  0  0  0  0  0  0  0  # atno 6909 bound_to 6896
  145.2534  140.9245  143.3082 H   0  0  0  0  0  0  0  0  0  0  0  0  # atno 7974 bound_to 7965
  156.0623  140.3294  155.7476 H   0  0  0  0  0  0  0  0  0  0  0  0  # atno 8008 bound_to 7997
  155.5435  140.0604  157.2882 H   0  0  0  0  0  0  0  0  0  0  0  0  # atno 8009 bound_to 7997
  154.4487  140.1906  156.0603 H   0  0  0  0  0  0  0  0  0  0  0  0  # atno 8010 bound_to 7997
  140.6499  143.7571  150.7558 H   0  0  0  0  0  0  0  0  0  0  0  0  # atno 10167 bound_to 10162
  156.0021  130.5051  150.5866 H   0  0  0  0  0  0  0  0  0  0  0  0  # atno 10718 bound_to 10713
  153.2019  135.4419  155.0277 H   0  0  0  0  0  0  0  0  0  0  0  0  # atno 10763 bound_to 10752
  154.8152  135.3312  154.7199 H   0  0  0  0  0  0  0  0  0  0  0  0  # atno 10764 bound_to 10752
  153.7644  135.6989  153.4974 H   0  0  0  0  0  0  0  0  0  0  0  0  # atno 10765 bound_to 10752
  140.5014  134.5890  157.4989 H   0  0  0  0  0  0  0  0  0  0  0  0  # atno 11005 bound_to 11000
  144.9483  139.4112  143.6415 LP  0  0  0  0  0  0  0  0  0  0  0  0  # atno 17320 bound_to 7965
  146.3296  139.8477  142.8879 LP  0  0  0  0  0  0  0  0  0  0  0  0  # atno 17321 bound_to 7965
  140.1220  143.4603  152.2307 LP  0  0  0  0  0  0  0  0  0  0  0  0  # atno 17342 bound_to 10162
  139.5713  144.7464  151.3884 LP  0  0  0  0  0  0  0  0  0  0  0  0  # atno 17343 bound_to 10162
  157.3738  131.0770  151.1535 LP  0  0  0  0  0  0  0  0  0  0  0  0  # atno 17370 bound_to 10713
  157.2280  130.6512  149.5838 LP  0  0  0  0  0  0  0  0  0  0  0  0  # atno 17371 bound_to 10713
  139.9711  134.7291  156.0040 LP  0  0  0  0  0  0  0  0  0  0  0  0  # atno 17394 bound_to 11000
  141.1433  133.6560  156.3794 LP  0  0  0  0  0  0  0  0  0  0  0  0  # atno 17395 bound_to 11000

$$$$
