#       Name:                AV-unprocessed.smi:2228
#       Creating user name   scv26
#       Creation time:       Fri Mar 27 12:22:55 2020


#       File generated by GOLD software.
#

@<TRIPOS>MOLECULE
AV-unprocessed.smi:2228
    45    46     1
SMALL
NO_CHARGES


@<TRIPOS>ATOM
      1 ****        -2.5959  -0.7668  -2.9173 C.3            1 S1                 0.0000
      2 ****        -3.5584  -1.4196  -2.1047 O.3            1 S1                 0.0000
      3 ****        -3.0214  -1.9684  -0.9088 C.3            1 S1                 0.0000
      4 ****        -4.0640  -2.8910  -0.2689 C.3            1 S1                 0.0000
      5 ****        -3.7714  -2.8215   1.2255 C.3            1 S1                 0.0000
      6 ****        -3.4002  -1.3575   1.4531 C.3            1 S1                 0.0000
      7 ****        -2.6984  -0.8984   0.1622 C.3            1 S1                 0.0000
      8 ****        -1.2559  -0.8076   0.3838 N.am           1 S1                 0.0000
      9 ****        -0.5002   0.2845   0.1995 C.2            1 S1                 0.0000
     10 ****        -0.9463   1.3666  -0.1826 O.2            1 S1                 0.0000
     11 ****         0.7898   0.0328   0.4843 N.am           1 S1                 0.0000
     12 ****         1.8972   0.9182   0.3982 C.ar           1 S1                 0.0000
     13 ****         3.1442   0.3545   0.7505 C.ar           1 S1                 0.0000
     14 ****         4.3070   1.1492   0.6938 C.ar           1 S1                 0.0000
     15 ****         5.6541   0.5636   1.0621 C.3            1 S1                 0.0000
     16 ****         4.1896   2.4914   0.2852 C.ar           1 S1                 0.0000
     17 ****         2.9092   2.9754  -0.0472 C.ar           1 S1                 0.0000
     18 ****         2.7104   4.4073  -0.4979 C.3            1 S1                 0.0000
     19 ****         1.7963   2.2129   0.0070 N.ar           1 S1                 0.0000
     20 ****        -3.0717  -0.4138  -3.8320 H              1 S1                 0.0000
     21 ****        -1.7896  -1.4446  -3.1998 H              1 S1                 0.0000
     22 ****        -2.1647   0.0981  -2.4138 H              1 S1                 0.0000
     23 ****        -2.1382  -2.5693  -1.1362 H              1 S1                 0.0000
     24 ****        -5.0675  -2.5046  -0.4543 H              1 S1                 0.0000
     25 ****        -4.0232  -3.9073  -0.6616 H              1 S1                 0.0000
     26 ****        -4.6166  -3.1411   1.8357 H              1 S1                 0.0000
     27 ****        -2.9215  -3.4613   1.4663 H              1 S1                 0.0000
     28 ****        -4.3126  -0.7756   1.5910 H              1 S1                 0.0000
     29 ****        -2.7952  -1.2189   2.3503 H              1 S1                 0.0000
     30 ****        -3.1148   0.0673  -0.1297 H              1 S1                 0.0000
     31 ****        -0.7979  -1.6493   0.7012 H              1 S1                 0.0000
     32 ****         1.0068  -0.9038   0.7910 H              1 S1                 0.0000
     33 ****         3.2118  -0.6787   1.0600 H              1 S1                 0.0000
     34 ****         6.4359   1.3235   1.0438 H              1 S1                 0.0000
     35 ****         5.9270  -0.2240   0.3594 H              1 S1                 0.0000
     36 ****         5.6198   0.1349   2.0640 H              1 S1                 0.0000
     37 ****         5.0572   3.1327   0.2268 H              1 S1                 0.0000
     38 ****         3.6325   4.9821  -0.4086 H              1 S1                 0.0000
     39 ****         1.9467   4.8950   0.1086 H              1 S1                 0.0000
     40 ****         2.3914   4.4339  -1.5401 H              1 S1                 0.0000
     41 ****        -3.9686  -2.1612  -2.6356 LP             1 S1                 0.0000
     42 ****        -4.2648  -0.7562  -1.8578 LP             1 S1                 0.0000
     43 ****        -1.9229   1.4654  -0.3737 LP             1 S1                 0.0000
     44 ****        -0.3321   2.1466  -0.3018 LP             1 S1                 0.0000
     45 ****         0.9070   2.5987  -0.2387 LP             1 S1                 0.0000
@<TRIPOS>BOND
    1    1    2 1     
    2    1   20 1     
    3    1   21 1     
    4    1   22 1     
    5    2    3 1     
    6    3    7 1     
    7    3    4 1     
    8    3   23 1     
    9    4    5 1     
   10    4   24 1     
   11    4   25 1     
   12    5    6 1     
   13    5   26 1     
   14    5   27 1     
   15    6    7 1     
   16    6   28 1     
   17    6   29 1     
   18    7    8 1     
   19    7   30 1     
   20    8    9 am    
   21    8   31 1     
   22    9   10 2     
   23    9   11 am    
   24   11   12 1     
   25   11   32 1     
   26   12   19 ar    
   27   12   13 ar    
   28   13   14 ar    
   29   13   33 1     
   30   14   15 1     
   31   14   16 ar    
   32   15   34 1     
   33   15   35 1     
   34   15   36 1     
   35   16   17 ar    
   36   16   37 1     
   37   17   18 1     
   38   17   19 ar    
   39   18   38 1     
   40   18   39 1     
   41   18   40 1     
   42    2   41 1     
   43    2   42 1     
   44   10   43 1     
   45   10   44 1     
   46   19   45 1     
@<TRIPOS>SUBSTRUCTURE
      1 S1             1
@<TRIPOS>SET
LONE_PAIRS      STATIC     ATOMS    <user>   **** ""
5 41 42 43 44 45
DONOR_HYDROGENS      STATIC     ATOMS    <user>   **** ""
2 31 32
ATOM$BLUE        STATIC     ATOMS    COLORGROUP SYSTEM
5 41 42 43 44 45
ATOM$RED        STATIC     ATOMS    COLORGROUP SYSTEM
2 31 32
