AV-unprocessed.smi:3246|AV-procd|sdf|12410|dock8
  -GOLD-   2272018293D 1   1.00000     0.00000
 Structure written by MMmdl.
 35 36  0  0  0  0  0  0  0  0  1 V2000
  152.9543  139.9637  157.4114 O   0  0  0  0  0  0  0  0  0  0  0  0
  152.1127  140.1825  158.2819 C   0  0  0  0  0  0  0  0  0  0  0  0
  152.5611  140.8273  159.6040 C   0  0  0  0  0  0  0  0  0  0  0  0
  152.4323  142.2860  159.6574 N   0  0  0  0  0  0  0  0  0  0  0  0
  152.3330  143.0663  158.4348 C   0  0  0  0  0  0  0  0  0  0  0  0
  151.9823  144.4878  158.8972 C   0  0  0  0  0  0  0  0  0  0  0  0
  152.2563  144.5147  160.4047 C   0  0  0  0  0  0  0  0  0  0  0  0
  152.4074  143.0454  160.7600 C   0  0  0  0  0  0  0  0  0  0  0  0
  152.4845  142.6426  161.9194 O   0  0  0  0  0  0  0  0  0  0  0  0
  150.8116  139.8846  158.1241 N   0  0  0  0  0  0  0  0  0  0  0  0
  150.2266  139.2746  156.9369 C   0  0  0  0  0  0  0  0  0  0  0  0
  150.5045  140.1103  155.6774 C   0  0  0  0  0  0  0  0  0  0  0  0
  149.2689  140.2648  154.8133 C   0  0  0  0  0  0  0  0  0  0  0  0
  148.6688  139.1469  154.1978 C   0  0  0  0  0  0  0  0  0  0  0  0
  147.5254  139.3449  153.4000 C   0  0  0  0  0  0  0  0  0  0  0  0
  147.0298  140.6558  153.2515 C   0  0  0  0  0  0  0  0  0  0  0  0
  147.5967  141.7336  153.8357 N   0  0  0  0  0  0  0  0  0  0  0  0
  148.6929  141.5351  154.5991 C   0  0  0  0  0  0  0  0  0  0  0  0
  151.9899  140.3814  160.4200 H   0  0  0  0  0  0  0  0  0  0  0  0
  153.6025  140.5556  159.7804 H   0  0  0  0  0  0  0  0  0  0  0  0
  153.2935  143.0490  157.9180 H   0  0  0  0  0  0  0  0  0  0  0  0
  151.5752  142.6602  157.7636 H   0  0  0  0  0  0  0  0  0  0  0  0
  152.5622  145.2408  158.3625 H   0  0  0  0  0  0  0  0  0  0  0  0
  150.9274  144.6926  158.7097 H   0  0  0  0  0  0  0  0  0  0  0  0
  153.1846  145.0395  160.6325 H   0  0  0  0  0  0  0  0  0  0  0  0
  151.4437  144.9794  160.9636 H   0  0  0  0  0  0  0  0  0  0  0  0
  150.1834  140.0909  158.8873 H   0  0  0  0  0  0  0  0  0  0  0  0
  150.6035  138.2576  156.8148 H   0  0  0  0  0  0  0  0  0  0  0  0
  149.1514  139.1901  157.0970 H   0  0  0  0  0  0  0  0  0  0  0  0
  150.8721  141.0987  155.9570 H   0  0  0  0  0  0  0  0  0  0  0  0
  151.2918  139.6471  155.0809 H   0  0  0  0  0  0  0  0  0  0  0  0
  149.0765  138.1558  154.3318 H   0  0  0  0  0  0  0  0  0  0  0  0
  147.0394  138.5123  152.9133 H   0  0  0  0  0  0  0  0  0  0  0  0
  146.1546  140.8435  152.6472 H   0  0  0  0  0  0  0  0  0  0  0  0
  149.1246  142.4167  155.0502 H   0  0  0  0  0  0  0  0  0  0  0  0
  1  2  2  0  0  0  0
  2  3  1  0  0  0  0
  2 10  1  0  0  0  0
  3  4  1  0  0  0  0
  3 19  1  0  0  0  0
  3 20  1  0  0  0  0
  4  8  1  0  0  0  0
  4  5  1  0  0  0  0
  5  6  1  0  0  0  0
  5 21  1  0  0  0  0
  5 22  1  0  0  0  0
  6  7  1  0  0  0  0
  6 23  1  0  0  0  0
  6 24  1  0  0  0  0
  7  8  1  0  0  0  0
  7 25  1  0  0  0  0
  7 26  1  0  0  0  0
  8  9  2  0  0  0  0
 10 11  1  0  0  0  0
 10 27  1  0  0  0  0
 11 12  1  0  0  0  0
 11 28  1  0  0  0  0
 11 29  1  0  0  0  0
 12 13  1  0  0  0  0
 12 30  1  0  0  0  0
 12 31  1  0  0  0  0
 13 18  1  0  0  0  0
 13 14  2  0  0  0  0
 14 15  1  0  0  0  0
 14 32  1  0  0  0  0
 15 16  2  0  0  0  0
 15 33  1  0  0  0  0
 16 17  1  0  0  0  0
 16 34  1  0  0  0  0
 17 18  2  0  0  0  0
 18 35  1  0  0  0  0
M  END
> <s_m_source_file>
AV-unprocessed.smi

> <i_m_source_file_index>
3246

> <i_lp_mmshare_version>
43012

> <i_f3d_flags>
0

> <s_epik_input>
Tz1DMVtDSDJdW0NIMl1bQ0gyXU4xW0NIMl1DKD1PKVtOSF1bQ0gyXVtDSDJdYzJbY0hdW2NIXVtjSF1uW2NIXTI=

> <s_epik_cmdline>
J2VwaWtfcHl0aG9uJywgJy1waCcsICc3LjAnLCAnLXRuJywgJzgnLCAnLW1hJywgJzIwMCcsICctbWV0YWxfYmluZGluZycsICctaW1hZScsICc8aW5maWxlLm1hZT4nLCAnLW9tYWUnLCAnPG91dGZpbGUubWFlPic=

> <r_epik_Ionization_Penalty>
0.0129263

> <r_epik_Ionization_Penalty_Charging>
0

> <r_epik_Ionization_Penalty_Neutral>
0.0129263

> <r_epik_State_Penalty>
0.0100328

> <r_epik_Charging_Adjusted_Penalty>
0.0100328

> <i_epik_Tot_Q>
0

> <i_epik_Tot_abs_Q>
0

> <r_epik_Metal_State_Penalty>
0.00981748

> <b_epik_Metal_Only>
0

> <s_lp_Force_Field>
OPLS_2005

> <r_lp_Energy>
11.4517

> <b_lp_Chiralities_Consistent>
1

> <s_lp_Variant>
AV-unprocessed.smi:3246-1

> <Gold.Version>
5.8.1

> <Gold.Id.Protein>
6NUR|6NUR_protein|mol2

> <Gold.PLP.Fitness>
44.8299

> <Gold.PLP.PLP>
-37.7495

> <Gold.PLP.part.hbond>
-0.9942

> <Gold.PLP.part.metal>
0.0000

> <Gold.PLP.part.buried>
-1.8690

> <Gold.PLP.part.nonpolar>
-34.2253

> <Gold.PLP.part.repulsive>
0.3895

> <Gold.PLP.ligand.clash>
0.0000

> <Gold.PLP.ligand.torsion>
0.9693

> <Gold.PLP.Chemscore.Hbond>
1.0000

> <Gold.PLP.Chemscore.CHOScore>
1.9980

> <Gold.PLP.Chemscore.Metal>
0.0000

> <Gold.Chemscore.Hbonds>
donor molecule, donor type, donor heavy atom, donor atom, acceptor molecule, acceptor atom, score
      P1  H  7997  8010       L1     1  1.00
      L1  C    16    34       P1 10175  1.00
      L1  C    18    35       P1  8028  1.00

> <Gold.PLP.Chemscore.Internal.Correction>
0.0250

> <Gold.Rescore>
     Score         DG    S(hbond)    S(metal)    S(lipo)     H(rot)  DE(clash)    DE(int)     intcor
     12.37     -14.45       0.99        0.00      88.86       1.85       0.13       1.96       ----

> <Gold.Chemscore.Fitness>
12.3656

> <Gold.Chemscore.DG>
-14.4498

> <Gold.Chemscore.ZeroCoef>
-5.4800

> <Gold.Chemscore.Hbond>
0.9903

> <Gold.Chemscore.Metal>
0.0000

> <Gold.Chemscore.Lipo>
88.8597

> <Gold.Chemscore.Internal_Hbond>
0.0000

> <Gold.Chemscore.DEClash>
0.1250

> <Gold.Chemscore.DEInternal>
1.9592

> <Gold.Chemscore.Rot>
1.8494

> <Gold.Chemscore.Internal.Correction>
   9.000000E+99

> <Gold.Chemscore.Hbonds>
donor molecule, donor type, donor heavy atom, donor atom, acceptor molecule, acceptor atom, score
      P1  H  7997  8010       L1     1  0.97

> <Gold.Chemscore.Hbond.Weighted>
-3.3076

> <Gold.Chemscore.Metal.Weighted>
-0.0000

> <Gold.Chemscore.Lipo.Weighted>
-10.3966

> <Gold.Chemscore.Internal_Hbond.Weighted>
0.0000

> <Gold.Chemscore.DEClash.Weighted>
0.1250

> <Gold.Chemscore.DEInternal.Weighted>
1.9592

> <Gold.Chemscore.Rot.Weighted>
4.7344

> <Gold.Chemscore.Internal.Correction.Weighted>
   9.000000E+99

> <Gold.Protein.RotatedTorsions>
[ 6907 6896 6895 6894 ] final   26.48 input  -60.11 | X-H torsion
[ 7974 7965 7964 7962 ] final  -94.76 input  175.53 | X-H torsion
[ 8008 7997 7996 7995 ] final   42.57 input   59.86 | X-H torsion
[ 10167 10162 10161 10158 ] final   81.89 input  -65.29 | X-H torsion
[ 10718 10713 10712 10709 ] final   57.74 input   66.30 | X-H torsion
[ 10763 10752 10751 10750 ] final  -32.69 input  -60.55 | X-H torsion
[ 11005 11000 10999 10996 ] final  168.86 input  -57.11 | X-H torsion

> <Gold.Protein.ActiveResidues>
 VAL166  LYS551  ARG553  GLY616  TRP617  ASP618  TYR619  PRO620  LYS621  CYS622 
 ASP623  PHE694  ASN695  SER759  ASP760  ASP761  ALA762  ILE779  LEU786  VAL792 
 PHE793  MET794  SER795  GLU796  ALA797  LYS798  CYS799  TRP800  GLU811  SER814 

> <Gold.Protein.RotatedAtoms>
  151.9880  134.9994  160.0560 H   0  0  0  0  0  0  0  0  0  0  0  0  # atno 6907 bound_to 6896
  152.1634  133.4592  159.4881 H   0  0  0  0  0  0  0  0  0  0  0  0  # atno 6908 bound_to 6896
  150.6891  134.1960  159.4347 H   0  0  0  0  0  0  0  0  0  0  0  0  # atno 6909 bound_to 6896
  145.3690  140.9503  143.2458 H   0  0  0  0  0  0  0  0  0  0  0  0  # atno 7974 bound_to 7965
  155.2884  140.3377  155.4254 H   0  0  0  0  0  0  0  0  0  0  0  0  # atno 8008 bound_to 7997
  156.2057  140.1750  156.7844 H   0  0  0  0  0  0  0  0  0  0  0  0  # atno 8009 bound_to 7997
  154.5618  140.0686  156.8815 H   0  0  0  0  0  0  0  0  0  0  0  0  # atno 8010 bound_to 7997
  139.9345  144.6130  150.8312 H   0  0  0  0  0  0  0  0  0  0  0  0  # atno 10167 bound_to 10162
  157.5539  130.8786  149.9006 H   0  0  0  0  0  0  0  0  0  0  0  0  # atno 10718 bound_to 10713
  153.8179  135.6877  153.4831 H   0  0  0  0  0  0  0  0  0  0  0  0  # atno 10763 bound_to 10752
  153.1588  135.4588  154.9740 H   0  0  0  0  0  0  0  0  0  0  0  0  # atno 10764 bound_to 10752
  154.7940  135.3312  154.7653 H   0  0  0  0  0  0  0  0  0  0  0  0  # atno 10765 bound_to 10752
  140.2916  134.7668  157.3843 H   0  0  0  0  0  0  0  0  0  0  0  0  # atno 11005 bound_to 11000
  144.8590  139.5206  143.6821 LP  0  0  0  0  0  0  0  0  0  0  0  0  # atno 17320 bound_to 7965
  146.2894  139.7095  142.9172 LP  0  0  0  0  0  0  0  0  0  0  0  0  # atno 17321 bound_to 7965
  140.7628  143.3208  151.2627 LP  0  0  0  0  0  0  0  0  0  0  0  0  # atno 17342 bound_to 10162
  139.6755  143.9945  152.2778 LP  0  0  0  0  0  0  0  0  0  0  0  0  # atno 17343 bound_to 10162
  156.0601  130.3701  150.1001 LP  0  0  0  0  0  0  0  0  0  0  0  0  # atno 17370 bound_to 10713
  156.9171  130.9671  151.3554 LP  0  0  0  0  0  0  0  0  0  0  0  0  # atno 17371 bound_to 10713
  140.1190  134.5245  155.8200 LP  0  0  0  0  0  0  0  0  0  0  0  0  # atno 17394 bound_to 11000
  141.2145  133.6750  156.6830 LP  0  0  0  0  0  0  0  0  0  0  0  0  # atno 17395 bound_to 11000

$$$$
