AV-unprocessed.smi:1942|AV-procd|sdf|7849|dock1
  -GOLD-   22720 9593D 1   1.00000     0.00000
 Structure written by MMmdl.
 35 37  0  0  0  0  0  0  0  0  1 V2000
  152.0393  142.4656  161.7508 O   0  0  0  0  0  0  0  0  0  0  0  0
  152.0517  143.2583  160.8090 C   0  0  0  0  0  0  0  0  0  0  0  0
  151.9351  144.7075  161.0094 C   0  0  0  0  0  0  0  0  0  0  0  0
  151.9555  145.5686  159.9727 C   0  0  0  0  0  0  0  0  0  0  0  0
  152.0943  145.0795  158.6213 C   0  0  0  0  0  0  0  0  0  0  0  0
  152.1984  143.7543  158.4335 C   0  0  0  0  0  0  0  0  0  0  0  0
  152.1778  142.8455  159.5102 N   0  0  0  0  0  0  0  0  0  0  0  0
  152.2981  141.4150  159.1829 C   0  0  0  0  0  0  0  0  0  0  0  0
  151.4920  141.0625  157.9552 C   0  0  0  0  0  0  0  0  0  0  0  0
  150.4115  141.7493  157.5705 N   0  0  0  0  0  0  0  0  0  0  0  0
  150.0092  141.0832  156.4310 C   0  0  0  0  0  0  0  0  0  0  0  0
  148.9285  141.3316  155.5553 C   0  0  0  0  0  0  0  0  0  0  0  0
  148.7094  140.4997  154.4376 C   0  0  0  0  0  0  0  0  0  0  0  0
  147.3857  140.8178  153.3780 Cl  0  0  0  0  0  0  0  0  0  0  0  0
  149.5660  139.4089  154.1822 C   0  0  0  0  0  0  0  0  0  0  0  0
  150.6483  139.1438  155.0435 C   0  0  0  0  0  0  0  0  0  0  0  0
  150.8627  139.9791  156.1563 C   0  0  0  0  0  0  0  0  0  0  0  0
  151.8094  139.9956  157.1759 N   0  0  0  0  0  0  0  0  0  0  0  0
  152.8963  139.0386  157.3386 C   0  0  0  0  0  0  0  0  0  0  0  0
  152.3991  137.5844  157.3943 C   0  0  0  0  0  0  0  0  0  0  0  0
  152.4465  136.9783  156.1200 O   0  0  0  0  0  0  0  0  0  0  0  0
  151.8309  145.0917  162.0135 H   0  0  0  0  0  0  0  0  0  0  0  0
  151.8684  146.6298  160.1536 H   0  0  0  0  0  0  0  0  0  0  0  0
  152.1165  145.7616  157.7841 H   0  0  0  0  0  0  0  0  0  0  0  0
  152.3110  143.3083  157.4559 H   0  0  0  0  0  0  0  0  0  0  0  0
  153.3488  141.1670  159.0320 H   0  0  0  0  0  0  0  0  0  0  0  0
  151.9611  140.7894  160.0103 H   0  0  0  0  0  0  0  0  0  0  0  0
  148.2676  142.1645  155.7448 H   0  0  0  0  0  0  0  0  0  0  0  0
  149.3929  138.7747  153.3251 H   0  0  0  0  0  0  0  0  0  0  0  0
  151.3059  138.3096  154.8502 H   0  0  0  0  0  0  0  0  0  0  0  0
  153.6284  139.1673  156.5418 H   0  0  0  0  0  0  0  0  0  0  0  0
  153.4206  139.2787  158.2641 H   0  0  0  0  0  0  0  0  0  0  0  0
  153.0137  137.0035  158.0823 H   0  0  0  0  0  0  0  0  0  0  0  0
  151.3752  137.5436  157.7666 H   0  0  0  0  0  0  0  0  0  0  0  0
  151.6181  137.1198  155.6873 H   0  0  0  0  0  0  0  0  0  0  0  0
  1  2  2  0  0  0  0
  2  7  1  0  0  0  0
  2  3  1  0  0  0  0
  3  4  2  0  0  0  0
  3 22  1  0  0  0  0
  4  5  1  0  0  0  0
  4 23  1  0  0  0  0
  5  6  2  0  0  0  0
  5 24  1  0  0  0  0
  6  7  1  0  0  0  0
  6 25  1  0  0  0  0
  7  8  1  0  0  0  0
  8  9  1  0  0  0  0
  8 26  1  0  0  0  0
  8 27  1  0  0  0  0
  9 18  1  0  0  0  0
  9 10  2  0  0  0  0
 10 11  1  0  0  0  0
 11 17  2  0  0  0  0
 11 12  1  0  0  0  0
 12 13  2  0  0  0  0
 12 28  1  0  0  0  0
 13 14  1  0  0  0  0
 13 15  1  0  0  0  0
 15 16  2  0  0  0  0
 15 29  1  0  0  0  0
 16 17  1  0  0  0  0
 16 30  1  0  0  0  0
 17 18  1  0  0  0  0
 18 19  1  0  0  0  0
 19 20  1  0  0  0  0
 19 31  1  0  0  0  0
 19 32  1  0  0  0  0
 20 21  1  0  0  0  0
 20 33  1  0  0  0  0
 20 34  1  0  0  0  0
 21 35  1  0  0  0  0
M  END
> <s_m_source_file>
AV-unprocessed.smi

> <i_m_source_file_index>
1942

> <i_lp_mmshare_version>
43012

> <i_f3d_flags>
0

> <s_epik_input>
Tz1jMVtjSF1bY0hdW2NIXVtjSF1uMVtDSDJdYyhuMiluKFtDSDJdW0NIMl1bT0hdKWMoYzIzKVtjSF1bY0hdYyhDbClbY0hdMw==

> <s_epik_cmdline>
J2VwaWtfcHl0aG9uJywgJy1waCcsICc3LjAnLCAnLXRuJywgJzgnLCAnLW1hJywgJzIwMCcsICctbWV0YWxfYmluZGluZycsICctaW1hZScsICc8aW5maWxlLm1hZT4nLCAnLW9tYWUnLCAnPG91dGZpbGUubWFlPic=

> <r_lp_tautomer_probability>
1

> <r_epik_Ionization_Penalty>
0.0394182

> <r_epik_Ionization_Penalty_Charging>
8.17328e-07

> <r_epik_Ionization_Penalty_Neutral>
0.0394174

> <r_epik_State_Penalty>
0.0331163

> <r_epik_Charging_Adjusted_Penalty>
0.0331171

> <i_epik_Tot_Q>
0

> <i_epik_Tot_abs_Q>
0

> <r_epik_Metal_State_Penalty>
3.40583e-05

> <b_epik_Metal_Only>
0

> <s_lp_Force_Field>
OPLS_2005

> <r_lp_Energy>
18.6161

> <b_lp_Chiralities_Consistent>
1

> <s_lp_Variant>
AV-unprocessed.smi:1942-1

> <Gold.Version>
5.8.1

> <Gold.Id.Protein>
6NUR|6NUR_protein|mol2

> <Gold.PLP.Fitness>
48.9335

> <Gold.PLP.PLP>
-45.4758

> <Gold.PLP.part.hbond>
-2.0000

> <Gold.PLP.part.metal>
0.0000

> <Gold.PLP.part.buried>
-2.6977

> <Gold.PLP.part.nonpolar>
-42.5894

> <Gold.PLP.part.repulsive>
0.1808

> <Gold.PLP.ligand.clash>
0.0000

> <Gold.PLP.ligand.torsion>
0.8757

> <Gold.PLP.Chemscore.Hbond>
1.7262

> <Gold.PLP.Chemscore.CHOScore>
0.0000

> <Gold.PLP.Chemscore.Metal>
0.0000

> <Gold.Chemscore.Hbonds>
donor molecule, donor type, donor heavy atom, donor atom, acceptor molecule, acceptor atom, score
      P1  H  6933  6945       L1     1  0.52
      P1  H 10752 10764       L1    21  0.87

> <Gold.PLP.Chemscore.Internal.Correction>
0.0306

> <Gold.Rescore>
     Score         DG    S(hbond)    S(metal)    S(lipo)     H(rot)  DE(clash)    DE(int)     intcor
     14.62     -18.21       1.52        0.00     115.12       2.27       0.48       3.11       ----

> <Gold.Chemscore.Fitness>
14.6217

> <Gold.Chemscore.DG>
-18.2138

> <Gold.Chemscore.ZeroCoef>
-5.4800

> <Gold.Chemscore.Hbond>
1.5234

> <Gold.Chemscore.Metal>
0.0000

> <Gold.Chemscore.Lipo>
115.1241

> <Gold.Chemscore.Internal_Hbond>
0.0000

> <Gold.Chemscore.DEClash>
0.4813

> <Gold.Chemscore.DEInternal>
3.1108

> <Gold.Chemscore.Rot>
2.2750

> <Gold.Chemscore.Internal.Correction>
   9.000000E+99

> <Gold.Chemscore.Hbonds>
donor molecule, donor type, donor heavy atom, donor atom, acceptor molecule, acceptor atom, score
      P1  H  6933  6945       L1     1  0.45
      P1  H 10752 10764       L1    21  0.19

> <Gold.Chemscore.Hbond.Weighted>
-5.0883

> <Gold.Chemscore.Metal.Weighted>
-0.0000

> <Gold.Chemscore.Lipo.Weighted>
-13.4695

> <Gold.Chemscore.Internal_Hbond.Weighted>
0.0000

> <Gold.Chemscore.DEClash.Weighted>
0.4813

> <Gold.Chemscore.DEInternal.Weighted>
3.1108

> <Gold.Chemscore.Rot.Weighted>
5.8240

> <Gold.Chemscore.Internal.Correction.Weighted>
   9.000000E+99

> <Gold.Protein.RotatedTorsions>
[ 6907 6896 6895 6894 ] final -133.76 input  -60.11 | X-H torsion
[ 7974 7965 7964 7962 ] final -128.69 input  175.53 | X-H torsion
[ 8008 7997 7996 7995 ] final   18.59 input   59.86 | X-H torsion
[ 10167 10162 10161 10158 ] final -160.49 input  -65.29 | X-H torsion
[ 10718 10713 10712 10709 ] final    3.01 input   66.30 | X-H torsion
[ 10763 10752 10751 10750 ] final  -33.19 input  -60.55 | X-H torsion
[ 11005 11000 10999 10996 ] final  -86.99 input  -57.11 | X-H torsion

> <Gold.Protein.ActiveResidues>
 VAL166  LYS551  ARG553  GLY616  TRP617  ASP618  TYR619  PRO620  LYS621  CYS622 
 ASP623  PHE694  ASN695  SER759  ASP760  ASP761  ALA762  ILE779  LEU786  VAL792 
 PHE793  MET794  SER795  GLU796  ALA797  LYS798  CYS799  TRP800  GLU811  SER814 

> <Gold.Protein.RotatedAtoms>
  150.9779  133.6276  159.2727 H   0  0  0  0  0  0  0  0  0  0  0  0  # atno 6907 bound_to 6896
  151.3541  135.0889  159.9422 H   0  0  0  0  0  0  0  0  0  0  0  0  # atno 6908 bound_to 6896
  152.5205  133.9365  159.7660 H   0  0  0  0  0  0  0  0  0  0  0  0  # atno 6909 bound_to 6896
  144.9646  140.7482  143.4708 H   0  0  0  0  0  0  0  0  0  0  0  0  # atno 7974 bound_to 7965
  154.9082  140.3010  155.5280 H   0  0  0  0  0  0  0  0  0  0  0  0  # atno 8008 bound_to 7997
  156.3016  140.2394  156.4054 H   0  0  0  0  0  0  0  0  0  0  0  0  # atno 8009 bound_to 7997
  154.8452  140.0412  157.1557 H   0  0  0  0  0  0  0  0  0  0  0  0  # atno 8010 bound_to 7997
  139.6536  144.0040  152.2178 H   0  0  0  0  0  0  0  0  0  0  0  0  # atno 10167 bound_to 10162
  156.8715  130.5622  149.5657 H   0  0  0  0  0  0  0  0  0  0  0  0  # atno 10718 bound_to 10713
  153.8261  135.6870  153.4820 H   0  0  0  0  0  0  0  0  0  0  0  0  # atno 10763 bound_to 10752
  153.1539  135.4607  154.9675 H   0  0  0  0  0  0  0  0  0  0  0  0  # atno 10764 bound_to 10752
  154.7907  135.3300  154.7729 H   0  0  0  0  0  0  0  0  0  0  0  0  # atno 10765 bound_to 10752
  141.1623  133.7486  156.9242 H   0  0  0  0  0  0  0  0  0  0  0  0  # atno 11005 bound_to 11000
  145.2649  139.1977  143.4872 LP  0  0  0  0  0  0  0  0  0  0  0  0  # atno 17320 bound_to 7965
  146.3364  140.2585  142.8601 LP  0  0  0  0  0  0  0  0  0  0  0  0  # atno 17321 bound_to 7965
  139.9760  144.6461  150.7944 LP  0  0  0  0  0  0  0  0  0  0  0  0  # atno 17342 bound_to 10162
  140.7549  143.3035  151.3019 LP  0  0  0  0  0  0  0  0  0  0  0  0  # atno 17343 bound_to 10162
  156.0724  130.5754  150.9408 LP  0  0  0  0  0  0  0  0  0  0  0  0  # atno 17370 bound_to 10713
  157.6193  131.0931  150.8653 LP  0  0  0  0  0  0  0  0  0  0  0  0  # atno 17371 bound_to 10713
  140.1430  134.9281  157.2492 LP  0  0  0  0  0  0  0  0  0  0  0  0  # atno 17394 bound_to 11000
  140.2813  134.3346  155.7342 LP  0  0  0  0  0  0  0  0  0  0  0  0  # atno 17395 bound_to 11000

$$$$
