AV-unprocessed.smi:2405|AV-procd|sdf|9512|dock4
  -GOLD-   2272013143D 1   1.00000     0.00000
 Structure written by MMmdl.
 36 37  0  0  0  0  0  0  0  0  2 V2000
  150.6313  144.9152  158.8353 C   0  0  0  0  0  0  0  0  0  0  0  0
  152.1520  144.7723  158.9593 C   0  0  0  0  0  0  0  0  0  0  0  0
  152.5492  143.8480  160.0606 C   0  0  0  0  0  0  0  0  0  0  0  0
  153.2603  142.7348  159.8660 N   0  0  0  0  0  0  0  0  0  0  0  0
  153.5568  142.0671  161.0592 C   0  0  0  0  0  0  0  0  0  0  0  0
  154.3688  140.8026  161.0344 C   0  0  0  0  0  0  0  0  0  0  0  0
  153.8004  139.8113  160.0148 C   0  0  0  0  0  0  0  0  0  0  0  0
  153.6746  140.1461  158.8371 O   0  0  0  0  0  0  0  0  0  0  0  0
  153.4613  138.5979  160.4785 N   0  0  0  0  0  0  0  0  0  0  0  0
  152.9656  137.4932  159.6643 C   0  0  2  0  0  0  0  0  0  0  0  0
  153.8906  137.2598  158.4552 C   0  0  0  0  0  0  0  0  0  0  0  0
  153.0925  137.6956  157.2224 C   0  0  0  0  0  0  0  0  0  0  0  0
  151.6261  137.4338  157.5870 C   0  0  1  0  0  0  0  0  0  0  0  0
  151.2514  135.9650  157.3020 C   0  0  0  0  0  0  0  0  0  0  0  0
  150.7746  135.2714  158.2280 O   0  0  0  0  0  0  0  0  0  0  0  0
  151.4640  135.5545  156.1398 O   0  5  0  0  0  0  0  0  0  0  0  0
  151.5698  137.8041  159.0811 C   0  0  0  0  0  0  0  0  0  0  0  0
  153.0453  142.6942  162.1690 C   0  0  0  0  0  0  0  0  0  0  0  0
  152.1941  144.1567  161.7562 S   0  0  0  0  0  0  0  0  0  0  0  0
  150.3691  145.5948  158.0243 H   0  0  0  0  0  0  0  0  0  0  0  0
  150.1973  145.3102  159.7546 H   0  0  0  0  0  0  0  0  0  0  0  0
  150.1612  143.9530  158.6301 H   0  0  0  0  0  0  0  0  0  0  0  0
  152.5684  144.3995  158.0232 H   0  0  0  0  0  0  0  0  0  0  0  0
  152.6049  145.7485  159.1367 H   0  0  0  0  0  0  0  0  0  0  0  0
  155.4073  141.0137  160.7767 H   0  0  0  0  0  0  0  0  0  0  0  0
  154.3838  140.3393  162.0218 H   0  0  0  0  0  0  0  0  0  0  0  0
  153.5968  138.4114  161.4613 H   0  0  0  0  0  0  0  0  0  0  0  0
  152.9305  136.5808  160.2629 H   0  0  0  0  0  0  0  0  0  0  0  0
  154.8438  137.7850  158.5295 H   0  0  0  0  0  0  0  0  0  0  0  0
  154.1193  136.1959  158.3783 H   0  0  0  0  0  0  0  0  0  0  0  0
  153.2359  138.7630  157.0500 H   0  0  0  0  0  0  0  0  0  0  0  0
  153.4174  137.1773  156.3189 H   0  0  0  0  0  0  0  0  0  0  0  0
  150.9577  138.0696  157.0047 H   0  0  0  0  0  0  0  0  0  0  0  0
  150.7748  137.2970  159.6296 H   0  0  0  0  0  0  0  0  0  0  0  0
  151.3545  138.8714  159.1596 H   0  0  0  0  0  0  0  0  0  0  0  0
  153.1295  142.3923  163.2023 H   0  0  0  0  0  0  0  0  0  0  0  0
  1  2  1  0  0  0  0
  1 20  1  0  0  0  0
  1 21  1  0  0  0  0
  1 22  1  0  0  0  0
  2  3  1  0  0  0  0
  2 23  1  0  0  0  0
  2 24  1  0  0  0  0
  3 19  1  0  0  0  0
  3  4  2  0  0  0  0
  4  5  1  0  0  0  0
  5  6  1  0  0  0  0
  5 18  2  0  0  0  0
  6  7  1  0  0  0  0
  6 25  1  0  0  0  0
  6 26  1  0  0  0  0
  7  8  2  0  0  0  0
  7  9  1  0  0  0  0
  9 10  1  0  0  0  0
  9 27  1  0  0  0  0
 10 17  1  0  0  0  0
 10 11  1  0  0  0  0
 10 28  1  0  0  0  0
 11 12  1  0  0  0  0
 11 29  1  0  0  0  0
 11 30  1  0  0  0  0
 12 13  1  0  0  0  0
 12 31  1  0  0  0  0
 12 32  1  0  0  0  0
 13 14  1  0  0  0  0
 13 17  1  0  0  0  0
 13 33  1  0  0  0  0
 14 15  2  0  0  0  0
 14 16  1  0  0  0  0
 17 34  1  0  0  0  0
 17 35  1  0  0  0  0
 18 19  1  0  0  0  0
 18 36  1  0  0  0  0
M  CHG  1  16  -1
M  END
> <s_m_source_file>
AV-unprocessed.smi

> <i_m_source_file_index>
2405

> <i_lp_mmshare_version>
43012

> <i_f3d_flags>
0

> <s_epik_input>
W0NIM11bQ0gyXWMxbmMoW2NIXXMxKVtDSDJdQyg9TylbTkhdW0NAQEhdMltDSDJdW0NIMl1bQ0BIXShbQ0gyXTIpQyg9TylbT0hd

> <s_epik_cmdline>
J2VwaWtfcHl0aG9uJywgJy1waCcsICc3LjAnLCAnLXRuJywgJzgnLCAnLW1hJywgJzIwMCcsICctbWV0YWxfYmluZGluZycsICctaW1hZScsICc8aW5maWxlLm1hZT4nLCAnLW9tYWUnLCAnPG91dGZpbGUubWFlPic=

> <r_epik_Ionization_Penalty>
0.000544611

> <r_epik_Ionization_Penalty_Charging>
0.000481685

> <r_epik_Ionization_Penalty_Neutral>
6.29266e-05

> <r_epik_State_Penalty>
0.00029893

> <r_epik_Charging_Adjusted_Penalty>
0.000780614

> <i_epik_Tot_Q>
-1

> <i_epik_Tot_abs_Q>
1

> <r_epik_Metal_State_Penalty>
-0

> <b_epik_Metal_Only>
0

> <s_lp_Force_Field>
OPLS_2005

> <r_lp_Energy>
8.39141

> <b_lp_Chiralities_Consistent>
1

> <s_lp_Variant>
AV-unprocessed.smi:2405-1

> <Gold.Version>
5.8.1

> <Gold.Id.Protein>
6NUR|6NUR_protein|mol2

> <Gold.PLP.Fitness>
50.6485

> <Gold.PLP.PLP>
-38.7188

> <Gold.PLP.part.hbond>
-3.0000

> <Gold.PLP.part.metal>
0.0000

> <Gold.PLP.part.buried>
-5.1087

> <Gold.PLP.part.nonpolar>
-30.5422

> <Gold.PLP.part.repulsive>
0.1406

> <Gold.PLP.ligand.clash>
0.0000

> <Gold.PLP.ligand.torsion>
0.2886

> <Gold.PLP.Chemscore.Hbond>
4.1520

> <Gold.PLP.Chemscore.CHOScore>
0.0000

> <Gold.PLP.Chemscore.Metal>
0.0000

> <Gold.Chemscore.Hbonds>
donor molecule, donor type, donor heavy atom, donor atom, acceptor molecule, acceptor atom, score
      P1  H  6896  6908       L1    15  0.70
      P1  H  7997  8010       L1     8  0.94
      P1  H 10752 10765       L1    16  2.00

> <Gold.PLP.Chemscore.Internal.Correction>
0.0509

> <Gold.Rescore>
     Score         DG    S(hbond)    S(metal)    S(lipo)     H(rot)  DE(clash)    DE(int)     intcor
     16.59     -20.96       2.65        0.00     101.77       2.06       0.00       4.37       ----

> <Gold.Chemscore.Fitness>
16.5856

> <Gold.Chemscore.DG>
-20.9586

> <Gold.Chemscore.ZeroCoef>
-5.4800

> <Gold.Chemscore.Hbond>
2.6510

> <Gold.Chemscore.Metal>
0.0000

> <Gold.Chemscore.Lipo>
101.7673

> <Gold.Chemscore.Internal_Hbond>
0.0000

> <Gold.Chemscore.DEClash>
0.0029

> <Gold.Chemscore.DEInternal>
4.3701

> <Gold.Chemscore.Rot>
2.0635

> <Gold.Chemscore.Internal.Correction>
   9.000000E+99

> <Gold.Chemscore.Hbonds>
donor molecule, donor type, donor heavy atom, donor atom, acceptor molecule, acceptor atom, score
      P1  H  6896  6908       L1    15  0.35
      P1  H  7997  8010       L1     8  0.88
      P1  H 10752 10765       L1    16  0.97

> <Gold.Chemscore.Hbond.Weighted>
-8.8543

> <Gold.Chemscore.Metal.Weighted>
-0.0000

> <Gold.Chemscore.Lipo.Weighted>
-11.9068

> <Gold.Chemscore.Internal_Hbond.Weighted>
0.0000

> <Gold.Chemscore.DEClash.Weighted>
0.0029

> <Gold.Chemscore.DEInternal.Weighted>
4.3701

> <Gold.Chemscore.Rot.Weighted>
5.2825

> <Gold.Chemscore.Internal.Correction.Weighted>
   9.000000E+99

> <Gold.Protein.RotatedTorsions>
[ 6907 6896 6895 6894 ] final  166.42 input  -60.11 | X-H torsion
[ 7974 7965 7964 7962 ] final   53.03 input  175.53 | X-H torsion
[ 8008 7997 7996 7995 ] final   26.86 input   59.86 | X-H torsion
[ 10167 10162 10161 10158 ] final  -95.58 input  -65.29 | X-H torsion
[ 10718 10713 10712 10709 ] final    2.94 input   66.30 | X-H torsion
[ 10763 10752 10751 10750 ] final -154.11 input  -60.55 | X-H torsion
[ 11005 11000 10999 10996 ] final   46.39 input  -57.11 | X-H torsion

> <Gold.Protein.ActiveResidues>
 VAL166  LYS551  ARG553  GLY616  TRP617  ASP618  TYR619  PRO620  LYS621  CYS622 
 ASP623  PHE694  ASN695  SER759  ASP760  ASP761  ALA762  ILE779  LEU786  VAL792 
 PHE793  MET794  SER795  GLU796  ALA797  LYS798  CYS799  TRP800  GLU811  SER814 

> <Gold.Protein.RotatedAtoms>
  151.8791  133.3491  159.3760 H   0  0  0  0  0  0  0  0  0  0  0  0  # atno 6907 bound_to 6896
  150.7132  134.5036  159.5582 H   0  0  0  0  0  0  0  0  0  0  0  0  # atno 6908 bound_to 6896
  152.2584  134.8060  160.0485 H   0  0  0  0  0  0  0  0  0  0  0  0  # atno 6909 bound_to 6896
  145.9753  139.4189  143.0165 H   0  0  0  0  0  0  0  0  0  0  0  0  # atno 7974 bound_to 7965
  155.0339  140.3161  155.4748 H   0  0  0  0  0  0  0  0  0  0  0  0  # atno 8008 bound_to 7997
  156.2868  140.2175  156.5404 H   0  0  0  0  0  0  0  0  0  0  0  0  # atno 8009 bound_to 7997
  154.7347  140.0478  157.0745 H   0  0  0  0  0  0  0  0  0  0  0  0  # atno 8010 bound_to 7997
  140.3027  143.3153  152.0231 H   0  0  0  0  0  0  0  0  0  0  0  0  # atno 10167 bound_to 10162
  156.8704  130.5618  149.5657 H   0  0  0  0  0  0  0  0  0  0  0  0  # atno 10718 bound_to 10713
  154.7881  135.3197  154.7840 H   0  0  0  0  0  0  0  0  0  0  0  0  # atno 10763 bound_to 10752
  153.8535  135.6860  153.4794 H   0  0  0  0  0  0  0  0  0  0  0  0  # atno 10764 bound_to 10752
  153.1540  135.4687  154.9618 H   0  0  0  0  0  0  0  0  0  0  0  0  # atno 10765 bound_to 10752
  140.1373  134.4628  155.8475 H   0  0  0  0  0  0  0  0  0  0  0  0  # atno 11005 bound_to 11000
  145.7848  140.9840  143.1080 LP  0  0  0  0  0  0  0  0  0  0  0  0  # atno 17320 bound_to 7965
  144.6847  139.9609  143.7480 LP  0  0  0  0  0  0  0  0  0  0  0  0  # atno 17321 bound_to 7965
  139.4911  144.6444  151.6810 LP  0  0  0  0  0  0  0  0  0  0  0  0  # atno 17342 bound_to 10162
  140.5637  144.0225  150.6182 LP  0  0  0  0  0  0  0  0  0  0  0  0  # atno 17343 bound_to 10162
  156.0729  130.5758  150.9418 LP  0  0  0  0  0  0  0  0  0  0  0  0  # atno 17370 bound_to 10713
  157.6199  131.0930  150.8642 LP  0  0  0  0  0  0  0  0  0  0  0  0  # atno 17371 bound_to 10713
  141.2180  133.6819  156.7182 LP  0  0  0  0  0  0  0  0  0  0  0  0  # atno 17394 bound_to 11000
  140.2766  134.8350  157.3895 LP  0  0  0  0  0  0  0  0  0  0  0  0  # atno 17395 bound_to 11000

$$$$
