#       Name:                AV-unprocessed.smi:614
#       Creating user name   scv26
#       Creation time:       Thu Mar 26 23:59:27 2020


#       File generated by GOLD software.
#

@<TRIPOS>MOLECULE
AV-unprocessed.smi:614
    49    50     1
SMALL
NO_CHARGES


@<TRIPOS>ATOM
      1 ****        -4.5464   5.0529  -0.3341 C.3            1 S1                 0.0000
      2 ****        -4.2254   3.6478  -0.2041 N.pl3          1 S1                 0.0000
      3 ****        -5.0863   2.5735  -0.1033 C.2            1 S1                 0.0000
      4 ****        -4.3225   1.4449  -0.0047 C.2            1 S1                 0.0000
      5 ****        -2.9918   1.9446  -0.0564 C.2            1 S1                 0.0000
      6 ****        -1.8838   1.0615   0.0112 N.am           1 S1                 0.0000
      7 ****        -0.5784   1.3785  -0.0331 C.2            1 S1                 0.0000
      8 ****        -0.1332   2.5242  -0.1006 O.2            1 S1                 0.0000
      9 ****         0.1849   0.2733   0.0077 N.am           1 S1                 0.0000
     10 ****         1.6513   0.1594  -0.0324 C.3            1 S1                 0.0000
     11 ****         2.1954   0.8224  -1.3240 C.3            1 S1                 0.0000
     12 ****         2.2569   0.8997   1.1963 C.3            1 S1                 0.0000
     13 ****         3.6461   0.6736   1.3280 O.3            1 S1                 0.0000
     14 ****         2.0020  -1.3711  -0.0193 C.3            1 S1                 0.0000
     15 ****         1.4368  -2.1470  -1.2408 C.3            1 S1                 0.0000
     16 ****         1.8450  -3.6287  -1.2299 C.3            1 S1                 0.0000
     17 ****         1.4082  -4.3172   0.0687 C.3            1 S1                 0.0000
     18 ****         1.9721  -3.5786   1.2886 C.3            1 S1                 0.0000
     19 ****         1.5658  -2.0961   1.2826 C.3            1 S1                 0.0000
     20 ****        -2.9320   3.2639  -0.1758 N.2            1 S1                 0.0000
     21 ****        -5.6136   5.2096  -0.1749 H              1 S1                 0.0000
     22 ****        -4.2812   5.3988  -1.3335 H              1 S1                 0.0000
     23 ****        -3.9901   5.6310   0.4046 H              1 S1                 0.0000
     24 ****        -6.1590   2.6997  -0.1111 H              1 S1                 0.0000
     25 ****        -4.6643   0.4245   0.0876 H              1 S1                 0.0000
     26 ****        -2.1099   0.0806   0.0828 H              1 S1                 0.0000
     27 ****        -0.3062  -0.6064   0.0657 H              1 S1                 0.0000
     28 ****         3.2441   0.5711  -1.4853 H              1 S1                 0.0000
     29 ****         2.1348   1.9099  -1.2808 H              1 S1                 0.0000
     30 ****         1.6412   0.5142  -2.2101 H              1 S1                 0.0000
     31 ****         2.1084   1.9767   1.1191 H              1 S1                 0.0000
     32 ****         1.7674   0.5984   2.1224 H              1 S1                 0.0000
     33 ****         3.9614   1.1700   2.0677 H              1 S1                 0.0000
     34 ****         3.0880  -1.4575  -0.0793 H              1 S1                 0.0000
     35 ****         0.3486  -2.0794  -1.2626 H              1 S1                 0.0000
     36 ****         1.7903  -1.7113  -2.1741 H              1 S1                 0.0000
     37 ****         1.4054  -4.1410  -2.0861 H              1 S1                 0.0000
     38 ****         2.9268  -3.7107  -1.3430 H              1 S1                 0.0000
     39 ****         0.3192  -4.3413   0.1243 H              1 S1                 0.0000
     40 ****         1.7428  -5.3549   0.0724 H              1 S1                 0.0000
     41 ****         1.6221  -4.0557   2.2045 H              1 S1                 0.0000
     42 ****         3.0599  -3.6590   1.2949 H              1 S1                 0.0000
     43 ****         2.0139  -1.6252   2.1565 H              1 S1                 0.0000
     44 ****         0.4857  -2.0218   1.4125 H              1 S1                 0.0000
     45 ****        -0.7596   3.3033  -0.1263 LP             1 S1                 0.0000
     46 ****         0.8548   2.6758  -0.1296 LP             1 S1                 0.0000
     47 ****         4.1166   0.9705   0.4971 LP             1 S1                 0.0000
     48 ****         3.8168  -0.3003   1.4777 LP             1 S1                 0.0000
     49 ****        -2.1171   3.8407  -0.2319 LP             1 S1                 0.0000
@<TRIPOS>BOND
    1    1    2 1     
    2    1   21 1     
    3    1   22 1     
    4    1   23 1     
    5    2   20 1     
    6    2    3 1     
    7    3    4 2     
    8    3   24 1     
    9    4    5 1     
   10    4   25 1     
   11    5    6 1     
   12    5   20 2     
   13    6    7 am    
   14    6   26 1     
   15    7    8 2     
   16    7    9 am    
   17    9   10 1     
   18    9   27 1     
   19   10   11 1     
   20   10   12 1     
   21   10   14 1     
   22   11   28 1     
   23   11   29 1     
   24   11   30 1     
   25   12   13 1     
   26   12   31 1     
   27   12   32 1     
   28   13   33 1     
   29   14   19 1     
   30   14   15 1     
   31   14   34 1     
   32   15   16 1     
   33   15   35 1     
   34   15   36 1     
   35   16   17 1     
   36   16   37 1     
   37   16   38 1     
   38   17   18 1     
   39   17   39 1     
   40   17   40 1     
   41   18   19 1     
   42   18   41 1     
   43   18   42 1     
   44   19   43 1     
   45   19   44 1     
   46    8   45 1     
   47    8   46 1     
   48   13   47 1     
   49   13   48 1     
   50   20   49 1     
@<TRIPOS>SUBSTRUCTURE
      1 S1             1
@<TRIPOS>SET
LONE_PAIRS      STATIC     ATOMS    <user>   **** ""
5 45 46 47 48 49
DONOR_HYDROGENS      STATIC     ATOMS    <user>   **** ""
3 26 27 33
ATOM$BLUE        STATIC     ATOMS    COLORGROUP SYSTEM
5 45 46 47 48 49
ATOM$RED        STATIC     ATOMS    COLORGROUP SYSTEM
3 26 27 33
