AV-unprocessed.smi:2171|AV-procd|sdf|8829|dock9
  -GOLD-   2272012 23D 1   1.00000     0.00000
 Structure written by MMmdl.
 39 41  0  0  0  0  0  0  0  0  2 V2000
  149.5036  141.2557  154.0333 O   0  0  0  0  0  0  0  0  0  0  0  0
  149.7229  140.1596  154.5474 C   0  0  0  0  0  0  0  0  0  0  0  0
  151.0198  139.9239  155.3253 C   0  0  0  0  0  0  0  0  0  0  0  0
  151.1115  140.8009  156.4815 N   0  0  0  0  0  0  0  0  0  0  0  0
  150.8294  142.1494  156.5585 C   0  0  0  0  0  0  0  0  0  0  0  0
  151.0783  142.5444  157.8416 C   0  0  0  0  0  0  0  0  0  0  0  0
  151.5096  141.3510  158.4859 C   0  0  0  0  0  0  0  0  0  0  0  0
  151.5282  140.3096  157.6699 N   0  0  0  0  0  0  0  0  0  0  0  0
  148.8616  139.1309  154.4899 N   0  0  0  0  0  0  0  0  0  0  0  0
  147.5220  139.1815  153.9100 C   0  0  1  0  0  0  0  0  0  0  0  0
  147.5232  139.6192  152.4327 C   0  0  0  0  0  0  0  0  0  0  0  0
  146.5023  138.6999  151.7541 C   0  0  0  0  0  0  0  0  0  0  0  0
  146.6362  137.4482  152.5081 N   0  3  2  0  0  0  0  0  0  0  0  0
  145.6313  136.3864  152.2995 C   0  0  0  0  0  0  0  0  0  0  0  0
  146.0955  135.1209  153.0524 C   0  0  0  0  0  0  0  0  0  0  0  0
  146.4224  135.4087  154.5354 C   0  0  0  0  0  0  0  0  0  0  0  0
  147.3754  136.6133  154.6900 C   0  0  0  0  0  0  0  0  0  0  0  0
  146.7917  137.8166  153.9258 C   0  0  1  0  0  0  0  0  0  0  0  0
  151.0642  138.8864  155.6587 H   0  0  0  0  0  0  0  0  0  0  0  0
  151.8843  140.0944  154.6814 H   0  0  0  0  0  0  0  0  0  0  0  0
  150.4819  142.7098  155.7029 H   0  0  0  0  0  0  0  0  0  0  0  0
  150.9666  143.5347  158.2579 H   0  0  0  0  0  0  0  0  0  0  0  0
  151.8080  141.2112  159.5145 H   0  0  0  0  0  0  0  0  0  0  0  0
  149.1345  138.2658  154.9335 H   0  0  0  0  0  0  0  0  0  0  0  0
  146.9194  139.8993  154.4703 H   0  0  0  0  0  0  0  0  0  0  0  0
  147.2805  140.6749  152.3070 H   0  0  0  0  0  0  0  0  0  0  0  0
  148.5060  139.4530  151.9884 H   0  0  0  0  0  0  0  0  0  0  0  0
  145.4917  139.0948  151.8706 H   0  0  0  0  0  0  0  0  0  0  0  0
  146.7013  138.5602  150.6912 H   0  0  0  0  0  0  0  0  0  0  0  0
  144.6546  136.7166  152.6564 H   0  0  0  0  0  0  0  0  0  0  0  0
  145.5334  136.1754  151.2340 H   0  0  0  0  0  0  0  0  0  0  0  0
  145.3347  134.3431  152.9814 H   0  0  0  0  0  0  0  0  0  0  0  0
  146.9862  134.7223  152.5646 H   0  0  0  0  0  0  0  0  0  0  0  0
  145.4953  135.6134  155.0726 H   0  0  0  0  0  0  0  0  0  0  0  0
  146.8577  134.5247  155.0022 H   0  0  0  0  0  0  0  0  0  0  0  0
  147.4972  136.8510  155.7470 H   0  0  0  0  0  0  0  0  0  0  0  0
  148.3644  136.3594  154.3052 H   0  0  0  0  0  0  0  0  0  0  0  0
  145.7934  138.0109  154.3242 H   0  0  0  0  0  0  0  0  0  0  0  0
  147.5240  137.0592  152.2240 H   0  0  0  0  0  0  0  0  0  0  0  0
  1  2  2  0  0  0  0
  2  3  1  0  0  0  0
  2  9  1  0  0  0  0
  3  4  1  0  0  0  0
  3 19  1  0  0  0  0
  3 20  1  0  0  0  0
  4  8  1  0  0  0  0
  4  5  1  0  0  0  0
  5  6  2  0  0  0  0
  5 21  1  0  0  0  0
  6  7  1  0  0  0  0
  6 22  1  0  0  0  0
  7  8  2  0  0  0  0
  7 23  1  0  0  0  0
  9 10  1  0  0  0  0
  9 24  1  0  0  0  0
 10 18  1  0  0  0  0
 10 11  1  0  0  0  0
 10 25  1  0  0  0  0
 11 12  1  0  0  0  0
 11 26  1  0  0  0  0
 11 27  1  0  0  0  0
 12 13  1  0  0  0  0
 12 28  1  0  0  0  0
 12 29  1  0  0  0  0
 13 18  1  0  0  0  0
 13 14  1  0  0  0  0
 13 39  1  0  0  0  0
 14 15  1  0  0  0  0
 14 30  1  0  0  0  0
 14 31  1  0  0  0  0
 15 16  1  0  0  0  0
 15 32  1  0  0  0  0
 15 33  1  0  0  0  0
 16 17  1  0  0  0  0
 16 34  1  0  0  0  0
 16 35  1  0  0  0  0
 17 18  1  0  0  0  0
 17 36  1  0  0  0  0
 17 37  1  0  0  0  0
 18 38  1  0  0  0  0
M  CHG  1  13   1
M  END
> <s_m_source_file>
AV-unprocessed.smi

> <i_m_source_file_index>
2171

> <i_lp_mmshare_version>
43012

> <i_f3d_flags>
0

> <s_epik_input>
bjFbY0hdW2NIXVtjSF1uMVtDSDJdQyg9TylbTkhdW0NASF0oW0NIMl1bQ0gyXTIpW0NAQEhdKE4yMylbQ0gyXVtDSDJdW0NIMl1bQ0gyXTM=

> <s_epik_cmdline>
J2VwaWtfcHl0aG9uJywgJy1waCcsICc3LjAnLCAnLXRuJywgJzgnLCAnLW1hJywgJzIwMCcsICctbWV0YWxfYmluZGluZycsICctaW1hZScsICc8aW5maWxlLm1hZT4nLCAnLW9tYWUnLCAnPG91dGZpbGUubWFlPic=

> <r_lp_tautomer_probability>
1

> <r_epik_Ionization_Penalty>
0.00204179

> <r_epik_Ionization_Penalty_Charging>
0.00203239

> <r_epik_Ionization_Penalty_Neutral>
9.40205e-06

> <r_epik_State_Penalty>
0.00138983

> <r_epik_Charging_Adjusted_Penalty>
0.00342221

> <i_epik_Tot_Q>
1

> <i_epik_Tot_abs_Q>
1

> <r_epik_Metal_State_Penalty>
-0

> <b_epik_Metal_Only>
0

> <s_lp_Force_Field>
OPLS_2005

> <r_lp_Energy>
40.8782

> <b_lp_Chiralities_Consistent>
1

> <s_lp_Variant>
AV-unprocessed.smi:2171-4

> <Gold.Version>
5.8.1

> <Gold.Id.Protein>
6NUR|6NUR_protein|mol2

> <Gold.PLP.Fitness>
37.5428

> <Gold.PLP.PLP>
-26.7922

> <Gold.PLP.part.hbond>
-3.0000

> <Gold.PLP.part.metal>
0.0000

> <Gold.PLP.part.buried>
4.2076

> <Gold.PLP.part.nonpolar>
-27.7121

> <Gold.PLP.part.repulsive>
0.5364

> <Gold.PLP.ligand.clash>
0.0000

> <Gold.PLP.ligand.torsion>
0.2198

> <Gold.PLP.Chemscore.Hbond>
2.7840

> <Gold.PLP.Chemscore.CHOScore>
0.9447

> <Gold.PLP.Chemscore.Metal>
0.0000

> <Gold.Chemscore.Hbonds>
donor molecule, donor type, donor heavy atom, donor atom, acceptor molecule, acceptor atom, score
      L1  H    13    39       P1  7948  2.00
      P1  H  8011  8017       L1     1  0.67
      L1  C     5    21       P1  8028  0.90

> <Gold.PLP.Chemscore.Internal.Correction>
0.0043

> <Gold.Rescore>
     Score         DG    S(hbond)    S(metal)    S(lipo)     H(rot)  DE(clash)    DE(int)     intcor
     11.92     -13.78       1.47        0.00      60.57       1.44       1.54       0.32       ----

> <Gold.Chemscore.Fitness>
11.9192

> <Gold.Chemscore.DG>
-13.7768

> <Gold.Chemscore.ZeroCoef>
-5.4800

> <Gold.Chemscore.Hbond>
1.4666

> <Gold.Chemscore.Metal>
0.0000

> <Gold.Chemscore.Lipo>
60.5748

> <Gold.Chemscore.Internal_Hbond>
0.0000

> <Gold.Chemscore.DEClash>
1.5405

> <Gold.Chemscore.DEInternal>
0.3171

> <Gold.Chemscore.Rot>
1.4410

> <Gold.Chemscore.Internal.Correction>
   9.000000E+99

> <Gold.Chemscore.Hbonds>
donor molecule, donor type, donor heavy atom, donor atom, acceptor molecule, acceptor atom, score
      L1  H    13    39       P1  7948  1.00
      P1  H  8011  8017       L1     1  0.66

> <Gold.Chemscore.Hbond.Weighted>
-4.8985

> <Gold.Chemscore.Metal.Weighted>
-0.0000

> <Gold.Chemscore.Lipo.Weighted>
-7.0872

> <Gold.Chemscore.Internal_Hbond.Weighted>
0.0000

> <Gold.Chemscore.DEClash.Weighted>
1.5405

> <Gold.Chemscore.DEInternal.Weighted>
0.3171

> <Gold.Chemscore.Rot.Weighted>
3.6889

> <Gold.Chemscore.Internal.Correction.Weighted>
   9.000000E+99

> <Gold.Protein.RotatedTorsions>
[ 6907 6896 6895 6894 ] final  -58.41 input  -60.11 | X-H torsion
[ 7974 7965 7964 7962 ] final  -27.97 input  175.53 | X-H torsion
[ 8008 7997 7996 7995 ] final   88.96 input   59.86 | X-H torsion
[ 10167 10162 10161 10158 ] final  -58.71 input  -65.29 | X-H torsion
[ 10718 10713 10712 10709 ] final   71.16 input   66.30 | X-H torsion
[ 10763 10752 10751 10750 ] final   50.74 input  -60.55 | X-H torsion
[ 11005 11000 10999 10996 ] final   12.79 input  -57.11 | X-H torsion

> <Gold.Protein.ActiveResidues>
 VAL166  LYS551  ARG553  GLY616  TRP617  ASP618  TYR619  PRO620  LYS621  CYS622 
 ASP623  PHE694  ASN695  SER759  ASP760  ASP761  ALA762  ILE779  LEU786  VAL792 
 PHE793  MET794  SER795  GLU796  ALA797  LYS798  CYS799  TRP800  GLU811  SER814 

> <Gold.Protein.RotatedAtoms>
  150.8009  134.7101  159.6598 H   0  0  0  0  0  0  0  0  0  0  0  0  # atno 6907 bound_to 6896
  152.4125  134.6095  160.0031 H   0  0  0  0  0  0  0  0  0  0  0  0  # atno 6908 bound_to 6896
  151.6334  133.3293  159.3150 H   0  0  0  0  0  0  0  0  0  0  0  0  # atno 6909 bound_to 6896
  146.1321  140.5221  142.8689 H   0  0  0  0  0  0  0  0  0  0  0  0  # atno 7974 bound_to 7965
  155.9941  140.3366  155.6782 H   0  0  0  0  0  0  0  0  0  0  0  0  # atno 8008 bound_to 7997
  155.6380  140.0692  157.2646 H   0  0  0  0  0  0  0  0  0  0  0  0  # atno 8009 bound_to 7997
  154.4228  140.1748  156.1530 H   0  0  0  0  0  0  0  0  0  0  0  0  # atno 8010 bound_to 7997
  140.6181  143.2409  151.5549 H   0  0  0  0  0  0  0  0  0  0  0  0  # atno 10167 bound_to 10162
  157.6437  130.9514  150.0751 H   0  0  0  0  0  0  0  0  0  0  0  0  # atno 10718 bound_to 10713
  152.9784  135.5869  154.4301 H   0  0  0  0  0  0  0  0  0  0  0  0  # atno 10763 bound_to 10752
  154.3915  135.2768  155.2153 H   0  0  0  0  0  0  0  0  0  0  0  0  # atno 10764 bound_to 10752
  154.4024  135.6100  153.5959 H   0  0  0  0  0  0  0  0  0  0  0  0  # atno 10765 bound_to 10752
  140.4880  134.0868  155.7765 H   0  0  0  0  0  0  0  0  0  0  0  0  # atno 11005 bound_to 11000
  144.7701  140.5619  143.6676 LP  0  0  0  0  0  0  0  0  0  0  0  0  # atno 17320 bound_to 7965
  145.5238  139.1476  143.3537 LP  0  0  0  0  0  0  0  0  0  0  0  0  # atno 17321 bound_to 7965
  139.5415  144.2635  152.1360 LP  0  0  0  0  0  0  0  0  0  0  0  0  # atno 17342 bound_to 10162
  140.1849  144.4809  150.6509 LP  0  0  0  0  0  0  0  0  0  0  0  0  # atno 17343 bound_to 10162
  156.1744  130.3647  149.9121 LP  0  0  0  0  0  0  0  0  0  0  0  0  # atno 17370 bound_to 10713
  156.7089  130.8962  151.3607 LP  0  0  0  0  0  0  0  0  0  0  0  0  # atno 17371 bound_to 10713
  141.1498  133.8989  157.2126 LP  0  0  0  0  0  0  0  0  0  0  0  0  # atno 17394 bound_to 11000
  139.9786  135.0106  156.9693 LP  0  0  0  0  0  0  0  0  0  0  0  0  # atno 17395 bound_to 11000

$$$$
