AV-unprocessed.smi:285|AV-procd|sdf|2165|dock8
  -GOLD-   2262021523D 1   1.00000     0.00000
 Structure written by MMmdl.
 31 33  0  0  0  0  0  0  0  0  1 V2000
  155.0319  140.2356  160.6707 N   0  0  0  0  0  0  0  0  0  0  0  0
  153.9636  140.9836  160.3615 C   0  0  0  0  0  0  0  0  0  0  0  0
  153.6196  141.9897  161.1991 N   0  0  0  0  0  0  0  0  0  0  0  0
  152.5579  142.7505  160.9144 C   0  0  0  0  0  0  0  0  0  0  0  0
  151.7286  142.6709  159.8704 N   0  0  0  0  0  0  0  0  0  0  0  0
  152.0745  141.6546  159.0261 C   0  0  0  0  0  0  0  0  0  0  0  0
  153.1790  140.7698  159.2002 C   0  0  0  0  0  0  0  0  0  0  0  0
  153.2386  139.8632  158.1493 N   0  0  0  0  0  0  0  0  0  0  0  0
  152.2194  140.2095  157.4134 C   0  0  0  0  0  0  0  0  0  0  0  0
  151.8391  139.2774  155.7967 Br  0  0  0  0  0  0  0  0  0  0  0  0
  151.4553  141.2668  157.8537 N   0  0  0  0  0  0  0  0  0  0  0  0
  150.2369  141.8713  157.2319 C   0  0  2  0  0  0  0  0  0  0  0  0
  148.9766  141.4818  158.0047 C   0  0  0  0  0  0  0  0  0  0  0  0
  147.9501  141.4128  156.8937 C   0  0  1  0  0  0  0  0  0  0  0  0
  147.4150  142.6953  156.6228 O   0  0  0  0  0  0  0  0  0  0  0  0
  148.7907  140.8649  155.7290 C   0  0  1  0  0  0  0  0  0  0  0  0
  148.2929  141.1677  154.3054 C   0  0  0  0  0  0  0  0  0  0  0  0
  149.3454  141.0218  153.3758 O   0  0  0  0  0  0  0  0  0  0  0  0
  150.1048  141.3823  155.9309 O   0  0  0  0  0  0  0  0  0  0  0  0
  155.3095  139.4787  160.0624 H   0  0  0  0  0  0  0  0  0  0  0  0
  155.5541  140.4270  161.5134 H   0  0  0  0  0  0  0  0  0  0  0  0
  152.3414  143.5351  161.6243 H   0  0  0  0  0  0  0  0  0  0  0  0
  150.4106  142.9464  157.2011 H   0  0  0  0  0  0  0  0  0  0  0  0
  149.1060  140.4968  158.4553 H   0  0  0  0  0  0  0  0  0  0  0  0
  148.7497  142.2038  158.7901 H   0  0  0  0  0  0  0  0  0  0  0  0
  147.1265  140.7441  157.1458 H   0  0  0  0  0  0  0  0  0  0  0  0
  148.1279  143.2753  156.4017 H   0  0  0  0  0  0  0  0  0  0  0  0
  148.8707  139.7834  155.8496 H   0  0  0  0  0  0  0  0  0  0  0  0
  147.4600  140.5226  154.0257 H   0  0  0  0  0  0  0  0  0  0  0  0
  147.9292  142.1941  154.2519 H   0  0  0  0  0  0  0  0  0  0  0  0
  149.0882  140.3825  152.7290 H   0  0  0  0  0  0  0  0  0  0  0  0
  1  2  1  0  0  0  0
  1 20  1  0  0  0  0
  1 21  1  0  0  0  0
  2  7  1  0  0  0  0
  2  3  2  0  0  0  0
  3  4  1  0  0  0  0
  4  5  2  0  0  0  0
  4 22  1  0  0  0  0
  5  6  1  0  0  0  0
  6 11  1  0  0  0  0
  6  7  2  0  0  0  0
  7  8  1  0  0  0  0
  8  9  2  0  0  0  0
  9 10  1  0  0  0  0
  9 11  1  0  0  0  0
 11 12  1  0  0  0  0
 12 19  1  0  0  0  0
 12 13  1  0  0  0  0
 12 23  1  0  0  0  0
 13 14  1  0  0  0  0
 13 24  1  0  0  0  0
 13 25  1  0  0  0  0
 14 15  1  0  0  0  0
 14 16  1  0  0  0  0
 14 26  1  0  0  0  0
 15 27  1  0  0  0  0
 16 17  1  0  0  0  0
 16 19  1  0  0  0  0
 16 28  1  0  0  0  0
 17 18  1  0  0  0  0
 17 29  1  0  0  0  0
 17 30  1  0  0  0  0
 18 31  1  0  0  0  0
M  END
> <s_m_source_file>
AV-unprocessed.smi

> <i_m_source_file_index>
285

> <i_lp_mmshare_version>
43012

> <i_f3d_flags>
0

> <s_epik_input>
bjFbY0hdbmMoW05IMl0pYyhjMTIpbmMoQnIpbjJbQ0BASF0zW0NIMl1bQ0BASF0oW09IXSlbQ0BIXShPMylbQ0gyXVtPSF0=

> <s_epik_cmdline>
J2VwaWtfcHl0aG9uJywgJy1waCcsICc3LjAnLCAnLXRuJywgJzgnLCAnLW1hJywgJzIwMCcsICctbWV0YWxfYmluZGluZycsICctaW1hZScsICc8aW5maWxlLm1hZT4nLCAnLW9tYWUnLCAnPG91dGZpbGUubWFlPic=

> <r_lp_tautomer_probability>
1

> <r_epik_Ionization_Penalty>
0.000103242

> <r_epik_Ionization_Penalty_Charging>
0

> <r_epik_Ionization_Penalty_Neutral>
0.000103242

> <r_epik_State_Penalty>
-0

> <r_epik_Charging_Adjusted_Penalty>
0

> <i_epik_Tot_Q>
0

> <i_epik_Tot_abs_Q>
0

> <r_epik_Metal_State_Penalty>
-0

> <b_epik_Metal_Only>
0

> <s_epik_Chemistry_Notes>
This compound contains an acetal/aminal-like group ( X-CH(R)-Y where X, Y are N, S, or O) that may be acid/base labile, releasing an aldehyde.

> <s_lp_Force_Field>
OPLS_2005

> <r_lp_Energy>
33.7508

> <b_lp_Chiralities_Consistent>
1

> <s_lp_Variant>
AV-unprocessed.smi:285-1

> <Gold.Version>
5.8.1

> <Gold.Id.Protein>
6NUR|6NUR_protein|mol2

> <Gold.PLP.Fitness>
43.6524

> <Gold.PLP.PLP>
-32.7537

> <Gold.PLP.part.hbond>
-4.8154

> <Gold.PLP.part.metal>
0.0000

> <Gold.PLP.part.buried>
-4.5428

> <Gold.PLP.part.nonpolar>
-22.2931

> <Gold.PLP.part.repulsive>
0.1236

> <Gold.PLP.ligand.clash>
0.0000

> <Gold.PLP.ligand.torsion>
0.5009

> <Gold.PLP.Chemscore.Hbond>
3.9658

> <Gold.PLP.Chemscore.CHOScore>
0.0000

> <Gold.PLP.Chemscore.Metal>
0.0000

> <Gold.Chemscore.Hbonds>
donor molecule, donor type, donor heavy atom, donor atom, acceptor molecule, acceptor atom, score
      L1  H    15    27       P1  8028  1.00
      L1  H    18    31       P1  7957  0.67
      P1  H  7989  7998       L1    18  0.09
      P1  H  7997  8010       L1     8  1.00
      P1  H  8011  8017       L1    18  1.00

> <Gold.PLP.Chemscore.Internal.Correction>
0.0032

> <Gold.Rescore>
     Score         DG    S(hbond)    S(metal)    S(lipo)     H(rot)  DE(clash)    DE(int)     intcor
      7.73      -9.86       2.48        0.00      33.69       3.06       0.19       1.93       ----

> <Gold.Chemscore.Fitness>
7.7343

> <Gold.Chemscore.DG>
-9.8555

> <Gold.Chemscore.ZeroCoef>
-5.4800

> <Gold.Chemscore.Hbond>
2.4760

> <Gold.Chemscore.Metal>
0.0000

> <Gold.Chemscore.Lipo>
33.6856

> <Gold.Chemscore.Internal_Hbond>
0.0000

> <Gold.Chemscore.DEClash>
0.1915

> <Gold.Chemscore.DEInternal>
1.9298

> <Gold.Chemscore.Rot>
3.0607

> <Gold.Chemscore.Internal.Correction>
   9.000000E+99

> <Gold.Chemscore.Hbonds>
donor molecule, donor type, donor heavy atom, donor atom, acceptor molecule, acceptor atom, score
      L1  H    15    27       P1  8028  0.29
      L1  H    18    31       P1  7957  0.66
      P1  H  7989  7998       L1    18  0.05
      P1  H  7997  8010       L1     8  0.36
      P1  H  8011  8017       L1    18  0.29

> <Gold.Chemscore.Hbond.Weighted>
-8.2697

> <Gold.Chemscore.Metal.Weighted>
-0.0000

> <Gold.Chemscore.Lipo.Weighted>
-3.9412

> <Gold.Chemscore.Internal_Hbond.Weighted>
0.0000

> <Gold.Chemscore.DEClash.Weighted>
0.1915

> <Gold.Chemscore.DEInternal.Weighted>
1.9298

> <Gold.Chemscore.Rot.Weighted>
7.8354

> <Gold.Chemscore.Internal.Correction.Weighted>
   9.000000E+99

> <Gold.Protein.RotatedTorsions>
[ 6907 6896 6895 6894 ] final   -8.29 input  -60.11 | X-H torsion
[ 7974 7965 7964 7962 ] final  -65.07 input  175.53 | X-H torsion
[ 8008 7997 7996 7995 ] final   33.94 input   59.86 | X-H torsion
[ 10167 10162 10161 10158 ] final   37.05 input  -65.29 | X-H torsion
[ 10718 10713 10712 10709 ] final -179.25 input   66.30 | X-H torsion
[ 10763 10752 10751 10750 ] final  -20.05 input  -60.55 | X-H torsion
[ 11005 11000 10999 10996 ] final  -19.86 input  -57.11 | X-H torsion

> <Gold.Protein.ActiveResidues>
 VAL166  LYS551  ARG553  GLY616  TRP617  ASP618  TYR619  PRO620  LYS621  CYS622 
 ASP623  PHE694  ASN695  SER759  ASP760  ASP761  ALA762  ILE779  LEU786  VAL792 
 PHE793  MET794  SER795  GLU796  ALA797  LYS798  CYS799  TRP800  GLU811  SER814 

> <Gold.Protein.RotatedAtoms>
  151.4360  135.1015  159.9655 H   0  0  0  0  0  0  0  0  0  0  0  0  # atno 6907 bound_to 6896
  152.4939  133.8573  159.7242 H   0  0  0  0  0  0  0  0  0  0  0  0  # atno 6908 bound_to 6896
  150.9121  133.6925  159.2880 H   0  0  0  0  0  0  0  0  0  0  0  0  # atno 6909 bound_to 6896
  145.7588  140.8872  143.0441 H   0  0  0  0  0  0  0  0  0  0  0  0  # atno 7974 bound_to 7965
  155.1467  140.3271  155.4440 H   0  0  0  0  0  0  0  0  0  0  0  0  # atno 8008 bound_to 7997
  156.2587  140.1984  156.6530 H   0  0  0  0  0  0  0  0  0  0  0  0  # atno 8009 bound_to 7997
  154.6503  140.0559  156.9934 H   0  0  0  0  0  0  0  0  0  0  0  0  # atno 8010 bound_to 7997
  140.4069  144.1646  150.6137 H   0  0  0  0  0  0  0  0  0  0  0  0  # atno 10167 bound_to 10162
  156.8564  130.9736  151.3087 H   0  0  0  0  0  0  0  0  0  0  0  0  # atno 10718 bound_to 10713
  153.6144  135.6995  153.5334 H   0  0  0  0  0  0  0  0  0  0  0  0  # atno 10763 bound_to 10752
  153.2990  135.4134  155.1235 H   0  0  0  0  0  0  0  0  0  0  0  0  # atno 10764 bound_to 10752
  154.8557  135.3644  154.5683 H   0  0  0  0  0  0  0  0  0  0  0  0  # atno 10765 bound_to 10752
  140.8408  133.7928  155.9858 H   0  0  0  0  0  0  0  0  0  0  0  0  # atno 11005 bound_to 11000
  144.6834  139.9694  143.7482 LP  0  0  0  0  0  0  0  0  0  0  0  0  # atno 17320 bound_to 7965
  146.0284  139.3313  143.0770 LP  0  0  0  0  0  0  0  0  0  0  0  0  # atno 17321 bound_to 7965
  140.4679  143.2424  151.9129 LP  0  0  0  0  0  0  0  0  0  0  0  0  # atno 17342 bound_to 10162
  139.4783  144.5400  151.8542 LP  0  0  0  0  0  0  0  0  0  0  0  0  # atno 17343 bound_to 10162
  157.6275  130.8703  149.9215 LP  0  0  0  0  0  0  0  0  0  0  0  0  # atno 17370 bound_to 10713
  156.0800  130.3674  150.0599 LP  0  0  0  0  0  0  0  0  0  0  0  0  # atno 17371 bound_to 10713
  140.8897  134.2510  157.5101 LP  0  0  0  0  0  0  0  0  0  0  0  0  # atno 17394 bound_to 11000
  139.8703  134.9655  156.4532 LP  0  0  0  0  0  0  0  0  0  0  0  0  # atno 17395 bound_to 11000

$$$$
