AV-unprocessed.smi:2910|AV-procd|sdf|11175|dock2
  -GOLD-   2272016 63D 1   1.00000     0.00000
 Structure written by MMmdl.
 47 48  0  0  0  0  0  0  0  0  1 V2000
  141.7019  134.5486  152.7373 C   0  0  0  0  0  0  0  0  0  0  0  0
  143.1233  134.9676  152.5046 C   0  0  0  0  0  0  0  0  0  0  0  0
  143.8160  136.0747  153.0753 C   0  0  0  0  0  0  0  0  0  0  0  0
  145.0617  135.9695  152.5194 C   0  0  0  0  0  0  0  0  0  0  0  0
  146.1521  136.7591  152.7088 N   0  0  0  0  0  0  0  0  0  0  0  0
  146.2676  137.8636  153.4665 C   0  0  0  0  0  0  0  0  0  0  0  0
  145.3586  138.3804  154.1162 O   0  0  0  0  0  0  0  0  0  0  0  0
  147.5188  138.3465  153.4251 N   0  0  0  0  0  0  0  0  0  0  0  0
  148.0108  139.5285  154.1386 C   0  0  2  0  0  0  0  0  0  0  0  0
  147.5139  140.7997  153.4092 C   0  0  0  0  0  0  0  0  0  0  0  0
  147.4135  142.0446  154.3084 C   0  0  0  0  0  0  0  0  0  0  0  0
  148.5737  142.8343  154.1603 O   0  0  0  0  0  0  0  0  0  0  0  0
  149.5590  139.4564  154.2836 C   0  0  0  0  0  0  0  0  0  0  0  0
  150.0618  138.0010  154.4701 C   0  0  0  0  0  0  0  0  0  0  0  0
  151.5886  137.9212  154.6248 C   0  0  0  0  0  0  0  0  0  0  0  0
  152.0751  138.7930  155.7882 C   0  0  0  0  0  0  0  0  0  0  0  0
  151.6145  140.2438  155.6029 C   0  0  0  0  0  0  0  0  0  0  0  0
  150.0875  140.3321  155.4470 C   0  0  0  0  0  0  0  0  0  0  0  0
  145.0850  134.8745  151.6844 N   0  0  0  0  0  0  0  0  0  0  0  0
  146.1718  134.3555  150.8769 C   0  0  0  0  0  0  0  0  0  0  0  0
  143.8831  134.2586  151.6772 N   0  0  0  0  0  0  0  0  0  0  0  0
  141.1974  135.2310  153.4215 H   0  0  0  0  0  0  0  0  0  0  0  0
  141.6536  133.5495  153.1712 H   0  0  0  0  0  0  0  0  0  0  0  0
  141.1375  134.5364  151.8046 H   0  0  0  0  0  0  0  0  0  0  0  0
  143.4427  136.8075  153.7745 H   0  0  0  0  0  0  0  0  0  0  0  0
  146.9846  136.4663  152.2194 H   0  0  0  0  0  0  0  0  0  0  0  0
  148.1947  137.8517  152.8617 H   0  0  0  0  0  0  0  0  0  0  0  0
  147.5914  139.5493  155.1462 H   0  0  0  0  0  0  0  0  0  0  0  0
  148.1929  141.0432  152.5932 H   0  0  0  0  0  0  0  0  0  0  0  0
  146.5433  140.6034  152.9513 H   0  0  0  0  0  0  0  0  0  0  0  0
  146.5470  142.6533  154.0501 H   0  0  0  0  0  0  0  0  0  0  0  0
  147.3113  141.7561  155.3549 H   0  0  0  0  0  0  0  0  0  0  0  0
  149.3261  142.2625  154.1408 H   0  0  0  0  0  0  0  0  0  0  0  0
  149.9966  139.8372  153.3593 H   0  0  0  0  0  0  0  0  0  0  0  0
  149.5847  137.5592  155.3460 H   0  0  0  0  0  0  0  0  0  0  0  0
  149.7767  137.3795  153.6214 H   0  0  0  0  0  0  0  0  0  0  0  0
  151.8912  136.8861  154.7853 H   0  0  0  0  0  0  0  0  0  0  0  0
  152.0675  138.2437  153.6994 H   0  0  0  0  0  0  0  0  0  0  0  0
  151.6879  138.4009  156.7295 H   0  0  0  0  0  0  0  0  0  0  0  0
  153.1624  138.7515  155.8575 H   0  0  0  0  0  0  0  0  0  0  0  0
  151.9354  140.8458  156.4535 H   0  0  0  0  0  0  0  0  0  0  0  0
  152.0968  140.6711  154.7227 H   0  0  0  0  0  0  0  0  0  0  0  0
  149.8310  141.3790  155.2926 H   0  0  0  0  0  0  0  0  0  0  0  0
  149.6094  140.0308  156.3800 H   0  0  0  0  0  0  0  0  0  0  0  0
  147.0421  134.1737  151.5078 H   0  0  0  0  0  0  0  0  0  0  0  0
  146.4336  135.0817  150.1071 H   0  0  0  0  0  0  0  0  0  0  0  0
  145.8820  133.4191  150.3977 H   0  0  0  0  0  0  0  0  0  0  0  0
  1  2  1  0  0  0  0
  1 22  1  0  0  0  0
  1 23  1  0  0  0  0
  1 24  1  0  0  0  0
  2 21  2  0  0  0  0
  2  3  1  0  0  0  0
  3  4  2  0  0  0  0
  3 25  1  0  0  0  0
  4  5  1  0  0  0  0
  4 19  1  0  0  0  0
  5  6  1  0  0  0  0
  5 26  1  0  0  0  0
  6  7  2  0  0  0  0
  6  8  1  0  0  0  0
  8  9  1  0  0  0  0
  8 27  1  0  0  0  0
  9 10  1  0  0  0  0
  9 13  1  0  0  0  0
  9 28  1  0  0  0  0
 10 11  1  0  0  0  0
 10 29  1  0  0  0  0
 10 30  1  0  0  0  0
 11 12  1  0  0  0  0
 11 31  1  0  0  0  0
 11 32  1  0  0  0  0
 12 33  1  0  0  0  0
 13 18  1  0  0  0  0
 13 14  1  0  0  0  0
 13 34  1  0  0  0  0
 14 15  1  0  0  0  0
 14 35  1  0  0  0  0
 14 36  1  0  0  0  0
 15 16  1  0  0  0  0
 15 37  1  0  0  0  0
 15 38  1  0  0  0  0
 16 17  1  0  0  0  0
 16 39  1  0  0  0  0
 16 40  1  0  0  0  0
 17 18  1  0  0  0  0
 17 41  1  0  0  0  0
 17 42  1  0  0  0  0
 18 43  1  0  0  0  0
 18 44  1  0  0  0  0
 19 20  1  0  0  0  0
 19 21  1  0  0  0  0
 20 45  1  0  0  0  0
 20 46  1  0  0  0  0
 20 47  1  0  0  0  0
M  END
> <s_m_source_file>
AV-unprocessed.smi

> <i_m_source_file_index>
2910

> <i_lp_mmshare_version>
43012

> <i_f3d_flags>
0

> <s_epik_input>
W0NIM11jMVtjSF1jKG4objEpW0NIM10pW05IXUMoPU8pW05IXVtDQEhdKFtDSDJdW0NIMl1bT0hdKVtDSF0yW0NIMl1bQ0gyXVtDSDJdW0NIMl1bQ0gyXTI=

> <s_epik_cmdline>
J2VwaWtfcHl0aG9uJywgJy1waCcsICc3LjAnLCAnLXRuJywgJzgnLCAnLW1hJywgJzIwMCcsICctbWV0YWxfYmluZGluZycsICctaW1hZScsICc8aW5maWxlLm1hZT4nLCAnLW9tYWUnLCAnPG91dGZpbGUubWFlPic=

> <r_lp_tautomer_probability>
1

> <r_epik_Ionization_Penalty>
0.000101449

> <r_epik_Ionization_Penalty_Charging>
0

> <r_epik_Ionization_Penalty_Neutral>
0.000101449

> <r_epik_State_Penalty>
-0

> <r_epik_Charging_Adjusted_Penalty>
0

> <i_epik_Tot_Q>
0

> <i_epik_Tot_abs_Q>
0

> <r_epik_Metal_State_Penalty>
-0

> <b_epik_Metal_Only>
0

> <s_lp_Force_Field>
OPLS_2005

> <r_lp_Energy>
16.2269

> <b_lp_Chiralities_Consistent>
1

> <s_lp_Variant>
AV-unprocessed.smi:2910-1

> <Gold.Version>
5.8.1

> <Gold.Id.Protein>
6NUR|6NUR_protein|mol2

> <Gold.PLP.Fitness>
44.9488

> <Gold.PLP.PLP>
-38.2973

> <Gold.PLP.part.hbond>
-4.5291

> <Gold.PLP.part.metal>
0.0000

> <Gold.PLP.part.buried>
-0.2528

> <Gold.PLP.part.nonpolar>
-31.7648

> <Gold.PLP.part.repulsive>
0.3051

> <Gold.PLP.ligand.clash>
0.0000

> <Gold.PLP.ligand.torsion>
1.2319

> <Gold.PLP.Chemscore.Hbond>
3.0000

> <Gold.PLP.Chemscore.CHOScore>
0.0000

> <Gold.PLP.Chemscore.Metal>
0.0000

> <Gold.Chemscore.Hbonds>
donor molecule, donor type, donor heavy atom, donor atom, acceptor molecule, acceptor atom, score
      L1  H     5    26       P1  7948  1.00
      L1  H     8    27       P1  7948  0.99
      P1  H  8022  8030       L1    12  1.00

> <Gold.PLP.Chemscore.Internal.Correction>
0.1152

> <Gold.Rescore>
     Score         DG    S(hbond)    S(metal)    S(lipo)     H(rot)  DE(clash)    DE(int)     intcor
     16.41     -19.38       2.93        0.00      84.96       2.27       0.39       2.58       ----

> <Gold.Chemscore.Fitness>
16.4084

> <Gold.Chemscore.DG>
-19.3752

> <Gold.Chemscore.ZeroCoef>
-5.4800

> <Gold.Chemscore.Hbond>
2.9273

> <Gold.Chemscore.Metal>
0.0000

> <Gold.Chemscore.Lipo>
84.9600

> <Gold.Chemscore.Internal_Hbond>
0.0000

> <Gold.Chemscore.DEClash>
0.3868

> <Gold.Chemscore.DEInternal>
2.5800

> <Gold.Chemscore.Rot>
2.2743

> <Gold.Chemscore.Internal.Correction>
   9.000000E+99

> <Gold.Chemscore.Hbonds>
donor molecule, donor type, donor heavy atom, donor atom, acceptor molecule, acceptor atom, score
      L1  H     5    26       P1  7948  0.95
      L1  H     8    27       P1  7948  0.91
      P1  H  8022  8030       L1    12  0.94

> <Gold.Chemscore.Hbond.Weighted>
-9.7771

> <Gold.Chemscore.Metal.Weighted>
-0.0000

> <Gold.Chemscore.Lipo.Weighted>
-9.9403

> <Gold.Chemscore.Internal_Hbond.Weighted>
0.0000

> <Gold.Chemscore.DEClash.Weighted>
0.3868

> <Gold.Chemscore.DEInternal.Weighted>
2.5800

> <Gold.Chemscore.Rot.Weighted>
5.8223

> <Gold.Chemscore.Internal.Correction.Weighted>
   9.000000E+99

> <Gold.Protein.RotatedTorsions>
[ 6907 6896 6895 6894 ] final    5.66 input  -60.11 | X-H torsion
[ 7974 7965 7964 7962 ] final   22.60 input  175.53 | X-H torsion
[ 8008 7997 7996 7995 ] final  107.87 input   59.86 | X-H torsion
[ 10167 10162 10161 10158 ] final -159.08 input  -65.29 | X-H torsion
[ 10718 10713 10712 10709 ] final  -77.25 input   66.30 | X-H torsion
[ 10763 10752 10751 10750 ] final   48.07 input  -60.55 | X-H torsion
[ 11005 11000 10999 10996 ] final -169.26 input  -57.11 | X-H torsion

> <Gold.Protein.ActiveResidues>
 VAL166  LYS551  ARG553  GLY616  TRP617  ASP618  TYR619  PRO620  LYS621  CYS622 
 ASP623  PHE694  ASN695  SER759  ASP760  ASP761  ALA762  ILE779  LEU786  VAL792 
 PHE793  MET794  SER795  GLU796  ALA797  LYS798  CYS799  TRP800  GLU811  SER814 

> <Gold.Protein.RotatedAtoms>
  151.6611  135.0989  160.0179 H   0  0  0  0  0  0  0  0  0  0  0  0  # atno 6907 bound_to 6896
  152.3946  133.6724  159.6274 H   0  0  0  0  0  0  0  0  0  0  0  0  # atno 6908 bound_to 6896
  150.7855  133.8813  159.3327 H   0  0  0  0  0  0  0  0  0  0  0  0  # atno 6909 bound_to 6896
  146.2022  139.7862  142.8753 H   0  0  0  0  0  0  0  0  0  0  0  0  # atno 7974 bound_to 7965
  156.1859  140.3087  155.9237 H   0  0  0  0  0  0  0  0  0  0  0  0  # atno 8008 bound_to 7997
  155.3283  140.0459  157.3059 H   0  0  0  0  0  0  0  0  0  0  0  0  # atno 8009 bound_to 7997
  154.5395  140.2257  155.8675 H   0  0  0  0  0  0  0  0  0  0  0  0  # atno 8010 bound_to 7997
  139.6643  143.9857  152.2245 H   0  0  0  0  0  0  0  0  0  0  0  0  # atno 10167 bound_to 10162
  156.0150  130.4486  150.3317 H   0  0  0  0  0  0  0  0  0  0  0  0  # atno 10718 bound_to 10713
  152.9794  135.5956  154.3866 H   0  0  0  0  0  0  0  0  0  0  0  0  # atno 10763 bound_to 10752
  154.3526  135.2767  155.2366 H   0  0  0  0  0  0  0  0  0  0  0  0  # atno 10764 bound_to 10752
  154.4398  135.6016  153.6177 H   0  0  0  0  0  0  0  0  0  0  0  0  # atno 10765 bound_to 10752
  140.5328  134.5600  157.5079 H   0  0  0  0  0  0  0  0  0  0  0  0  # atno 11005 bound_to 11000
  145.3446  141.0295  143.3373 LP  0  0  0  0  0  0  0  0  0  0  0  0  # atno 17320 bound_to 7965
  144.8708  139.5041  143.6768 LP  0  0  0  0  0  0  0  0  0  0  0  0  # atno 17321 bound_to 7965
  139.9605  144.6561  150.8084 LP  0  0  0  0  0  0  0  0  0  0  0  0  # atno 17342 bound_to 10162
  140.7593  143.3125  151.2810 LP  0  0  0  0  0  0  0  0  0  0  0  0  # atno 17343 bound_to 10162
  157.1415  131.0297  151.2925 LP  0  0  0  0  0  0  0  0  0  0  0  0  # atno 17370 bound_to 10713
  157.4468  130.7575  149.7116 LP  0  0  0  0  0  0  0  0  0  0  0  0  # atno 17371 bound_to 10713
  139.9545  134.7559  156.0372 LP  0  0  0  0  0  0  0  0  0  0  0  0  # atno 17394 bound_to 11000
  141.1272  133.6596  156.3367 LP  0  0  0  0  0  0  0  0  0  0  0  0  # atno 17395 bound_to 11000

$$$$
