AV-unprocessed.smi:2024|AV-procd|sdf|8195|dock5
  -GOLD-   2272010453D 1   1.00000     0.00000
 Structure written by MMmdl.
 43 44  0  0  0  0  0  0  0  0  3 V2000
  151.0633  140.3248  155.5044 C   0  0  0  0  0  0  0  0  0  0  0  0
  150.7476  139.7076  154.2208 N   0  0  0  0  0  0  0  0  0  0  0  0
  151.5365  138.5062  153.9497 C   0  0  0  0  0  0  0  0  0  0  0  0
  151.1148  137.3151  154.8355 C   0  0  0  0  0  0  0  0  0  0  0  0
  149.6671  137.0081  154.6530 N   0  3  0  0  0  0  0  0  0  0  0  0
  149.1800  135.7327  155.2917 C   0  0  0  0  0  0  0  0  0  0  0  0
  150.0639  134.5441  154.8366 C   0  0  0  0  0  0  0  0  0  0  0  0
  149.3555  135.8294  156.8284 C   0  0  0  0  0  0  0  0  0  0  0  0
  147.6919  135.4501  154.9242 C   0  0  0  0  0  0  0  0  0  0  0  0
  147.5286  134.8147  153.6176 N   0  0  0  0  0  0  0  0  0  0  0  0
  146.7141  133.7906  153.3252 C   0  0  0  0  0  0  0  0  0  0  0  0
  146.0017  133.2984  154.2033 O   0  0  0  0  0  0  0  0  0  0  0  0
  146.7855  133.3948  152.0350 N   0  5  0  0  0  0  0  0  0  0  0  0
  145.7183  132.8320  151.4456 C   0  0  0  0  0  0  0  0  0  0  0  0
  144.8495  133.5212  150.6974 N   0  0  0  0  0  0  0  0  0  0  0  0
  143.8175  132.7357  150.1805 C   0  0  0  0  0  0  0  0  0  0  0  0
  143.9082  131.4161  150.5358 C   0  0  0  0  0  0  0  0  0  0  0  0
  145.3018  131.1180  151.5348 S   0  0  0  0  0  0  0  0  0  0  0  0
  148.8688  138.2318  154.9484 C   0  0  0  0  0  0  0  0  0  0  0  0
  149.3253  139.4080  154.0598 C   0  0  0  0  0  0  0  0  0  0  0  0
  152.1211  140.5860  155.5468 H   0  0  0  0  0  0  0  0  0  0  0  0
  150.8435  139.6734  156.3494 H   0  0  0  0  0  0  0  0  0  0  0  0
  150.4918  141.2448  155.6308 H   0  0  0  0  0  0  0  0  0  0  0  0
  151.4130  138.2396  152.8991 H   0  0  0  0  0  0  0  0  0  0  0  0
  152.5957  138.7265  154.0884 H   0  0  0  0  0  0  0  0  0  0  0  0
  151.7355  136.4689  154.5489 H   0  0  0  0  0  0  0  0  0  0  0  0
  151.3386  137.5222  155.8816 H   0  0  0  0  0  0  0  0  0  0  0  0
  149.8722  133.6487  155.4293 H   0  0  0  0  0  0  0  0  0  0  0  0
  151.1250  134.7741  154.9404 H   0  0  0  0  0  0  0  0  0  0  0  0
  149.8789  134.2618  153.8004 H   0  0  0  0  0  0  0  0  0  0  0  0
  149.2217  134.8618  157.3129 H   0  0  0  0  0  0  0  0  0  0  0  0
  148.6287  136.4988  157.2882 H   0  0  0  0  0  0  0  0  0  0  0  0
  150.3532  136.1808  157.0941 H   0  0  0  0  0  0  0  0  0  0  0  0
  147.2039  134.8461  155.6891 H   0  0  0  0  0  0  0  0  0  0  0  0
  147.1281  136.3812  154.8794 H   0  0  0  0  0  0  0  0  0  0  0  0
  148.0871  135.1825  152.8612 H   0  0  0  0  0  0  0  0  0  0  0  0
  143.0589  133.1997  149.5678 H   0  0  0  0  0  0  0  0  0  0  0  0
  143.2459  130.6057  150.2717 H   0  0  0  0  0  0  0  0  0  0  0  0
  147.8127  138.0715  154.7434 H   0  0  0  0  0  0  0  0  0  0  0  0
  148.9440  138.4970  156.0026 H   0  0  0  0  0  0  0  0  0  0  0  0
  148.7373  140.2999  154.2790 H   0  0  0  0  0  0  0  0  0  0  0  0
  149.1388  139.1663  153.0125 H   0  0  0  0  0  0  0  0  0  0  0  0
  149.5544  136.8536  153.6615 H   0  0  0  0  0  0  0  0  0  0  0  0
  1  2  1  0  0  0  0
  1 21  1  0  0  0  0
  1 22  1  0  0  0  0
  1 23  1  0  0  0  0
  2 20  1  0  0  0  0
  2  3  1  0  0  0  0
  3  4  1  0  0  0  0
  3 24  1  0  0  0  0
  3 25  1  0  0  0  0
  4  5  1  0  0  0  0
  4 26  1  0  0  0  0
  4 27  1  0  0  0  0
  5  6  1  0  0  0  0
  5 19  1  0  0  0  0
  5 43  1  0  0  0  0
  6  7  1  0  0  0  0
  6  8  1  0  0  0  0
  6  9  1  0  0  0  0
  7 28  1  0  0  0  0
  7 29  1  0  0  0  0
  7 30  1  0  0  0  0
  8 31  1  0  0  0  0
  8 32  1  0  0  0  0
  8 33  1  0  0  0  0
  9 10  1  0  0  0  0
  9 34  1  0  0  0  0
  9 35  1  0  0  0  0
 10 11  1  0  0  0  0
 10 36  1  0  0  0  0
 11 12  2  0  0  0  0
 11 13  1  0  0  0  0
 13 14  1  0  0  0  0
 14 18  1  0  0  0  0
 14 15  2  0  0  0  0
 15 16  1  0  0  0  0
 16 17  2  0  0  0  0
 16 37  1  0  0  0  0
 17 18  1  0  0  0  0
 17 38  1  0  0  0  0
 19 20  1  0  0  0  0
 19 39  1  0  0  0  0
 19 40  1  0  0  0  0
 20 41  1  0  0  0  0
 20 42  1  0  0  0  0
M  CHG  1   5   1
M  CHG  1  13  -1
M  END
> <s_m_source_file>
AV-unprocessed.smi

> <i_m_source_file_index>
2024

> <i_lp_mmshare_version>
43012

> <i_f3d_flags>
0

> <s_epik_input>
W0NIM11OMVtDSDJdW0NIMl1OKFtDSDJdW0NIMl0xKUMoW0NIM10pKFtDSDNdKVtDSDJdW05IXUMoPU8pW05IXWMybltjSF1bY0hdczI=

> <s_epik_cmdline>
J2VwaWtfcHl0aG9uJywgJy1waCcsICc3LjAnLCAnLXRuJywgJzgnLCAnLW1hJywgJzIwMCcsICctbWV0YWxfYmluZGluZycsICctaW1hZScsICc8aW5maWxlLm1hZT4nLCAnLW9tYWUnLCAnPG91dGZpbGUubWFlPic=

> <r_epik_Ionization_Penalty>
6.29536

> <r_epik_Ionization_Penalty_Charging>
5.46232

> <r_epik_Ionization_Penalty_Neutral>
0.833035

> <r_epik_State_Penalty>
6.42136

> <r_epik_Charging_Adjusted_Penalty>
11.8837

> <i_epik_Tot_Q>
0

> <i_epik_Tot_abs_Q>
2

> <r_epik_Metal_State_Penalty>
2.42657

> <b_epik_Metal_Only>
1

> <s_lp_Force_Field>
OPLS_2005

> <r_lp_Energy>
16.4996

> <b_lp_Chiralities_Consistent>
1

> <s_lp_Variant>
AV-unprocessed.smi:2024-5

> <Gold.Version>
5.8.1

> <Gold.Id.Protein>
6NUR|6NUR_protein|mol2

> <Gold.PLP.Fitness>
44.9549

> <Gold.PLP.PLP>
-29.7566

> <Gold.PLP.part.hbond>
-2.9267

> <Gold.PLP.part.metal>
0.0000

> <Gold.PLP.part.buried>
-3.5577

> <Gold.PLP.part.nonpolar>
-24.4295

> <Gold.PLP.part.repulsive>
0.5780

> <Gold.PLP.ligand.clash>
0.0000

> <Gold.PLP.ligand.torsion>
1.3948

> <Gold.PLP.Chemscore.Hbond>
3.9575

> <Gold.PLP.Chemscore.CHOScore>
2.0000

> <Gold.PLP.Chemscore.Metal>
0.0000

> <Gold.Chemscore.Hbonds>
donor molecule, donor type, donor heavy atom, donor atom, acceptor molecule, acceptor atom, score
      L1  H     5    43       P1  7948  2.00
      L1  H    10    36       P1  7948  1.00
      P1  H  7989  7998       L1     2  0.45
      L1  C    16    37       P1 10186  1.00
      L1  C    17    38       P1 10952  0.98

> <Gold.PLP.Chemscore.Internal.Correction>
0.1154

> <Gold.Rescore>
     Score         DG    S(hbond)    S(metal)    S(lipo)     H(rot)  DE(clash)    DE(int)     intcor
     14.52     -16.55       1.85        0.00      76.17       1.57       0.45       1.58       ----

> <Gold.Chemscore.Fitness>
14.5220

> <Gold.Chemscore.DG>
-16.5476

> <Gold.Chemscore.ZeroCoef>
-5.4800

> <Gold.Chemscore.Hbond>
1.8471

> <Gold.Chemscore.Metal>
0.0000

> <Gold.Chemscore.Lipo>
76.1713

> <Gold.Chemscore.Internal_Hbond>
0.0000

> <Gold.Chemscore.DEClash>
0.4464

> <Gold.Chemscore.DEInternal>
1.5792

> <Gold.Chemscore.Rot>
1.5678

> <Gold.Chemscore.Internal.Correction>
   9.000000E+99

> <Gold.Chemscore.Hbonds>
donor molecule, donor type, donor heavy atom, donor atom, acceptor molecule, acceptor atom, score
      L1  H     5    43       P1  7948  0.81
      L1  H    10    36       P1  7948  0.97
      P1  H  7989  7998       L1     2  0.01

> <Gold.Chemscore.Hbond.Weighted>
-6.1692

> <Gold.Chemscore.Metal.Weighted>
-0.0000

> <Gold.Chemscore.Lipo.Weighted>
-8.9120

> <Gold.Chemscore.Internal_Hbond.Weighted>
0.0000

> <Gold.Chemscore.DEClash.Weighted>
0.4464

> <Gold.Chemscore.DEInternal.Weighted>
1.5792

> <Gold.Chemscore.Rot.Weighted>
4.0136

> <Gold.Chemscore.Internal.Correction.Weighted>
   9.000000E+99

> <Gold.Protein.RotatedTorsions>
[ 6907 6896 6895 6894 ] final  175.45 input  -60.11 | X-H torsion
[ 7974 7965 7964 7962 ] final   97.92 input  175.53 | X-H torsion
[ 8008 7997 7996 7995 ] final  128.51 input   59.86 | X-H torsion
[ 10167 10162 10161 10158 ] final  160.44 input  -65.29 | X-H torsion
[ 10718 10713 10712 10709 ] final  104.34 input   66.30 | X-H torsion
[ 10763 10752 10751 10750 ] final -162.34 input  -60.55 | X-H torsion
[ 11005 11000 10999 10996 ] final -118.72 input  -57.11 | X-H torsion

> <Gold.Protein.ActiveResidues>
 VAL166  LYS551  ARG553  GLY616  TRP617  ASP618  TYR619  PRO620  LYS621  CYS622 
 ASP623  PHE694  ASN695  SER759  ASP760  ASP761  ALA762  ILE779  LEU786  VAL792 
 PHE793  MET794  SER795  GLU796  ALA797  LYS798  CYS799  TRP800  GLU811  SER814 

> <Gold.Protein.RotatedAtoms>
  151.7360  133.3320  159.3352 H   0  0  0  0  0  0  0  0  0  0  0  0  # atno 6907 bound_to 6896
  150.7593  134.6321  159.6201 H   0  0  0  0  0  0  0  0  0  0  0  0  # atno 6908 bound_to 6896
  152.3561  134.6940  160.0273 H   0  0  0  0  0  0  0  0  0  0  0  0  # atno 6909 bound_to 6896
  145.4190  139.2324  143.3206 H   0  0  0  0  0  0  0  0  0  0  0  0  # atno 7974 bound_to 7965
  156.2916  140.2643  156.2448 H   0  0  0  0  0  0  0  0  0  0  0  0  # atno 8008 bound_to 7997
  154.9942  140.0388  157.2351 H   0  0  0  0  0  0  0  0  0  0  0  0  # atno 8009 bound_to 7997
  154.7659  140.2769  155.6181 H   0  0  0  0  0  0  0  0  0  0  0  0  # atno 8010 bound_to 7997
  139.4840  144.4634  151.8674 H   0  0  0  0  0  0  0  0  0  0  0  0  # atno 10167 bound_to 10162
  157.6743  131.0801  150.5691 H   0  0  0  0  0  0  0  0  0  0  0  0  # atno 10718 bound_to 10713
  154.7223  135.3028  154.9028 H   0  0  0  0  0  0  0  0  0  0  0  0  # atno 10763 bound_to 10752
  153.9896  135.6720  153.4757 H   0  0  0  0  0  0  0  0  0  0  0  0  # atno 10764 bound_to 10752
  153.0844  135.4992  154.8485 H   0  0  0  0  0  0  0  0  0  0  0  0  # atno 10765 bound_to 10752
  141.0266  134.0044  157.3205 H   0  0  0  0  0  0  0  0  0  0  0  0  # atno 11005 bound_to 11000
  146.2666  140.4912  142.8831 LP  0  0  0  0  0  0  0  0  0  0  0  0  # atno 17320 bound_to 7965
  144.8258  140.6625  143.6323 LP  0  0  0  0  0  0  0  0  0  0  0  0  # atno 17321 bound_to 7965
  140.4098  144.2384  150.5889 LP  0  0  0  0  0  0  0  0  0  0  0  0  # atno 17342 bound_to 10162
  140.4978  143.2327  151.8724 LP  0  0  0  0  0  0  0  0  0  0  0  0  # atno 17343 bound_to 10162
  156.5993  130.4350  149.5904 LP  0  0  0  0  0  0  0  0  0  0  0  0  # atno 17370 bound_to 10713
  156.2519  130.6912  151.1653 LP  0  0  0  0  0  0  0  0  0  0  0  0  # atno 17371 bound_to 10713
  139.9180  135.0198  156.7956 LP  0  0  0  0  0  0  0  0  0  0  0  0  # atno 17394 bound_to 11000
  140.6480  133.9757  155.7741 LP  0  0  0  0  0  0  0  0  0  0  0  0  # atno 17395 bound_to 11000

$$$$
