AV-unprocessed.smi:112|AV-procd|sdf|1089|dock3
  -GOLD-   2262018193D 1   1.00000     0.00000
 Structure written by MMmdl.
 54 57  0  0  0  0  0  0  0  0  3 V2000
  148.8712  137.0392  158.7465 C   0  0  0  0  0  0  0  0  0  0  0  0
  149.9144  137.8065  157.9485 C   0  0  0  0  0  0  0  0  0  0  0  0
  149.5833  138.5864  156.8935 C   0  0  0  0  0  0  0  0  0  0  0  0
  150.5073  139.3013  156.1501 N   0  0  0  0  0  0  0  0  0  0  0  0
  150.1089  140.1762  154.9777 C   0  0  2  0  0  0  0  0  0  0  0  0
  149.3848  141.4440  155.4504 C   0  0  0  0  0  0  0  0  0  0  0  0
  148.3418  141.6125  154.3679 C   0  0  2  0  0  0  0  0  0  0  0  0
  147.2655  142.4289  154.7844 O   0  0  0  0  0  0  0  0  0  0  0  0
  147.9610  140.1617  154.0462 C   0  0  2  0  0  0  0  0  0  0  0  0
  146.9634  139.5171  155.0345 C   0  0  0  0  0  0  0  0  0  0  0  0
  146.7337  138.1716  154.6748 O   0  0  0  0  0  0  0  0  0  0  0  0
  149.2187  139.4882  154.1411 O   0  0  0  0  0  0  0  0  0  0  0  0
  151.8780  139.1968  156.4625 C   0  0  0  0  0  0  0  0  0  0  0  0
  152.7223  139.8038  155.7991 O   0  0  0  0  0  0  0  0  0  0  0  0
  152.2575  138.3864  157.5557 N   0  0  0  0  0  0  0  0  0  0  0  0
  153.6939  138.2971  157.9036 C   0  0  0  0  0  0  0  0  0  0  0  0
  154.0261  138.8314  159.3145 C   0  0  0  0  0  0  0  0  0  0  0  0
  154.6714  138.1182  160.0837 O   0  0  0  0  0  0  0  0  0  0  0  0
  153.5909  140.0740  159.6403 N   0  0  0  0  0  0  0  0  0  0  0  0
  152.8188  140.9312  158.7239 C   0  0  0  0  0  0  0  0  0  0  0  0
  152.5517  142.2489  159.4833 C   0  0  0  0  0  0  0  0  0  0  0  0
  153.2074  142.0136  160.8118 C   0  0  0  0  0  0  0  0  0  0  0  0
  153.2563  142.9092  161.8936 C   0  0  0  0  0  0  0  0  0  0  0  0
  153.9259  142.5152  163.0787 C   0  0  0  0  0  0  0  0  0  0  0  0
  153.9996  143.4309  164.2346 N   0  3  0  0  0  0  0  0  0  0  0  0
  154.5991  143.0551  165.2369 O   0  0  0  0  0  0  0  0  0  0  0  0
  153.4584  144.5280  164.1421 O   0  5  0  0  0  0  0  0  0  0  0  0
  154.5251  141.2288  163.1379 C   0  0  0  0  0  0  0  0  0  0  0  0
  154.4656  140.3412  162.0411 C   0  0  0  0  0  0  0  0  0  0  0  0
  153.7948  140.7551  160.8700 C   0  0  0  0  0  0  0  0  0  0  0  0
  151.3181  137.6812  158.3466 C   0  0  0  0  0  0  0  0  0  0  0  0
  151.6879  137.0102  159.3121 O   0  0  0  0  0  0  0  0  0  0  0  0
  147.8644  137.1976  158.3587 H   0  0  0  0  0  0  0  0  0  0  0  0
  148.8793  137.3569  159.7898 H   0  0  0  0  0  0  0  0  0  0  0  0
  149.0765  135.9687  158.7126 H   0  0  0  0  0  0  0  0  0  0  0  0
  148.5376  138.6396  156.6332 H   0  0  0  0  0  0  0  0  0  0  0  0
  151.0320  140.3753  154.4305 H   0  0  0  0  0  0  0  0  0  0  0  0
  148.9176  141.2638  156.4205 H   0  0  0  0  0  0  0  0  0  0  0  0
  150.0700  142.2881  155.5343 H   0  0  0  0  0  0  0  0  0  0  0  0
  148.8058  142.0656  153.4904 H   0  0  0  0  0  0  0  0  0  0  0  0
  147.6077  143.1330  155.3139 H   0  0  0  0  0  0  0  0  0  0  0  0
  147.5698  140.0948  153.0300 H   0  0  0  0  0  0  0  0  0  0  0  0
  147.3063  139.5794  156.0669 H   0  0  0  0  0  0  0  0  0  0  0  0
  145.9978  140.0205  154.9911 H   0  0  0  0  0  0  0  0  0  0  0  0
  145.8929  137.9084  155.0163 H   0  0  0  0  0  0  0  0  0  0  0  0
  154.0457  137.2673  157.8294 H   0  0  0  0  0  0  0  0  0  0  0  0
  154.2890  138.8353  157.1650 H   0  0  0  0  0  0  0  0  0  0  0  0
  153.3790  141.1261  157.8085 H   0  0  0  0  0  0  0  0  0  0  0  0
  151.8750  140.4554  158.4546 H   0  0  0  0  0  0  0  0  0  0  0  0
  153.0030  143.1053  158.9818 H   0  0  0  0  0  0  0  0  0  0  0  0
  151.4849  142.4352  159.6109 H   0  0  0  0  0  0  0  0  0  0  0  0
  152.7876  143.8784  161.8078 H   0  0  0  0  0  0  0  0  0  0  0  0
  155.0402  140.9073  164.0310 H   0  0  0  0  0  0  0  0  0  0  0  0
  154.9337  139.3737  162.1282 H   0  0  0  0  0  0  0  0  0  0  0  0
  1  2  1  0  0  0  0
  1 33  1  0  0  0  0
  1 34  1  0  0  0  0
  1 35  1  0  0  0  0
  2 31  1  0  0  0  0
  2  3  2  0  0  0  0
  3  4  1  0  0  0  0
  3 36  1  0  0  0  0
  4  5  1  0  0  0  0
  4 13  1  0  0  0  0
  5 12  1  0  0  0  0
  5  6  1  0  0  0  0
  5 37  1  0  0  0  0
  6  7  1  0  0  0  0
  6 38  1  0  0  0  0
  6 39  1  0  0  0  0
  7  8  1  0  0  0  0
  7  9  1  0  0  0  0
  7 40  1  0  0  0  0
  8 41  1  0  0  0  0
  9 10  1  0  0  0  0
  9 12  1  0  0  0  0
  9 42  1  0  0  0  0
 10 11  1  0  0  0  0
 10 43  1  0  0  0  0
 10 44  1  0  0  0  0
 11 45  1  0  0  0  0
 13 14  2  0  0  0  0
 13 15  1  0  0  0  0
 15 16  1  0  0  0  0
 15 31  1  0  0  0  0
 16 17  1  0  0  0  0
 16 46  1  0  0  0  0
 16 47  1  0  0  0  0
 17 18  2  0  0  0  0
 17 19  1  0  0  0  0
 19 30  1  0  0  0  0
 19 20  1  0  0  0  0
 20 21  1  0  0  0  0
 20 48  1  0  0  0  0
 20 49  1  0  0  0  0
 21 22  1  0  0  0  0
 21 50  1  0  0  0  0
 21 51  1  0  0  0  0
 22 30  2  0  0  0  0
 22 23  1  0  0  0  0
 23 24  2  0  0  0  0
 23 52  1  0  0  0  0
 24 25  1  0  0  0  0
 24 28  1  0  0  0  0
 25 26  2  0  0  0  0
 25 27  1  0  0  0  0
 28 29  2  0  0  0  0
 28 53  1  0  0  0  0
 29 30  1  0  0  0  0
 29 54  1  0  0  0  0
 31 32  2  0  0  0  0
M  CHG  1  25   1
M  CHG  1  27  -1
M  END
> <s_m_source_file>
AV-unprocessed.smi

> <i_m_source_file_index>
112

> <i_lp_mmshare_version>
43012

> <i_f3d_flags>
0

> <s_epik_input>
W09IXVtDSDJdW0NAQEhdKE8xKVtDQEhdKFtPSF0pW0NIMl1bQ0BIXTFuKFtjSF1jMltDSDNdKWMoPU8pbihjMj1PKVtDSDJdQyg9TylOKFtDSDJdW0NIMl0zKWMoYzM0KVtjSF1bY0hdYyhbY0hdNClbTitdKD1PKVtPLV0=

> <s_epik_cmdline>
J2VwaWtfcHl0aG9uJywgJy1waCcsICc3LjAnLCAnLXRuJywgJzgnLCAnLW1hJywgJzIwMCcsICctbWV0YWxfYmluZGluZycsICctaW1hZScsICc8aW5maWxlLm1hZT4nLCAnLW9tYWUnLCAnPG91dGZpbGUubWFlPic=

> <r_lp_tautomer_probability>
1

> <r_epik_Ionization_Penalty>
2.5696e-07

> <r_epik_Ionization_Penalty_Charging>
1.04886e-08

> <r_epik_Ionization_Penalty_Neutral>
2.46472e-07

> <r_epik_State_Penalty>
-0

> <r_epik_Charging_Adjusted_Penalty>
1.04886e-08

> <i_epik_Tot_Q>
0

> <i_epik_Tot_abs_Q>
2

> <r_epik_Metal_State_Penalty>
-0

> <b_epik_Metal_Only>
0

> <s_epik_Chemistry_Notes>
This compound contains an acetal/aminal-like group ( X-CH(R)-Y where X, Y are N, S, or O) that may be acid/base labile, releasing an aldehyde.

> <s_lp_Force_Field>
OPLS_2005

> <r_lp_Energy>
59.9345

> <b_lp_Chiralities_Consistent>
1

> <s_lp_Variant>
AV-unprocessed.smi:112-7

> <Gold.Version>
5.8.1

> <Gold.Id.Protein>
6NUR|6NUR_protein|mol2

> <Gold.PLP.Fitness>
54.5030

> <Gold.PLP.PLP>
-46.1041

> <Gold.PLP.part.hbond>
-3.5333

> <Gold.PLP.part.metal>
0.0000

> <Gold.PLP.part.buried>
-1.2062

> <Gold.PLP.part.nonpolar>
-40.3245

> <Gold.PLP.part.repulsive>
0.8306

> <Gold.PLP.ligand.clash>
0.0000

> <Gold.PLP.ligand.torsion>
0.3148

> <Gold.PLP.Chemscore.Hbond>
3.0000

> <Gold.PLP.Chemscore.CHOScore>
0.0000

> <Gold.PLP.Chemscore.Metal>
0.0000

> <Gold.Chemscore.Hbonds>
donor molecule, donor type, donor heavy atom, donor atom, acceptor molecule, acceptor atom, score
      L1  H     8    41       P1  8028  1.00
      P1  H  6896  6908       L1    32  1.00
      P1  H  7997  8008       L1    14  1.00

> <Gold.PLP.Chemscore.Internal.Correction>
0.0285

> <Gold.Rescore>
     Score         DG    S(hbond)    S(metal)    S(lipo)     H(rot)  DE(clash)    DE(int)     intcor
     13.20     -20.07       2.91        0.00     113.56       3.29       1.37       5.50       ----

> <Gold.Chemscore.Fitness>
13.2030

> <Gold.Chemscore.DG>
-20.0701

> <Gold.Chemscore.ZeroCoef>
-5.4800

> <Gold.Chemscore.Hbond>
2.9132

> <Gold.Chemscore.Metal>
0.0000

> <Gold.Chemscore.Lipo>
113.5609

> <Gold.Chemscore.Internal_Hbond>
0.0000

> <Gold.Chemscore.DEClash>
1.3711

> <Gold.Chemscore.DEInternal>
5.4960

> <Gold.Chemscore.Rot>
3.2916

> <Gold.Chemscore.Internal.Correction>
   9.000000E+99

> <Gold.Chemscore.Hbonds>
donor molecule, donor type, donor heavy atom, donor atom, acceptor molecule, acceptor atom, score
      L1  H     8    41       P1  8028  0.31
      P1  H  6896  6908       L1    32  0.98
      P1  H  7997  8008       L1    14  1.00

> <Gold.Chemscore.Hbond.Weighted>
-9.7300

> <Gold.Chemscore.Metal.Weighted>
-0.0000

> <Gold.Chemscore.Lipo.Weighted>
-13.2866

> <Gold.Chemscore.Internal_Hbond.Weighted>
0.0000

> <Gold.Chemscore.DEClash.Weighted>
1.3711

> <Gold.Chemscore.DEInternal.Weighted>
5.4960

> <Gold.Chemscore.Rot.Weighted>
8.4265

> <Gold.Chemscore.Internal.Correction.Weighted>
   9.000000E+99

> <Gold.Protein.RotatedTorsions>
[ 6907 6896 6895 6894 ] final -120.58 input  -60.11 | X-H torsion
[ 7974 7965 7964 7962 ] final  142.05 input  175.53 | X-H torsion
[ 8008 7997 7996 7995 ] final  -41.12 input   59.86 | X-H torsion
[ 10167 10162 10161 10158 ] final -129.82 input  -65.29 | X-H torsion
[ 10718 10713 10712 10709 ] final   14.15 input   66.30 | X-H torsion
[ 10763 10752 10751 10750 ] final -131.04 input  -60.55 | X-H torsion
[ 11005 11000 10999 10996 ] final  163.25 input  -57.11 | X-H torsion

> <Gold.Protein.ActiveResidues>
 VAL166  LYS551  ARG553  GLY616  TRP617  ASP618  TYR619  PRO620  LYS621  CYS622 
 ASP623  PHE694  ASN695  SER759  ASP760  ASP761  ALA762  ILE779  LEU786  VAL792 
 PHE793  MET794  SER795  GLU796  ALA797  LYS798  CYS799  TRP800  GLU811  SER814 

> <Gold.Protein.RotatedAtoms>
  150.8405  133.7943  159.3062 H   0  0  0  0  0  0  0  0  0  0  0  0  # atno 6907 bound_to 6896
  151.5646  135.1063  159.9990 H   0  0  0  0  0  0  0  0  0  0  0  0  # atno 6908 bound_to 6896
  152.4470  133.7513  159.6751 H   0  0  0  0  0  0  0  0  0  0  0  0  # atno 6909 bound_to 6896
  144.9042  139.5381  143.5739 H   0  0  0  0  0  0  0  0  0  0  0  0  # atno 7974 bound_to 7965
  154.4006  140.1507  156.3139 H   0  0  0  0  0  0  0  0  0  0  0  0  # atno 8008 bound_to 7997
  155.8590  140.3454  155.5722 H   0  0  0  0  0  0  0  0  0  0  0  0  # atno 8009 bound_to 7997
  155.7901  140.0855  157.2004 H   0  0  0  0  0  0  0  0  0  0  0  0  # atno 8010 bound_to 7997
  139.9358  143.6220  152.2517 H   0  0  0  0  0  0  0  0  0  0  0  0  # atno 10167 bound_to 10162
  157.0350  130.6208  149.5741 H   0  0  0  0  0  0  0  0  0  0  0  0  # atno 10718 bound_to 10713
  154.8753  135.3843  154.4181 H   0  0  0  0  0  0  0  0  0  0  0  0  # atno 10763 bound_to 10752
  153.4888  135.7030  153.5901 H   0  0  0  0  0  0  0  0  0  0  0  0  # atno 10764 bound_to 10752
  153.4284  135.3884  155.2122 H   0  0  0  0  0  0  0  0  0  0  0  0  # atno 10765 bound_to 10752
  140.2339  134.8103  157.3344 H   0  0  0  0  0  0  0  0  0  0  0  0  # atno 11005 bound_to 11000
  146.3124  139.7796  142.9009 LP  0  0  0  0  0  0  0  0  0  0  0  0  # atno 17320 bound_to 7965
  145.3565  141.0317  143.3309 LP  0  0  0  0  0  0  0  0  0  0  0  0  # atno 17321 bound_to 7965
  139.6745  144.7659  151.1722 LP  0  0  0  0  0  0  0  0  0  0  0  0  # atno 17342 bound_to 10162
  140.7625  143.5816  150.8889 LP  0  0  0  0  0  0  0  0  0  0  0  0  # atno 17343 bound_to 10162
  156.0057  130.5143  150.7820 LP  0  0  0  0  0  0  0  0  0  0  0  0  # atno 17370 bound_to 10713
  157.5148  131.0928  151.0153 LP  0  0  0  0  0  0  0  0  0  0  0  0  # atno 17371 bound_to 10713
  140.1722  134.4594  155.7824 LP  0  0  0  0  0  0  0  0  0  0  0  0  # atno 17394 bound_to 11000
  141.2216  133.6947  156.7728 LP  0  0  0  0  0  0  0  0  0  0  0  0  # atno 17395 bound_to 11000

$$$$
