AV-unprocessed.smi:1897|AV-procd|sdf|7688|dock7
  -GOLD-   22720 9423D 1   1.00000     0.00000
 Structure written by MMmdl.
 39 41  0  0  0  0  0  0  0  0  2 V2000
  151.0181  140.6539  155.8694 C   0  0  0  0  0  0  0  0  0  0  0  0
  151.1208  139.2686  155.3293 C   0  0  0  0  0  0  0  0  0  0  0  0
  152.2856  138.7164  154.9688 N   0  0  0  0  0  0  0  0  0  0  0  0
  152.1279  137.4248  154.4888 N   0  0  0  0  0  0  0  0  0  0  0  0
  150.8458  137.0315  154.5126 C   0  0  0  0  0  0  0  0  0  0  0  0
  150.3854  135.7626  154.0551 N   0  0  0  0  0  0  0  0  0  0  0  0
  149.4939  134.8993  154.5857 C   0  0  0  0  0  0  0  0  0  0  0  0
  148.9189  135.1478  155.6437 O   0  0  0  0  0  0  0  0  0  0  0  0
  149.2819  133.7694  153.8901 N   0  0  0  0  0  0  0  0  0  0  0  0
  148.3239  132.7200  154.2296 C   0  0  2  0  0  0  0  0  0  0  0  0
  148.9743  131.3250  154.3096 C   0  0  0  0  0  0  0  0  0  0  0  0
  147.9900  130.3917  153.5967 C   0  0  0  0  0  0  0  0  0  0  0  0
  147.3999  131.2578  152.5696 N   0  3  1  0  0  0  0  0  0  0  0  0
  146.2139  130.7715  151.8357 C   0  0  0  0  0  0  0  0  0  0  0  0
  145.8945  131.7718  150.7042 C   0  0  0  0  0  0  0  0  0  0  0  0
  145.7725  133.2226  151.2228 C   0  0  0  0  0  0  0  0  0  0  0  0
  146.9867  133.6255  152.0872 C   0  0  0  0  0  0  0  0  0  0  0  0
  147.1841  132.5741  153.1946 C   0  0  2  0  0  0  0  0  0  0  0  0
  149.7141  138.2360  155.1047 S   0  0  0  0  0  0  0  0  0  0  0  0
  151.9499  140.9447  156.3555 H   0  0  0  0  0  0  0  0  0  0  0  0
  150.2115  140.7138  156.6003 H   0  0  0  0  0  0  0  0  0  0  0  0
  150.8109  141.3538  155.0596 H   0  0  0  0  0  0  0  0  0  0  0  0
  150.8706  135.4154  153.2404 H   0  0  0  0  0  0  0  0  0  0  0  0
  149.8059  133.6457  153.0352 H   0  0  0  0  0  0  0  0  0  0  0  0
  147.8787  132.9398  155.2022 H   0  0  0  0  0  0  0  0  0  0  0  0
  149.9255  131.3188  153.7745 H   0  0  0  0  0  0  0  0  0  0  0  0
  149.1737  131.0133  155.3354 H   0  0  0  0  0  0  0  0  0  0  0  0
  148.4759  129.5166  153.1641 H   0  0  0  0  0  0  0  0  0  0  0  0
  147.2130  130.0534  154.2843 H   0  0  0  0  0  0  0  0  0  0  0  0
  146.4178  129.7842  151.4193 H   0  0  0  0  0  0  0  0  0  0  0  0
  145.3672  130.6689  152.5159 H   0  0  0  0  0  0  0  0  0  0  0  0
  146.6870  131.7282  149.9556 H   0  0  0  0  0  0  0  0  0  0  0  0
  144.9763  131.4786  150.1942 H   0  0  0  0  0  0  0  0  0  0  0  0
  145.6631  133.9120  150.3852 H   0  0  0  0  0  0  0  0  0  0  0  0
  144.8621  133.3152  151.8166 H   0  0  0  0  0  0  0  0  0  0  0  0
  147.8799  133.6969  151.4647 H   0  0  0  0  0  0  0  0  0  0  0  0
  146.8206  134.6121  152.5209 H   0  0  0  0  0  0  0  0  0  0  0  0
  146.2562  132.5155  153.7681 H   0  0  0  0  0  0  0  0  0  0  0  0
  148.1273  131.3928  151.8821 H   0  0  0  0  0  0  0  0  0  0  0  0
  1  2  1  0  0  0  0
  1 20  1  0  0  0  0
  1 21  1  0  0  0  0
  1 22  1  0  0  0  0
  2 19  1  0  0  0  0
  2  3  2  0  0  0  0
  3  4  1  0  0  0  0
  4  5  2  0  0  0  0
  5  6  1  0  0  0  0
  5 19  1  0  0  0  0
  6  7  1  0  0  0  0
  6 23  1  0  0  0  0
  7  8  2  0  0  0  0
  7  9  1  0  0  0  0
  9 10  1  0  0  0  0
  9 24  1  0  0  0  0
 10 18  1  0  0  0  0
 10 11  1  0  0  0  0
 10 25  1  0  0  0  0
 11 12  1  0  0  0  0
 11 26  1  0  0  0  0
 11 27  1  0  0  0  0
 12 13  1  0  0  0  0
 12 28  1  0  0  0  0
 12 29  1  0  0  0  0
 13 18  1  0  0  0  0
 13 14  1  0  0  0  0
 13 39  1  0  0  0  0
 14 15  1  0  0  0  0
 14 30  1  0  0  0  0
 14 31  1  0  0  0  0
 15 16  1  0  0  0  0
 15 32  1  0  0  0  0
 15 33  1  0  0  0  0
 16 17  1  0  0  0  0
 16 34  1  0  0  0  0
 16 35  1  0  0  0  0
 17 18  1  0  0  0  0
 17 36  1  0  0  0  0
 17 37  1  0  0  0  0
 18 38  1  0  0  0  0
M  CHG  1  13   1
M  END
> <s_m_source_file>
AV-unprocessed.smi

> <i_m_source_file_index>
1897

> <i_lp_mmshare_version>
43012

> <i_f3d_flags>
0

> <s_epik_input>
W0NIM11jMW5uYyhzMSlbTkhdQyg9TylbTkhdW0NASF0oW0NIMl1bQ0gyXTIpW0NAQEhdKE4yMylbQ0gyXVtDSDJdW0NIMl1bQ0gyXTM=

> <s_epik_cmdline>
J2VwaWtfcHl0aG9uJywgJy1waCcsICc3LjAnLCAnLXRuJywgJzgnLCAnLW1hJywgJzIwMCcsICctbWV0YWxfYmluZGluZycsICctaW1hZScsICc8aW5maWxlLm1hZT4nLCAnLW9tYWUnLCAnPG91dGZpbGUubWFlPic=

> <r_lp_tautomer_probability>
1

> <r_epik_Ionization_Penalty>
0.00228891

> <r_epik_Ionization_Penalty_Charging>
0.00107044

> <r_epik_Ionization_Penalty_Neutral>
0.00121847

> <r_epik_State_Penalty>
-0

> <r_epik_Charging_Adjusted_Penalty>
0.00107044

> <i_epik_Tot_Q>
1

> <i_epik_Tot_abs_Q>
1

> <r_epik_Metal_State_Penalty>
0.304057

> <b_epik_Metal_Only>
0

> <s_lp_Force_Field>
OPLS_2005

> <r_lp_Energy>
42.5593

> <b_lp_Chiralities_Consistent>
1

> <s_lp_Variant>
AV-unprocessed.smi:1897-5

> <Gold.Version>
5.8.1

> <Gold.Id.Protein>
6NUR|6NUR_protein|mol2

> <Gold.PLP.Fitness>
36.0488

> <Gold.PLP.PLP>
-30.1420

> <Gold.PLP.part.hbond>
-4.2129

> <Gold.PLP.part.metal>
0.0000

> <Gold.PLP.part.buried>
-1.8615

> <Gold.PLP.part.nonpolar>
-24.3572

> <Gold.PLP.part.repulsive>
0.2648

> <Gold.PLP.ligand.clash>
0.0000

> <Gold.PLP.ligand.torsion>
0.3975

> <Gold.PLP.Chemscore.Hbond>
2.2336

> <Gold.PLP.Chemscore.CHOScore>
0.0000

> <Gold.PLP.Chemscore.Metal>
0.0000

> <Gold.Chemscore.Hbonds>
donor molecule, donor type, donor heavy atom, donor atom, acceptor molecule, acceptor atom, score
      L1  H     6    23       P1  7949  0.41
      L1  H    13    39       P1 10747  0.99
      P1  H 10752 10764       L1     4  0.78

> <Gold.PLP.Chemscore.Internal.Correction>
0.0011

> <Gold.Rescore>
     Score         DG    S(hbond)    S(metal)    S(lipo)     H(rot)  DE(clash)    DE(int)     intcor
     16.11     -16.99       1.86        0.00      67.11       1.00       0.51       0.37       ----

> <Gold.Chemscore.Fitness>
16.1086

> <Gold.Chemscore.DG>
-16.9886

> <Gold.Chemscore.ZeroCoef>
-5.4800

> <Gold.Chemscore.Hbond>
1.8614

> <Gold.Chemscore.Metal>
0.0000

> <Gold.Chemscore.Lipo>
67.1072

> <Gold.Chemscore.Internal_Hbond>
0.0000

> <Gold.Chemscore.DEClash>
0.5118

> <Gold.Chemscore.DEInternal>
0.3681

> <Gold.Chemscore.Rot>
1.0000

> <Gold.Chemscore.Internal.Correction>
   9.000000E+99

> <Gold.Chemscore.Hbonds>
donor molecule, donor type, donor heavy atom, donor atom, acceptor molecule, acceptor atom, score
      L1  H     6    23       P1  7949  0.02
      L1  H    13    39       P1 10747  0.94
      P1  H 10752 10764       L1     4  0.17

> <Gold.Chemscore.Hbond.Weighted>
-6.2170

> <Gold.Chemscore.Metal.Weighted>
-0.0000

> <Gold.Chemscore.Lipo.Weighted>
-7.8515

> <Gold.Chemscore.Internal_Hbond.Weighted>
0.0000

> <Gold.Chemscore.DEClash.Weighted>
0.5118

> <Gold.Chemscore.DEInternal.Weighted>
0.3681

> <Gold.Chemscore.Rot.Weighted>
2.5600

> <Gold.Chemscore.Internal.Correction.Weighted>
   9.000000E+99

> <Gold.Protein.RotatedTorsions>
[ 6907 6896 6895 6894 ] final -125.38 input  -60.11 | X-H torsion
[ 7974 7965 7964 7962 ] final   -0.42 input  175.53 | X-H torsion
[ 8008 7997 7996 7995 ] final  -23.89 input   59.86 | X-H torsion
[ 10167 10162 10161 10158 ] final    2.30 input  -65.29 | X-H torsion
[ 10718 10713 10712 10709 ] final   15.00 input   66.30 | X-H torsion
[ 10763 10752 10751 10750 ] final  -78.24 input  -60.55 | X-H torsion
[ 11005 11000 10999 10996 ] final  130.93 input  -57.11 | X-H torsion

> <Gold.Protein.ActiveResidues>
 VAL166  LYS551  ARG553  GLY616  TRP617  ASP618  TYR619  PRO620  LYS621  CYS622 
 ASP623  PHE694  ASN695  SER759  ASP760  ASP761  ALA762  ILE779  LEU786  VAL792 
 PHE793  MET794  SER795  GLU796  ALA797  LYS798  CYS799  TRP800  GLU811  SER814 

> <Gold.Protein.RotatedAtoms>
  150.8862  133.7305  159.2917 H   0  0  0  0  0  0  0  0  0  0  0  0  # atno 6907 bound_to 6896
  151.4870  135.1054  159.9803 H   0  0  0  0  0  0  0  0  0  0  0  0  # atno 6908 bound_to 6896
  152.4791  133.8164  159.7086 H   0  0  0  0  0  0  0  0  0  0  0  0  # atno 6909 bound_to 6896
  146.2427  140.1267  142.8339 H   0  0  0  0  0  0  0  0  0  0  0  0  # atno 7974 bound_to 7965
  154.4559  140.1968  156.0380 H   0  0  0  0  0  0  0  0  0  0  0  0  # atno 8008 bound_to 7997
  156.0745  140.3280  155.7589 H   0  0  0  0  0  0  0  0  0  0  0  0  # atno 8009 bound_to 7997
  155.5210  140.0570  157.2897 H   0  0  0  0  0  0  0  0  0  0  0  0  # atno 8010 bound_to 7997
  140.6642  143.7225  150.7795 H   0  0  0  0  0  0  0  0  0  0  0  0  # atno 10167 bound_to 10162
  157.0472  130.6255  149.5761 H   0  0  0  0  0  0  0  0  0  0  0  0  # atno 10718 bound_to 10713
  154.5233  135.5737  153.6698 H   0  0  0  0  0  0  0  0  0  0  0  0  # atno 10763 bound_to 10752
  152.9922  135.6187  154.2726 H   0  0  0  0  0  0  0  0  0  0  0  0  # atno 10764 bound_to 10752
  154.2648  135.2855  155.2742 H   0  0  0  0  0  0  0  0  0  0  0  0  # atno 10765 bound_to 10752
  139.9701  134.9580  156.9365 H   0  0  0  0  0  0  0  0  0  0  0  0  # atno 11005 bound_to 11000
  145.0360  140.8908  143.5081 LP  0  0  0  0  0  0  0  0  0  0  0  0  # atno 17320 bound_to 7965
  145.1340  139.2614  143.5525 LP  0  0  0  0  0  0  0  0  0  0  0  0  # atno 17321 bound_to 7965
  140.0899  143.4888  152.2484 LP  0  0  0  0  0  0  0  0  0  0  0  0  # atno 17342 bound_to 10162
  139.5885  144.7540  151.3460 LP  0  0  0  0  0  0  0  0  0  0  0  0  # atno 17343 bound_to 10162
  156.0019  130.5099  150.7693 LP  0  0  0  0  0  0  0  0  0  0  0  0  # atno 17370 bound_to 10713
  157.5058  131.0922  151.0259 LP  0  0  0  0  0  0  0  0  0  0  0  0  # atno 17371 bound_to 10713
  140.5312  134.0811  155.7316 LP  0  0  0  0  0  0  0  0  0  0  0  0  # atno 17394 bound_to 11000
  141.1380  133.9187  157.2390 LP  0  0  0  0  0  0  0  0  0  0  0  0  # atno 17395 bound_to 11000

$$$$
