AV-unprocessed.smi:2053|AV-procd|sdf|8331|dock8
  -GOLD-   2272010593D 1   1.00000     0.00000
 Structure written by MMmdl.
 44 45  0  0  0  0  0  0  0  0  1 V2000
  157.4574  138.4748  152.7699 C   0  0  0  0  0  0  0  0  0  0  0  0
  156.6118  137.8737  153.7347 O   0  0  0  0  0  0  0  0  0  0  0  0
  155.6540  138.7798  154.2565 C   0  0  0  0  0  0  0  0  0  0  0  0
  154.3311  138.0412  154.4804 C   0  0  0  0  0  0  0  0  0  0  0  0
  153.4456  138.8954  155.1982 O   0  0  0  0  0  0  0  0  0  0  0  0
  152.3390  138.3384  155.8053 C   0  0  0  0  0  0  0  0  0  0  0  0
  151.5997  139.1270  156.7088 C   0  0  0  0  0  0  0  0  0  0  0  0
  150.4697  138.5678  157.3354 C   0  0  0  0  0  0  0  0  0  0  0  0
  150.1190  137.2281  157.0436 C   0  0  0  0  0  0  0  0  0  0  0  0
  148.9934  136.5539  157.5891 N   0  0  0  0  0  0  0  0  0  0  0  0
  148.8661  135.2614  157.9420 C   0  0  0  0  0  0  0  0  0  0  0  0
  149.7449  134.4114  157.7985 O   0  0  0  0  0  0  0  0  0  0  0  0
  147.5024  134.8823  158.5430 C   0  0  1  0  0  0  0  0  0  0  0  0
  146.9457  133.5364  158.0450 C   0  0  0  0  0  0  0  0  0  0  0  0
  147.4102  132.5409  159.0986 C   0  0  0  0  0  0  0  0  0  0  0  0
  147.3249  133.3475  160.3926 C   0  0  0  0  0  0  0  0  0  0  0  0
  147.5518  134.7489  160.0088 N   0  0  0  0  0  0  0  0  0  0  0  0
  146.8485  135.9987  160.9789 S   0  0  0  0  0  0  0  0  0  0  0  0
  147.3427  135.5175  162.6832 C   0  0  0  0  0  0  0  0  0  0  0  0
  147.5279  137.2590  160.6419 O   0  0  0  0  0  0  0  0  0  0  0  0
  145.3866  135.8978  160.8519 O   0  0  0  0  0  0  0  0  0  0  0  0
  150.9169  136.5291  156.1144 C   0  0  0  0  0  0  0  0  0  0  0  0
  152.0014  137.0589  155.5104 N   0  0  0  0  0  0  0  0  0  0  0  0
  158.1739  137.7404  152.4020 H   0  0  0  0  0  0  0  0  0  0  0  0
  158.0181  139.3060  153.1991 H   0  0  0  0  0  0  0  0  0  0  0  0
  156.8841  138.8422  151.9177 H   0  0  0  0  0  0  0  0  0  0  0  0
  156.0156  139.1735  155.2075 H   0  0  0  0  0  0  0  0  0  0  0  0
  155.5084  139.6270  153.5844 H   0  0  0  0  0  0  0  0  0  0  0  0
  153.9017  137.7367  153.5244 H   0  0  0  0  0  0  0  0  0  0  0  0
  154.5212  137.1402  155.0660 H   0  0  0  0  0  0  0  0  0  0  0  0
  151.8910  140.1465  156.9139 H   0  0  0  0  0  0  0  0  0  0  0  0
  149.8937  139.1807  158.0104 H   0  0  0  0  0  0  0  0  0  0  0  0
  148.1635  137.1197  157.6975 H   0  0  0  0  0  0  0  0  0  0  0  0
  146.7938  135.6667  158.2717 H   0  0  0  0  0  0  0  0  0  0  0  0
  145.8555  133.5754  158.0320 H   0  0  0  0  0  0  0  0  0  0  0  0
  147.2673  133.2612  157.0398 H   0  0  0  0  0  0  0  0  0  0  0  0
  146.8029  131.6356  159.1237 H   0  0  0  0  0  0  0  0  0  0  0  0
  148.4437  132.2487  158.9077 H   0  0  0  0  0  0  0  0  0  0  0  0
  146.3311  133.2456  160.8300 H   0  0  0  0  0  0  0  0  0  0  0  0
  148.0575  133.0248  161.1327 H   0  0  0  0  0  0  0  0  0  0  0  0
  146.9764  136.2621  163.3897 H   0  0  0  0  0  0  0  0  0  0  0  0
  148.4294  135.4642  162.7450 H   0  0  0  0  0  0  0  0  0  0  0  0
  146.9154  134.5463  162.9303 H   0  0  0  0  0  0  0  0  0  0  0  0
  150.6806  135.5093  155.8480 H   0  0  0  0  0  0  0  0  0  0  0  0
  1  2  1  0  0  0  0
  1 24  1  0  0  0  0
  1 25  1  0  0  0  0
  1 26  1  0  0  0  0
  2  3  1  0  0  0  0
  3  4  1  0  0  0  0
  3 27  1  0  0  0  0
  3 28  1  0  0  0  0
  4  5  1  0  0  0  0
  4 29  1  0  0  0  0
  4 30  1  0  0  0  0
  5  6  1  0  0  0  0
  6 23  1  0  0  0  0
  6  7  2  0  0  0  0
  7  8  1  0  0  0  0
  7 31  1  0  0  0  0
  8  9  2  0  0  0  0
  8 32  1  0  0  0  0
  9 10  1  0  0  0  0
  9 22  1  0  0  0  0
 10 11  1  0  0  0  0
 10 33  1  0  0  0  0
 11 12  2  0  0  0  0
 11 13  1  0  0  0  0
 13 17  1  0  0  0  0
 13 14  1  0  0  0  0
 13 34  1  0  0  0  0
 14 15  1  0  0  0  0
 14 35  1  0  0  0  0
 14 36  1  0  0  0  0
 15 16  1  0  0  0  0
 15 37  1  0  0  0  0
 15 38  1  0  0  0  0
 16 17  1  0  0  0  0
 16 39  1  0  0  0  0
 16 40  1  0  0  0  0
 17 18  1  0  0  0  0
 18 19  1  0  0  0  0
 18 20  2  0  0  0  0
 18 21  2  0  0  0  0
 19 41  1  0  0  0  0
 19 42  1  0  0  0  0
 19 43  1  0  0  0  0
 22 23  2  0  0  0  0
 22 44  1  0  0  0  0
M  END
> <s_m_source_file>
AV-unprocessed.smi

> <i_m_source_file_index>
2053

> <i_lp_mmshare_version>
43012

> <i_f3d_flags>
0

> <s_epik_input>
W0NIM11PW0NIMl1bQ0gyXU9jMVtjSF1bY0hdYyhbY0hdbjEpW05IXUMoPU8pW0NAQEhdMltDSDJdW0NIMl1bQ0gyXU4yUyg9TykoPU8pW0NIM10=

> <s_epik_cmdline>
J2VwaWtfcHl0aG9uJywgJy1waCcsICc3LjAnLCAnLXRuJywgJzgnLCAnLW1hJywgJzIwMCcsICctbWV0YWxfYmluZGluZycsICctaW1hZScsICc8aW5maWxlLm1hZT4nLCAnLW9tYWUnLCAnPG91dGZpbGUubWFlPic=

> <r_lp_tautomer_probability>
1

> <r_epik_Ionization_Penalty>
1.28704e-05

> <r_epik_Ionization_Penalty_Charging>
0

> <r_epik_Ionization_Penalty_Neutral>
1.28704e-05

> <r_epik_State_Penalty>
-0

> <r_epik_Charging_Adjusted_Penalty>
0

> <i_epik_Tot_Q>
0

> <i_epik_Tot_abs_Q>
0

> <r_epik_Metal_State_Penalty>
-0

> <b_epik_Metal_Only>
0

> <s_lp_Force_Field>
OPLS_2005

> <r_lp_Energy>
12.3258

> <b_lp_Chiralities_Consistent>
1

> <s_lp_Variant>
AV-unprocessed.smi:2053-2

> <Gold.Version>
5.8.1

> <Gold.Id.Protein>
6NUR|6NUR_protein|mol2

> <Gold.PLP.Fitness>
36.9685

> <Gold.PLP.PLP>
-25.9419

> <Gold.PLP.part.hbond>
-5.0000

> <Gold.PLP.part.metal>
0.0000

> <Gold.PLP.part.buried>
-0.0530

> <Gold.PLP.part.nonpolar>
-21.7981

> <Gold.PLP.part.repulsive>
0.1299

> <Gold.PLP.ligand.clash>
0.0000

> <Gold.PLP.ligand.torsion>
1.4836

> <Gold.PLP.Chemscore.Hbond>
4.4720

> <Gold.PLP.Chemscore.CHOScore>
0.0000

> <Gold.PLP.Chemscore.Metal>
0.0000

> <Gold.Chemscore.Hbonds>
donor molecule, donor type, donor heavy atom, donor atom, acceptor molecule, acceptor atom, score
      P1  H  6896  6907       L1    12  0.74
      P1  H  6931  6943       L1    20  0.44
      P1  H  6934  6947       L1    20  1.00
      P1  H  7997  8010       L1     5  1.00
      P1  H 10752 10763       L1    23  0.98

> <Gold.PLP.Chemscore.Internal.Correction>
0.5777

> <Gold.Rescore>
     Score         DG    S(hbond)    S(metal)    S(lipo)     H(rot)  DE(clash)    DE(int)     intcor
     17.94     -22.19       4.33        0.00      68.70       2.26       1.63       2.62       ----

> <Gold.Chemscore.Fitness>
17.9376

> <Gold.Chemscore.DG>
-22.1926

> <Gold.Chemscore.ZeroCoef>
-5.4800

> <Gold.Chemscore.Hbond>
4.3277

> <Gold.Chemscore.Metal>
0.0000

> <Gold.Chemscore.Lipo>
68.6976

> <Gold.Chemscore.Internal_Hbond>
0.0000

> <Gold.Chemscore.DEClash>
1.6305

> <Gold.Chemscore.DEInternal>
2.6245

> <Gold.Chemscore.Rot>
2.2576

> <Gold.Chemscore.Internal.Correction>
   9.000000E+99

> <Gold.Chemscore.Hbonds>
donor molecule, donor type, donor heavy atom, donor atom, acceptor molecule, acceptor atom, score
      P1  H  6896  6907       L1    12  0.73
      P1  H  6931  6943       L1    20  0.43
      P1  H  6934  6947       L1    20  0.95
      P1  H  7997  8010       L1     5  0.65
      P1  H 10752 10763       L1    23  0.51

> <Gold.Chemscore.Hbond.Weighted>
-14.4546

> <Gold.Chemscore.Metal.Weighted>
-0.0000

> <Gold.Chemscore.Lipo.Weighted>
-8.0376

> <Gold.Chemscore.Internal_Hbond.Weighted>
0.0000

> <Gold.Chemscore.DEClash.Weighted>
1.6305

> <Gold.Chemscore.DEInternal.Weighted>
2.6245

> <Gold.Chemscore.Rot.Weighted>
5.7796

> <Gold.Chemscore.Internal.Correction.Weighted>
   9.000000E+99

> <Gold.Protein.RotatedTorsions>
[ 6907 6896 6895 6894 ] final -127.02 input  -60.11 | X-H torsion
[ 7974 7965 7964 7962 ] final   68.55 input  175.53 | X-H torsion
[ 8008 7997 7996 7995 ] final   93.83 input   59.86 | X-H torsion
[ 10167 10162 10161 10158 ] final  114.51 input  -65.29 | X-H torsion
[ 10718 10713 10712 10709 ] final -142.39 input   66.30 | X-H torsion
[ 10763 10752 10751 10750 ] final   70.31 input  -60.55 | X-H torsion
[ 11005 11000 10999 10996 ] final    8.59 input  -57.11 | X-H torsion

> <Gold.Protein.ActiveResidues>
 VAL166  LYS551  ARG553  GLY616  TRP617  ASP618  TYR619  PRO620  LYS621  CYS622 
 ASP623  PHE694  ASN695  SER759  ASP760  ASP761  ALA762  ILE779  LEU786  VAL792 
 PHE793  MET794  SER795  GLU796  ALA797  LYS798  CYS799  TRP800  GLU811  SER814 

> <Gold.Protein.RotatedAtoms>
  150.9029  133.7095  159.2874 H   0  0  0  0  0  0  0  0  0  0  0  0  # atno 6907 bound_to 6896
  151.4607  135.1037  159.9734 H   0  0  0  0  0  0  0  0  0  0  0  0  # atno 6908 bound_to 6896
  152.4887  133.8393  159.7199 H   0  0  0  0  0  0  0  0  0  0  0  0  # atno 6909 bound_to 6896
  145.8012  139.2983  143.1153 H   0  0  0  0  0  0  0  0  0  0  0  0  # atno 7974 bound_to 7965
  156.0512  140.3308  155.7353 H   0  0  0  0  0  0  0  0  0  0  0  0  # atno 8008 bound_to 7997
  155.5599  140.0618  157.2849 H   0  0  0  0  0  0  0  0  0  0  0  0  # atno 8009 bound_to 7997
  154.4436  140.1879  156.0760 H   0  0  0  0  0  0  0  0  0  0  0  0  # atno 8010 bound_to 7997
  139.6383  144.7122  151.2288 H   0  0  0  0  0  0  0  0  0  0  0  0  # atno 10167 bound_to 10162
  156.3453  130.7659  151.1803 H   0  0  0  0  0  0  0  0  0  0  0  0  # atno 10718 bound_to 10713
  153.0334  135.5178  154.7421 H   0  0  0  0  0  0  0  0  0  0  0  0  # atno 10763 bound_to 10752
  154.6417  135.2913  155.0097 H   0  0  0  0  0  0  0  0  0  0  0  0  # atno 10764 bound_to 10752
  154.1012  135.6636  153.4921 H   0  0  0  0  0  0  0  0  0  0  0  0  # atno 10765 bound_to 10752
  140.5352  134.0427  155.7886 H   0  0  0  0  0  0  0  0  0  0  0  0  # atno 11005 bound_to 11000
  145.9876  140.8630  143.0083 LP  0  0  0  0  0  0  0  0  0  0  0  0  # atno 17320 bound_to 7965
  144.6768  140.2169  143.7371 LP  0  0  0  0  0  0  0  0  0  0  0  0  # atno 17321 bound_to 7965
  140.7477  143.6356  150.8382 LP  0  0  0  0  0  0  0  0  0  0  0  0  # atno 17342 bound_to 10162
  139.9990  143.5764  152.2882 LP  0  0  0  0  0  0  0  0  0  0  0  0  # atno 17343 bound_to 10162
  157.7453  131.0443  150.4785 LP  0  0  0  0  0  0  0  0  0  0  0  0  # atno 17370 bound_to 10713
  156.4972  130.4109  149.6373 LP  0  0  0  0  0  0  0  0  0  0  0  0  # atno 17371 bound_to 10713
  141.1258  133.9385  157.2637 LP  0  0  0  0  0  0  0  0  0  0  0  0  # atno 17394 bound_to 11000
  139.9533  135.0171  156.9056 LP  0  0  0  0  0  0  0  0  0  0  0  0  # atno 17395 bound_to 11000

$$$$
