AV-unprocessed.smi:2660|AV-procd|sdf|10314|dock7
  -GOLD-   2272014333D 1   1.00000     0.00000
 Structure written by MMmdl.
 36 37  0  0  0  0  0  0  0  0  1 V2000
  145.2547  145.3166  158.5233 N   0  0  0  0  0  0  0  0  0  0  0  0
  145.8193  144.1087  158.6457 C   0  0  0  0  0  0  0  0  0  0  0  0
  145.1225  143.1097  158.4672 O   0  0  0  0  0  0  0  0  0  0  0  0
  147.2592  144.1419  158.9909 C   0  0  0  0  0  0  0  0  0  0  0  0
  147.7699  144.9884  159.9133 C   0  0  0  0  0  0  0  0  0  0  0  0
  149.1746  144.9837  160.2146 C   0  0  0  0  0  0  0  0  0  0  0  0
  149.9986  144.1205  159.5920 C   0  0  0  0  0  0  0  0  0  0  0  0
  151.5023  144.1164  159.8959 C   0  0  0  0  0  0  0  0  0  0  0  0
  151.8210  145.0694  160.7732 F   0  0  0  0  0  0  0  0  0  0  0  0
  151.8925  142.9615  160.4314 F   0  0  0  0  0  0  0  0  0  0  0  0
  152.2124  144.3563  158.7929 F   0  0  0  0  0  0  0  0  0  0  0  0
  149.4719  143.2002  158.6321 N   0  0  0  0  0  0  0  0  0  0  0  0
  150.3620  142.2170  157.9650 C   0  0  0  0  0  0  0  0  0  0  0  0
  149.8736  140.7506  158.1320 C   0  0  2  0  0  0  0  0  0  0  0  0
  150.3421  140.2386  159.3629 O   0  0  0  0  0  0  0  0  0  0  0  0
  150.3219  139.8677  156.9756 C   0  0  0  0  0  0  0  0  0  0  0  0
  151.6969  139.6356  156.7560 C   0  0  0  0  0  0  0  0  0  0  0  0
  152.1175  138.8142  155.6923 C   0  0  0  0  0  0  0  0  0  0  0  0
  151.1659  138.2195  154.8419 C   0  0  0  0  0  0  0  0  0  0  0  0
  149.7929  138.4465  155.0559 C   0  0  0  0  0  0  0  0  0  0  0  0
  149.3717  139.2684  156.1194 C   0  0  0  0  0  0  0  0  0  0  0  0
  148.1412  143.1826  158.2772 C   0  0  0  0  0  0  0  0  0  0  0  0
  147.7412  142.3960  157.4139 O   0  0  0  0  0  0  0  0  0  0  0  0
  144.2756  145.3878  158.2872 H   0  0  0  0  0  0  0  0  0  0  0  0
  145.8065  146.1499  158.6642 H   0  0  0  0  0  0  0  0  0  0  0  0
  147.1526  145.6917  160.4523 H   0  0  0  0  0  0  0  0  0  0  0  0
  149.5507  145.6895  160.9399 H   0  0  0  0  0  0  0  0  0  0  0  0
  150.4091  142.4706  156.9038 H   0  0  0  0  0  0  0  0  0  0  0  0
  151.4078  142.2989  158.2446 H   0  0  0  0  0  0  0  0  0  0  0  0
  148.7844  140.7191  158.1856 H   0  0  0  0  0  0  0  0  0  0  0  0
  151.2735  140.0951  159.2911 H   0  0  0  0  0  0  0  0  0  0  0  0
  152.4351  140.0822  157.4060 H   0  0  0  0  0  0  0  0  0  0  0  0
  153.1708  138.6392  155.5303 H   0  0  0  0  0  0  0  0  0  0  0  0
  151.4892  137.5887  154.0270 H   0  0  0  0  0  0  0  0  0  0  0  0
  149.0623  137.9890  154.4052 H   0  0  0  0  0  0  0  0  0  0  0  0
  148.3164  139.4352  156.2788 H   0  0  0  0  0  0  0  0  0  0  0  0
  1  2  1  0  0  0  0
  1 24  1  0  0  0  0
  1 25  1  0  0  0  0
  2  3  2  0  0  0  0
  2  4  1  0  0  0  0
  4 22  1  0  0  0  0
  4  5  2  0  0  0  0
  5  6  1  0  0  0  0
  5 26  1  0  0  0  0
  6  7  2  0  0  0  0
  6 27  1  0  0  0  0
  7  8  1  0  0  0  0
  7 12  1  0  0  0  0
  8  9  1  0  0  0  0
  8 10  1  0  0  0  0
  8 11  1  0  0  0  0
 12 13  1  0  0  0  0
 12 22  1  0  0  0  0
 13 14  1  0  0  0  0
 13 28  1  0  0  0  0
 13 29  1  0  0  0  0
 14 15  1  0  0  0  0
 14 16  1  0  0  0  0
 14 30  1  0  0  0  0
 15 31  1  0  0  0  0
 16 21  1  0  0  0  0
 16 17  2  0  0  0  0
 17 18  1  0  0  0  0
 17 32  1  0  0  0  0
 18 19  2  0  0  0  0
 18 33  1  0  0  0  0
 19 20  1  0  0  0  0
 19 34  1  0  0  0  0
 20 21  2  0  0  0  0
 20 35  1  0  0  0  0
 21 36  1  0  0  0  0
 22 23  2  0  0  0  0
M  END
> <s_m_source_file>
AV-unprocessed.smi

> <i_m_source_file_index>
2660

> <i_lp_mmshare_version>
43012

> <i_f3d_flags>
0

> <s_epik_input>
W05IMl1DKD1PKWMxW2NIXVtjSF1jKEMoRikoRilGKW4oYzE9TylbQ0gyXVtDQEhdKFtPSF0pYzJbY0hdW2NIXVtjSF1bY0hdW2NIXTI=

> <s_epik_cmdline>
J2VwaWtfcHl0aG9uJywgJy1waCcsICc3LjAnLCAnLXRuJywgJzgnLCAnLW1hJywgJzIwMCcsICctbWV0YWxfYmluZGluZycsICctaW1hZScsICc8aW5maWxlLm1hZT4nLCAnLW9tYWUnLCAnPG91dGZpbGUubWFlPic=

> <r_lp_tautomer_probability>
1

> <r_epik_Ionization_Penalty>
1.58596e-06

> <r_epik_Ionization_Penalty_Charging>
5.13453e-09

> <r_epik_Ionization_Penalty_Neutral>
1.58083e-06

> <r_epik_State_Penalty>
-0

> <r_epik_Charging_Adjusted_Penalty>
5.13453e-09

> <i_epik_Tot_Q>
0

> <i_epik_Tot_abs_Q>
0

> <r_epik_Metal_State_Penalty>
-0

> <b_epik_Metal_Only>
0

> <s_lp_Force_Field>
OPLS_2005

> <r_lp_Energy>
35.2508

> <b_lp_Chiralities_Consistent>
1

> <s_lp_Variant>
AV-unprocessed.smi:2660-1

> <Gold.Version>
5.8.1

> <Gold.Id.Protein>
6NUR|6NUR_protein|mol2

> <Gold.PLP.Fitness>
44.5360

> <Gold.PLP.PLP>
-43.6194

> <Gold.PLP.part.hbond>
-1.0000

> <Gold.PLP.part.metal>
0.0000

> <Gold.PLP.part.buried>
-6.4486

> <Gold.PLP.part.nonpolar>
-36.7669

> <Gold.PLP.part.repulsive>
0.1081

> <Gold.PLP.ligand.clash>
3.4371

> <Gold.PLP.ligand.torsion>
1.0365

> <Gold.PLP.Chemscore.Hbond>
0.9750

> <Gold.PLP.Chemscore.CHOScore>
0.0000

> <Gold.PLP.Chemscore.Metal>
0.0000

> <Gold.PLP.Chemscore.Internal.Correction>
3.5016

> <Gold.Rescore>
     Score         DG    S(hbond)    S(metal)    S(lipo)     H(rot)  DE(clash)    DE(int)     intcor
      7.19     -12.67       0.91        0.00      83.93       2.21       0.01       5.47       ----

> <Gold.Chemscore.Fitness>
7.1851

> <Gold.Chemscore.DG>
-12.6715

> <Gold.Chemscore.ZeroCoef>
-5.4800

> <Gold.Chemscore.Hbond>
0.9059

> <Gold.Chemscore.Metal>
0.0000

> <Gold.Chemscore.Lipo>
83.9290

> <Gold.Chemscore.Internal_Hbond>
0.0000

> <Gold.Chemscore.DEClash>
0.0120

> <Gold.Chemscore.DEInternal>
5.4744

> <Gold.Chemscore.Rot>
2.2086

> <Gold.Chemscore.Internal.Correction>
   9.000000E+99

> <Gold.Chemscore.Hbonds>
donor molecule, donor type, donor heavy atom, donor atom, acceptor molecule, acceptor atom, score
      L1  H     1    25       P1  8029  0.01

> <Gold.Chemscore.Hbond.Weighted>
-3.0258

> <Gold.Chemscore.Metal.Weighted>
-0.0000

> <Gold.Chemscore.Lipo.Weighted>
-9.8197

> <Gold.Chemscore.Internal_Hbond.Weighted>
0.0000

> <Gold.Chemscore.DEClash.Weighted>
0.0120

> <Gold.Chemscore.DEInternal.Weighted>
5.4744

> <Gold.Chemscore.Rot.Weighted>
5.6540

> <Gold.Chemscore.Internal.Correction.Weighted>
   9.000000E+99

> <Gold.Protein.RotatedTorsions>
[ 6907 6896 6895 6894 ] final  -52.23 input  -60.11 | X-H torsion
[ 7974 7965 7964 7962 ] final   75.59 input  175.53 | X-H torsion
[ 8008 7997 7996 7995 ] final   41.05 input   59.86 | X-H torsion
[ 10167 10162 10161 10158 ] final  155.25 input  -65.29 | X-H torsion
[ 10718 10713 10712 10709 ] final  -82.40 input   66.30 | X-H torsion
[ 10763 10752 10751 10750 ] final   29.82 input  -60.55 | X-H torsion
[ 11005 11000 10999 10996 ] final  -61.50 input  -57.11 | X-H torsion

> <Gold.Protein.ActiveResidues>
 VAL166  LYS551  ARG553  GLY616  TRP617  ASP618  TYR619  PRO620  LYS621  CYS622 
 ASP623  PHE694  ASN695  SER759  ASP760  ASP761  ALA762  ILE779  LEU786  VAL792 
 PHE793  MET794  SER795  GLU796  ALA797  LYS798  CYS799  TRP800  GLU811  SER814 

> <Gold.Protein.RotatedAtoms>
  150.8537  134.7869  159.7028 H   0  0  0  0  0  0  0  0  0  0  0  0  # atno 6907 bound_to 6896
  152.4594  134.5214  159.9793 H   0  0  0  0  0  0  0  0  0  0  0  0  # atno 6908 bound_to 6896
  151.5330  133.3407  159.2957 H   0  0  0  0  0  0  0  0  0  0  0  0  # atno 6909 bound_to 6896
  145.7137  139.2623  143.1636 H   0  0  0  0  0  0  0  0  0  0  0  0  # atno 7974 bound_to 7965
  155.2633  140.3361  155.4271 H   0  0  0  0  0  0  0  0  0  0  0  0  # atno 8008 bound_to 7997
  156.2165  140.1791  156.7619 H   0  0  0  0  0  0  0  0  0  0  0  0  # atno 8009 bound_to 7997
  154.5761  140.0661  156.9021 H   0  0  0  0  0  0  0  0  0  0  0  0  # atno 8010 bound_to 7997
  139.4821  144.5115  151.8017 H   0  0  0  0  0  0  0  0  0  0  0  0  # atno 10167 bound_to 10162
  156.0034  130.4633  150.4099 H   0  0  0  0  0  0  0  0  0  0  0  0  # atno 10718 bound_to 10713
  153.0407  135.6479  154.0950 H   0  0  0  0  0  0  0  0  0  0  0  0  # atno 10763 bound_to 10752
  154.0657  135.2884  155.3318 H   0  0  0  0  0  0  0  0  0  0  0  0  # atno 10764 bound_to 10752
  154.6628  135.5385  153.8104 H   0  0  0  0  0  0  0  0  0  0  0  0  # atno 10765 bound_to 10752
  141.1326  133.6631  156.5385 H   0  0  0  0  0  0  0  0  0  0  0  0  # atno 11005 bound_to 11000
  146.0689  140.7890  142.9698 LP  0  0  0  0  0  0  0  0  0  0  0  0  # atno 17320 bound_to 7965
  144.6935  140.3312  143.7216 LP  0  0  0  0  0  0  0  0  0  0  0  0  # atno 17321 bound_to 7965
  140.4619  144.1710  150.5907 LP  0  0  0  0  0  0  0  0  0  0  0  0  # atno 17342 bound_to 10162
  140.4476  143.2500  151.9391 LP  0  0  0  0  0  0  0  0  0  0  0  0  # atno 17343 bound_to 10162
  157.2163  131.0472  151.2571 LP  0  0  0  0  0  0  0  0  0  0  0  0  # atno 17370 bound_to 10713
  157.3842  130.7247  149.6652 LP  0  0  0  0  0  0  0  0  0  0  0  0  # atno 17371 bound_to 10713
  140.4159  134.7231  157.4862 LP  0  0  0  0  0  0  0  0  0  0  0  0  # atno 17394 bound_to 11000
  140.0394  134.6289  155.9000 LP  0  0  0  0  0  0  0  0  0  0  0  0  # atno 17395 bound_to 11000

$$$$
