AV-unprocessed.smi:925|AV-procd|sdf|4181|dock8
  -GOLD-   22720 2 83D 1   1.00000     0.00000
 Structure written by MMmdl.
 29 30  0  0  0  0  0  0  0  0  1 V2000
  150.6225  140.8767  156.4404 O   0  0  0  0  0  0  0  0  0  0  0  0
  150.0655  141.9703  156.3391 C   0  0  0  0  0  0  0  0  0  0  0  0
  149.0215  142.2402  155.5356 N   0  0  0  0  0  0  0  0  0  0  0  0
  148.3418  141.3622  154.6501 C   0  0  0  0  0  0  0  0  0  0  0  0
  148.7231  140.0963  154.4179 N   0  0  0  0  0  0  0  0  0  0  0  0
  147.8856  139.4591  153.5113 N   0  0  0  0  0  0  0  0  0  0  0  0
  146.9068  140.2684  153.0963 C   0  0  0  0  0  0  0  0  0  0  0  0
  146.9123  141.8880  153.7724 S   0  0  0  0  0  0  0  0  0  0  0  0
  150.4364  143.0564  157.0331 N   0  0  0  0  0  0  0  0  0  0  0  0
  151.5375  143.1090  157.9908 C   0  0  0  0  0  0  0  0  0  0  0  0
  151.5799  141.8245  158.8448 C   0  0  0  0  0  0  0  0  0  0  0  0
  152.6862  141.8941  159.9100 C   0  0  0  0  0  0  0  0  0  0  0  0
  152.5325  143.1408  160.7953 C   0  0  0  0  0  0  0  0  0  0  0  0
  152.4946  144.4219  159.9476 C   0  0  0  0  0  0  0  0  0  0  0  0
  151.3857  144.3542  158.8850 C   0  0  0  0  0  0  0  0  0  0  0  0
  148.6714  143.1865  155.5593 H   0  0  0  0  0  0  0  0  0  0  0  0
  146.1761  139.9087  152.3871 H   0  0  0  0  0  0  0  0  0  0  0  0
  149.9220  143.9125  156.8876 H   0  0  0  0  0  0  0  0  0  0  0  0
  152.4782  143.1998  157.4442 H   0  0  0  0  0  0  0  0  0  0  0  0
  150.6166  141.6735  159.3342 H   0  0  0  0  0  0  0  0  0  0  0  0
  151.7424  140.9534  158.2088 H   0  0  0  0  0  0  0  0  0  0  0  0
  152.6649  140.9952  160.5268 H   0  0  0  0  0  0  0  0  0  0  0  0
  153.6613  141.9110  159.4216 H   0  0  0  0  0  0  0  0  0  0  0  0
  151.6158  143.0625  161.3810 H   0  0  0  0  0  0  0  0  0  0  0  0
  153.3538  143.1923  161.5109 H   0  0  0  0  0  0  0  0  0  0  0  0
  152.3409  145.2888  160.5908 H   0  0  0  0  0  0  0  0  0  0  0  0
  153.4596  144.5660  159.4599 H   0  0  0  0  0  0  0  0  0  0  0  0
  151.4074  145.2582  158.2751 H   0  0  0  0  0  0  0  0  0  0  0  0
  150.4133  144.3385  159.3799 H   0  0  0  0  0  0  0  0  0  0  0  0
  1  2  2  0  0  0  0
  2  3  1  0  0  0  0
  2  9  1  0  0  0  0
  3  4  1  0  0  0  0
  3 16  1  0  0  0  0
  4  8  1  0  0  0  0
  4  5  2  0  0  0  0
  5  6  1  0  0  0  0
  6  7  2  0  0  0  0
  7  8  1  0  0  0  0
  7 17  1  0  0  0  0
  9 10  1  0  0  0  0
  9 18  1  0  0  0  0
 10 15  1  0  0  0  0
 10 11  1  0  0  0  0
 10 19  1  0  0  0  0
 11 12  1  0  0  0  0
 11 20  1  0  0  0  0
 11 21  1  0  0  0  0
 12 13  1  0  0  0  0
 12 22  1  0  0  0  0
 12 23  1  0  0  0  0
 13 14  1  0  0  0  0
 13 24  1  0  0  0  0
 13 25  1  0  0  0  0
 14 15  1  0  0  0  0
 14 26  1  0  0  0  0
 14 27  1  0  0  0  0
 15 28  1  0  0  0  0
 15 29  1  0  0  0  0
M  END
> <s_m_source_file>
AV-unprocessed.smi

> <i_m_source_file_index>
925

> <i_lp_mmshare_version>
43012

> <i_f3d_flags>
0

> <s_epik_input>
czFbY0hdbm5jMVtOSF1DKD1PKVtOSF1bQ0hdMltDSDJdW0NIMl1bQ0gyXVtDSDJdW0NIMl0y

> <s_epik_cmdline>
J2VwaWtfcHl0aG9uJywgJy1waCcsICc3LjAnLCAnLXRuJywgJzgnLCAnLW1hJywgJzIwMCcsICctbWV0YWxfYmluZGluZycsICctaW1hZScsICc8aW5maWxlLm1hZT4nLCAnLW9tYWUnLCAnPG91dGZpbGUubWFlPic=

> <r_lp_tautomer_probability>
1

> <r_epik_Ionization_Penalty>
0.000322846

> <r_epik_Ionization_Penalty_Charging>
0

> <r_epik_Ionization_Penalty_Neutral>
0.000322846

> <r_epik_State_Penalty>
-0

> <r_epik_Charging_Adjusted_Penalty>
0

> <i_epik_Tot_Q>
0

> <i_epik_Tot_abs_Q>
0

> <r_epik_Metal_State_Penalty>
0.17121

> <b_epik_Metal_Only>
0

> <s_lp_Force_Field>
OPLS_2005

> <r_lp_Energy>
7.89547

> <b_lp_Chiralities_Consistent>
1

> <s_lp_Variant>
AV-unprocessed.smi:925-1

> <Gold.Version>
5.8.1

> <Gold.Id.Protein>
6NUR|6NUR_protein|mol2

> <Gold.PLP.Fitness>
39.2692

> <Gold.PLP.PLP>
-31.5634

> <Gold.PLP.part.hbond>
-1.8515

> <Gold.PLP.part.metal>
0.0000

> <Gold.PLP.part.buried>
-5.2543

> <Gold.PLP.part.nonpolar>
-26.0838

> <Gold.PLP.part.repulsive>
1.3640

> <Gold.PLP.ligand.clash>
0.0000

> <Gold.PLP.ligand.torsion>
0.2634

> <Gold.PLP.Chemscore.Hbond>
1.8480

> <Gold.PLP.Chemscore.CHOScore>
0.8952

> <Gold.PLP.Chemscore.Metal>
0.0000

> <Gold.Chemscore.Hbonds>
donor molecule, donor type, donor heavy atom, donor atom, acceptor molecule, acceptor atom, score
      L1  H     3    16       P1  8028  1.00
      L1  H     9    18       P1  8028  0.83
      L1  C     7    17       P1 10175  0.85

> <Gold.PLP.Chemscore.Internal.Correction>
0.0032

> <Gold.Rescore>
     Score         DG    S(hbond)    S(metal)    S(lipo)     H(rot)  DE(clash)    DE(int)     intcor
     15.52     -18.77       1.93        0.00      80.41       1.00       0.01       3.24       ----

> <Gold.Chemscore.Fitness>
15.5179

> <Gold.Chemscore.DG>
-18.7688

> <Gold.Chemscore.ZeroCoef>
-5.4800

> <Gold.Chemscore.Hbond>
1.9283

> <Gold.Chemscore.Metal>
0.0000

> <Gold.Chemscore.Lipo>
80.4137

> <Gold.Chemscore.Internal_Hbond>
0.0000

> <Gold.Chemscore.DEClash>
0.0089

> <Gold.Chemscore.DEInternal>
3.2420

> <Gold.Chemscore.Rot>
1.0000

> <Gold.Chemscore.Internal.Correction>
   9.000000E+99

> <Gold.Chemscore.Hbonds>
donor molecule, donor type, donor heavy atom, donor atom, acceptor molecule, acceptor atom, score
      L1  H     3    16       P1  8028  0.92
      L1  H     9    18       P1  8028  0.81

> <Gold.Chemscore.Hbond.Weighted>
-6.4404

> <Gold.Chemscore.Metal.Weighted>
-0.0000

> <Gold.Chemscore.Lipo.Weighted>
-9.4084

> <Gold.Chemscore.Internal_Hbond.Weighted>
0.0000

> <Gold.Chemscore.DEClash.Weighted>
0.0089

> <Gold.Chemscore.DEInternal.Weighted>
3.2420

> <Gold.Chemscore.Rot.Weighted>
2.5600

> <Gold.Chemscore.Internal.Correction.Weighted>
   9.000000E+99

> <Gold.Protein.RotatedTorsions>
[ 6907 6896 6895 6894 ] final  -93.86 input  -60.11 | X-H torsion
[ 7974 7965 7964 7962 ] final   53.41 input  175.53 | X-H torsion
[ 8008 7997 7996 7995 ] final  -64.81 input   59.86 | X-H torsion
[ 10167 10162 10161 10158 ] final   66.06 input  -65.29 | X-H torsion
[ 10718 10713 10712 10709 ] final  -54.63 input   66.30 | X-H torsion
[ 10763 10752 10751 10750 ] final -159.19 input  -60.55 | X-H torsion
[ 11005 11000 10999 10996 ] final  -13.81 input  -57.11 | X-H torsion

> <Gold.Protein.ActiveResidues>
 VAL166  LYS551  ARG553  GLY616  TRP617  ASP618  TYR619  PRO620  LYS621  CYS622 
 ASP623  PHE694  ASN695  SER759  ASP760  ASP761  ALA762  ILE779  LEU786  VAL792 
 PHE793  MET794  SER795  GLU796  ALA797  LYS798  CYS799  TRP800  GLU811  SER814 

> <Gold.Protein.RotatedAtoms>
  150.6930  134.1902  159.4282 H   0  0  0  0  0  0  0  0  0  0  0  0  # atno 6907 bound_to 6896
  151.9873  134.9995  160.0569 H   0  0  0  0  0  0  0  0  0  0  0  0  # atno 6908 bound_to 6896
  152.1700  133.4602  159.4941 H   0  0  0  0  0  0  0  0  0  0  0  0  # atno 6909 bound_to 6896
  145.9715  139.4153  143.0187 H   0  0  0  0  0  0  0  0  0  0  0  0  # atno 7974 bound_to 7965
  154.4633  140.0946  156.6954 H   0  0  0  0  0  0  0  0  0  0  0  0  # atno 8008 bound_to 7997
  155.4929  140.3471  155.4339 H   0  0  0  0  0  0  0  0  0  0  0  0  # atno 8009 bound_to 7997
  156.0911  140.1397  156.9579 H   0  0  0  0  0  0  0  0  0  0  0  0  # atno 8010 bound_to 7997
  140.1045  144.4874  150.7016 H   0  0  0  0  0  0  0  0  0  0  0  0  # atno 10167 bound_to 10162
  156.1434  130.4153  150.0064 H   0  0  0  0  0  0  0  0  0  0  0  0  # atno 10718 bound_to 10713
  154.7495  135.3088  154.8583 H   0  0  0  0  0  0  0  0  0  0  0  0  # atno 10763 bound_to 10752
  153.9375  135.6778  153.4749 H   0  0  0  0  0  0  0  0  0  0  0  0  # atno 10764 bound_to 10752
  153.1091  135.4875  154.8931 H   0  0  0  0  0  0  0  0  0  0  0  0  # atno 10765 bound_to 10752
  140.7799  133.8371  155.9283 H   0  0  0  0  0  0  0  0  0  0  0  0  # atno 11005 bound_to 11000
  145.7899  140.9819  143.1054 LP  0  0  0  0  0  0  0  0  0  0  0  0  # atno 17320 bound_to 7965
  144.6838  139.9670  143.7481 LP  0  0  0  0  0  0  0  0  0  0  0  0  # atno 17321 bound_to 7965
  140.6960  143.2404  151.5001 LP  0  0  0  0  0  0  0  0  0  0  0  0  # atno 17342 bound_to 10162
  139.5653  144.2058  152.1755 LP  0  0  0  0  0  0  0  0  0  0  0  0  # atno 17343 bound_to 10162
  156.7943  130.9267  151.3646 LP  0  0  0  0  0  0  0  0  0  0  0  0  # atno 17370 bound_to 10713
  157.6596  130.8954  149.9801 LP  0  0  0  0  0  0  0  0  0  0  0  0  # atno 17371 bound_to 10713
  140.9492  134.1800  157.4740 LP  0  0  0  0  0  0  0  0  0  0  0  0  # atno 17394 bound_to 11000
  139.8744  134.9902  156.5494 LP  0  0  0  0  0  0  0  0  0  0  0  0  # atno 17395 bound_to 11000

$$$$
