#       Name:                AV-unprocessed.smi:922
#       Creating user name   scv26
#       Creation time:       Fri Mar 27 02:08:12 2020


#       File generated by GOLD software.
#

@<TRIPOS>MOLECULE
AV-unprocessed.smi:922
    38    39     1
SMALL
NO_CHARGES


@<TRIPOS>ATOM
      1 ****        -2.9847   0.2152  -1.6094 C.3            1 S1                 0.0000
      2 ****        -1.5408   0.1066  -1.1095 C.3            1 S1                 0.0000
      3 ****        -1.4265   0.4371   0.3903 C.3            1 S1                 0.0000
      4 ****        -0.0652   0.2114   0.8572 N.pl3          1 S1                 0.0000
      5 ****         0.7133   1.1414   1.5481 C.2            1 S1                 0.0000
      6 ****         1.3657   0.7416   2.8197 C.2            1 S1                 0.0000
      7 ****         2.0885   1.5355   3.5047 N.2            1 S1                 0.0000
      8 ****         2.3103   2.8962   3.0732 N.pl3          1 S1                -1.0000
      9 ****         1.7556   3.3449   1.9072 C.2            1 S1                 0.0000
     10 ****         1.9312   4.4935   1.5035 O.2            1 S1                 0.0000
     11 ****         0.9271   2.4190   1.1231 C.2            1 S1                 0.0000
     12 ****         0.2913   3.0075  -0.3791 Cl             1 S1                 0.0000
     13 ****         0.3462  -1.1667   0.6175 C.3            1 S1                 0.0000
     14 ****         0.2323  -1.5277  -0.8812 C.3            1 S1                 0.0000
     15 ****         1.2901  -0.7956  -1.7350 C.3            1 S1                 0.0000
     16 ****         0.3978  -3.0444  -1.0621 C.3            1 S1                 0.0000
     17 ****        -1.0938  -1.2311  -1.3356 O.3            1 S1                 0.0000
     18 ****        -3.3706   1.2259  -1.4746 H              1 S1                 0.0000
     19 ****        -3.6415  -0.4694  -1.0720 H              1 S1                 0.0000
     20 ****        -3.0480  -0.0260  -2.6708 H              1 S1                 0.0000
     21 ****        -0.9331   0.7966  -1.6934 H              1 S1                 0.0000
     22 ****        -1.7382   1.4629   0.5866 H              1 S1                 0.0000
     23 ****        -2.0990  -0.2010   0.9650 H              1 S1                 0.0000
     24 ****         1.1866  -0.2866   3.1445 H              1 S1                 0.0000
     25 ****         1.3706  -1.3272   0.9559 H              1 S1                 0.0000
     26 ****        -0.2874  -1.8227   1.2159 H              1 S1                 0.0000
     27 ****         2.2974  -1.1086  -1.4590 H              1 S1                 0.0000
     28 ****         1.2521   0.2861  -1.6104 H              1 S1                 0.0000
     29 ****         1.1567  -1.0108  -2.7953 H              1 S1                 0.0000
     30 ****         1.3793  -3.3792  -0.7245 H              1 S1                 0.0000
     31 ****         0.2909  -3.3314  -2.1086 H              1 S1                 0.0000
     32 ****        -0.3529  -3.5940  -0.4934 H              1 S1                 0.0000
     33 ****         2.5082   1.2126   4.3530 LP             1 S1                 0.0000
     34 ****         2.8705   3.5109   3.6285 LP             1 S1                 0.0000
     35 ****         2.4935   5.1290   2.0327 LP             1 S1                 0.0000
     36 ****         1.5116   4.7918   0.6462 LP             1 S1                 0.0000
     37 ****        -1.1273  -1.4041  -2.3199 LP             1 S1                 0.0000
     38 ****        -1.7248  -1.8493  -0.8669 LP             1 S1                 0.0000
@<TRIPOS>BOND
    1    1    2 1     
    2    1   18 1     
    3    1   19 1     
    4    1   20 1     
    5    2   17 1     
    6    2    3 1     
    7    2   21 1     
    8    3    4 1     
    9    3   22 1     
   10    3   23 1     
   11    4    5 1     
   12    4   13 1     
   13    5   11 2     
   14    5    6 1     
   15    6    7 2     
   16    6   24 1     
   17    7    8 1     
   18    8    9 1     
   19    9   10 2     
   20    9   11 1     
   21   11   12 1     
   22   13   14 1     
   23   13   25 1     
   24   13   26 1     
   25   14   15 1     
   26   14   16 1     
   27   14   17 1     
   28   15   27 1     
   29   15   28 1     
   30   15   29 1     
   31   16   30 1     
   32   16   31 1     
   33   16   32 1     
   34    7   33 1     
   35    8   34 1     
   36   10   35 1     
   37   10   36 1     
   38   17   37 1     
   39   17   38 1     
@<TRIPOS>SUBSTRUCTURE
      1 S1             1
@<TRIPOS>SET
LONE_PAIRS      STATIC     ATOMS    <user>   **** ""
6 33 34 35 36 37 38
ATOM$BLUE        STATIC     ATOMS    COLORGROUP SYSTEM
6 33 34 35 36 37 38
