#       Name:                AV-unprocessed.smi:1867
#       Creating user name   scv26
#       Creation time:       Fri Mar 27 09:28:30 2020


#       File generated by GOLD software.
#

@<TRIPOS>MOLECULE
AV-unprocessed.smi:1867
    56    59     1
SMALL
NO_CHARGES


@<TRIPOS>ATOM
      1 ****        -0.9948   2.7559  -0.9338 O.2            1 S1                 0.0000
      2 ****        -1.3144   1.5717  -0.8663 C.2            1 S1                 0.0000
      3 ****        -0.4442   0.5460  -0.7787 N.am           1 S1                 0.0000
      4 ****         0.9766   0.5800  -0.8100 C.ar           1 S1                 0.0000
      5 ****         1.7361   1.6534  -1.3402 C.ar           1 S1                 0.0000
      6 ****         3.1439   1.5769  -1.3360 C.ar           1 S1                 0.0000
      7 ****         3.7779   0.4255  -0.8145 C.ar           1 S1                 0.0000
      8 ****         5.1686   0.2566  -0.7577 N.3            1 S1                 0.0000
      9 ****         5.8718   0.3984  -2.0225 C.3            1 S1                 0.0000
     10 ****         7.3430   0.6065  -1.6535 C.3            1 S1                 0.0000
     11 ****         7.3204   1.1015  -0.2026 C.3            1 S1                 0.0000
     12 ****         5.8378   1.1463   0.1760 C.3            1 S1                 0.0000
     13 ****         3.0167  -0.5792  -0.3289 N.pl3          1 S1                 1.0000
     14 ****         1.6666  -0.5457  -0.3130 C.ar           1 S1                 0.0000
     15 ****        -2.6082   1.2042  -0.8453 N.am           1 S1                 0.0000
     16 ****        -3.7963   2.0575  -0.9212 C.3            1 S1                 0.0000
     17 ****        -5.0580   1.3667  -0.4190 C.3            1 S1                 0.0000
     18 ****        -6.1808   2.2154  -1.0231 C.3            1 S1                 0.0000
     19 ****        -5.6391   2.8213  -2.2639 N.4            1 S1                 1.0000
     20 ****        -6.4354   2.5144  -3.4823 C.3            1 S1                 0.0000
     21 ****        -5.6355   2.8275  -4.7552 C.3            1 S1                 0.0000
     22 ****        -4.3608   1.9675  -4.8466 C.3            1 S1                 0.0000
     23 ****        -3.8855   1.4679  -3.4689 C.3            1 S1                 0.0000
     24 ****        -4.1865   2.4932  -2.3479 C.3            1 S1                 0.0000
     25 ****        -0.8507  -0.3674  -0.6407 H              1 S1                 0.0000
     26 ****         1.2713   2.5311  -1.7613 H              1 S1                 0.0000
     27 ****         3.7236   2.3986  -1.7305 H              1 S1                 0.0000
     28 ****         5.7382  -0.4866  -2.6456 H              1 S1                 0.0000
     29 ****         5.5033   1.2597  -2.5805 H              1 S1                 0.0000
     30 ****         7.8878  -0.3365  -1.7158 H              1 S1                 0.0000
     31 ****         7.8285   1.3146  -2.3258 H              1 S1                 0.0000
     32 ****         7.8554   0.3991   0.4380 H              1 S1                 0.0000
     33 ****         7.7917   2.0782  -0.0900 H              1 S1                 0.0000
     34 ****         5.4539   2.1626   0.0749 H              1 S1                 0.0000
     35 ****         5.6781   0.8267   1.2063 H              1 S1                 0.0000
     36 ****         1.1823  -1.4182   0.1011 H              1 S1                 0.0000
     37 ****        -2.7872   0.2137  -0.7585 H              1 S1                 0.0000
     38 ****        -3.6493   2.9467  -0.3044 H              1 S1                 0.0000
     39 ****        -5.1144   0.3491  -0.8088 H              1 S1                 0.0000
     40 ****        -5.1097   1.3126   0.6689 H              1 S1                 0.0000
     41 ****        -7.0845   1.6272  -1.1890 H              1 S1                 0.0000
     42 ****        -6.4428   3.0262  -0.3425 H              1 S1                 0.0000
     43 ****        -6.7222   1.4614  -3.4896 H              1 S1                 0.0000
     44 ****        -7.3592   3.0930  -3.4571 H              1 S1                 0.0000
     45 ****        -6.2516   2.6748  -5.6417 H              1 S1                 0.0000
     46 ****        -5.3638   3.8840  -4.7517 H              1 S1                 0.0000
     47 ****        -4.5354   1.1069  -5.4934 H              1 S1                 0.0000
     48 ****        -3.5735   2.5506  -5.3257 H              1 S1                 0.0000
     49 ****        -4.3827   0.5249  -3.2372 H              1 S1                 0.0000
     50 ****        -2.8202   1.2425  -3.5227 H              1 S1                 0.0000
     51 ****        -3.6507   3.4114  -2.5933 H              1 S1                 0.0000
     52 ****        -5.6890   3.8218  -2.1340 H              1 S1                 0.0000
     53 ****         3.4862  -1.4053   0.0433 H              1 S1                 0.0000
     54 ****        -0.0288   3.0144  -0.9258 LP             1 S1                 0.0000
     55 ****        -1.7006   3.4615  -0.9968 LP             1 S1                 0.0000
     56 ****         5.2232  -0.6937  -0.4513 LP             1 S1                 0.0000
@<TRIPOS>BOND
    1    1    2 2     
    2    2    3 am    
    3    2   15 am    
    4    3    4 1     
    5    3   25 1     
    6    4   14 ar    
    7    4    5 ar    
    8    5    6 ar    
    9    5   26 1     
   10    6    7 ar    
   11    6   27 1     
   12    7    8 1     
   13    7   13 ar    
   14    8   12 1     
   15    8    9 1     
   16    9   10 1     
   17    9   28 1     
   18    9   29 1     
   19   10   11 1     
   20   10   30 1     
   21   10   31 1     
   22   11   12 1     
   23   11   32 1     
   24   11   33 1     
   25   12   34 1     
   26   12   35 1     
   27   13   14 ar    
   28   13   53 1     
   29   14   36 1     
   30   15   16 1     
   31   15   37 1     
   32   16   24 1     
   33   16   17 1     
   34   16   38 1     
   35   17   18 1     
   36   17   39 1     
   37   17   40 1     
   38   18   19 1     
   39   18   41 1     
   40   18   42 1     
   41   19   24 1     
   42   19   20 1     
   43   19   52 1     
   44   20   21 1     
   45   20   43 1     
   46   20   44 1     
   47   21   22 1     
   48   21   45 1     
   49   21   46 1     
   50   22   23 1     
   51   22   47 1     
   52   22   48 1     
   53   23   24 1     
   54   23   49 1     
   55   23   50 1     
   56   24   51 1     
   57    1   54 1     
   58    1   55 1     
   59    8   56 1     
@<TRIPOS>SUBSTRUCTURE
      1 S1             1
@<TRIPOS>SET
LONE_PAIRS      STATIC     ATOMS    <user>   **** ""
3 54 55 56
DONOR_HYDROGENS      STATIC     ATOMS    <user>   **** ""
4 25 53 37 52
ATOM$BLUE        STATIC     ATOMS    COLORGROUP SYSTEM
3 54 55 56
ATOM$RED        STATIC     ATOMS    COLORGROUP SYSTEM
4 25 53 37 52
