#       Name:                AV-unprocessed.smi:2032
#       Creating user name   scv26
#       Creation time:       Fri Mar 27 10:50:28 2020


#       File generated by GOLD software.
#

@<TRIPOS>MOLECULE
AV-unprocessed.smi:2032
    48    49     1
SMALL
NO_CHARGES


@<TRIPOS>ATOM
      1 ****        -4.2494   1.8925  -0.1902 C.3            1 S1                 0.0000
      2 ****        -3.6660   0.4755  -0.1991 C.3            1 S1                 0.0000
      3 ****        -2.1289   0.4808  -0.3031 C.3            1 S1                 0.0000
      4 ****        -1.5442  -0.8632  -0.2362 N.3            1 S1                 0.0000
      5 ****        -0.0638  -0.8466  -0.3026 C.3            1 S1                 0.0000
      6 ****         0.5563  -2.2631  -0.1964 C.3            1 S1                 0.0000
      7 ****         0.4906  -0.1546  -1.5819 C.3            1 S1                 0.0000
      8 ****         1.9488  -0.0785  -1.6157 N.am           1 S1                 0.0000
      9 ****         2.6892   0.7889  -0.9102 C.2            1 S1                 0.0000
     10 ****         2.2090   1.6208  -0.1397 O.2            1 S1                 0.0000
     11 ****         4.0004   0.6249  -1.1589 N.am           1 S1                 0.0000
     12 ****         5.0933   1.3578  -0.6259 C.2            1 S1                 0.0000
     13 ****         4.9750   2.3501   0.2641 N.2            1 S1                 0.0000
     14 ****         6.2145   2.8944   0.6103 C.2            1 S1                 0.0000
     15 ****         7.2732   2.3005  -0.0303 C.2            1 S1                 0.0000
     16 ****         6.7529   1.0247  -1.0985 S.3            1 S1                 0.0000
     17 ****        -2.0406  -1.5089   0.9842 C.3            1 S1                 0.0000
     18 ****        -3.5778  -1.5101   1.0846 C.3            1 S1                 0.0000
     19 ****        -4.0697  -2.1159   2.4033 C.3            1 S1                 0.0000
     20 ****        -4.0511  -0.1718   1.0066 O.3            1 S1                 0.0000
     21 ****        -3.9962   2.4270  -1.1061 H              1 S1                 0.0000
     22 ****        -3.8682   2.4709   0.6518 H              1 S1                 0.0000
     23 ****        -5.3365   1.8654  -0.1112 H              1 S1                 0.0000
     24 ****        -4.0874  -0.0701  -1.0452 H              1 S1                 0.0000
     25 ****        -1.8820   0.9601  -1.2478 H              1 S1                 0.0000
     26 ****        -1.7107   1.1041   0.4891 H              1 S1                 0.0000
     27 ****         0.2996  -0.2768   0.5539 H              1 S1                 0.0000
     28 ****         1.6404  -2.2523  -0.3024 H              1 S1                 0.0000
     29 ****         0.1592  -2.9255  -0.9662 H              1 S1                 0.0000
     30 ****         0.3719  -2.7239   0.7730 H              1 S1                 0.0000
     31 ****         0.1576  -0.6938  -2.4692 H              1 S1                 0.0000
     32 ****         0.1257   0.8657  -1.6888 H              1 S1                 0.0000
     33 ****         2.4241  -0.7298  -2.2230 H              1 S1                 0.0000
     34 ****         4.2451  -0.1010  -1.8159 H              1 S1                 0.0000
     35 ****         6.2513   3.7058   1.3222 H              1 S1                 0.0000
     36 ****         8.3232   2.5351   0.0613 H              1 S1                 0.0000
     37 ****        -1.7188  -2.5480   1.0233 H              1 S1                 0.0000
     38 ****        -1.6191  -1.0131   1.8600 H              1 S1                 0.0000
     39 ****        -3.9983  -2.0848   0.2575 H              1 S1                 0.0000
     40 ****        -3.7380  -3.1492   2.5081 H              1 S1                 0.0000
     41 ****        -5.1586  -2.1099   2.4527 H              1 S1                 0.0000
     42 ****        -3.6944  -1.5549   3.2597 H              1 S1                 0.0000
     43 ****        -1.8276  -1.3898  -1.0377 LP             1 S1                 0.0000
     44 ****         1.2181   1.6735  -0.0152 LP             1 S1                 0.0000
     45 ****         2.8097   2.2437   0.3614 LP             1 S1                 0.0000
     46 ****         4.1024   2.6650   0.6374 LP             1 S1                 0.0000
     47 ****        -5.0496  -0.1816   1.0599 LP             1 S1                 0.0000
     48 ****        -3.6811   0.3442   1.7792 LP             1 S1                 0.0000
@<TRIPOS>BOND
    1    1    2 1     
    2    1   21 1     
    3    1   22 1     
    4    1   23 1     
    5    2   20 1     
    6    2    3 1     
    7    2   24 1     
    8    3    4 1     
    9    3   25 1     
   10    3   26 1     
   11    4    5 1     
   12    4   17 1     
   13    5    6 1     
   14    5    7 1     
   15    5   27 1     
   16    6   28 1     
   17    6   29 1     
   18    6   30 1     
   19    7    8 1     
   20    7   31 1     
   21    7   32 1     
   22    8    9 am    
   23    8   33 1     
   24    9   10 2     
   25    9   11 am    
   26   11   12 1     
   27   11   34 1     
   28   12   16 1     
   29   12   13 2     
   30   13   14 1     
   31   14   15 2     
   32   14   35 1     
   33   15   16 1     
   34   15   36 1     
   35   17   18 1     
   36   17   37 1     
   37   17   38 1     
   38   18   19 1     
   39   18   20 1     
   40   18   39 1     
   41   19   40 1     
   42   19   41 1     
   43   19   42 1     
   44    4   43 1     
   45   10   44 1     
   46   10   45 1     
   47   13   46 1     
   48   20   47 1     
   49   20   48 1     
@<TRIPOS>SUBSTRUCTURE
      1 S1             1
@<TRIPOS>SET
LONE_PAIRS      STATIC     ATOMS    <user>   **** ""
6 43 44 45 46 47 48
DONOR_HYDROGENS      STATIC     ATOMS    <user>   **** ""
2 33 34
ATOM$BLUE        STATIC     ATOMS    COLORGROUP SYSTEM
6 43 44 45 46 47 48
ATOM$RED        STATIC     ATOMS    COLORGROUP SYSTEM
2 33 34
