AV-unprocessed.smi:3203|AV-procd|sdf|12249|dock9
  -GOLD-   2272018 83D 1   1.00000     0.00000
 Structure written by MMmdl.
 32 33  0  0  0  0  0  0  0  0  1 V2000
  150.6475  143.1582  158.3656 C   0  0  0  0  0  0  0  0  0  0  0  0
  151.7480  142.4898  159.1742 C   0  0  0  0  0  0  0  0  0  0  0  0
  152.3109  143.1735  160.2727 C   0  0  0  0  0  0  0  0  0  0  0  0
  153.3272  142.5529  161.0189 C   0  0  0  0  0  0  0  0  0  0  0  0
  153.7399  141.2660  160.6326 C   0  0  0  0  0  0  0  0  0  0  0  0
  153.2077  140.6052  159.5846 N   0  0  0  0  0  0  0  0  0  0  0  0
  152.2256  141.1905  158.8540 C   0  0  0  0  0  0  0  0  0  0  0  0
  151.6182  140.5559  157.7353 N   0  0  0  0  0  0  0  0  0  0  0  0
  152.1438  139.6478  156.8909 C   0  0  0  0  0  0  0  0  0  0  0  0
  153.2952  139.2173  156.9510 O   0  0  0  0  0  0  0  0  0  0  0  0
  151.2204  139.1556  155.7756 C   0  0  0  0  0  0  0  0  0  0  0  0
  150.9102  140.2338  154.9050 O   0  0  0  0  0  0  0  0  0  0  0  0
  149.7502  140.9424  155.3037 C   0  0  0  0  0  0  0  0  0  0  0  0
  148.7633  140.9493  154.1562 C   0  0  0  0  0  0  0  0  0  0  0  0
  147.3090  141.2841  154.3981 C   0  0  0  0  0  0  0  0  0  0  0  0
  147.7068  139.8736  154.0436 C   0  0  0  0  0  0  0  0  0  0  0  0
  150.4192  144.1524  158.7511 H   0  0  0  0  0  0  0  0  0  0  0  0
  149.7331  142.5655  158.4028 H   0  0  0  0  0  0  0  0  0  0  0  0
  150.9493  143.2646  157.3231 H   0  0  0  0  0  0  0  0  0  0  0  0
  151.9699  144.1623  160.5431 H   0  0  0  0  0  0  0  0  0  0  0  0
  153.7779  143.0496  161.8652 H   0  0  0  0  0  0  0  0  0  0  0  0
  154.5179  140.7532  161.1784 H   0  0  0  0  0  0  0  0  0  0  0  0
  150.6577  140.8130  157.5607 H   0  0  0  0  0  0  0  0  0  0  0  0
  151.7216  138.3551  155.2297 H   0  0  0  0  0  0  0  0  0  0  0  0
  150.3069  138.7457  156.2095 H   0  0  0  0  0  0  0  0  0  0  0  0
  149.2967  140.4753  156.1797 H   0  0  0  0  0  0  0  0  0  0  0  0
  150.0024  141.9718  155.5622 H   0  0  0  0  0  0  0  0  0  0  0  0
  149.1820  141.3110  153.2188 H   0  0  0  0  0  0  0  0  0  0  0  0
  146.9946  141.4739  155.4226 H   0  0  0  0  0  0  0  0  0  0  0  0
  146.7950  141.8675  153.6370 H   0  0  0  0  0  0  0  0  0  0  0  0
  147.4596  139.5162  153.0462 H   0  0  0  0  0  0  0  0  0  0  0  0
  147.6588  139.1251  154.8320 H   0  0  0  0  0  0  0  0  0  0  0  0
  1  2  1  0  0  0  0
  1 17  1  0  0  0  0
  1 18  1  0  0  0  0
  1 19  1  0  0  0  0
  2  7  1  0  0  0  0
  2  3  2  0  0  0  0
  3  4  1  0  0  0  0
  3 20  1  0  0  0  0
  4  5  2  0  0  0  0
  4 21  1  0  0  0  0
  5  6  1  0  0  0  0
  5 22  1  0  0  0  0
  6  7  2  0  0  0  0
  7  8  1  0  0  0  0
  8  9  1  0  0  0  0
  8 23  1  0  0  0  0
  9 10  2  0  0  0  0
  9 11  1  0  0  0  0
 11 12  1  0  0  0  0
 11 24  1  0  0  0  0
 11 25  1  0  0  0  0
 12 13  1  0  0  0  0
 13 14  1  0  0  0  0
 13 26  1  0  0  0  0
 13 27  1  0  0  0  0
 14 16  1  0  0  0  0
 14 15  1  0  0  0  0
 14 28  1  0  0  0  0
 15 16  1  0  0  0  0
 15 29  1  0  0  0  0
 15 30  1  0  0  0  0
 16 31  1  0  0  0  0
 16 32  1  0  0  0  0
M  END
> <s_m_source_file>
AV-unprocessed.smi

> <i_m_source_file_index>
3203

> <i_lp_mmshare_version>
43012

> <i_f3d_flags>
0

> <s_epik_input>
W0NIM11jMVtjSF1bY0hdW2NIXW5jMVtOSF1DKD1PKVtDSDJdT1tDSDJdW0NIXTJbQ0gyXVtDSDJdMg==

> <s_epik_cmdline>
J2VwaWtfcHl0aG9uJywgJy1waCcsICc3LjAnLCAnLXRuJywgJzgnLCAnLW1hJywgJzIwMCcsICctbWV0YWxfYmluZGluZycsICctaW1hZScsICc8aW5maWxlLm1hZT4nLCAnLW9tYWUnLCAnPG91dGZpbGUubWFlPic=

> <r_epik_Ionization_Penalty>
0.00323497

> <r_epik_Ionization_Penalty_Charging>
0

> <r_epik_Ionization_Penalty_Neutral>
0.00323497

> <r_epik_State_Penalty>
0.00315819

> <r_epik_Charging_Adjusted_Penalty>
0.00315819

> <i_epik_Tot_Q>
0

> <i_epik_Tot_abs_Q>
0

> <r_epik_Metal_State_Penalty>
-0

> <b_epik_Metal_Only>
0

> <s_lp_Force_Field>
OPLS_2005

> <r_lp_Energy>
15.2792

> <b_lp_Chiralities_Consistent>
1

> <s_lp_Variant>
AV-unprocessed.smi:3203-1

> <Gold.Version>
5.8.1

> <Gold.Id.Protein>
6NUR|6NUR_protein|mol2

> <Gold.PLP.Fitness>
39.6812

> <Gold.PLP.PLP>
-35.1876

> <Gold.PLP.part.hbond>
-2.0000

> <Gold.PLP.part.metal>
0.0000

> <Gold.PLP.part.buried>
-2.8264

> <Gold.PLP.part.nonpolar>
-30.1041

> <Gold.PLP.part.repulsive>
0.1411

> <Gold.PLP.ligand.clash>
0.0000

> <Gold.PLP.ligand.torsion>
1.0388

> <Gold.PLP.Chemscore.Hbond>
2.0000

> <Gold.PLP.Chemscore.CHOScore>
0.0000

> <Gold.PLP.Chemscore.Metal>
0.0000

> <Gold.Chemscore.Hbonds>
donor molecule, donor type, donor heavy atom, donor atom, acceptor molecule, acceptor atom, score
      P1  H  7989  7998       L1    12  1.00
      P1  H  7997  8009       L1    10  0.81

> <Gold.PLP.Chemscore.Internal.Correction>
0.5713

> <Gold.Rescore>
     Score         DG    S(hbond)    S(metal)    S(lipo)     H(rot)  DE(clash)    DE(int)     intcor
     17.08     -18.42       1.92        0.00      89.32       1.54       0.07       1.28       ----

> <Gold.Chemscore.Fitness>
17.0776

> <Gold.Chemscore.DG>
-18.4227

> <Gold.Chemscore.ZeroCoef>
-5.4800

> <Gold.Chemscore.Hbond>
1.9229

> <Gold.Chemscore.Metal>
0.0000

> <Gold.Chemscore.Lipo>
89.3242

> <Gold.Chemscore.Internal_Hbond>
0.0000

> <Gold.Chemscore.DEClash>
0.0681

> <Gold.Chemscore.DEInternal>
1.2771

> <Gold.Chemscore.Rot>
1.5355

> <Gold.Chemscore.Internal.Correction>
   9.000000E+99

> <Gold.Chemscore.Hbonds>
donor molecule, donor type, donor heavy atom, donor atom, acceptor molecule, acceptor atom, score
      P1  H  7989  7998       L1    12  0.85
      P1  H  7997  8009       L1    10  0.74

> <Gold.Chemscore.Hbond.Weighted>
-6.4226

> <Gold.Chemscore.Metal.Weighted>
-0.0000

> <Gold.Chemscore.Lipo.Weighted>
-10.4509

> <Gold.Chemscore.Internal_Hbond.Weighted>
0.0000

> <Gold.Chemscore.DEClash.Weighted>
0.0681

> <Gold.Chemscore.DEInternal.Weighted>
1.2771

> <Gold.Chemscore.Rot.Weighted>
3.9308

> <Gold.Chemscore.Internal.Correction.Weighted>
   9.000000E+99

> <Gold.Protein.RotatedTorsions>
[ 6907 6896 6895 6894 ] final  101.81 input  -60.11 | X-H torsion
[ 7974 7965 7964 7962 ] final -142.77 input  175.53 | X-H torsion
[ 8008 7997 7996 7995 ] final -168.00 input   59.86 | X-H torsion
[ 10167 10162 10161 10158 ] final    7.38 input  -65.29 | X-H torsion
[ 10718 10713 10712 10709 ] final   85.66 input   66.30 | X-H torsion
[ 10763 10752 10751 10750 ] final  -80.20 input  -60.55 | X-H torsion
[ 11005 11000 10999 10996 ] final  101.59 input  -57.11 | X-H torsion

> <Gold.Protein.ActiveResidues>
 VAL166  LYS551  ARG553  GLY616  TRP617  ASP618  TYR619  PRO620  LYS621  CYS622 
 ASP623  PHE694  ASN695  SER759  ASP760  ASP761  ALA762  ILE779  LEU786  VAL792 
 PHE793  MET794  SER795  GLU796  ALA797  LYS798  CYS799  TRP800  GLU811  SER814 

> <Gold.Protein.RotatedAtoms>
  152.5340  134.0070  159.7920 H   0  0  0  0  0  0  0  0  0  0  0  0  # atno 6907 bound_to 6896
  151.0279  133.5809  159.2671 H   0  0  0  0  0  0  0  0  0  0  0  0  # atno 6908 bound_to 6896
  151.2825  135.0725  159.9228 H   0  0  0  0  0  0  0  0  0  0  0  0  # atno 6909 bound_to 6896
  144.8419  140.5917  143.5447 H   0  0  0  0  0  0  0  0  0  0  0  0  # atno 7974 bound_to 7965
  155.8854  140.1016  157.1456 H   0  0  0  0  0  0  0  0  0  0  0  0  # atno 8008 bound_to 7997
  154.4009  140.1321  156.4313 H   0  0  0  0  0  0  0  0  0  0  0  0  # atno 8009 bound_to 7997
  155.7594  140.3463  155.5193 H   0  0  0  0  0  0  0  0  0  0  0  0  # atno 8010 bound_to 7997
  140.6375  143.7852  150.7380 H   0  0  0  0  0  0  0  0  0  0  0  0  # atno 10167 bound_to 10162
  157.6918  131.0184  150.2855 H   0  0  0  0  0  0  0  0  0  0  0  0  # atno 10718 bound_to 10713
  154.5482  135.5669  153.6898 H   0  0  0  0  0  0  0  0  0  0  0  0  # atno 10763 bound_to 10752
  152.9982  135.6244  154.2410 H   0  0  0  0  0  0  0  0  0  0  0  0  # atno 10764 bound_to 10752
  154.2344  135.2864  155.2857 H   0  0  0  0  0  0  0  0  0  0  0  0  # atno 10765 bound_to 10752
  139.8774  134.9189  156.4930 H   0  0  0  0  0  0  0  0  0  0  0  0  # atno 11005 bound_to 11000
  145.4677  139.1506  143.3831 LP  0  0  0  0  0  0  0  0  0  0  0  0  # atno 17320 bound_to 7965
  146.2710  140.4809  142.8814 LP  0  0  0  0  0  0  0  0  0  0  0  0  # atno 17321 bound_to 7965
  140.1476  143.4386  152.2152 LP  0  0  0  0  0  0  0  0  0  0  0  0  # atno 17342 bound_to 10162
  139.5585  144.7389  151.4224 LP  0  0  0  0  0  0  0  0  0  0  0  0  # atno 17343 bound_to 10162
  156.3395  130.3813  149.7421 LP  0  0  0  0  0  0  0  0  0  0  0  0  # atno 17370 bound_to 10713
  156.4935  130.8096  151.3104 LP  0  0  0  0  0  0  0  0  0  0  0  0  # atno 17371 bound_to 10713
  140.8644  133.8035  155.9299 LP  0  0  0  0  0  0  0  0  0  0  0  0  # atno 17394 bound_to 11000
  140.9016  134.2371  157.5038 LP  0  0  0  0  0  0  0  0  0  0  0  0  # atno 17395 bound_to 11000

$$$$
