AV-unprocessed.smi:651|AV-procd|sdf|3185|dock2
  -GOLD-   22720 0113D 1   1.00000     0.00000
 Structure written by MMmdl.
 38 39  0  0  0  0  0  0  0  0  1 V2000
  152.3072  144.2023  160.7883 C   0  0  0  0  0  0  0  0  0  0  0  0
  152.3376  142.9238  159.9778 C   0  0  0  0  0  0  0  0  0  0  0  0
  153.0416  141.7911  160.4385 C   0  0  0  0  0  0  0  0  0  0  0  0
  153.0350  140.6284  159.6442 C   0  0  0  0  0  0  0  0  0  0  0  0
  152.3273  140.6420  158.4242 C   0  0  0  0  0  0  0  0  0  0  0  0
  152.2791  139.4103  157.5353 C   0  0  0  0  0  0  0  0  0  0  0  0
  151.7552  139.7503  156.1372 C   0  0  0  0  0  0  0  0  0  0  0  0
  152.5431  139.8716  155.1997 O   0  0  0  0  0  0  0  0  0  0  0  0
  150.4297  139.9227  156.0126 N   0  0  0  0  0  0  0  0  0  0  0  0
  149.7328  140.2646  154.7724 C   0  0  1  0  0  0  0  0  0  0  0  0
  148.9766  139.0466  154.2084 C   0  0  0  0  0  0  0  0  0  0  0  0
  147.6027  139.5487  153.7473 C   0  0  0  0  0  0  0  0  0  0  0  0
  147.6761  141.0768  153.8022 C   0  0  0  0  0  0  0  0  0  0  0  0
  148.6910  141.4072  154.9072 C   0  0  1  0  0  0  0  0  0  0  0  0
  147.9972  141.5034  156.2836 C   0  0  0  0  0  0  0  0  0  0  0  0
  148.1609  142.6400  156.9651 N   0  0  0  0  0  0  0  0  0  0  0  0
  147.3323  140.5695  156.7293 O   0  0  0  0  0  0  0  0  0  0  0  0
  151.6607  141.8293  158.0529 C   0  0  0  0  0  0  0  0  0  0  0  0
  151.6605  142.9477  158.8088 N   0  0  0  0  0  0  0  0  0  0  0  0
  152.6634  144.0328  161.8049 H   0  0  0  0  0  0  0  0  0  0  0  0
  151.2917  144.5954  160.8469 H   0  0  0  0  0  0  0  0  0  0  0  0
  152.9420  144.9575  160.3243 H   0  0  0  0  0  0  0  0  0  0  0  0
  153.5738  141.8097  161.3783 H   0  0  0  0  0  0  0  0  0  0  0  0
  153.5596  139.7417  159.9688 H   0  0  0  0  0  0  0  0  0  0  0  0
  153.2742  138.9724  157.4470 H   0  0  0  0  0  0  0  0  0  0  0  0
  151.6410  138.6555  157.9973 H   0  0  0  0  0  0  0  0  0  0  0  0
  149.8595  139.8107  156.8386 H   0  0  0  0  0  0  0  0  0  0  0  0
  150.4709  140.5673  154.0267 H   0  0  0  0  0  0  0  0  0  0  0  0
  149.5320  138.6087  153.3782 H   0  0  0  0  0  0  0  0  0  0  0  0
  148.8497  138.2627  154.9567 H   0  0  0  0  0  0  0  0  0  0  0  0
  147.3439  139.1883  152.7514 H   0  0  0  0  0  0  0  0  0  0  0  0
  146.8323  139.1900  154.4309 H   0  0  0  0  0  0  0  0  0  0  0  0
  148.0460  141.4582  152.8495 H   0  0  0  0  0  0  0  0  0  0  0  0
  146.6956  141.5264  153.9668 H   0  0  0  0  0  0  0  0  0  0  0  0
  149.1680  142.3664  154.6980 H   0  0  0  0  0  0  0  0  0  0  0  0
  147.7245  142.7543  157.8685 H   0  0  0  0  0  0  0  0  0  0  0  0
  148.7187  143.3840  156.5713 H   0  0  0  0  0  0  0  0  0  0  0  0
  151.1050  141.8820  157.1281 H   0  0  0  0  0  0  0  0  0  0  0  0
  1  2  1  0  0  0  0
  1 20  1  0  0  0  0
  1 21  1  0  0  0  0
  1 22  1  0  0  0  0
  2 19  1  0  0  0  0
  2  3  2  0  0  0  0
  3  4  1  0  0  0  0
  3 23  1  0  0  0  0
  4  5  2  0  0  0  0
  4 24  1  0  0  0  0
  5  6  1  0  0  0  0
  5 18  1  0  0  0  0
  6  7  1  0  0  0  0
  6 25  1  0  0  0  0
  6 26  1  0  0  0  0
  7  8  2  0  0  0  0
  7  9  1  0  0  0  0
  9 10  1  0  0  0  0
  9 27  1  0  0  0  0
 10 14  1  0  0  0  0
 10 11  1  0  0  0  0
 10 28  1  0  0  0  0
 11 12  1  0  0  0  0
 11 29  1  0  0  0  0
 11 30  1  0  0  0  0
 12 13  1  0  0  0  0
 12 31  1  0  0  0  0
 12 32  1  0  0  0  0
 13 14  1  0  0  0  0
 13 33  1  0  0  0  0
 13 34  1  0  0  0  0
 14 15  1  0  0  0  0
 14 35  1  0  0  0  0
 15 16  1  0  0  0  0
 15 17  2  0  0  0  0
 16 36  1  0  0  0  0
 16 37  1  0  0  0  0
 18 19  2  0  0  0  0
 18 38  1  0  0  0  0
M  END
> <s_m_source_file>
AV-unprocessed.smi

> <i_m_source_file_index>
651

> <i_lp_mmshare_version>
43012

> <i_f3d_flags>
0

> <s_epik_input>
W0NIM11jMVtjSF1bY0hdYyhbY0hdbjEpW0NIMl1DKD1PKVtOSF1bQ0BASF0yW0NIMl1bQ0gyXVtDSDJdW0NASF0yQyg9TylbTkgyXQ==

> <s_epik_cmdline>
J2VwaWtfcHl0aG9uJywgJy1waCcsICc3LjAnLCAnLXRuJywgJzgnLCAnLW1hJywgJzIwMCcsICctbWV0YWxfYmluZGluZycsICctaW1hZScsICc8aW5maWxlLm1hZT4nLCAnLW9tYWUnLCAnPG91dGZpbGUubWFlPic=

> <r_epik_Ionization_Penalty>
0.0159502

> <r_epik_Ionization_Penalty_Charging>
0

> <r_epik_Ionization_Penalty_Neutral>
0.0159502

> <r_epik_State_Penalty>
0.012563

> <r_epik_Charging_Adjusted_Penalty>
0.012563

> <i_epik_Tot_Q>
0

> <i_epik_Tot_abs_Q>
0

> <r_epik_Metal_State_Penalty>
0.0122326

> <b_epik_Metal_Only>
0

> <s_lp_Force_Field>
OPLS_2005

> <r_lp_Energy>
12.2285

> <b_lp_Chiralities_Consistent>
1

> <s_lp_Variant>
AV-unprocessed.smi:651-2

> <Gold.Version>
5.8.1

> <Gold.Id.Protein>
6NUR|6NUR_protein|mol2

> <Gold.PLP.Fitness>
42.9194

> <Gold.PLP.PLP>
-36.5714

> <Gold.PLP.part.hbond>
-3.0000

> <Gold.PLP.part.metal>
0.0000

> <Gold.PLP.part.buried>
-1.5296

> <Gold.PLP.part.nonpolar>
-31.5166

> <Gold.PLP.part.repulsive>
0.1244

> <Gold.PLP.ligand.clash>
0.0000

> <Gold.PLP.ligand.torsion>
0.5866

> <Gold.PLP.Chemscore.Hbond>
2.4961

> <Gold.PLP.Chemscore.CHOScore>
0.0000

> <Gold.PLP.Chemscore.Metal>
0.0000

> <Gold.Chemscore.Hbonds>
donor molecule, donor type, donor heavy atom, donor atom, acceptor molecule, acceptor atom, score
      L1  H    16    37       P1  8028  1.00
      P1  H  7989  7998       L1     8  0.43
      P1  H  7997  8008       L1     8  0.96

> <Gold.PLP.Chemscore.Internal.Correction>
0.0330

> <Gold.Rescore>
     Score         DG    S(hbond)    S(metal)    S(lipo)     H(rot)  DE(clash)    DE(int)     intcor
     17.67     -18.45       1.98        0.00      97.29       1.97       0.10       0.67       ----

> <Gold.Chemscore.Fitness>
17.6722

> <Gold.Chemscore.DG>
-18.4477

> <Gold.Chemscore.ZeroCoef>
-5.4800

> <Gold.Chemscore.Hbond>
1.9848

> <Gold.Chemscore.Metal>
0.0000

> <Gold.Chemscore.Lipo>
97.2876

> <Gold.Chemscore.Internal_Hbond>
0.0000

> <Gold.Chemscore.DEClash>
0.1032

> <Gold.Chemscore.DEInternal>
0.6724

> <Gold.Chemscore.Rot>
1.9704

> <Gold.Chemscore.Internal.Correction>
   9.000000E+99

> <Gold.Chemscore.Hbonds>
donor molecule, donor type, donor heavy atom, donor atom, acceptor molecule, acceptor atom, score
      L1  H    16    37       P1  8028  0.74
      P1  H  7989  7998       L1     8  0.36
      P1  H  7997  8008       L1     8  0.60

> <Gold.Chemscore.Hbond.Weighted>
-6.6293

> <Gold.Chemscore.Metal.Weighted>
-0.0000

> <Gold.Chemscore.Lipo.Weighted>
-11.3826

> <Gold.Chemscore.Internal_Hbond.Weighted>
0.0000

> <Gold.Chemscore.DEClash.Weighted>
0.1032

> <Gold.Chemscore.DEInternal.Weighted>
0.6724

> <Gold.Chemscore.Rot.Weighted>
5.0443

> <Gold.Chemscore.Internal.Correction.Weighted>
   9.000000E+99

> <Gold.Protein.RotatedTorsions>
[ 6907 6896 6895 6894 ] final  161.63 input  -60.11 | X-H torsion
[ 7974 7965 7964 7962 ] final    8.66 input  175.53 | X-H torsion
[ 8008 7997 7996 7995 ] final  -21.35 input   59.86 | X-H torsion
[ 10167 10162 10161 10158 ] final -117.74 input  -65.29 | X-H torsion
[ 10718 10713 10712 10709 ] final  107.31 input   66.30 | X-H torsion
[ 10763 10752 10751 10750 ] final -157.46 input  -60.55 | X-H torsion
[ 11005 11000 10999 10996 ] final  131.78 input  -57.11 | X-H torsion

> <Gold.Protein.ActiveResidues>
 VAL166  LYS551  ARG553  GLY616  TRP617  ASP618  TYR619  PRO620  LYS621  CYS622 
 ASP623  PHE694  ASN695  SER759  ASP760  ASP761  ALA762  ILE779  LEU786  VAL792 
 PHE793  MET794  SER795  GLU796  ALA797  LYS798  CYS799  TRP800  GLU811  SER814 

> <Gold.Protein.RotatedAtoms>
  151.9527  133.3671  159.4005 H   0  0  0  0  0  0  0  0  0  0  0  0  # atno 6907 bound_to 6896
  150.6978  134.4323  159.5263 H   0  0  0  0  0  0  0  0  0  0  0  0  # atno 6908 bound_to 6896
  152.1999  134.8597  160.0559 H   0  0  0  0  0  0  0  0  0  0  0  0  # atno 6909 bound_to 6896
  146.2413  139.9900  142.8427 H   0  0  0  0  0  0  0  0  0  0  0  0  # atno 7974 bound_to 7965
  154.4711  140.2037  155.9993 H   0  0  0  0  0  0  0  0  0  0  0  0  # atno 8008 bound_to 7997
  156.1012  140.3243  155.7915 H   0  0  0  0  0  0  0  0  0  0  0  0  # atno 8009 bound_to 7997
  155.4794  140.0537  157.2960 H   0  0  0  0  0  0  0  0  0  0  0  0  # atno 8010 bound_to 7997
  140.0651  143.4931  152.2011 H   0  0  0  0  0  0  0  0  0  0  0  0  # atno 10167 bound_to 10162
  157.6634  131.0870  150.6136 H   0  0  0  0  0  0  0  0  0  0  0  0  # atno 10718 bound_to 10713
  154.7634  135.3124  154.8334 H   0  0  0  0  0  0  0  0  0  0  0  0  # atno 10763 bound_to 10752
  153.9089  135.6808  153.4756 H   0  0  0  0  0  0  0  0  0  0  0  0  # atno 10764 bound_to 10752
  153.1237  135.4811  154.9169 H   0  0  0  0  0  0  0  0  0  0  0  0  # atno 10765 bound_to 10752
  139.9750  134.9566  156.9487 H   0  0  0  0  0  0  0  0  0  0  0  0  # atno 11005 bound_to 11000
  145.1512  140.9624  143.4432 LP  0  0  0  0  0  0  0  0  0  0  0  0  # atno 17320 bound_to 7965
  145.0204  139.3430  143.6075 LP  0  0  0  0  0  0  0  0  0  0  0  0  # atno 17321 bound_to 7965
  139.5870  144.7535  151.3495 LP  0  0  0  0  0  0  0  0  0  0  0  0  # atno 17342 bound_to 10162
  140.7153  143.7282  150.7643 LP  0  0  0  0  0  0  0  0  0  0  0  0  # atno 17343 bound_to 10162
  156.6438  130.4466  149.5743 LP  0  0  0  0  0  0  0  0  0  0  0  0  # atno 17370 bound_to 10713
  156.2189  130.6725  151.1347 LP  0  0  0  0  0  0  0  0  0  0  0  0  # atno 17371 bound_to 10713
  140.5213  134.0905  155.7293 LP  0  0  0  0  0  0  0  0  0  0  0  0  # atno 17394 bound_to 11000
  141.1428  133.9108  157.2286 LP  0  0  0  0  0  0  0  0  0  0  0  0  # atno 17395 bound_to 11000

$$$$
