AV-unprocessed.smi:1140|AV-procd|sdf|4871|dock8
  -GOLD-   22720 3443D 1   1.00000     0.00000
 Structure written by MMmdl.
 48 50  0  0  0  0  0  0  0  0  1 V2000
  146.1022  132.5748  151.9410 C   0  0  0  0  0  0  0  0  0  0  0  0
  146.8451  131.9604  153.1298 C   0  0  0  0  0  0  0  0  0  0  0  0
  147.8867  132.8477  153.5261 O   0  0  0  0  0  0  0  0  0  0  0  0
  148.8006  132.4191  154.4703 C   0  0  0  0  0  0  0  0  0  0  0  0
  148.7818  131.1139  154.8411 N   0  0  0  0  0  0  0  0  0  0  0  0
  149.6756  130.6931  155.7593 C   0  0  0  0  0  0  0  0  0  0  0  0
  150.6319  131.5403  156.3479 C   0  0  0  0  0  0  0  0  0  0  0  0
  150.6539  132.8940  155.9650 C   0  0  0  0  0  0  0  0  0  0  0  0
  149.7123  133.3545  155.0128 C   0  0  0  0  0  0  0  0  0  0  0  0
  149.6648  134.6950  154.5405 N   0  0  0  0  0  0  0  0  0  0  0  0
  150.3350  135.7662  154.9975 C   0  0  0  0  0  0  0  0  0  0  0  0
  151.0762  135.7749  155.9802 O   0  0  0  0  0  0  0  0  0  0  0  0
  150.0806  136.8515  154.2529 N   0  0  0  0  0  0  0  0  0  0  0  0
  150.6412  138.1802  154.4807 C   0  0  0  0  0  0  0  0  0  0  0  0
  152.1336  138.0548  154.8543 C   0  0  0  0  0  0  0  0  0  0  0  0
  152.7191  139.4123  155.2833 C   0  0  0  0  0  0  0  0  0  0  0  0
  151.9232  139.9442  156.3965 N   0  0  0  0  0  0  0  0  0  0  0  0
  152.3843  139.9718  157.6721 C   0  0  0  0  0  0  0  0  0  0  0  0
  153.5089  139.5693  157.9736 O   0  0  0  0  0  0  0  0  0  0  0  0
  151.4720  140.5405  158.7145 C   0  0  0  0  0  0  0  0  0  0  0  0
  150.9225  141.9396  158.5020 C   0  0  0  0  0  0  0  0  0  0  0  0
  152.0002  141.7039  159.5274 C   0  0  0  0  0  0  0  0  0  0  0  0
  150.5488  140.2463  155.9710 C   0  0  0  0  0  0  0  0  0  0  0  0
  149.8508  138.9321  155.5773 C   0  0  0  0  0  0  0  0  0  0  0  0
  145.2905  131.9260  151.6115 H   0  0  0  0  0  0  0  0  0  0  0  0
  146.7730  132.7270  151.0953 H   0  0  0  0  0  0  0  0  0  0  0  0
  145.6714  133.5406  152.2060 H   0  0  0  0  0  0  0  0  0  0  0  0
  146.1466  131.8004  153.9527 H   0  0  0  0  0  0  0  0  0  0  0  0
  147.2583  130.9919  152.8434 H   0  0  0  0  0  0  0  0  0  0  0  0
  149.6323  129.6482  156.0285 H   0  0  0  0  0  0  0  0  0  0  0  0
  151.3368  131.1596  157.0722 H   0  0  0  0  0  0  0  0  0  0  0  0
  151.3999  133.5444  156.3949 H   0  0  0  0  0  0  0  0  0  0  0  0
  149.0096  134.8648  153.7913 H   0  0  0  0  0  0  0  0  0  0  0  0
  149.4514  136.7531  153.4696 H   0  0  0  0  0  0  0  0  0  0  0  0
  150.5786  138.7539  153.5539 H   0  0  0  0  0  0  0  0  0  0  0  0
  152.2535  137.3412  155.6713 H   0  0  0  0  0  0  0  0  0  0  0  0
  152.6986  137.6567  154.0108 H   0  0  0  0  0  0  0  0  0  0  0  0
  153.7747  139.2999  155.5340 H   0  0  0  0  0  0  0  0  0  0  0  0
  152.6889  140.1147  154.4490 H   0  0  0  0  0  0  0  0  0  0  0  0
  150.7962  139.8395  159.2014 H   0  0  0  0  0  0  0  0  0  0  0  0
  151.2044  142.4914  157.6072 H   0  0  0  0  0  0  0  0  0  0  0  0
  149.9129  142.1322  158.8592 H   0  0  0  0  0  0  0  0  0  0  0  0
  151.7249  141.7351  160.5795 H   0  0  0  0  0  0  0  0  0  0  0  0
  152.9979  142.0762  159.3004 H   0  0  0  0  0  0  0  0  0  0  0  0
  149.9527  140.7600  156.7232 H   0  0  0  0  0  0  0  0  0  0  0  0
  150.5785  140.9223  155.1151 H   0  0  0  0  0  0  0  0  0  0  0  0
  148.8367  139.1427  155.2360 H   0  0  0  0  0  0  0  0  0  0  0  0
  149.7534  138.3007  156.4620 H   0  0  0  0  0  0  0  0  0  0  0  0
  1  2  1  0  0  0  0
  1 25  1  0  0  0  0
  1 26  1  0  0  0  0
  1 27  1  0  0  0  0
  2  3  1  0  0  0  0
  2 28  1  0  0  0  0
  2 29  1  0  0  0  0
  3  4  1  0  0  0  0
  4  9  1  0  0  0  0
  4  5  2  0  0  0  0
  5  6  1  0  0  0  0
  6  7  2  0  0  0  0
  6 30  1  0  0  0  0
  7  8  1  0  0  0  0
  7 31  1  0  0  0  0
  8  9  2  0  0  0  0
  8 32  1  0  0  0  0
  9 10  1  0  0  0  0
 10 11  1  0  0  0  0
 10 33  1  0  0  0  0
 11 12  2  0  0  0  0
 11 13  1  0  0  0  0
 13 14  1  0  0  0  0
 13 34  1  0  0  0  0
 14 24  1  0  0  0  0
 14 15  1  0  0  0  0
 14 35  1  0  0  0  0
 15 16  1  0  0  0  0
 15 36  1  0  0  0  0
 15 37  1  0  0  0  0
 16 17  1  0  0  0  0
 16 38  1  0  0  0  0
 16 39  1  0  0  0  0
 17 18  1  0  0  0  0
 17 23  1  0  0  0  0
 18 19  2  0  0  0  0
 18 20  1  0  0  0  0
 20 22  1  0  0  0  0
 20 21  1  0  0  0  0
 20 40  1  0  0  0  0
 21 22  1  0  0  0  0
 21 41  1  0  0  0  0
 21 42  1  0  0  0  0
 22 43  1  0  0  0  0
 22 44  1  0  0  0  0
 23 24  1  0  0  0  0
 23 45  1  0  0  0  0
 23 46  1  0  0  0  0
 24 47  1  0  0  0  0
 24 48  1  0  0  0  0
M  END
> <s_m_source_file>
AV-unprocessed.smi

> <i_m_source_file_index>
1140

> <i_lp_mmshare_version>
43012

> <i_f3d_flags>
0

> <s_epik_input>
W0NIM11bQ0gyXU9jMW5bY0hdW2NIXVtjSF1jMVtOSF1DKD1PKVtOSF1bQ0hdMltDSDJdW0NIMl1OKFtDSDJdW0NIMl0yKUMoPU8pW0NIXTNbQ0gyXVtDSDJdMw==

> <s_epik_cmdline>
J2VwaWtfcHl0aG9uJywgJy1waCcsICc3LjAnLCAnLXRuJywgJzgnLCAnLW1hJywgJzIwMCcsICctbWV0YWxfYmluZGluZycsICctaW1hZScsICc8aW5maWxlLm1hZT4nLCAnLW9tYWUnLCAnPG91dGZpbGUubWFlPic=

> <r_lp_tautomer_probability>
1

> <r_epik_Ionization_Penalty>
0.00011541

> <r_epik_Ionization_Penalty_Charging>
0

> <r_epik_Ionization_Penalty_Neutral>
0.00011541

> <r_epik_State_Penalty>
-0

> <r_epik_Charging_Adjusted_Penalty>
0

> <i_epik_Tot_Q>
0

> <i_epik_Tot_abs_Q>
0

> <r_epik_Metal_State_Penalty>
-0

> <b_epik_Metal_Only>
0

> <s_lp_Force_Field>
OPLS_2005

> <r_lp_Energy>
31.5236

> <b_lp_Chiralities_Consistent>
1

> <s_lp_Variant>
AV-unprocessed.smi:1140-1

> <Gold.Version>
5.8.1

> <Gold.Id.Protein>
6NUR|6NUR_protein|mol2

> <Gold.PLP.Fitness>
49.2543

> <Gold.PLP.PLP>
-39.1961

> <Gold.PLP.part.hbond>
-5.2052

> <Gold.PLP.part.metal>
0.0000

> <Gold.PLP.part.buried>
2.2666

> <Gold.PLP.part.nonpolar>
-35.4248

> <Gold.PLP.part.repulsive>
0.4040

> <Gold.PLP.ligand.clash>
0.0000

> <Gold.PLP.ligand.torsion>
0.4488

> <Gold.PLP.Chemscore.Hbond>
3.6150

> <Gold.PLP.Chemscore.CHOScore>
0.0000

> <Gold.PLP.Chemscore.Metal>
0.0000

> <Gold.Chemscore.Hbonds>
donor molecule, donor type, donor heavy atom, donor atom, acceptor molecule, acceptor atom, score
      L1  H    10    33       P1  7948  0.18
      L1  H    13    34       P1  7948  1.00
      P1  H  7997  8008       L1    19  0.99
      P1  H 10752 10764       L1    12  0.41

> <Gold.PLP.Chemscore.Internal.Correction>
0.1109

> <Gold.Rescore>
     Score         DG    S(hbond)    S(metal)    S(lipo)     H(rot)  DE(clash)    DE(int)     intcor
     15.20     -19.89       2.46        0.00      87.09       1.56       0.90       3.78       ----

> <Gold.Chemscore.Fitness>
15.2041

> <Gold.Chemscore.DG>
-19.8883

> <Gold.Chemscore.ZeroCoef>
-5.4800

> <Gold.Chemscore.Hbond>
2.4617

> <Gold.Chemscore.Metal>
0.0000

> <Gold.Chemscore.Lipo>
87.0938

> <Gold.Chemscore.Internal_Hbond>
0.0000

> <Gold.Chemscore.DEClash>
0.9027

> <Gold.Chemscore.DEInternal>
3.7815

> <Gold.Chemscore.Rot>
1.5640

> <Gold.Chemscore.Internal.Correction>
   9.000000E+99

> <Gold.Chemscore.Hbonds>
donor molecule, donor type, donor heavy atom, donor atom, acceptor molecule, acceptor atom, score
      L1  H    10    33       P1  7948  0.07
      L1  H    13    34       P1  7948  0.83
      P1  H  7997  8008       L1    19  0.69
      P1  H 10752 10764       L1    12  0.08

> <Gold.Chemscore.Hbond.Weighted>
-8.2222

> <Gold.Chemscore.Metal.Weighted>
-0.0000

> <Gold.Chemscore.Lipo.Weighted>
-10.1900

> <Gold.Chemscore.Internal_Hbond.Weighted>
0.0000

> <Gold.Chemscore.DEClash.Weighted>
0.9027

> <Gold.Chemscore.DEInternal.Weighted>
3.7815

> <Gold.Chemscore.Rot.Weighted>
4.0038

> <Gold.Chemscore.Internal.Correction.Weighted>
   9.000000E+99

> <Gold.Protein.RotatedTorsions>
[ 6907 6896 6895 6894 ] final   29.62 input  -60.11 | X-H torsion
[ 7974 7965 7964 7962 ] final  105.15 input  175.53 | X-H torsion
[ 8008 7997 7996 7995 ] final  -78.60 input   59.86 | X-H torsion
[ 10167 10162 10161 10158 ] final  -84.73 input  -65.29 | X-H torsion
[ 10718 10713 10712 10709 ] final   81.29 input   66.30 | X-H torsion
[ 10763 10752 10751 10750 ] final  -39.97 input  -60.55 | X-H torsion
[ 11005 11000 10999 10996 ] final   37.33 input  -57.11 | X-H torsion

> <Gold.Protein.ActiveResidues>
 VAL166  LYS551  ARG553  GLY616  TRP617  ASP618  TYR619  PRO620  LYS621  CYS622 
 ASP623  PHE694  ASN695  SER759  ASP760  ASP761  ALA762  ILE779  LEU786  VAL792 
 PHE793  MET794  SER795  GLU796  ALA797  LYS798  CYS799  TRP800  GLU811  SER814 

> <Gold.Protein.RotatedAtoms>
  152.0341  134.9750  160.0572 H   0  0  0  0  0  0  0  0  0  0  0  0  # atno 6907 bound_to 6896
  152.1215  133.4351  159.4686 H   0  0  0  0  0  0  0  0  0  0  0  0  # atno 6908 bound_to 6896
  150.6849  134.2448  159.4530 H   0  0  0  0  0  0  0  0  0  0  0  0  # atno 6909 bound_to 6896
  145.3234  139.2506  143.3699 H   0  0  0  0  0  0  0  0  0  0  0  0  # atno 7974 bound_to 7965
  154.5705  140.0691  156.8957 H   0  0  0  0  0  0  0  0  0  0  0  0  # atno 8008 bound_to 7997
  155.2643  140.3360  155.4252 H   0  0  0  0  0  0  0  0  0  0  0  0  # atno 8009 bound_to 7997
  156.2114  140.1761  156.7671 H   0  0  0  0  0  0  0  0  0  0  0  0  # atno 8010 bound_to 7997
  140.4105  143.2625  151.9024 H   0  0  0  0  0  0  0  0  0  0  0  0  # atno 10167 bound_to 10162
  157.6829  130.9997  150.2205 H   0  0  0  0  0  0  0  0  0  0  0  0  # atno 10718 bound_to 10713
  153.9381  135.6764  153.4744 H   0  0  0  0  0  0  0  0  0  0  0  0  # atno 10763 bound_to 10752
  153.0945  135.4858  154.8750 H   0  0  0  0  0  0  0  0  0  0  0  0  # atno 10764 bound_to 10752
  154.7392  135.3156  154.8716 H   0  0  0  0  0  0  0  0  0  0  0  0  # atno 10765 bound_to 10752
  140.2237  134.3611  155.7994 H   0  0  0  0  0  0  0  0  0  0  0  0  # atno 11005 bound_to 11000
  146.3073  140.3797  142.8682 LP  0  0  0  0  0  0  0  0  0  0  0  0  # atno 17320 bound_to 7965
  144.8921  140.7536  143.5920 LP  0  0  0  0  0  0  0  0  0  0  0  0  # atno 17321 bound_to 7965
  139.4782  144.5542  151.8340 LP  0  0  0  0  0  0  0  0  0  0  0  0  # atno 17342 bound_to 10162
  140.4643  144.1678  150.5910 LP  0  0  0  0  0  0  0  0  0  0  0  0  # atno 17343 bound_to 10162
  156.2857  130.3739  149.7890 LP  0  0  0  0  0  0  0  0  0  0  0  0  # atno 17370 bound_to 10713
  156.5565  130.8365  151.3316 LP  0  0  0  0  0  0  0  0  0  0  0  0  # atno 17371 bound_to 10713
  141.2222  133.7207  156.8617 LP  0  0  0  0  0  0  0  0  0  0  0  0  # atno 17394 bound_to 11000
  140.1823  134.9024  157.2963 LP  0  0  0  0  0  0  0  0  0  0  0  0  # atno 17395 bound_to 11000

$$$$
