#       Name:                AV-unprocessed.smi:196
#       Creating user name   scv26
#       Creation time:       Thu Mar 26 19:38:50 2020


#       File generated by GOLD software.
#

@<TRIPOS>MOLECULE
AV-unprocessed.smi:196
    57    60     1
SMALL
NO_CHARGES


@<TRIPOS>ATOM
      1 ****        -3.5205  -0.8453  -4.9492 C.3            1 S1                 0.0000
      2 ****        -2.2981  -1.3978  -4.1964 C.3            1 S1                 0.0000
      3 ****        -2.6675  -2.6829  -3.6930 O.3            1 S1                 0.0000
      4 ****        -2.3096  -2.7978  -2.3241 C.3            1 S1                 0.0000
      5 ****        -2.4130  -1.3706  -1.8119 C.3            1 S1                 0.0000
      6 ****        -1.8283  -0.5707  -2.9711 C.3            1 S1                 0.0000
      7 ****        -2.3753   0.7368  -2.9422 O.3            1 S1                 0.0000
      8 ****        -0.2809  -0.4522  -2.9407 C.3            1 S1                 0.0000
      9 ****         0.2482   0.1385  -1.7211 N.pl3          1 S1                 0.0000
     10 ****         0.3540   1.4799  -1.4298 C.2            1 S1                 0.0000
     11 ****         0.8657   1.7569  -0.2615 N.2            1 S1                 0.0000
     12 ****         1.1434   0.5129   0.2904 C.ar           1 S1                 0.0000
     13 ****         1.7039   0.0794   1.5218 C.ar           1 S1                 0.0000
     14 ****         2.0744   0.9497   2.4936 N.3            1 S1                 0.0000
     15 ****         3.3232   0.6595   3.1949 C.3            1 S1                 0.0000
     16 ****         2.9071   0.2061   4.5880 C.3            1 S1                 0.0000
     17 ****         3.8729   0.3674   5.4920 F              1 S1                 0.0000
     18 ****         1.6976   1.0899   4.8585 C.3            1 S1                 0.0000
     19 ****         1.0152   1.2185   3.4811 C.3            1 S1                 0.0000
     20 ****         0.3397   2.5920   3.3177 C.2            1 S1                 0.0000
     21 ****         0.8768   3.4780   2.4730 N.am           1 S1                 0.0000
     22 ****        -0.6773   2.8488   3.9579 O.2            1 S1                 0.0000
     23 ****         1.8272  -1.2600   1.7228 N.ar           1 S1                 0.0000
     24 ****         1.4380  -2.1193   0.7762 C.ar           1 S1                 0.0000
     25 ****         0.9016  -1.8586  -0.4178 N.ar           1 S1                 0.0000
     26 ****         0.7699  -0.5159  -0.6188 C.ar           1 S1                 0.0000
     27 ****         2.6210  -0.8468   4.5835 H              1 S1                 0.0000
     28 ****         0.2365   0.4551   3.4112 H              1 S1                 0.0000
     29 ****        -3.3035   0.1224  -5.4020 H              1 S1                 0.0000
     30 ****        -4.3758  -0.7237  -4.2837 H              1 S1                 0.0000
     31 ****        -3.8194  -1.5214  -5.7503 H              1 S1                 0.0000
     32 ****        -1.4809  -1.5256  -4.9077 H              1 S1                 0.0000
     33 ****        -2.9686  -3.4855  -1.7938 H              1 S1                 0.0000
     34 ****        -1.2878  -3.1704  -2.2423 H              1 S1                 0.0000
     35 ****        -3.4670  -1.1234  -1.6733 H              1 S1                 0.0000
     36 ****        -1.9162  -1.2199  -0.8545 H              1 S1                 0.0000
     37 ****        -2.1535   1.1354  -2.1149 H              1 S1                 0.0000
     38 ****         0.1777  -1.4337  -3.0666 H              1 S1                 0.0000
     39 ****         0.0643   0.1471  -3.7844 H              1 S1                 0.0000
     40 ****         0.0341   2.2521  -2.1146 H              1 S1                 0.0000
     41 ****         3.9582  -0.0748   2.6963 H              1 S1                 0.0000
     42 ****         3.8948   1.5867   3.2528 H              1 S1                 0.0000
     43 ****         1.0370   0.6671   5.6162 H              1 S1                 0.0000
     44 ****         2.0350   2.0634   5.2204 H              1 S1                 0.0000
     45 ****         0.4504   4.3863   2.3594 H              1 S1                 0.0000
     46 ****         1.7108   3.2381   1.9574 H              1 S1                 0.0000
     47 ****         1.5729  -3.1650   1.0104 H              1 S1                 0.0000
     48 ****        -2.1952  -3.3910  -4.2179 LP             1 S1                 0.0000
     49 ****        -3.6560  -2.8021  -3.7866 LP             1 S1                 0.0000
     50 ****        -3.3696   0.6889  -3.0380 LP             1 S1                 0.0000
     51 ****        -1.9940   1.2788  -3.6910 LP             1 S1                 0.0000
     52 ****         1.0219   2.6578   0.1433 LP             1 S1                 0.0000
     53 ****         2.2467   1.7720   1.9514 LP             1 S1                 0.0000
     54 ****        -1.0615   2.1672   4.5807 LP             1 S1                 0.0000
     55 ****        -1.1207   3.7393   3.8561 LP             1 S1                 0.0000
     56 ****         2.2099  -1.6026   2.5808 LP             1 S1                 0.0000
     57 ****         0.6311  -2.5576  -1.0798 LP             1 S1                 0.0000
@<TRIPOS>BOND
    1    1    2 1     
    2    1   29 1     
    3    1   30 1     
    4    1   31 1     
    5    2    6 1     
    6    2    3 1     
    7    2   32 1     
    8    3    4 1     
    9    4    5 1     
   10    4   33 1     
   11    4   34 1     
   12    5    6 1     
   13    5   35 1     
   14    5   36 1     
   15    6    7 1     
   16    6    8 1     
   17    7   37 1     
   18    8    9 1     
   19    8   38 1     
   20    8   39 1     
   21    9   26 1     
   22    9   10 1     
   23   10   11 2     
   24   10   40 1     
   25   11   12 1     
   26   12   26 ar    
   27   12   13 ar    
   28   13   14 1     
   29   13   23 ar    
   30   14   19 1     
   31   14   15 1     
   32   15   16 1     
   33   15   41 1     
   34   15   42 1     
   35   16   27 1     
   36   16   17 1     
   37   16   18 1     
   38   18   19 1     
   39   18   43 1     
   40   18   44 1     
   41   19   28 1     
   42   19   20 1     
   43   20   21 am    
   44   20   22 2     
   45   21   45 1     
   46   21   46 1     
   47   23   24 ar    
   48   24   25 ar    
   49   24   47 1     
   50   25   26 ar    
   51    3   48 1     
   52    3   49 1     
   53    7   50 1     
   54    7   51 1     
   55   11   52 1     
   56   14   53 1     
   57   22   54 1     
   58   22   55 1     
   59   23   56 1     
   60   25   57 1     
@<TRIPOS>SUBSTRUCTURE
      1 S1             1
@<TRIPOS>SET
LONE_PAIRS      STATIC     ATOMS    <user>   **** ""
10 48 49 50 51 52 53 54 55 56 57
DONOR_HYDROGENS      STATIC     ATOMS    <user>   **** ""
3 37 45 46
ATOM$BLUE        STATIC     ATOMS    COLORGROUP SYSTEM
10 48 49 50 51 52 53 54 55 56 57
ATOM$RED        STATIC     ATOMS    COLORGROUP SYSTEM
3 37 45 46
