AV-unprocessed.smi:1758|AV-procd|sdf|7081|dock9
  -GOLD-   22720 8303D 1   1.00000     0.00000
 Structure written by MMmdl.
 44 46  0  0  0  0  0  0  0  0  2 V2000
  146.5100  137.6647  152.9577 C   0  0  0  0  0  0  0  0  0  0  0  0
  147.0256  139.0138  152.4433 C   0  0  0  0  0  0  0  0  0  0  0  0
  147.8411  139.6899  153.4330 N   0  0  0  0  0  0  0  0  0  0  0  0
  148.5127  139.1387  154.5062 C   0  0  0  0  0  0  0  0  0  0  0  0
  149.1305  140.1847  155.1317 C   0  0  0  0  0  0  0  0  0  0  0  0
  149.9456  140.1856  156.2918 N   0  0  0  0  0  0  0  0  0  0  0  0
  150.7642  141.1638  156.7124 C   0  0  0  0  0  0  0  0  0  0  0  0
  150.9097  142.2521  156.1562 O   0  0  0  0  0  0  0  0  0  0  0  0
  151.4106  140.8077  157.8314 N   0  0  0  0  0  0  0  0  0  0  0  0
  152.3726  141.6348  158.5550 C   0  0  2  0  0  0  0  0  0  0  0  0
  152.9508  140.9453  159.8036 C   0  0  0  0  0  0  0  0  0  0  0  0
  153.0673  142.0577  160.8656 C   0  0  0  0  0  0  0  0  0  0  0  0
  152.6645  143.2992  160.1769 N   0  3  2  0  0  0  0  0  0  0  0  0
  152.1501  144.4027  161.0168 C   0  0  0  0  0  0  0  0  0  0  0  0
  151.8598  145.6278  160.1258 C   0  0  0  0  0  0  0  0  0  0  0  0
  150.9420  145.2715  158.9378 C   0  0  0  0  0  0  0  0  0  0  0  0
  151.4850  144.0577  158.1588 C   0  0  0  0  0  0  0  0  0  0  0  0
  151.7170  142.8893  159.1299 C   0  0  1  0  0  0  0  0  0  0  0  0
  148.7901  141.3401  154.3813 C   0  0  0  0  0  0  0  0  0  0  0  0
  148.0109  141.0331  153.3555 N   0  0  0  0  0  0  0  0  0  0  0  0
  145.8853  137.1779  152.2087 H   0  0  0  0  0  0  0  0  0  0  0  0
  145.9113  137.7909  153.8602 H   0  0  0  0  0  0  0  0  0  0  0  0
  147.3342  136.9902  153.1924 H   0  0  0  0  0  0  0  0  0  0  0  0
  147.6154  138.8750  151.5361 H   0  0  0  0  0  0  0  0  0  0  0  0
  146.1880  139.6611  152.1804 H   0  0  0  0  0  0  0  0  0  0  0  0
  148.4858  138.0798  154.7170 H   0  0  0  0  0  0  0  0  0  0  0  0
  149.9084  139.3478  156.8536 H   0  0  0  0  0  0  0  0  0  0  0  0
  151.2232  139.8913  158.2114 H   0  0  0  0  0  0  0  0  0  0  0  0
  153.2031  141.9372  157.9138 H   0  0  0  0  0  0  0  0  0  0  0  0
  152.2903  140.1565  160.1666 H   0  0  0  0  0  0  0  0  0  0  0  0
  153.9167  140.4882  159.5859 H   0  0  0  0  0  0  0  0  0  0  0  0
  152.3909  141.8525  161.6969 H   0  0  0  0  0  0  0  0  0  0  0  0
  154.0777  142.1482  161.2652 H   0  0  0  0  0  0  0  0  0  0  0  0
  151.2450  144.0847  161.5366 H   0  0  0  0  0  0  0  0  0  0  0  0
  152.8879  144.6576  161.7784 H   0  0  0  0  0  0  0  0  0  0  0  0
  151.4094  146.4237  160.7201 H   0  0  0  0  0  0  0  0  0  0  0  0
  152.8011  146.0258  159.7441 H   0  0  0  0  0  0  0  0  0  0  0  0
  149.9411  145.0465  159.3084 H   0  0  0  0  0  0  0  0  0  0  0  0
  150.8393  146.1293  158.2726 H   0  0  0  0  0  0  0  0  0  0  0  0
  150.7827  143.7673  157.3769 H   0  0  0  0  0  0  0  0  0  0  0  0
  152.4181  144.3237  157.6599 H   0  0  0  0  0  0  0  0  0  0  0  0
  150.7713  142.6160  159.6044 H   0  0  0  0  0  0  0  0  0  0  0  0
  149.0751  142.3694  154.5423 H   0  0  0  0  0  0  0  0  0  0  0  0
  153.4858  143.6418  159.6990 H   0  0  0  0  0  0  0  0  0  0  0  0
  1  2  1  0  0  0  0
  1 21  1  0  0  0  0
  1 22  1  0  0  0  0
  1 23  1  0  0  0  0
  2  3  1  0  0  0  0
  2 24  1  0  0  0  0
  2 25  1  0  0  0  0
  3 20  1  0  0  0  0
  3  4  1  0  0  0  0
  4  5  2  0  0  0  0
  4 26  1  0  0  0  0
  5  6  1  0  0  0  0
  5 19  1  0  0  0  0
  6  7  1  0  0  0  0
  6 27  1  0  0  0  0
  7  8  2  0  0  0  0
  7  9  1  0  0  0  0
  9 10  1  0  0  0  0
  9 28  1  0  0  0  0
 10 18  1  0  0  0  0
 10 11  1  0  0  0  0
 10 29  1  0  0  0  0
 11 12  1  0  0  0  0
 11 30  1  0  0  0  0
 11 31  1  0  0  0  0
 12 13  1  0  0  0  0
 12 32  1  0  0  0  0
 12 33  1  0  0  0  0
 13 18  1  0  0  0  0
 13 14  1  0  0  0  0
 13 44  1  0  0  0  0
 14 15  1  0  0  0  0
 14 34  1  0  0  0  0
 14 35  1  0  0  0  0
 15 16  1  0  0  0  0
 15 36  1  0  0  0  0
 15 37  1  0  0  0  0
 16 17  1  0  0  0  0
 16 38  1  0  0  0  0
 16 39  1  0  0  0  0
 17 18  1  0  0  0  0
 17 40  1  0  0  0  0
 17 41  1  0  0  0  0
 18 42  1  0  0  0  0
 19 20  2  0  0  0  0
 19 43  1  0  0  0  0
M  CHG  1  13   1
M  END
> <s_m_source_file>
AV-unprocessed.smi

> <i_m_source_file_index>
1758

> <i_lp_mmshare_version>
43012

> <i_f3d_flags>
0

> <s_epik_input>
W0NIM11bQ0gyXW4xW2NIXWMoW2NIXW4xKVtOSF1DKD1PKVtOSF1bQ0BIXShbQ0gyXVtDSDJdMilbQ0BASF0oTjIzKVtDSDJdW0NIMl1bQ0gyXVtDSDJdMw==

> <s_epik_cmdline>
J2VwaWtfcHl0aG9uJywgJy1waCcsICc3LjAnLCAnLXRuJywgJzgnLCAnLW1hJywgJzIwMCcsICctbWV0YWxfYmluZGluZycsICctaW1hZScsICc8aW5maWxlLm1hZT4nLCAnLW9tYWUnLCAnPG91dGZpbGUubWFlPic=

> <r_lp_tautomer_probability>
1

> <r_epik_Ionization_Penalty>
0.00111541

> <r_epik_Ionization_Penalty_Charging>
0.000974069

> <r_epik_Ionization_Penalty_Neutral>
0.000141346

> <r_epik_State_Penalty>
0.000633842

> <r_epik_Charging_Adjusted_Penalty>
0.00160791

> <i_epik_Tot_Q>
1

> <i_epik_Tot_abs_Q>
1

> <r_epik_Metal_State_Penalty>
-0

> <b_epik_Metal_Only>
0

> <s_lp_Force_Field>
OPLS_2005

> <r_lp_Energy>
39.1276

> <b_lp_Chiralities_Consistent>
1

> <s_lp_Variant>
AV-unprocessed.smi:1758-3

> <Gold.Version>
5.8.1

> <Gold.Id.Protein>
6NUR|6NUR_protein|mol2

> <Gold.PLP.Fitness>
42.6714

> <Gold.PLP.PLP>
-40.4170

> <Gold.PLP.part.hbond>
0.0000

> <Gold.PLP.part.metal>
0.0000

> <Gold.PLP.part.buried>
-5.0674

> <Gold.PLP.part.nonpolar>
-35.0505

> <Gold.PLP.part.repulsive>
0.7938

> <Gold.PLP.ligand.clash>
0.0000

> <Gold.PLP.ligand.torsion>
0.3783

> <Gold.PLP.Chemscore.Hbond>
0.0000

> <Gold.PLP.Chemscore.CHOScore>
1.0000

> <Gold.PLP.Chemscore.Metal>
0.0000

> <Gold.Chemscore.Hbonds>
donor molecule, donor type, donor heavy atom, donor atom, acceptor molecule, acceptor atom, score
      L1  C    19    43       P1  8028  0.84

> <Gold.PLP.Chemscore.Internal.Correction>
0.0110

> <Gold.Rescore>
     Score         DG    S(hbond)    S(metal)    S(lipo)     H(rot)  DE(clash)    DE(int)     intcor
     12.74     -15.61       0.00        0.00     112.57       1.19       0.07       2.80       ----

> <Gold.Chemscore.Fitness>
12.7386

> <Gold.Chemscore.DG>
-15.6087

> <Gold.Chemscore.ZeroCoef>
-5.4800

> <Gold.Chemscore.Hbond>
0.0000

> <Gold.Chemscore.Metal>
0.0000

> <Gold.Chemscore.Lipo>
112.5727

> <Gold.Chemscore.Internal_Hbond>
0.0000

> <Gold.Chemscore.DEClash>
0.0724

> <Gold.Chemscore.DEInternal>
2.7978

> <Gold.Chemscore.Rot>
1.1884

> <Gold.Chemscore.Internal.Correction>
   9.000000E+99

> <Gold.Chemscore.Hbond.Weighted>
-0.0000

> <Gold.Chemscore.Metal.Weighted>
-0.0000

> <Gold.Chemscore.Lipo.Weighted>
-13.1710

> <Gold.Chemscore.Internal_Hbond.Weighted>
0.0000

> <Gold.Chemscore.DEClash.Weighted>
0.0724

> <Gold.Chemscore.DEInternal.Weighted>
2.7978

> <Gold.Chemscore.Rot.Weighted>
3.0423

> <Gold.Chemscore.Internal.Correction.Weighted>
   9.000000E+99

> <Gold.Protein.RotatedTorsions>
[ 6907 6896 6895 6894 ] final  -80.02 input  -60.11 | X-H torsion
[ 7974 7965 7964 7962 ] final   47.85 input  175.53 | X-H torsion
[ 8008 7997 7996 7995 ] final  167.12 input   59.86 | X-H torsion
[ 10167 10162 10161 10158 ] final -151.03 input  -65.29 | X-H torsion
[ 10718 10713 10712 10709 ] final -121.70 input   66.30 | X-H torsion
[ 10763 10752 10751 10750 ] final  162.25 input  -60.55 | X-H torsion
[ 11005 11000 10999 10996 ] final -174.03 input  -57.11 | X-H torsion

> <Gold.Protein.ActiveResidues>
 VAL166  LYS551  ARG553  GLY616  TRP617  ASP618  TYR619  PRO620  LYS621  CYS622 
 ASP623  PHE694  ASN695  SER759  ASP760  ASP761  ALA762  ILE779  LEU786  VAL792 
 PHE793  MET794  SER795  GLU796  ALA797  LYS798  CYS799  TRP800  GLU811  SER814 

> <Gold.Protein.RotatedAtoms>
  150.6938  134.4034  159.5128 H   0  0  0  0  0  0  0  0  0  0  0  0  # atno 6907 bound_to 6896
  152.1804  134.8756  160.0536 H   0  0  0  0  0  0  0  0  0  0  0  0  # atno 6908 bound_to 6896
  151.9749  133.3703  159.4122 H   0  0  0  0  0  0  0  0  0  0  0  0  # atno 6909 bound_to 6896
  146.0259  139.4705  142.9868 H   0  0  0  0  0  0  0  0  0  0  0  0  # atno 7974 bound_to 7965
  156.1661  140.1625  156.8529 H   0  0  0  0  0  0  0  0  0  0  0  0  # atno 8008 bound_to 7997
  154.5209  140.0778  156.8205 H   0  0  0  0  0  0  0  0  0  0  0  0  # atno 8009 bound_to 7997
  155.3608  140.3395  155.4243 H   0  0  0  0  0  0  0  0  0  0  0  0  # atno 8010 bound_to 7997
  139.7303  143.8819  152.2532 H   0  0  0  0  0  0  0  0  0  0  0  0  # atno 10167 bound_to 10162
  156.1358  130.6429  150.9694 H   0  0  0  0  0  0  0  0  0  0  0  0  # atno 10718 bound_to 10713
  154.2755  135.2764  155.2720 H   0  0  0  0  0  0  0  0  0  0  0  0  # atno 10763 bound_to 10752
  154.5264  135.5742  153.6726 H   0  0  0  0  0  0  0  0  0  0  0  0  # atno 10764 bound_to 10752
  152.9938  135.6217  154.2911 H   0  0  0  0  0  0  0  0  0  0  0  0  # atno 10765 bound_to 10752
  140.4790  134.6093  157.4912 H   0  0  0  0  0  0  0  0  0  0  0  0  # atno 11005 bound_to 11000
  145.7119  141.0103  143.1449 LP  0  0  0  0  0  0  0  0  0  0  0  0  # atno 17320 bound_to 7965
  144.7009  139.8767  143.7444 LP  0  0  0  0  0  0  0  0  0  0  0  0  # atno 17321 bound_to 7965
  139.8740  144.7053  150.8954 LP  0  0  0  0  0  0  0  0  0  0  0  0  # atno 17342 bound_to 10162
  140.7770  143.3715  151.1641 LP  0  0  0  0  0  0  0  0  0  0  0  0  # atno 17343 bound_to 10162
  157.6531  131.0894  150.8007 LP  0  0  0  0  0  0  0  0  0  0  0  0  # atno 17370 bound_to 10713
  156.8087  130.4945  149.5359 LP  0  0  0  0  0  0  0  0  0  0  0  0  # atno 17371 bound_to 10713
  139.9838  134.7095  155.9811 LP  0  0  0  0  0  0  0  0  0  0  0  0  # atno 17394 bound_to 11000
  141.1540  133.6545  156.4103 LP  0  0  0  0  0  0  0  0  0  0  0  0  # atno 17395 bound_to 11000

$$$$
