#       Name:                AV-unprocessed.smi:3340
#       Creating user name   scv26
#       Creation time:       Fri Mar 27 19:28:32 2020


#       File generated by GOLD software.
#

@<TRIPOS>MOLECULE
AV-unprocessed.smi:3340
    46    47     1
SMALL
NO_CHARGES


@<TRIPOS>ATOM
      1 ****        -5.8950   1.3667  -0.9887 C.3            1 S1                 0.0000
      2 ****        -4.9932   0.1336  -0.8951 C.2            1 S1                 0.0000
      3 ****        -5.4720  -0.9560  -1.2103 O.2            1 S1                 0.0000
      4 ****        -3.7129   0.2773  -0.4760 N.am           1 S1                 0.0000
      5 ****        -2.7657  -0.8464  -0.4119 C.3            1 S1                 0.0000
      6 ****        -1.6070  -0.5852  -1.3955 C.3            1 S1                 0.0000
      7 ****        -0.9567   0.6903  -1.0385 N.am           1 S1                 0.0000
      8 ****         0.2790   0.8348  -0.4974 C.2            1 S1                 0.0000
      9 ****         0.6764   1.8867   0.0059 O.2            1 S1                 0.0000
     10 ****         1.0655  -0.2508  -0.5975 N.am           1 S1                 0.0000
     11 ****         2.4433  -0.3497  -0.1248 C.3            1 S1                 0.0000
     12 ****         3.1875  -1.4048  -0.9593 C.3            1 S1                 0.0000
     13 ****         2.4641  -0.6492   1.3896 C.3            1 S1                 0.0000
     14 ****         3.8097  -0.7425   1.9233 N.pl3          1 S1                 0.0000
     15 ****         4.6987   0.3033   2.1340 C.2            1 S1                 0.0000
     16 ****         5.8448  -0.2538   2.6547 C.2            1 S1                 0.0000
     17 ****         5.6824  -1.6319   2.7773 N.2            1 S1                 0.0000
     18 ****         4.4524  -1.8467   2.3282 C.2            1 S1                 0.0000
     19 ****        -1.9089   1.8085  -1.1166 C.3            1 S1                 0.0000
     20 ****        -3.0660   1.5532  -0.1305 C.3            1 S1                 0.0000
     21 ****        -5.4843   2.0937  -1.6900 H              1 S1                 0.0000
     22 ****        -6.0082   1.8384  -0.0123 H              1 S1                 0.0000
     23 ****        -6.8895   1.0902  -1.3407 H              1 S1                 0.0000
     24 ****        -2.3845  -0.9378   0.6063 H              1 S1                 0.0000
     25 ****        -3.2304  -1.8051  -0.6447 H              1 S1                 0.0000
     26 ****        -0.9343  -1.4426  -1.3927 H              1 S1                 0.0000
     27 ****        -1.9896  -0.5174  -2.4149 H              1 S1                 0.0000
     28 ****         0.6780  -1.0711  -1.0406 H              1 S1                 0.0000
     29 ****         2.9381   0.6079  -0.2981 H              1 S1                 0.0000
     30 ****         4.2457  -1.4461  -0.6999 H              1 S1                 0.0000
     31 ****         3.1252  -1.1772  -2.0240 H              1 S1                 0.0000
     32 ****         2.7678  -2.3997  -0.8062 H              1 S1                 0.0000
     33 ****         1.9387   0.1315   1.9413 H              1 S1                 0.0000
     34 ****         1.9410  -1.5838   1.5980 H              1 S1                 0.0000
     35 ****         4.4492   1.3277   1.8996 H              1 S1                 0.0000
     36 ****         6.7656   0.2275   2.9493 H              1 S1                 0.0000
     37 ****         4.0102  -2.8315   2.2892 H              1 S1                 0.0000
     38 ****        -1.4457   2.7723  -0.9014 H              1 S1                 0.0000
     39 ****        -2.2918   1.8853  -2.1353 H              1 S1                 0.0000
     40 ****        -3.7432   2.4055  -0.1417 H              1 S1                 0.0000
     41 ****        -2.6839   1.4940   0.8897 H              1 S1                 0.0000
     42 ****        -6.4224  -1.0150  -1.5158 LP             1 S1                 0.0000
     43 ****        -4.9105  -1.7820  -1.1609 LP             1 S1                 0.0000
     44 ****         0.0778   2.6874   0.0289 LP             1 S1                 0.0000
     45 ****         1.5976   1.9398   0.3914 LP             1 S1                 0.0000
     46 ****         6.3390  -2.3023   3.1228 LP             1 S1                 0.0000
@<TRIPOS>BOND
    1    1    2 1     
    2    1   21 1     
    3    1   22 1     
    4    1   23 1     
    5    2    3 2     
    6    2    4 am    
    7    4   20 1     
    8    4    5 1     
    9    5    6 1     
   10    5   24 1     
   11    5   25 1     
   12    6    7 1     
   13    6   26 1     
   14    6   27 1     
   15    7    8 am    
   16    7   19 1     
   17    8    9 2     
   18    8   10 am    
   19   10   11 1     
   20   10   28 1     
   21   11   12 1     
   22   11   13 1     
   23   11   29 1     
   24   12   30 1     
   25   12   31 1     
   26   12   32 1     
   27   13   14 1     
   28   13   33 1     
   29   13   34 1     
   30   14   18 1     
   31   14   15 1     
   32   15   16 2     
   33   15   35 1     
   34   16   17 1     
   35   16   36 1     
   36   17   18 2     
   37   18   37 1     
   38   19   20 1     
   39   19   38 1     
   40   19   39 1     
   41   20   40 1     
   42   20   41 1     
   43    3   42 1     
   44    3   43 1     
   45    9   44 1     
   46    9   45 1     
   47   17   46 1     
@<TRIPOS>SUBSTRUCTURE
      1 S1             1
@<TRIPOS>SET
LONE_PAIRS      STATIC     ATOMS    <user>   **** ""
5 42 43 44 45 46
DONOR_HYDROGENS      STATIC     ATOMS    <user>   **** ""
1 28
ATOM$BLUE        STATIC     ATOMS    COLORGROUP SYSTEM
5 42 43 44 45 46
ATOM$RED        STATIC     ATOMS    COLORGROUP SYSTEM
1 28
