AV-unprocessed.smi:1416|AV-procd|sdf|5764|dock7
  -GOLD-   22720 5403D 1   1.00000     0.00000
 Structure written by MMmdl.
 44 45  0  0  0  0  0  0  0  0  1 V2000
  146.4373  133.1681  150.4889 C   0  0  0  0  0  0  0  0  0  0  0  0
  147.4988  133.6643  151.4744 C   0  0  0  0  0  0  0  0  0  0  0  0
  147.8959  132.4046  152.7157 S   0  0  0  0  0  0  0  0  0  0  0  0
  149.2452  133.2537  153.5860 C   0  0  0  0  0  0  0  0  0  0  0  0
  148.8262  134.6412  154.1057 C   0  0  0  0  0  0  0  0  0  0  0  0
  149.9351  135.3755  154.8684 C   0  0  0  0  0  0  0  0  0  0  0  0
  150.4073  134.8987  155.9009 O   0  0  0  0  0  0  0  0  0  0  0  0
  150.3463  136.5381  154.3424 N   0  0  0  0  0  0  0  0  0  0  0  0
  151.3870  137.3848  154.9129 C   0  0  0  0  0  0  0  0  0  0  0  0
  150.9519  138.8306  155.0878 C   0  0  0  0  0  0  0  0  0  0  0  0
  150.1208  139.4698  154.1442 C   0  0  0  0  0  0  0  0  0  0  0  0
  149.7728  140.8154  154.3627 C   0  0  0  0  0  0  0  0  0  0  0  0
  150.1927  141.5246  155.4309 N   0  0  0  0  0  0  0  0  0  0  0  0
  150.9908  140.9216  156.3466 C   0  0  0  0  0  0  0  0  0  0  0  0
  151.4194  141.6757  157.4610 N   0  0  0  0  0  0  0  0  0  0  0  0
  151.1980  141.0563  158.7656 C   0  0  0  0  0  0  0  0  0  0  0  0
  151.9683  141.8172  159.8585 C   0  0  0  0  0  0  0  0  0  0  0  0
  151.6093  143.1947  159.8329 O   0  0  0  0  0  0  0  0  0  0  0  0
  151.9394  143.8039  158.5891 C   0  0  0  0  0  0  0  0  0  0  0  0
  151.1641  143.1153  157.4533 C   0  0  0  0  0  0  0  0  0  0  0  0
  151.3975  139.5733  156.2008 C   0  0  0  0  0  0  0  0  0  0  0  0
  146.2077  133.9339  149.7479 H   0  0  0  0  0  0  0  0  0  0  0  0
  145.5105  132.9148  151.0041 H   0  0  0  0  0  0  0  0  0  0  0  0
  146.7798  132.2808  149.9559 H   0  0  0  0  0  0  0  0  0  0  0  0
  148.4099  133.9315  150.9382 H   0  0  0  0  0  0  0  0  0  0  0  0
  147.1474  134.5632  151.9815 H   0  0  0  0  0  0  0  0  0  0  0  0
  149.6047  132.6214  154.3990 H   0  0  0  0  0  0  0  0  0  0  0  0
  150.0777  133.3648  152.8909 H   0  0  0  0  0  0  0  0  0  0  0  0
  148.5411  135.2687  153.2608 H   0  0  0  0  0  0  0  0  0  0  0  0
  147.9376  134.5478  154.7322 H   0  0  0  0  0  0  0  0  0  0  0  0
  149.9094  136.8610  153.4911 H   0  0  0  0  0  0  0  0  0  0  0  0
  151.6845  136.9706  155.8773 H   0  0  0  0  0  0  0  0  0  0  0  0
  152.2707  137.3737  154.2730 H   0  0  0  0  0  0  0  0  0  0  0  0
  149.7626  138.9522  153.2666 H   0  0  0  0  0  0  0  0  0  0  0  0
  149.1415  141.3375  153.6592 H   0  0  0  0  0  0  0  0  0  0  0  0
  150.1292  141.0716  158.9841 H   0  0  0  0  0  0  0  0  0  0  0  0
  151.5079  140.0122  158.7764 H   0  0  0  0  0  0  0  0  0  0  0  0
  151.7292  141.4069  160.8398 H   0  0  0  0  0  0  0  0  0  0  0  0
  153.0457  141.7080  159.7220 H   0  0  0  0  0  0  0  0  0  0  0  0
  151.6811  144.8619  158.6321 H   0  0  0  0  0  0  0  0  0  0  0  0
  153.0154  143.7454  158.4171 H   0  0  0  0  0  0  0  0  0  0  0  0
  151.4651  143.5472  156.4979 H   0  0  0  0  0  0  0  0  0  0  0  0
  150.0943  143.2938  157.5705 H   0  0  0  0  0  0  0  0  0  0  0  0
  152.0534  139.1096  156.9224 H   0  0  0  0  0  0  0  0  0  0  0  0
  1  2  1  0  0  0  0
  1 22  1  0  0  0  0
  1 23  1  0  0  0  0
  1 24  1  0  0  0  0
  2  3  1  0  0  0  0
  2 25  1  0  0  0  0
  2 26  1  0  0  0  0
  3  4  1  0  0  0  0
  4  5  1  0  0  0  0
  4 27  1  0  0  0  0
  4 28  1  0  0  0  0
  5  6  1  0  0  0  0
  5 29  1  0  0  0  0
  5 30  1  0  0  0  0
  6  7  2  0  0  0  0
  6  8  1  0  0  0  0
  8  9  1  0  0  0  0
  8 31  1  0  0  0  0
  9 10  1  0  0  0  0
  9 32  1  0  0  0  0
  9 33  1  0  0  0  0
 10 21  1  0  0  0  0
 10 11  2  0  0  0  0
 11 12  1  0  0  0  0
 11 34  1  0  0  0  0
 12 13  2  0  0  0  0
 12 35  1  0  0  0  0
 13 14  1  0  0  0  0
 14 15  1  0  0  0  0
 14 21  2  0  0  0  0
 15 20  1  0  0  0  0
 15 16  1  0  0  0  0
 16 17  1  0  0  0  0
 16 36  1  0  0  0  0
 16 37  1  0  0  0  0
 17 18  1  0  0  0  0
 17 38  1  0  0  0  0
 17 39  1  0  0  0  0
 18 19  1  0  0  0  0
 19 20  1  0  0  0  0
 19 40  1  0  0  0  0
 19 41  1  0  0  0  0
 20 42  1  0  0  0  0
 20 43  1  0  0  0  0
 21 44  1  0  0  0  0
M  END
> <s_m_source_file>
AV-unprocessed.smi

> <i_m_source_file_index>
1416

> <i_lp_mmshare_version>
43012

> <i_f3d_flags>
0

> <s_epik_input>
W0NIM11bQ0gyXVNbQ0gyXVtDSDJdQyg9TylbTkhdW0NIMl1jMVtjSF1bY0hdbmMoW2NIXTEpTjJbQ0gyXVtDSDJdT1tDSDJdW0NIMl0y

> <s_epik_cmdline>
J2VwaWtfcHl0aG9uJywgJy1waCcsICc3LjAnLCAnLXRuJywgJzgnLCAnLW1hJywgJzIwMCcsICctbWV0YWxfYmluZGluZycsICctaW1hZScsICc8aW5maWxlLm1hZT4nLCAnLW9tYWUnLCAnPG91dGZpbGUubWFlPic=

> <r_lp_tautomer_probability>
1

> <r_epik_Ionization_Penalty>
0.00571449

> <r_epik_Ionization_Penalty_Charging>
0

> <r_epik_Ionization_Penalty_Neutral>
0.00571449

> <r_epik_State_Penalty>
0.00419227

> <r_epik_Charging_Adjusted_Penalty>
0.00419227

> <i_epik_Tot_Q>
0

> <i_epik_Tot_abs_Q>
0

> <r_epik_Metal_State_Penalty>
-0

> <b_epik_Metal_Only>
0

> <s_lp_Force_Field>
OPLS_2005

> <r_lp_Energy>
16.5768

> <b_lp_Chiralities_Consistent>
1

> <s_lp_Variant>
AV-unprocessed.smi:1416-1

> <Gold.Version>
5.8.1

> <Gold.Id.Protein>
6NUR|6NUR_protein|mol2

> <Gold.PLP.Fitness>
46.2217

> <Gold.PLP.PLP>
-43.9832

> <Gold.PLP.part.hbond>
-2.0128

> <Gold.PLP.part.metal>
0.0000

> <Gold.PLP.part.buried>
-1.7336

> <Gold.PLP.part.nonpolar>
-39.9606

> <Gold.PLP.part.repulsive>
0.2327

> <Gold.PLP.ligand.clash>
0.0000

> <Gold.PLP.ligand.torsion>
0.5458

> <Gold.PLP.Chemscore.Hbond>
0.9600

> <Gold.PLP.Chemscore.CHOScore>
0.0000

> <Gold.PLP.Chemscore.Metal>
0.0000

> <Gold.Chemscore.Hbonds>
donor molecule, donor type, donor heavy atom, donor atom, acceptor molecule, acceptor atom, score
      L1  H     8    31       P1  7948  0.85
      L1  C    12    35       P1  7957  0.11

> <Gold.PLP.Chemscore.Internal.Correction>
0.4501

> <Gold.Rescore>
     Score         DG    S(hbond)    S(metal)    S(lipo)     H(rot)  DE(clash)    DE(int)     intcor
     13.65     -14.54       0.67        0.00      99.12       1.87       0.04       0.85       ----

> <Gold.Chemscore.Fitness>
13.6462

> <Gold.Chemscore.DG>
-14.5406

> <Gold.Chemscore.ZeroCoef>
-5.4800

> <Gold.Chemscore.Hbond>
0.6743

> <Gold.Chemscore.Metal>
0.0000

> <Gold.Chemscore.Lipo>
99.1167

> <Gold.Chemscore.Internal_Hbond>
0.0000

> <Gold.Chemscore.DEClash>
0.0440

> <Gold.Chemscore.DEInternal>
0.8504

> <Gold.Chemscore.Rot>
1.8704

> <Gold.Chemscore.Internal.Correction>
   9.000000E+99

> <Gold.Chemscore.Hbonds>
donor molecule, donor type, donor heavy atom, donor atom, acceptor molecule, acceptor atom, score
      L1  H     8    31       P1  7948  0.25

> <Gold.Chemscore.Hbond.Weighted>
-2.2521

> <Gold.Chemscore.Metal.Weighted>
-0.0000

> <Gold.Chemscore.Lipo.Weighted>
-11.5967

> <Gold.Chemscore.Internal_Hbond.Weighted>
0.0000

> <Gold.Chemscore.DEClash.Weighted>
0.0440

> <Gold.Chemscore.DEInternal.Weighted>
0.8504

> <Gold.Chemscore.Rot.Weighted>
4.7881

> <Gold.Chemscore.Internal.Correction.Weighted>
   9.000000E+99

> <Gold.Protein.RotatedTorsions>
[ 6907 6896 6895 6894 ] final  156.87 input  -60.11 | X-H torsion
[ 7974 7965 7964 7962 ] final -163.76 input  175.53 | X-H torsion
[ 8008 7997 7996 7995 ] final  -47.21 input   59.86 | X-H torsion
[ 10167 10162 10161 10158 ] final  -21.22 input  -65.29 | X-H torsion
[ 10718 10713 10712 10709 ] final  -58.90 input   66.30 | X-H torsion
[ 10763 10752 10751 10750 ] final   19.27 input  -60.55 | X-H torsion
[ 11005 11000 10999 10996 ] final   -0.31 input  -57.11 | X-H torsion

> <Gold.Protein.ActiveResidues>
 VAL166  LYS551  ARG553  GLY616  TRP617  ASP618  TYR619  PRO620  LYS621  CYS622 
 ASP623  PHE694  ASN695  SER759  ASP760  ASP761  ALA762  ILE779  LEU786  VAL792 
 PHE793  MET794  SER795  GLU796  ALA797  LYS798  CYS799  TRP800  GLU811  SER814 

> <Gold.Protein.RotatedAtoms>
  152.0234  133.3907  159.4267 H   0  0  0  0  0  0  0  0  0  0  0  0  # atno 6907 bound_to 6896
  150.6888  134.3601  159.4956 H   0  0  0  0  0  0  0  0  0  0  0  0  # atno 6908 bound_to 6896
  152.1378  134.9085  160.0606 H   0  0  0  0  0  0  0  0  0  0  0  0  # atno 6909 bound_to 6896
  144.7316  140.3061  143.6196 H   0  0  0  0  0  0  0  0  0  0  0  0  # atno 7974 bound_to 7965
  154.4014  140.1352  156.4138 H   0  0  0  0  0  0  0  0  0  0  0  0  # atno 8008 bound_to 7997
  155.7708  140.3484  155.5226 H   0  0  0  0  0  0  0  0  0  0  0  0  # atno 8009 bound_to 7997
  155.8768  140.0981  157.1503 H   0  0  0  0  0  0  0  0  0  0  0  0  # atno 8010 bound_to 7997
  140.7281  143.4648  151.0329 H   0  0  0  0  0  0  0  0  0  0  0  0  # atno 10167 bound_to 10162
  156.1101  130.4176  150.0641 H   0  0  0  0  0  0  0  0  0  0  0  0  # atno 10718 bound_to 10713
  153.1177  135.6712  153.9390 H   0  0  0  0  0  0  0  0  0  0  0  0  # atno 10763 bound_to 10752
  153.8915  135.3046  155.3449 H   0  0  0  0  0  0  0  0  0  0  0  0  # atno 10764 bound_to 10752
  154.7591  135.4997  153.9510 H   0  0  0  0  0  0  0  0  0  0  0  0  # atno 10765 bound_to 10752
  140.6348  133.9542  155.8294 H   0  0  0  0  0  0  0  0  0  0  0  0  # atno 11005 bound_to 11000
  145.7712  139.1858  143.2211 LP  0  0  0  0  0  0  0  0  0  0  0  0  # atno 17320 bound_to 7965
  146.0909  140.7656  142.9595 LP  0  0  0  0  0  0  0  0  0  0  0  0  # atno 17321 bound_to 7965
  139.8335  143.7658  152.3180 LP  0  0  0  0  0  0  0  0  0  0  0  0  # atno 17342 bound_to 10162
  139.7782  144.7453  151.0125 LP  0  0  0  0  0  0  0  0  0  0  0  0  # atno 17343 bound_to 10162
  156.8607  130.9491  151.3618 LP  0  0  0  0  0  0  0  0  0  0  0  0  # atno 17370 bound_to 10713
  157.6281  130.8707  149.9225 LP  0  0  0  0  0  0  0  0  0  0  0  0  # atno 17371 bound_to 10713
  141.0649  134.0291  157.3607 LP  0  0  0  0  0  0  0  0  0  0  0  0  # atno 17394 bound_to 11000
  139.9102  135.0188  156.7659 LP  0  0  0  0  0  0  0  0  0  0  0  0  # atno 17395 bound_to 11000

$$$$
