AV-unprocessed.smi:2699|AV-procd|sdf|10425|dock10
  -GOLD-   2272014463D 1   1.00000     0.00000
 Structure written by MMmdl.
 43 45  0  0  0  0  0  0  0  0  1 V2000
  147.3101  138.5996  156.9828 C   0  0  0  0  0  0  0  0  0  0  0  0
  147.1415  139.7386  155.9850 C   0  0  0  0  0  0  0  0  0  0  0  0
  146.0410  140.5232  156.0553 C   0  0  0  0  0  0  0  0  0  0  0  0
  145.8595  141.6560  155.1311 C   0  0  0  0  0  0  0  0  0  0  0  0
  144.8521  142.3601  155.1509 O   0  0  0  0  0  0  0  0  0  0  0  0
  146.9604  141.8952  154.1877 C   0  0  0  0  0  0  0  0  0  0  0  0
  148.0163  141.0592  154.1884 C   0  0  0  0  0  0  0  0  0  0  0  0
  149.0574  141.2543  153.3650 O   0  0  0  0  0  0  0  0  0  0  0  0
  148.1621  139.9367  155.0281 N   0  0  0  0  0  0  0  0  0  0  0  0
  149.3041  139.0126  154.8987 C   0  0  0  0  0  0  0  0  0  0  0  0
  150.6165  139.5784  155.4748 C   0  0  0  0  0  0  0  0  0  0  0  0
  151.6275  139.6439  154.7773 O   0  0  0  0  0  0  0  0  0  0  0  0
  150.6352  139.9957  156.7500 N   0  0  0  0  0  0  0  0  0  0  0  0
  151.7771  140.5572  157.4659 C   0  0  0  0  0  0  0  0  0  0  0  0
  151.3805  141.7801  158.3149 C   0  0  0  0  0  0  0  0  0  0  0  0
  152.3529  141.8502  159.4971 C   0  0  0  0  0  0  0  0  0  0  0  0
  152.5354  143.1178  160.2932 C   0  0  0  0  0  0  0  0  0  0  0  0
  153.6850  142.5632  159.4727 C   0  0  0  0  0  0  0  0  0  0  0  0
  151.1811  143.1018  157.5407 C   0  0  0  0  0  0  0  0  0  0  0  0
  149.6963  142.7741  157.3958 C   0  0  0  0  0  0  0  0  0  0  0  0
  149.8625  141.8643  158.6119 C   0  0  0  0  0  0  0  0  0  0  0  0
  146.6527  138.7367  157.8420 H   0  0  0  0  0  0  0  0  0  0  0  0
  148.3263  138.5430  157.3720 H   0  0  0  0  0  0  0  0  0  0  0  0
  147.0548  137.6469  156.5187 H   0  0  0  0  0  0  0  0  0  0  0  0
  145.2771  140.3482  156.7990 H   0  0  0  0  0  0  0  0  0  0  0  0
  146.9065  142.7440  153.5212 H   0  0  0  0  0  0  0  0  0  0  0  0
  149.0846  138.0571  155.3735 H   0  0  0  0  0  0  0  0  0  0  0  0
  149.4586  138.7517  153.8515 H   0  0  0  0  0  0  0  0  0  0  0  0
  149.7774  139.9110  157.2758 H   0  0  0  0  0  0  0  0  0  0  0  0
  152.2046  139.7720  158.0909 H   0  0  0  0  0  0  0  0  0  0  0  0
  152.5557  140.8401  156.7562 H   0  0  0  0  0  0  0  0  0  0  0  0
  152.3768  140.9287  160.0757 H   0  0  0  0  0  0  0  0  0  0  0  0
  152.0506  144.0216  159.9296 H   0  0  0  0  0  0  0  0  0  0  0  0
  152.5948  143.0242  161.3754 H   0  0  0  0  0  0  0  0  0  0  0  0
  154.5061  142.1016  160.0171 H   0  0  0  0  0  0  0  0  0  0  0  0
  153.9801  143.1094  158.5810 H   0  0  0  0  0  0  0  0  0  0  0  0
  151.3512  143.9857  158.1579 H   0  0  0  0  0  0  0  0  0  0  0  0
  151.7209  143.1737  156.5960 H   0  0  0  0  0  0  0  0  0  0  0  0
  149.0254  143.6204  157.5462 H   0  0  0  0  0  0  0  0  0  0  0  0
  149.4658  142.2284  156.4798 H   0  0  0  0  0  0  0  0  0  0  0  0
  149.3299  140.9157  158.5368 H   0  0  0  0  0  0  0  0  0  0  0  0
  149.6022  142.3795  159.5353 H   0  0  0  0  0  0  0  0  0  0  0  0
  149.0407  140.5657  152.7183 H   0  0  0  0  0  0  0  0  0  0  0  0
  1  2  1  0  0  0  0
  1 22  1  0  0  0  0
  1 23  1  0  0  0  0
  1 24  1  0  0  0  0
  2  9  1  0  0  0  0
  2  3  2  0  0  0  0
  3  4  1  0  0  0  0
  3 25  1  0  0  0  0
  4  5  2  0  0  0  0
  4  6  1  0  0  0  0
  6  7  2  0  0  0  0
  6 26  1  0  0  0  0
  7  8  1  0  0  0  0
  7  9  1  0  0  0  0
  8 43  1  0  0  0  0
  9 10  1  0  0  0  0
 10 11  1  0  0  0  0
 10 27  1  0  0  0  0
 10 28  1  0  0  0  0
 11 12  2  0  0  0  0
 11 13  1  0  0  0  0
 13 14  1  0  0  0  0
 13 29  1  0  0  0  0
 14 15  1  0  0  0  0
 14 30  1  0  0  0  0
 14 31  1  0  0  0  0
 15 21  1  0  0  0  0
 15 16  1  0  0  0  0
 15 19  1  0  0  0  0
 16 18  1  0  0  0  0
 16 17  1  0  0  0  0
 16 32  1  0  0  0  0
 17 18  1  0  0  0  0
 17 33  1  0  0  0  0
 17 34  1  0  0  0  0
 18 35  1  0  0  0  0
 18 36  1  0  0  0  0
 19 20  1  0  0  0  0
 19 37  1  0  0  0  0
 19 38  1  0  0  0  0
 20 21  1  0  0  0  0
 20 39  1  0  0  0  0
 20 40  1  0  0  0  0
 21 41  1  0  0  0  0
 21 42  1  0  0  0  0
M  END
> <s_m_source_file>
AV-unprocessed.smi

> <i_m_source_file_index>
2699

> <i_lp_mmshare_version>
43012

> <i_f3d_flags>
0

> <s_epik_input>
W0NIM11jMVtjSF1jKFtPSF0pW2NIXWMoPU8pbjFbQ0gyXUMoPU8pW05IXVtDSDJdQzIoW0NIXTNbQ0gyXVtDSDJdMylbQ0gyXVtDSDJdW0NIMl0y

> <s_epik_cmdline>
J2VwaWtfcHl0aG9uJywgJy1waCcsICc3LjAnLCAnLXRuJywgJzgnLCAnLW1hJywgJzIwMCcsICctbWV0YWxfYmluZGluZycsICctaW1hZScsICc8aW5maWxlLm1hZT4nLCAnLW9tYWUnLCAnPG91dGZpbGUubWFlPic=

> <r_epik_Ionization_Penalty>
1.8336e-08

> <r_epik_Ionization_Penalty_Charging>
0

> <r_epik_Ionization_Penalty_Neutral>
1.8336e-08

> <r_epik_State_Penalty>
2.39433

> <r_epik_Charging_Adjusted_Penalty>
2.39433

> <i_epik_Tot_Q>
0

> <i_epik_Tot_abs_Q>
0

> <r_epik_Metal_State_Penalty>
2.39433

> <b_epik_Metal_Only>
0

> <s_lp_Force_Field>
OPLS_2005

> <r_lp_Energy>
30.2795

> <b_lp_Chiralities_Consistent>
1

> <s_lp_Variant>
AV-unprocessed.smi:2699-3

> <Gold.Version>
5.8.1

> <Gold.Id.Protein>
6NUR|6NUR_protein|mol2

> <Gold.PLP.Fitness>
40.8153

> <Gold.PLP.PLP>
-33.5666

> <Gold.PLP.part.hbond>
-3.4859

> <Gold.PLP.part.metal>
0.0000

> <Gold.PLP.part.buried>
-2.0966

> <Gold.PLP.part.nonpolar>
-28.6072

> <Gold.PLP.part.repulsive>
0.2952

> <Gold.PLP.ligand.clash>
0.0444

> <Gold.PLP.ligand.torsion>
1.6399

> <Gold.PLP.Chemscore.Hbond>
2.9600

> <Gold.PLP.Chemscore.CHOScore>
0.0000

> <Gold.PLP.Chemscore.Metal>
0.0000

> <Gold.Chemscore.Hbonds>
donor molecule, donor type, donor heavy atom, donor atom, acceptor molecule, acceptor atom, score
      L1  H     8    43       P1  7957  0.91
      P1  H  7989  7998       L1    12  1.00
      P1  H  8011  8017       L1     8  0.75

> <Gold.PLP.Chemscore.Internal.Correction>
1.6929

> <Gold.Rescore>
     Score         DG    S(hbond)    S(metal)    S(lipo)     H(rot)  DE(clash)    DE(int)     intcor
     12.63     -17.00       2.29        0.00      85.65       2.40       1.59       2.77       ----

> <Gold.Chemscore.Fitness>
12.6343

> <Gold.Chemscore.DG>
-16.9997

> <Gold.Chemscore.ZeroCoef>
-5.4800

> <Gold.Chemscore.Hbond>
2.2918

> <Gold.Chemscore.Metal>
0.0000

> <Gold.Chemscore.Lipo>
85.6528

> <Gold.Chemscore.Internal_Hbond>
0.0000

> <Gold.Chemscore.DEClash>
1.5919

> <Gold.Chemscore.DEInternal>
2.7735

> <Gold.Chemscore.Rot>
2.4048

> <Gold.Chemscore.Internal.Correction>
   9.000000E+99

> <Gold.Chemscore.Hbonds>
donor molecule, donor type, donor heavy atom, donor atom, acceptor molecule, acceptor atom, score
      L1  H     8    43       P1  7957  0.88
      P1  H  7989  7998       L1    12  0.95
      P1  H  8011  8017       L1     8  0.09

> <Gold.Chemscore.Hbond.Weighted>
-7.6546

> <Gold.Chemscore.Metal.Weighted>
-0.0000

> <Gold.Chemscore.Lipo.Weighted>
-10.0214

> <Gold.Chemscore.Internal_Hbond.Weighted>
0.0000

> <Gold.Chemscore.DEClash.Weighted>
1.5919

> <Gold.Chemscore.DEInternal.Weighted>
2.7735

> <Gold.Chemscore.Rot.Weighted>
6.1563

> <Gold.Chemscore.Internal.Correction.Weighted>
   9.000000E+99

> <Gold.Protein.RotatedTorsions>
[ 6907 6896 6895 6894 ] final -110.77 input  -60.11 | X-H torsion
[ 7974 7965 7964 7962 ] final  -58.57 input  175.53 | X-H torsion
[ 8008 7997 7996 7995 ] final  134.13 input   59.86 | X-H torsion
[ 10167 10162 10161 10158 ] final -159.83 input  -65.29 | X-H torsion
[ 10718 10713 10712 10709 ] final  109.61 input   66.30 | X-H torsion
[ 10763 10752 10751 10750 ] final  154.81 input  -60.55 | X-H torsion
[ 11005 11000 10999 10996 ] final  -20.55 input  -57.11 | X-H torsion

> <Gold.Protein.ActiveResidues>
 VAL166  LYS551  ARG553  GLY616  TRP617  ASP618  TYR619  PRO620  LYS621  CYS622 
 ASP623  PHE694  ASN695  SER759  ASP760  ASP761  ALA762  ILE779  LEU786  VAL792 
 PHE793  MET794  SER795  GLU796  ALA797  LYS798  CYS799  TRP800  GLU811  SER814 

> <Gold.Protein.RotatedAtoms>
  150.7646  133.9333  159.3433 H   0  0  0  0  0  0  0  0  0  0  0  0  # atno 6907 bound_to 6896
  151.7233  135.0888  160.0297 H   0  0  0  0  0  0  0  0  0  0  0  0  # atno 6908 bound_to 6896
  152.3636  133.6290  159.6069 H   0  0  0  0  0  0  0  0  0  0  0  0  # atno 6909 bound_to 6896
  145.8377  140.8438  143.0050 H   0  0  0  0  0  0  0  0  0  0  0  0  # atno 7974 bound_to 7965
  156.2997  140.2504  156.3367 H   0  0  0  0  0  0  0  0  0  0  0  0  # atno 8008 bound_to 7997
  154.9093  140.0404  157.1956 H   0  0  0  0  0  0  0  0  0  0  0  0  # atno 8009 bound_to 7997
  154.8421  140.2892  155.5657 H   0  0  0  0  0  0  0  0  0  0  0  0  # atno 8010 bound_to 7997
  139.6585  143.9955  152.2210 H   0  0  0  0  0  0  0  0  0  0  0  0  # atno 10167 bound_to 10162
  157.6533  131.0917  150.6479 H   0  0  0  0  0  0  0  0  0  0  0  0  # atno 10718 bound_to 10713
  154.1583  135.2811  155.3116 H   0  0  0  0  0  0  0  0  0  0  0  0  # atno 10763 bound_to 10752
  154.6166  135.5481  153.7533 H   0  0  0  0  0  0  0  0  0  0  0  0  # atno 10764 bound_to 10752
  153.0200  135.6428  154.1726 H   0  0  0  0  0  0  0  0  0  0  0  0  # atno 10765 bound_to 10752
  140.8475  133.7881  155.9929 H   0  0  0  0  0  0  0  0  0  0  0  0  # atno 11005 bound_to 11000
  144.6735  140.0766  143.7471 LP  0  0  0  0  0  0  0  0  0  0  0  0  # atno 17320 bound_to 7965
  145.9500  139.2727  143.1218 LP  0  0  0  0  0  0  0  0  0  0  0  0  # atno 17321 bound_to 7965
  139.9688  144.6508  150.8009 LP  0  0  0  0  0  0  0  0  0  0  0  0  # atno 17342 bound_to 10162
  140.7570  143.3076  151.2923 LP  0  0  0  0  0  0  0  0  0  0  0  0  # atno 17343 bound_to 10162
  156.6788  130.4561  149.5634 LP  0  0  0  0  0  0  0  0  0  0  0  0  # atno 17370 bound_to 10713
  156.1944  130.6580  151.1098 LP  0  0  0  0  0  0  0  0  0  0  0  0  # atno 17371 bound_to 10713
  140.8827  134.2592  157.5136 LP  0  0  0  0  0  0  0  0  0  0  0  0  # atno 17394 bound_to 11000
  139.8703  134.9623  156.4423 LP  0  0  0  0  0  0  0  0  0  0  0  0  # atno 17395 bound_to 11000

$$$$
