AV-unprocessed.smi:2217|AV-procd|sdf|8975|dock7
  -GOLD-   2272012193D 1   1.00000     0.00000
 Structure written by MMmdl.
 45 48  0  0  0  0  0  0  0  0  1 V2000
  143.6496  132.1328  150.6936 C   0  0  0  0  0  0  0  0  0  0  0  0
  144.4357  133.3518  151.1284 C   0  0  0  0  0  0  0  0  0  0  0  0
  145.4784  133.2497  152.0684 C   0  0  0  0  0  0  0  0  0  0  0  0
  146.1722  134.4168  152.4414 C   0  0  0  0  0  0  0  0  0  0  0  0
  145.8120  135.6580  151.8696 C   0  0  0  0  0  0  0  0  0  0  0  0
  146.5782  136.7671  152.3363 N   0  0  0  0  0  0  0  0  0  0  0  0
  147.3143  136.9369  153.4554 C   0  0  0  0  0  0  0  0  0  0  0  0
  147.4128  136.0417  154.2928 O   0  0  0  0  0  0  0  0  0  0  0  0
  147.9202  138.1260  153.5909 N   0  0  0  0  0  0  0  0  0  0  0  0
  148.6957  138.5452  154.7507 C   0  0  1  0  0  0  0  0  0  0  0  0
  150.1828  138.6955  154.4326 C   0  0  2  0  0  0  0  0  0  0  0  0
  151.4113  137.9637  154.8404 C   0  0  0  0  0  0  0  0  0  0  0  0
  152.2849  139.1927  155.2048 C   0  0  0  0  0  0  0  0  0  0  0  0
  151.3911  140.3319  155.1946 O   0  0  0  0  0  0  0  0  0  0  0  0
  150.1274  139.7747  155.4951 C   0  0  1  0  0  0  0  0  0  0  0  0
  148.7164  140.1066  154.9664 C   0  0  0  0  0  0  0  0  0  0  0  0
  147.7111  140.6736  155.9786 C   0  0  0  0  0  0  0  0  0  0  0  0
  147.0945  141.9450  155.3911 C   0  0  0  0  0  0  0  0  0  0  0  0
  147.2744  141.7993  153.8872 C   0  0  0  0  0  0  0  0  0  0  0  0
  148.5988  141.0546  153.7537 C   0  0  0  0  0  0  0  0  0  0  0  0
  144.8033  135.7432  150.9650 N   0  0  0  0  0  0  0  0  0  0  0  0
  144.1386  134.6249  150.6064 C   0  0  0  0  0  0  0  0  0  0  0  0
  144.1581  131.2121  150.9811 H   0  0  0  0  0  0  0  0  0  0  0  0
  143.5224  132.1265  149.6106 H   0  0  0  0  0  0  0  0  0  0  0  0
  142.6621  132.1385  151.1554 H   0  0  0  0  0  0  0  0  0  0  0  0
  145.7442  132.2958  152.5002 H   0  0  0  0  0  0  0  0  0  0  0  0
  146.9739  134.3548  153.1631 H   0  0  0  0  0  0  0  0  0  0  0  0
  146.6152  137.5447  151.6933 H   0  0  0  0  0  0  0  0  0  0  0  0
  147.7934  138.8061  152.8544 H   0  0  0  0  0  0  0  0  0  0  0  0
  148.5006  137.9641  155.6572 H   0  0  0  0  0  0  0  0  0  0  0  0
  150.3191  139.1047  153.4267 H   0  0  0  0  0  0  0  0  0  0  0  0
  151.2342  137.3178  155.7016 H   0  0  0  0  0  0  0  0  0  0  0  0
  151.8383  137.3712  154.0309 H   0  0  0  0  0  0  0  0  0  0  0  0
  152.7340  139.0708  156.1913 H   0  0  0  0  0  0  0  0  0  0  0  0
  153.0874  139.3513  154.4841 H   0  0  0  0  0  0  0  0  0  0  0  0
  150.1078  139.3901  156.5216 H   0  0  0  0  0  0  0  0  0  0  0  0
  146.9210  139.9470  156.1691 H   0  0  0  0  0  0  0  0  0  0  0  0
  148.1747  140.8840  156.9431 H   0  0  0  0  0  0  0  0  0  0  0  0
  146.0518  142.0801  155.6796 H   0  0  0  0  0  0  0  0  0  0  0  0
  147.6517  142.8156  155.7401 H   0  0  0  0  0  0  0  0  0  0  0  0
  146.4676  141.1896  153.4778 H   0  0  0  0  0  0  0  0  0  0  0  0
  147.2714  142.7560  153.3643 H   0  0  0  0  0  0  0  0  0  0  0  0
  149.4159  141.7766  153.7703 H   0  0  0  0  0  0  0  0  0  0  0  0
  148.6556  140.5457  152.7915 H   0  0  0  0  0  0  0  0  0  0  0  0
  143.3461  134.7526  149.8837 H   0  0  0  0  0  0  0  0  0  0  0  0
  1  2  1  0  0  0  0
  1 23  1  0  0  0  0
  1 24  1  0  0  0  0
  1 25  1  0  0  0  0
  2 22  1  0  0  0  0
  2  3  2  0  0  0  0
  3  4  1  0  0  0  0
  3 26  1  0  0  0  0
  4  5  2  0  0  0  0
  4 27  1  0  0  0  0
  5  6  1  0  0  0  0
  5 21  1  0  0  0  0
  6  7  1  0  0  0  0
  6 28  1  0  0  0  0
  7  8  2  0  0  0  0
  7  9  1  0  0  0  0
  9 10  1  0  0  0  0
  9 29  1  0  0  0  0
 10 16  1  0  0  0  0
 10 11  1  0  0  0  0
 10 30  1  0  0  0  0
 11 15  1  0  0  0  0
 11 12  1  0  0  0  0
 11 31  1  0  0  0  0
 12 13  1  0  0  0  0
 12 32  1  0  0  0  0
 12 33  1  0  0  0  0
 13 14  1  0  0  0  0
 13 34  1  0  0  0  0
 13 35  1  0  0  0  0
 14 15  1  0  0  0  0
 15 16  1  0  0  0  0
 15 36  1  0  0  0  0
 16 20  1  0  0  0  0
 16 17  1  0  0  0  0
 17 18  1  0  0  0  0
 17 37  1  0  0  0  0
 17 38  1  0  0  0  0
 18 19  1  0  0  0  0
 18 39  1  0  0  0  0
 18 40  1  0  0  0  0
 19 20  1  0  0  0  0
 19 41  1  0  0  0  0
 19 42  1  0  0  0  0
 20 43  1  0  0  0  0
 20 44  1  0  0  0  0
 21 22  2  0  0  0  0
 22 45  1  0  0  0  0
M  END
> <s_m_source_file>
AV-unprocessed.smi

> <i_m_source_file_index>
2217

> <i_lp_mmshare_version>
43012

> <i_f3d_flags>
0

> <s_epik_input>
W0NIM11jMVtjSF1bY0hdYyhuW2NIXTEpW05IXUMoPU8pW05IXVtDQEBIXTJbQ0BASF0oW0NIMl1bQ0gyXU8zKVtDQEhdM0MyNFtDSDJdW0NIMl1bQ0gyXVtDSDJdNA==

> <s_epik_cmdline>
J2VwaWtfcHl0aG9uJywgJy1waCcsICc3LjAnLCAnLXRuJywgJzgnLCAnLW1hJywgJzIwMCcsICctbWV0YWxfYmluZGluZycsICctaW1hZScsICc8aW5maWxlLm1hZT4nLCAnLW9tYWUnLCAnPG91dGZpbGUubWFlPic=

> <r_lp_tautomer_probability>
1

> <r_epik_Ionization_Penalty>
6.14796e-05

> <r_epik_Ionization_Penalty_Charging>
0

> <r_epik_Ionization_Penalty_Neutral>
6.14796e-05

> <r_epik_State_Penalty>
-0

> <r_epik_Charging_Adjusted_Penalty>
0

> <i_epik_Tot_Q>
0

> <i_epik_Tot_abs_Q>
0

> <r_epik_Metal_State_Penalty>
-0

> <b_epik_Metal_Only>
0

> <s_lp_Force_Field>
OPLS_2005

> <r_lp_Energy>
79.3106

> <b_lp_Chiralities_Consistent>
1

> <s_lp_Variant>
AV-unprocessed.smi:2217-8

> <Gold.Version>
5.8.1

> <Gold.Id.Protein>
6NUR|6NUR_protein|mol2

> <Gold.PLP.Fitness>
37.4727

> <Gold.PLP.PLP>
-31.8362

> <Gold.PLP.part.hbond>
-2.9303

> <Gold.PLP.part.metal>
0.0000

> <Gold.PLP.part.buried>
1.2841

> <Gold.PLP.part.nonpolar>
-31.7860

> <Gold.PLP.part.repulsive>
1.7844

> <Gold.PLP.ligand.clash>
0.0000

> <Gold.PLP.ligand.torsion>
0.3108

> <Gold.PLP.Chemscore.Hbond>
0.9920

> <Gold.PLP.Chemscore.CHOScore>
1.0000

> <Gold.PLP.Chemscore.Metal>
0.0000

> <Gold.Chemscore.Hbonds>
donor molecule, donor type, donor heavy atom, donor atom, acceptor molecule, acceptor atom, score
      P1  H  7989  7998       L1    14  0.93
      L1  C    22    45       P1 10186  1.00

> <Gold.PLP.Chemscore.Internal.Correction>
0.2821

> <Gold.Rescore>
     Score         DG    S(hbond)    S(metal)    S(lipo)     H(rot)  DE(clash)    DE(int)     intcor
     11.84     -15.27       0.68        0.00      86.19       1.00       1.67       1.76       ----

> <Gold.Chemscore.Fitness>
11.8397

> <Gold.Chemscore.DG>
-15.2684

> <Gold.Chemscore.ZeroCoef>
-5.4800

> <Gold.Chemscore.Hbond>
0.6780

> <Gold.Chemscore.Metal>
0.0000

> <Gold.Chemscore.Lipo>
86.1860

> <Gold.Chemscore.Internal_Hbond>
0.0000

> <Gold.Chemscore.DEClash>
1.6714

> <Gold.Chemscore.DEInternal>
1.7572

> <Gold.Chemscore.Rot>
1.0000

> <Gold.Chemscore.Internal.Correction>
   9.000000E+99

> <Gold.Chemscore.Hbonds>
donor molecule, donor type, donor heavy atom, donor atom, acceptor molecule, acceptor atom, score
      P1  H  7989  7998       L1    14  0.19

> <Gold.Chemscore.Hbond.Weighted>
-2.2646

> <Gold.Chemscore.Metal.Weighted>
-0.0000

> <Gold.Chemscore.Lipo.Weighted>
-10.0838

> <Gold.Chemscore.Internal_Hbond.Weighted>
0.0000

> <Gold.Chemscore.DEClash.Weighted>
1.6714

> <Gold.Chemscore.DEInternal.Weighted>
1.7572

> <Gold.Chemscore.Rot.Weighted>
2.5600

> <Gold.Chemscore.Internal.Correction.Weighted>
   9.000000E+99

> <Gold.Protein.RotatedTorsions>
[ 6907 6896 6895 6894 ] final  176.57 input  -60.11 | X-H torsion
[ 7974 7965 7964 7962 ] final   58.94 input  175.53 | X-H torsion
[ 8008 7997 7996 7995 ] final   72.19 input   59.86 | X-H torsion
[ 10167 10162 10161 10158 ] final  118.13 input  -65.29 | X-H torsion
[ 10718 10713 10712 10709 ] final -168.24 input   66.30 | X-H torsion
[ 10763 10752 10751 10750 ] final  -35.71 input  -60.55 | X-H torsion
[ 11005 11000 10999 10996 ] final -165.81 input  -57.11 | X-H torsion

> <Gold.Protein.ActiveResidues>
 VAL166  LYS551  ARG553  GLY616  TRP617  ASP618  TYR619  PRO620  LYS621  CYS622 
 ASP623  PHE694  ASN695  SER759  ASP760  ASP761  ALA762  ILE779  LEU786  VAL792 
 PHE793  MET794  SER795  GLU796  ALA797  LYS798  CYS799  TRP800  GLU811  SER814 

> <Gold.Protein.RotatedAtoms>
  151.7180  133.3314  159.3307 H   0  0  0  0  0  0  0  0  0  0  0  0  # atno 6907 bound_to 6896
  150.7665  134.6473  159.6278 H   0  0  0  0  0  0  0  0  0  0  0  0  # atno 6908 bound_to 6896
  152.3670  134.6793  160.0240 H   0  0  0  0  0  0  0  0  0  0  0  0  # atno 6909 bound_to 6896
  145.9126  139.3666  143.0526 H   0  0  0  0  0  0  0  0  0  0  0  0  # atno 7974 bound_to 7965
  155.7651  140.3485  155.5218 H   0  0  0  0  0  0  0  0  0  0  0  0  # atno 8008 bound_to 7997
  155.8876  140.1012  157.1462 H   0  0  0  0  0  0  0  0  0  0  0  0  # atno 8009 bound_to 7997
  154.4030  140.1310  156.4262 H   0  0  0  0  0  0  0  0  0  0  0  0  # atno 8010 bound_to 7997
  139.6132  144.7086  151.2797 H   0  0  0  0  0  0  0  0  0  0  0  0  # atno 10167 bound_to 10162
  156.6940  130.9171  151.3072 H   0  0  0  0  0  0  0  0  0  0  0  0  # atno 10718 bound_to 10713
  153.8677  135.6834  153.4777 H   0  0  0  0  0  0  0  0  0  0  0  0  # atno 10763 bound_to 10752
  153.1305  135.4700  154.9339 H   0  0  0  0  0  0  0  0  0  0  0  0  # atno 10764 bound_to 10752
  154.7729  135.3244  154.8103 H   0  0  0  0  0  0  0  0  0  0  0  0  # atno 10765 bound_to 10752
  140.5715  134.5233  157.5162 H   0  0  0  0  0  0  0  0  0  0  0  0  # atno 11005 bound_to 11000
  145.8652  140.9452  143.0679 LP  0  0  0  0  0  0  0  0  0  0  0  0  # atno 17320 bound_to 7965
  144.6745  140.0582  143.7477 LP  0  0  0  0  0  0  0  0  0  0  0  0  # atno 17321 bound_to 7965
  140.7333  143.6797  150.8011 LP  0  0  0  0  0  0  0  0  0  0  0  0  # atno 17342 bound_to 10162
  140.0396  143.5360  152.2724 LP  0  0  0  0  0  0  0  0  0  0  0  0  # atno 17343 bound_to 10162
  157.6998  130.9321  150.0751 LP  0  0  0  0  0  0  0  0  0  0  0  0  # atno 17370 bound_to 10713
  156.1776  130.3649  149.9078 LP  0  0  0  0  0  0  0  0  0  0  0  0  # atno 17371 bound_to 10713
  139.9359  134.7875  156.0803 LP  0  0  0  0  0  0  0  0  0  0  0  0  # atno 17394 bound_to 11000
  141.1053  133.6662  156.2849 LP  0  0  0  0  0  0  0  0  0  0  0  0  # atno 17395 bound_to 11000

$$$$
