AV-unprocessed.smi:3241|AV-procd|sdf|12385|dock10
  -GOLD-   2272018253D 1   1.00000     0.00000
 Structure written by MMmdl.
 44 45  0  0  0  0  0  0  0  0  2 V2000
  151.3336  144.9018  159.3182 C   0  0  0  0  0  0  0  0  0  0  0  0
  151.7135  143.6883  160.1826 C   0  0  2  0  0  0  0  0  0  0  0  0
  152.2120  144.1447  161.5687 C   0  0  0  0  0  0  0  0  0  0  0  0
  152.6029  142.9528  162.4549 C   0  0  0  0  0  0  0  0  0  0  0  0
  153.6560  142.0756  161.7645 C   0  0  0  0  0  0  0  0  0  0  0  0
  153.1651  141.6056  160.3875 C   0  0  0  0  0  0  0  0  0  0  0  0
  152.7684  142.7966  159.4884 C   0  0  1  0  0  0  0  0  0  0  0  0
  152.2001  142.3153  158.2761 O   0  0  0  0  0  0  0  0  0  0  0  0
  151.1084  141.4232  158.4465 C   0  0  0  0  0  0  0  0  0  0  0  0
  150.6164  140.9885  157.0625 C   0  0  0  0  0  0  0  0  0  0  0  0
  151.5829  140.0775  156.4185 N   0  3  0  0  0  0  0  0  0  0  0  0
  151.2436  139.7301  155.0253 C   0  0  0  0  0  0  0  0  0  0  0  0
  149.8975  138.9951  154.9529 C   0  0  0  0  0  0  0  0  0  0  0  0
  148.8191  139.8846  154.5680 N   0  0  0  0  0  0  0  0  0  0  0  0
  148.7286  141.2499  154.7407 C   0  0  0  0  0  0  0  0  0  0  0  0
  147.5292  141.6459  154.2220 C   0  0  0  0  0  0  0  0  0  0  0  0
  146.9478  140.4353  153.7516 C   0  0  0  0  0  0  0  0  0  0  0  0
  147.7223  139.3826  153.9613 N   0  0  0  0  0  0  0  0  0  0  0  0
  152.2002  145.5328  159.1184 H   0  0  0  0  0  0  0  0  0  0  0  0
  150.5822  145.5164  159.8145 H   0  0  0  0  0  0  0  0  0  0  0  0
  150.9185  144.5934  158.3585 H   0  0  0  0  0  0  0  0  0  0  0  0
  150.8113  143.0931  160.3324 H   0  0  0  0  0  0  0  0  0  0  0  0
  153.0719  144.8060  161.4518 H   0  0  0  0  0  0  0  0  0  0  0  0
  151.4400  144.7304  162.0688 H   0  0  0  0  0  0  0  0  0  0  0  0
  152.9855  143.3102  163.4113 H   0  0  0  0  0  0  0  0  0  0  0  0
  151.7176  142.3563  162.6792 H   0  0  0  0  0  0  0  0  0  0  0  0
  154.5839  142.6375  161.6506 H   0  0  0  0  0  0  0  0  0  0  0  0
  153.8901  141.2138  162.3903 H   0  0  0  0  0  0  0  0  0  0  0  0
  153.9464  141.0098  159.9164 H   0  0  0  0  0  0  0  0  0  0  0  0
  152.3078  140.9435  160.5160 H   0  0  0  0  0  0  0  0  0  0  0  0
  153.6493  143.4058  159.2760 H   0  0  0  0  0  0  0  0  0  0  0  0
  151.4373  140.5462  159.0060 H   0  0  0  0  0  0  0  0  0  0  0  0
  150.2972  141.8857  159.0090 H   0  0  0  0  0  0  0  0  0  0  0  0
  149.6439  140.5016  157.1463 H   0  0  0  0  0  0  0  0  0  0  0  0
  150.4837  141.8660  156.4285 H   0  0  0  0  0  0  0  0  0  0  0  0
  152.4943  140.5126  156.4303 H   0  0  0  0  0  0  0  0  0  0  0  0
  151.2018  140.6417  154.4275 H   0  0  0  0  0  0  0  0  0  0  0  0
  152.0371  139.1071  154.6101 H   0  0  0  0  0  0  0  0  0  0  0  0
  149.9448  138.1762  154.2335 H   0  0  0  0  0  0  0  0  0  0  0  0
  149.6536  138.5538  155.9202 H   0  0  0  0  0  0  0  0  0  0  0  0
  149.5152  141.8203  155.2123 H   0  0  0  0  0  0  0  0  0  0  0  0
  147.1270  142.6475  154.1856 H   0  0  0  0  0  0  0  0  0  0  0  0
  145.9927  140.2915  153.2684 H   0  0  0  0  0  0  0  0  0  0  0  0
  151.6240  139.2259  156.9603 H   0  0  0  0  0  0  0  0  0  0  0  0
  1  2  1  0  0  0  0
  1 19  1  0  0  0  0
  1 20  1  0  0  0  0
  1 21  1  0  0  0  0
  2  7  1  0  0  0  0
  2  3  1  0  0  0  0
  2 22  1  0  0  0  0
  3  4  1  0  0  0  0
  3 23  1  0  0  0  0
  3 24  1  0  0  0  0
  4  5  1  0  0  0  0
  4 25  1  0  0  0  0
  4 26  1  0  0  0  0
  5  6  1  0  0  0  0
  5 27  1  0  0  0  0
  5 28  1  0  0  0  0
  6  7  1  0  0  0  0
  6 29  1  0  0  0  0
  6 30  1  0  0  0  0
  7  8  1  0  0  0  0
  7 31  1  0  0  0  0
  8  9  1  0  0  0  0
  9 10  1  0  0  0  0
  9 32  1  0  0  0  0
  9 33  1  0  0  0  0
 10 11  1  0  0  0  0
 10 34  1  0  0  0  0
 10 35  1  0  0  0  0
 11 12  1  0  0  0  0
 11 36  1  0  0  0  0
 11 44  1  0  0  0  0
 12 13  1  0  0  0  0
 12 37  1  0  0  0  0
 12 38  1  0  0  0  0
 13 14  1  0  0  0  0
 13 39  1  0  0  0  0
 13 40  1  0  0  0  0
 14 18  1  0  0  0  0
 14 15  1  0  0  0  0
 15 16  2  0  0  0  0
 15 41  1  0  0  0  0
 16 17  1  0  0  0  0
 16 42  1  0  0  0  0
 17 18  2  0  0  0  0
 17 43  1  0  0  0  0
M  CHG  1  11   1
M  END
> <s_m_source_file>
AV-unprocessed.smi

> <i_m_source_file_index>
3241

> <i_lp_mmshare_version>
43012

> <i_f3d_flags>
0

> <s_epik_input>
W0NIM11bQ0BASF0xW0NIMl1bQ0gyXVtDSDJdW0NIMl1bQ0BIXTFPW0NIMl1bQ0gyXVtOSF1bQ0gyXVtDSDJdbjJbY0hdW2NIXVtjSF1uMg==

> <s_epik_cmdline>
J2VwaWtfcHl0aG9uJywgJy1waCcsICc3LjAnLCAnLXRuJywgJzgnLCAnLW1hJywgJzIwMCcsICctbWV0YWxfYmluZGluZycsICctaW1hZScsICc8aW5maWxlLm1hZT4nLCAnLW9tYWUnLCAnPG91dGZpbGUubWFlPic=

> <r_lp_tautomer_probability>
1

> <r_epik_Ionization_Penalty>
0.00924946

> <r_epik_Ionization_Penalty_Charging>
0.00924645

> <r_epik_Ionization_Penalty_Neutral>
3.00629e-06

> <r_epik_State_Penalty>
0.0070118

> <r_epik_Charging_Adjusted_Penalty>
0.0162583

> <i_epik_Tot_Q>
1

> <i_epik_Tot_abs_Q>
1

> <r_epik_Metal_State_Penalty>
0.00702523

> <b_epik_Metal_Only>
0

> <s_lp_Force_Field>
OPLS_2005

> <r_lp_Energy>
13.7412

> <b_lp_Chiralities_Consistent>
1

> <s_lp_Variant>
AV-unprocessed.smi:3241-1

> <Gold.Version>
5.8.1

> <Gold.Id.Protein>
6NUR|6NUR_protein|mol2

> <Gold.PLP.Fitness>
48.1369

> <Gold.PLP.PLP>
-45.8168

> <Gold.PLP.part.hbond>
0.0000

> <Gold.PLP.part.metal>
0.0000

> <Gold.PLP.part.buried>
-1.4923

> <Gold.PLP.part.nonpolar>
-45.3559

> <Gold.PLP.part.repulsive>
0.3172

> <Gold.PLP.ligand.clash>
0.0000

> <Gold.PLP.ligand.torsion>
0.6960

> <Gold.PLP.Chemscore.Hbond>
0.0000

> <Gold.PLP.Chemscore.CHOScore>
1.2091

> <Gold.PLP.Chemscore.Metal>
0.0000

> <Gold.Chemscore.Hbonds>
donor molecule, donor type, donor heavy atom, donor atom, acceptor molecule, acceptor atom, score
      L1  C    17    43       P1 10175  1.00

> <Gold.PLP.Chemscore.Internal.Correction>
0.0848

> <Gold.Rescore>
     Score         DG    S(hbond)    S(metal)    S(lipo)     H(rot)  DE(clash)    DE(int)     intcor
     15.08     -15.80       0.00        0.00     129.53       1.89       0.17       0.55       ----

> <Gold.Chemscore.Fitness>
15.0829

> <Gold.Chemscore.DG>
-15.7955

> <Gold.Chemscore.ZeroCoef>
-5.4800

> <Gold.Chemscore.Hbond>
0.0000

> <Gold.Chemscore.Metal>
0.0000

> <Gold.Chemscore.Lipo>
129.5348

> <Gold.Chemscore.Internal_Hbond>
0.0000

> <Gold.Chemscore.DEClash>
0.1662

> <Gold.Chemscore.DEInternal>
0.5464

> <Gold.Chemscore.Rot>
1.8906

> <Gold.Chemscore.Internal.Correction>
   9.000000E+99

> <Gold.Chemscore.Hbond.Weighted>
-0.0000

> <Gold.Chemscore.Metal.Weighted>
-0.0000

> <Gold.Chemscore.Lipo.Weighted>
-15.1556

> <Gold.Chemscore.Internal_Hbond.Weighted>
0.0000

> <Gold.Chemscore.DEClash.Weighted>
0.1662

> <Gold.Chemscore.DEInternal.Weighted>
0.5464

> <Gold.Chemscore.Rot.Weighted>
4.8400

> <Gold.Chemscore.Internal.Correction.Weighted>
   9.000000E+99

> <Gold.Protein.RotatedTorsions>
[ 6907 6896 6895 6894 ] final -114.37 input  -60.11 | X-H torsion
[ 7974 7965 7964 7962 ] final   94.33 input  175.53 | X-H torsion
[ 8008 7997 7996 7995 ] final   39.78 input   59.86 | X-H torsion
[ 10167 10162 10161 10158 ] final   96.49 input  -65.29 | X-H torsion
[ 10718 10713 10712 10709 ] final  -56.61 input   66.30 | X-H torsion
[ 10763 10752 10751 10750 ] final -107.17 input  -60.55 | X-H torsion
[ 11005 11000 10999 10996 ] final  136.57 input  -57.11 | X-H torsion

> <Gold.Protein.ActiveResidues>
 VAL166  LYS551  ARG553  GLY616  TRP617  ASP618  TYR619  PRO620  LYS621  CYS622 
 ASP623  PHE694  ASN695  SER759  ASP760  ASP761  ALA762  ILE779  LEU786  VAL792 
 PHE793  MET794  SER795  GLU796  ALA797  LYS798  CYS799  TRP800  GLU811  SER814 

> <Gold.Protein.RotatedAtoms>
  150.7897  133.8810  159.3285 H   0  0  0  0  0  0  0  0  0  0  0  0  # atno 6907 bound_to 6896
  151.6651  135.0982  160.0196 H   0  0  0  0  0  0  0  0  0  0  0  0  # atno 6908 bound_to 6896
  152.3969  133.6721  159.6319 H   0  0  0  0  0  0  0  0  0  0  0  0  # atno 6909 bound_to 6896
  145.4671  139.2284  143.2956 H   0  0  0  0  0  0  0  0  0  0  0  0  # atno 7974 bound_to 7965
  155.2423  140.3346  155.4291 H   0  0  0  0  0  0  0  0  0  0  0  0  # atno 8008 bound_to 7997
  156.2251  140.1825  156.7428 H   0  0  0  0  0  0  0  0  0  0  0  0  # atno 8009 bound_to 7997
  154.5885  140.0642  156.9191 H   0  0  0  0  0  0  0  0  0  0  0  0  # atno 8010 bound_to 7997
  139.7890  144.6859  150.9919 H   0  0  0  0  0  0  0  0  0  0  0  0  # atno 10167 bound_to 10162
  156.1275  130.4161  150.0328 H   0  0  0  0  0  0  0  0  0  0  0  0  # atno 10718 bound_to 10713
  154.8058  135.4685  154.0390 H   0  0  0  0  0  0  0  0  0  0  0  0  # atno 10763 bound_to 10752
  153.1859  135.6848  153.8422 H   0  0  0  0  0  0  0  0  0  0  0  0  # atno 10764 bound_to 10752
  153.7957  135.3237  155.3361 H   0  0  0  0  0  0  0  0  0  0  0  0  # atno 10765 bound_to 10752
  140.0055  134.9461  157.0165 H   0  0  0  0  0  0  0  0  0  0  0  0  # atno 11005 bound_to 11000
  146.2418  140.5445  142.8931 LP  0  0  0  0  0  0  0  0  0  0  0  0  # atno 17320 bound_to 7965
  144.7968  140.6137  143.6505 LP  0  0  0  0  0  0  0  0  0  0  0  0  # atno 17321 bound_to 7965
  140.7820  143.4401  151.0564 LP  0  0  0  0  0  0  0  0  0  0  0  0  # atno 17342 bound_to 10162
  139.8079  143.7992  152.3169 LP  0  0  0  0  0  0  0  0  0  0  0  0  # atno 17343 bound_to 10162
  156.8250  130.9372  151.3639 LP  0  0  0  0  0  0  0  0  0  0  0  0  # atno 17370 bound_to 10713
  157.6455  130.8841  149.9531 LP  0  0  0  0  0  0  0  0  0  0  0  0  # atno 17371 bound_to 10713
  140.4649  134.1446  155.7196 LP  0  0  0  0  0  0  0  0  0  0  0  0  # atno 17394 bound_to 11000
  141.1674  133.8677  157.1675 LP  0  0  0  0  0  0  0  0  0  0  0  0  # atno 17395 bound_to 11000

$$$$
