AV-unprocessed.smi:849|AV-procd|sdf|3943|dock7
  -GOLD-   22720 1413D 1   1.00000     0.00000
 Structure written by MMmdl.
 36 38  0  0  0  0  0  0  0  0  1 V2000
  153.7490  139.0987  158.2853 O   0  0  0  0  0  0  0  0  0  0  0  0
  152.3986  139.2743  158.6581 C   0  0  0  0  0  0  0  0  0  0  0  0
  152.0631  140.7027  158.9817 C   0  0  0  0  0  0  0  0  0  0  0  0
  152.8078  141.4027  159.8394 N   0  0  0  0  0  0  0  0  0  0  0  0
  152.1965  142.6394  159.8416 C   0  0  0  0  0  0  0  0  0  0  0  0
  152.5167  143.8193  160.5507 C   0  0  0  0  0  0  0  0  0  0  0  0
  151.7410  144.9850  160.3843 C   0  0  0  0  0  0  0  0  0  0  0  0
  150.6378  144.9877  159.5067 C   0  0  0  0  0  0  0  0  0  0  0  0
  150.3024  143.8220  158.7913 C   0  0  0  0  0  0  0  0  0  0  0  0
  151.0770  142.6586  158.9638 C   0  0  0  0  0  0  0  0  0  0  0  0
  151.0170  141.3740  158.4275 N   0  0  0  0  0  0  0  0  0  0  0  0
  150.0279  140.9025  157.4606 C   0  0  0  0  0  0  0  0  0  0  0  0
  150.2914  141.3729  156.0101 C   0  0  2  0  0  0  0  0  0  0  0  0
  150.4842  142.7744  155.9861 O   0  0  0  0  0  0  0  0  0  0  0  0
  149.2248  140.8994  155.0220 C   0  0  0  0  0  0  0  0  0  0  0  0
  148.2381  141.8023  154.5599 C   0  0  0  0  0  0  0  0  0  0  0  0
  147.2452  141.3811  153.6558 C   0  0  0  0  0  0  0  0  0  0  0  0
  147.2249  140.0496  153.2042 C   0  0  0  0  0  0  0  0  0  0  0  0
  148.1960  139.1404  153.6618 C   0  0  0  0  0  0  0  0  0  0  0  0
  149.1927  139.5565  154.5673 C   0  0  0  0  0  0  0  0  0  0  0  0
  150.3468  138.3897  155.1117 Cl  0  0  0  0  0  0  0  0  0  0  0  0
  154.2447  138.8640  159.0542 H   0  0  0  0  0  0  0  0  0  0  0  0
  151.7636  138.9462  157.8353 H   0  0  0  0  0  0  0  0  0  0  0  0
  152.1964  138.6107  159.4944 H   0  0  0  0  0  0  0  0  0  0  0  0
  153.3620  143.8272  161.2228 H   0  0  0  0  0  0  0  0  0  0  0  0
  151.9947  145.8816  160.9305 H   0  0  0  0  0  0  0  0  0  0  0  0
  150.0485  145.8846  159.3833 H   0  0  0  0  0  0  0  0  0  0  0  0
  149.4563  143.8214  158.1203 H   0  0  0  0  0  0  0  0  0  0  0  0
  150.0309  139.8121  157.4885 H   0  0  0  0  0  0  0  0  0  0  0  0
  149.0290  141.1864  157.7871 H   0  0  0  0  0  0  0  0  0  0  0  0
  151.2495  140.9614  155.6935 H   0  0  0  0  0  0  0  0  0  0  0  0
  149.7127  143.1766  155.6171 H   0  0  0  0  0  0  0  0  0  0  0  0
  148.2274  142.8261  154.9043 H   0  0  0  0  0  0  0  0  0  0  0  0
  146.4959  142.0794  153.3132 H   0  0  0  0  0  0  0  0  0  0  0  0
  146.4622  139.7245  152.5120 H   0  0  0  0  0  0  0  0  0  0  0  0
  148.1731  138.1166  153.3182 H   0  0  0  0  0  0  0  0  0  0  0  0
  1  2  1  0  0  0  0
  1 22  1  0  0  0  0
  2  3  1  0  0  0  0
  2 23  1  0  0  0  0
  2 24  1  0  0  0  0
  3 11  1  0  0  0  0
  3  4  2  0  0  0  0
  4  5  1  0  0  0  0
  5 10  2  0  0  0  0
  5  6  1  0  0  0  0
  6  7  2  0  0  0  0
  6 25  1  0  0  0  0
  7  8  1  0  0  0  0
  7 26  1  0  0  0  0
  8  9  2  0  0  0  0
  8 27  1  0  0  0  0
  9 10  1  0  0  0  0
  9 28  1  0  0  0  0
 10 11  1  0  0  0  0
 11 12  1  0  0  0  0
 12 13  1  0  0  0  0
 12 29  1  0  0  0  0
 12 30  1  0  0  0  0
 13 14  1  0  0  0  0
 13 15  1  0  0  0  0
 13 31  1  0  0  0  0
 14 32  1  0  0  0  0
 15 20  1  0  0  0  0
 15 16  2  0  0  0  0
 16 17  1  0  0  0  0
 16 33  1  0  0  0  0
 17 18  2  0  0  0  0
 17 34  1  0  0  0  0
 18 19  1  0  0  0  0
 18 35  1  0  0  0  0
 19 20  2  0  0  0  0
 19 36  1  0  0  0  0
 20 21  1  0  0  0  0
M  END
> <s_m_source_file>
AV-unprocessed.smi

> <i_m_source_file_index>
849

> <i_lp_mmshare_version>
43012

> <i_f3d_flags>
0

> <s_epik_input>
W2NIXTFbY0hdW2NIXVtjSF1jKGMxMiluKGMobjIpW0NIMl1bT0hdKVtDSDJdW0NASF0oW09IXSljM1tjSF1bY0hdW2NIXVtjSF1jM0Ns

> <s_epik_cmdline>
J2VwaWtfcHl0aG9uJywgJy1waCcsICc3LjAnLCAnLXRuJywgJzgnLCAnLW1hJywgJzIwMCcsICctbWV0YWxfYmluZGluZycsICctaW1hZScsICc8aW5maWxlLm1hZT4nLCAnLW9tYWUnLCAnPG91dGZpbGUubWFlPic=

> <r_epik_Ionization_Penalty>
0.0634742

> <r_epik_Ionization_Penalty_Charging>
0

> <r_epik_Ionization_Penalty_Neutral>
0.0634742

> <r_epik_State_Penalty>
0.0551572

> <r_epik_Charging_Adjusted_Penalty>
0.0551572

> <i_epik_Tot_Q>
0

> <i_epik_Tot_abs_Q>
0

> <r_epik_Metal_State_Penalty>
5.78034e-05

> <b_epik_Metal_Only>
0

> <s_lp_Force_Field>
OPLS_2005

> <r_lp_Energy>
13.6996

> <b_lp_Chiralities_Consistent>
1

> <s_lp_Variant>
AV-unprocessed.smi:849-1

> <Gold.Version>
5.8.1

> <Gold.Id.Protein>
6NUR|6NUR_protein|mol2

> <Gold.PLP.Fitness>
48.7807

> <Gold.PLP.PLP>
-45.2065

> <Gold.PLP.part.hbond>
-1.7168

> <Gold.PLP.part.metal>
0.0000

> <Gold.PLP.part.buried>
-4.2046

> <Gold.PLP.part.nonpolar>
-39.6205

> <Gold.PLP.part.repulsive>
0.0000

> <Gold.PLP.ligand.clash>
0.0035

> <Gold.PLP.ligand.torsion>
0.8535

> <Gold.PLP.Chemscore.Hbond>
1.7360

> <Gold.PLP.Chemscore.CHOScore>
0.0000

> <Gold.PLP.Chemscore.Metal>
0.0000

> <Gold.Chemscore.Hbonds>
donor molecule, donor type, donor heavy atom, donor atom, acceptor molecule, acceptor atom, score
      L1  H    14    32       P1  8028  0.77
      P1  H  7997  8010       L1     1  1.00

> <Gold.PLP.Chemscore.Internal.Correction>
0.0766

> <Gold.Rescore>
     Score         DG    S(hbond)    S(metal)    S(lipo)     H(rot)  DE(clash)    DE(int)     intcor
     18.07     -19.05       1.79        0.00     122.31       2.62       0.08       0.90       ----

> <Gold.Chemscore.Fitness>
18.0670

> <Gold.Chemscore.DG>
-19.0487

> <Gold.Chemscore.ZeroCoef>
-5.4800

> <Gold.Chemscore.Hbond>
1.7887

> <Gold.Chemscore.Metal>
0.0000

> <Gold.Chemscore.Lipo>
122.3083

> <Gold.Chemscore.Internal_Hbond>
0.0000

> <Gold.Chemscore.DEClash>
0.0772

> <Gold.Chemscore.DEInternal>
0.9046

> <Gold.Chemscore.Rot>
2.6232

> <Gold.Chemscore.Internal.Correction>
   9.000000E+99

> <Gold.Chemscore.Hbonds>
donor molecule, donor type, donor heavy atom, donor atom, acceptor molecule, acceptor atom, score
      L1  H    14    32       P1  8028  0.78
      P1  H  7997  8010       L1     1  0.93

> <Gold.Chemscore.Hbond.Weighted>
-5.9741

> <Gold.Chemscore.Metal.Weighted>
-0.0000

> <Gold.Chemscore.Lipo.Weighted>
-14.3101

> <Gold.Chemscore.Internal_Hbond.Weighted>
0.0000

> <Gold.Chemscore.DEClash.Weighted>
0.0772

> <Gold.Chemscore.DEInternal.Weighted>
0.9046

> <Gold.Chemscore.Rot.Weighted>
6.7154

> <Gold.Chemscore.Internal.Correction.Weighted>
   9.000000E+99

> <Gold.Protein.RotatedTorsions>
[ 6907 6896 6895 6894 ] final  -11.82 input  -60.11 | X-H torsion
[ 7974 7965 7964 7962 ] final   -5.65 input  175.53 | X-H torsion
[ 8008 7997 7996 7995 ] final   33.33 input   59.86 | X-H torsion
[ 10167 10162 10161 10158 ] final   87.41 input  -65.29 | X-H torsion
[ 10718 10713 10712 10709 ] final  165.82 input   66.30 | X-H torsion
[ 10763 10752 10751 10750 ] final  -80.58 input  -60.55 | X-H torsion
[ 11005 11000 10999 10996 ] final   80.07 input  -57.11 | X-H torsion

> <Gold.Protein.ActiveResidues>
 VAL166  LYS551  ARG553  GLY616  TRP617  ASP618  TYR619  PRO620  LYS621  CYS622 
 ASP623  PHE694  ASN695  SER759  ASP760  ASP761  ALA762  ILE779  LEU786  VAL792 
 PHE793  MET794  SER795  GLU796  ALA797  LYS798  CYS799  TRP800  GLU811  SER814 

> <Gold.Protein.RotatedAtoms>
  151.3802  135.0938  159.9493 H   0  0  0  0  0  0  0  0  0  0  0  0  # atno 6907 bound_to 6896
  152.5110  133.9079  159.7484 H   0  0  0  0  0  0  0  0  0  0  0  0  # atno 6908 bound_to 6896
  150.9511  133.6493  159.2800 H   0  0  0  0  0  0  0  0  0  0  0  0  # atno 6909 bound_to 6896
  146.2348  140.2053  142.8334 H   0  0  0  0  0  0  0  0  0  0  0  0  # atno 7974 bound_to 7965
  155.1369  140.3262  155.4461 H   0  0  0  0  0  0  0  0  0  0  0  0  # atno 8008 bound_to 7997
  156.2617  140.2000  156.6435 H   0  0  0  0  0  0  0  0  0  0  0  0  # atno 8009 bound_to 7997
  154.6571  140.0551  157.0008 H   0  0  0  0  0  0  0  0  0  0  0  0  # atno 8010 bound_to 7997
  139.8776  144.6458  150.8879 H   0  0  0  0  0  0  0  0  0  0  0  0  # atno 10167 bound_to 10162
  157.0747  131.0376  151.2598 H   0  0  0  0  0  0  0  0  0  0  0  0  # atno 10718 bound_to 10713
  154.5529  135.5656  153.6938 H   0  0  0  0  0  0  0  0  0  0  0  0  # atno 10763 bound_to 10752
  152.9995  135.6255  154.2349 H   0  0  0  0  0  0  0  0  0  0  0  0  # atno 10764 bound_to 10752
  154.2285  135.2867  155.2878 H   0  0  0  0  0  0  0  0  0  0  0  0  # atno 10765 bound_to 10752
  139.9148  134.7892  156.1861 H   0  0  0  0  0  0  0  0  0  0  0  0  # atno 11005 bound_to 11000
  144.9750  140.8405  143.5432 LP  0  0  0  0  0  0  0  0  0  0  0  0  # atno 17320 bound_to 7965
  145.2039  139.2238  143.5178 LP  0  0  0  0  0  0  0  0  0  0  0  0  # atno 17321 bound_to 7965
  140.7750  143.3612  151.1825 LP  0  0  0  0  0  0  0  0  0  0  0  0  # atno 17342 bound_to 10162
  139.7226  143.9200  152.2991 LP  0  0  0  0  0  0  0  0  0  0  0  0  # atno 17343 bound_to 10162
  157.4849  130.7787  149.7450 LP  0  0  0  0  0  0  0  0  0  0  0  0  # atno 17370 bound_to 10713
  155.9940  130.3920  150.2875 LP  0  0  0  0  0  0  0  0  0  0  0  0  # atno 17371 bound_to 10713
  141.0612  133.6841  156.1957 LP  0  0  0  0  0  0  0  0  0  0  0  0  # atno 17394 bound_to 11000
  140.6657  134.4920  157.5585 LP  0  0  0  0  0  0  0  0  0  0  0  0  # atno 17395 bound_to 11000

$$$$
