AV-unprocessed.smi:62|AV-procd|sdf|603|dock5
  -GOLD-   2262016493D 1   1.00000     0.00000
 Structure written by MMmdl.
 31 32  0  0  0  0  0  0  0  0  3 V2000
  151.8796  145.3161  158.9314 C   0  0  0  0  0  0  0  0  0  0  0  0
  151.9994  143.8767  158.8429 N   0  0  0  0  0  0  0  0  0  0  0  0
  151.1995  142.9855  158.1652 C   0  0  0  0  0  0  0  0  0  0  0  0
  151.7007  141.7294  158.3687 C   0  0  0  0  0  0  0  0  0  0  0  0
  151.1364  140.4442  157.8101 C   0  0  0  0  0  0  0  0  0  0  0  0
  151.2371  140.4038  156.3323 N   0  3  1  0  0  0  0  0  0  0  0  0
  151.1627  139.0548  155.7289 C   0  0  0  0  0  0  0  0  0  0  0  0
  150.6302  139.2791  154.3172 C   0  0  0  0  0  0  0  0  0  0  0  0
  149.6321  140.4139  154.5240 C   0  0  2  0  0  0  0  0  0  0  0  0
  149.4043  141.1428  153.3363 O   0  0  0  0  0  0  0  0  0  0  0  0
  150.2682  141.2738  155.6250 C   0  0  0  0  0  0  0  0  0  0  0  0
  152.8398  141.9670  159.2110 C   0  0  0  0  0  0  0  0  0  0  0  0
  153.7156  140.8518  159.7180 C   0  0  0  0  0  0  0  0  0  0  0  0
  154.4189  141.0235  160.7382 O   0  0  0  0  0  0  0  0  0  0  0  0
  153.7176  139.7749  159.0830 O   0  5  0  0  0  0  0  0  0  0  0  0
  153.0056  143.2541  159.4840 N   0  0  0  0  0  0  0  0  0  0  0  0
  151.0058  145.6542  158.3736 H   0  0  0  0  0  0  0  0  0  0  0  0
  152.7706  145.7867  158.5143 H   0  0  0  0  0  0  0  0  0  0  0  0
  151.7717  145.6143  159.9747 H   0  0  0  0  0  0  0  0  0  0  0  0
  150.3433  143.3151  157.5951 H   0  0  0  0  0  0  0  0  0  0  0  0
  151.6569  139.5776  158.2206 H   0  0  0  0  0  0  0  0  0  0  0  0
  150.0918  140.3234  158.0991 H   0  0  0  0  0  0  0  0  0  0  0  0
  152.1332  138.5573  155.7357 H   0  0  0  0  0  0  0  0  0  0  0  0
  150.4610  138.4353  156.2900 H   0  0  0  0  0  0  0  0  0  0  0  0
  151.4448  139.5995  153.6653 H   0  0  0  0  0  0  0  0  0  0  0  0
  150.1788  138.3862  153.8837 H   0  0  0  0  0  0  0  0  0  0  0  0
  148.6872  140.0033  154.8829 H   0  0  0  0  0  0  0  0  0  0  0  0
  149.1580  140.5385  152.6524 H   0  0  0  0  0  0  0  0  0  0  0  0
  149.5070  141.6847  156.2900 H   0  0  0  0  0  0  0  0  0  0  0  0
  150.8243  142.1129  155.2044 H   0  0  0  0  0  0  0  0  0  0  0  0
  152.1500  140.7715  156.0999 H   0  0  0  0  0  0  0  0  0  0  0  0
  1  2  1  0  0  0  0
  1 17  1  0  0  0  0
  1 18  1  0  0  0  0
  1 19  1  0  0  0  0
  2 16  1  0  0  0  0
  2  3  1  0  0  0  0
  3  4  2  0  0  0  0
  3 20  1  0  0  0  0
  4  5  1  0  0  0  0
  4 12  1  0  0  0  0
  5  6  1  0  0  0  0
  5 21  1  0  0  0  0
  5 22  1  0  0  0  0
  6 11  1  0  0  0  0
  6  7  1  0  0  0  0
  6 31  1  0  0  0  0
  7  8  1  0  0  0  0
  7 23  1  0  0  0  0
  7 24  1  0  0  0  0
  8  9  1  0  0  0  0
  8 25  1  0  0  0  0
  8 26  1  0  0  0  0
  9 10  1  0  0  0  0
  9 11  1  0  0  0  0
  9 27  1  0  0  0  0
 10 28  1  0  0  0  0
 11 29  1  0  0  0  0
 11 30  1  0  0  0  0
 12 13  1  0  0  0  0
 12 16  2  0  0  0  0
 13 14  2  0  0  0  0
 13 15  1  0  0  0  0
M  CHG  1   6   1
M  CHG  1  15  -1
M  END
> <s_m_source_file>
AV-unprocessed.smi

> <i_m_source_file_index>
62

> <i_lp_mmshare_version>
43012

> <i_f3d_flags>
0

> <s_epik_input>
W0NIM11uMVtjSF1jKGMobjEpQyg9TylbT0hdKVtDSDJdTjJbQ0gyXVtDSDJdW0NAQEhdKFtPSF0pW0NIMl0y

> <s_epik_cmdline>
J2VwaWtfcHl0aG9uJywgJy1waCcsICc3LjAnLCAnLXRuJywgJzgnLCAnLW1hJywgJzIwMCcsICctbWV0YWxfYmluZGluZycsICctaW1hZScsICc8aW5maWxlLm1hZT4nLCAnLW9tYWUnLCAnPG91dGZpbGUubWFlPic=

> <r_epik_Ionization_Penalty>
0.0522993

> <r_epik_Ionization_Penalty_Charging>
0.0522915

> <r_epik_Ionization_Penalty_Neutral>
7.84975e-06

> <r_epik_State_Penalty>
0.0448084

> <r_epik_Charging_Adjusted_Penalty>
0.0970998

> <i_epik_Tot_Q>
0

> <i_epik_Tot_abs_Q>
2

> <r_epik_Metal_State_Penalty>
0.0448097

> <b_epik_Metal_Only>
0

> <s_lp_Force_Field>
OPLS_2005

> <r_lp_Energy>
17.4079

> <b_lp_Chiralities_Consistent>
1

> <s_lp_Variant>
AV-unprocessed.smi:62-3

> <Gold.Version>
5.8.1

> <Gold.Id.Protein>
6NUR|6NUR_protein|mol2

> <Gold.PLP.Fitness>
47.6141

> <Gold.PLP.PLP>
-37.1658

> <Gold.PLP.part.hbond>
-4.4229

> <Gold.PLP.part.metal>
0.0000

> <Gold.PLP.part.buried>
-4.0197

> <Gold.PLP.part.nonpolar>
-28.1053

> <Gold.PLP.part.repulsive>
0.1258

> <Gold.PLP.ligand.clash>
0.0000

> <Gold.PLP.ligand.torsion>
0.3810

> <Gold.PLP.Chemscore.Hbond>
3.6700

> <Gold.PLP.Chemscore.CHOScore>
0.0622

> <Gold.PLP.Chemscore.Metal>
0.0000

> <Gold.Chemscore.Hbonds>
donor molecule, donor type, donor heavy atom, donor atom, acceptor molecule, acceptor atom, score
      L1  H    10    28       P1  7957  0.82
      P1  H  7997  8008       L1    15  1.17
      P1  H  8011  8017       L1    10  0.80
      L1  C     3    20       P1  8028  0.36

> <Gold.PLP.Chemscore.Internal.Correction>
0.0138

> <Gold.Rescore>
     Score         DG    S(hbond)    S(metal)    S(lipo)     H(rot)  DE(clash)    DE(int)     intcor
     12.43     -15.60       1.80        0.00      74.68       1.81       1.51       1.65       ----

> <Gold.Chemscore.Fitness>
12.4338

> <Gold.Chemscore.DG>
-15.5958

> <Gold.Chemscore.ZeroCoef>
-5.4800

> <Gold.Chemscore.Hbond>
1.7991

> <Gold.Chemscore.Metal>
0.0000

> <Gold.Chemscore.Lipo>
74.6845

> <Gold.Chemscore.Internal_Hbond>
0.0000

> <Gold.Chemscore.DEClash>
1.5105

> <Gold.Chemscore.DEInternal>
1.6515

> <Gold.Chemscore.Rot>
1.8091

> <Gold.Chemscore.Internal.Correction>
   9.000000E+99

> <Gold.Chemscore.Hbonds>
donor molecule, donor type, donor heavy atom, donor atom, acceptor molecule, acceptor atom, score
      L1  H    10    28       P1  7957  0.81
      P1  H  7997  8008       L1    15  0.37
      P1  H  8011  8017       L1    10  0.12

> <Gold.Chemscore.Hbond.Weighted>
-6.0091

> <Gold.Chemscore.Metal.Weighted>
-0.0000

> <Gold.Chemscore.Lipo.Weighted>
-8.7381

> <Gold.Chemscore.Internal_Hbond.Weighted>
0.0000

> <Gold.Chemscore.DEClash.Weighted>
1.5105

> <Gold.Chemscore.DEInternal.Weighted>
1.6515

> <Gold.Chemscore.Rot.Weighted>
4.6314

> <Gold.Chemscore.Internal.Correction.Weighted>
   9.000000E+99

> <Gold.Protein.RotatedTorsions>
[ 6907 6896 6895 6894 ] final -113.54 input  -60.11 | X-H torsion
[ 7974 7965 7964 7962 ] final  -76.71 input  175.53 | X-H torsion
[ 8008 7997 7996 7995 ] final -112.12 input   59.86 | X-H torsion
[ 10167 10162 10161 10158 ] final  -18.73 input  -65.29 | X-H torsion
[ 10718 10713 10712 10709 ] final  109.85 input   66.30 | X-H torsion
[ 10763 10752 10751 10750 ] final -138.45 input  -60.55 | X-H torsion
[ 11005 11000 10999 10996 ] final   58.58 input  -57.11 | X-H torsion

> <Gold.Protein.ActiveResidues>
 VAL166  LYS551  ARG553  GLY616  TRP617  ASP618  TYR619  PRO620  LYS621  CYS622 
 ASP623  PHE694  ASN695  SER759  ASP760  ASP761  ALA762  ILE779  LEU786  VAL792 
 PHE793  MET794  SER795  GLU796  ALA797  LYS798  CYS799  TRP800  GLU811  SER814 

> <Gold.Protein.RotatedAtoms>
  150.7836  133.8930  159.3318 H   0  0  0  0  0  0  0  0  0  0  0  0  # atno 6907 bound_to 6896
  151.6786  135.0963  160.0221 H   0  0  0  0  0  0  0  0  0  0  0  0  # atno 6908 bound_to 6896
  152.3895  133.6619  159.6261 H   0  0  0  0  0  0  0  0  0  0  0  0  # atno 6909 bound_to 6896
  145.6093  140.9390  143.1198 H   0  0  0  0  0  0  0  0  0  0  0  0  # atno 7974 bound_to 7965
  155.0002  140.0394  157.2357 H   0  0  0  0  0  0  0  0  0  0  0  0  # atno 8008 bound_to 7997
  154.7550  140.2774  155.6238 H   0  0  0  0  0  0  0  0  0  0  0  0  # atno 8009 bound_to 7997
  156.2893  140.2639  156.2314 H   0  0  0  0  0  0  0  0  0  0  0  0  # atno 8010 bound_to 7997
  140.7261  143.4888  151.0019 H   0  0  0  0  0  0  0  0  0  0  0  0  # atno 10167 bound_to 10162
  157.6522  131.0921  150.6515 H   0  0  0  0  0  0  0  0  0  0  0  0  # atno 10718 bound_to 10713
  154.8636  135.3612  154.5386 H   0  0  0  0  0  0  0  0  0  0  0  0  # atno 10763 bound_to 10752
  153.6009  135.7012  153.5390 H   0  0  0  0  0  0  0  0  0  0  0  0  # atno 10764 bound_to 10752
  153.3292  135.4129  155.1442 H   0  0  0  0  0  0  0  0  0  0  0  0  # atno 10765 bound_to 10752
  140.0367  134.5933  155.9435 H   0  0  0  0  0  0  0  0  0  0  0  0  # atno 11005 bound_to 11000
  144.7276  139.7825  143.7359 LP  0  0  0  0  0  0  0  0  0  0  0  0  # atno 17320 bound_to 7965
  146.1516  139.4601  143.0045 LP  0  0  0  0  0  0  0  0  0  0  0  0  # atno 17321 bound_to 7965
  139.8591  143.7338  152.3174 LP  0  0  0  0  0  0  0  0  0  0  0  0  # atno 17342 bound_to 10162
  139.7547  144.7524  151.0454 LP  0  0  0  0  0  0  0  0  0  0  0  0  # atno 17343 bound_to 10162
  156.6825  130.4571  149.5623 LP  0  0  0  0  0  0  0  0  0  0  0  0  # atno 17370 bound_to 10713
  156.1919  130.6565  151.1071 LP  0  0  0  0  0  0  0  0  0  0  0  0  # atno 17371 bound_to 10713
  141.1861  133.6556  156.5225 LP  0  0  0  0  0  0  0  0  0  0  0  0  # atno 17394 bound_to 11000
  140.4136  134.7250  157.4850 LP  0  0  0  0  0  0  0  0  0  0  0  0  # atno 17395 bound_to 11000

$$$$
